ligand
 OpenBabel11021811463D
libRbt.so/2013.1/901 2013/11/27
 26 27  0  0  0  0  0  0  0  0999 V2000
  -13.5041  -37.7450    2.1241 C   0  0  0  0  0  0  0  0  0  0  0  0
   -8.0349  -42.1309    4.2625 C   0  0  0  0  0  0  0  0  0  0  0  0
   -4.3769  -42.3047    8.7330 P   0  0  1  0  0  0  0  0  0  0  0  0
   -3.1290  -44.3421   10.0875 P   0  0  2  0  0  0  0  0  0  0  0  0
   -8.0457  -39.4155    2.7202 C   0  0  0  0  0  0  0  0  0  0  0  0
  -10.2432  -38.6852    3.7057 C   0  0  0  0  0  0  0  0  0  0  0  0
   -9.4842  -38.9897    2.5716 C   0  0  0  0  0  0  0  0  0  0  0  0
  -10.0384  -38.8657    1.2947 C   0  0  0  0  0  0  0  0  0  0  0  0
   -9.3135  -39.1385    0.2302 N   0  0  0  0  0  0  0  0  0  0  0  0
  -11.3513  -38.4863    1.1562 N   0  0  0  0  0  0  0  0  0  0  0  0
  -12.0885  -38.1737    2.2810 C   0  0  0  0  0  0  0  0  0  0  0  0
  -11.5506  -38.2839    3.5495 N   0  0  0  0  0  0  0  0  0  0  0  0
   -5.0830  -41.0638    9.1868 O   0  5  0  0  0  0  0  0  0  0  0  0
   -3.9731  -45.2883   10.8452 O   0  0  0  0  0  0  0  0  0  0  0  0
   -7.1337  -38.9856    6.4101 S   0  0  0  0  0  0  0  0  0  0  0  0
   -7.4141  -38.5298    4.9215 C   0  0  0  0  0  0  0  0  0  0  0  0
   -3.2181  -42.0958    7.8235 O   0  0  0  0  0  0  0  0  0  0  0  0
   -1.8140  -44.1339   10.7229 O   0  5  0  0  0  0  0  0  0  0  0  0
   -7.7538  -39.5815    4.1172 N   0  0  0  0  0  0  0  0  0  0  0  0
   -4.0156  -43.0280   10.0937 O   0  0  0  0  0  0  0  0  0  0  0  0
   -2.7800  -44.7091    8.6816 O   0  0  0  0  0  0  0  0  0  0  0  0
   -7.7345  -40.7651    4.8000 C   0  0  1  0  0  0  0  0  0  0  0  0
   -7.3955  -40.5361    6.1099 C   0  0  2  0  0  0  0  0  0  0  0  0
   -7.2467  -41.4842    7.2738 C   0  0  0  0  0  0  0  0  0  0  0  0
   -6.2326  -42.5962    6.9828 C   0  0  0  0  0  0  0  0  0  0  0  0
   -5.5256  -43.1600    8.0724 O   0  0  0  0  0  0  0  0  0  0  0  0
  1 11  1  0  0  0  0
  3 13  1  1  0  0  0
  3 17  2  0  0  0  0
  3 20  1  0  0  0  0
  3 26  1  0  0  0  0
  4 14  1  1  0  0  0
  4 18  1  0  0  0  0
  4 21  2  0  0  0  0
  4 20  1  0  0  0  0
  5 19  1  0  0  0  0
  5  7  1  0  0  0  0
  6  7  2  0  0  0  0
  6 12  1  0  0  0  0
  7  8  1  0  0  0  0
  8  9  1  0  0  0  0
  8 10  2  0  0  0  0
 10 11  1  0  0  0  0
 11 12  2  0  0  0  0
 15 23  1  0  0  0  0
 15 16  1  0  0  0  0
 16 19  1  0  0  0  0
 19 22  1  0  0  0  0
 22  2  1  1  0  0  0
 22 23  1  0  0  0  0
 23 24  1  1  0  0  0
 24 25  1  0  0  0  0
 25 26  1  0  0  0  0
M  CHG  2  13  -1  18  -1
M  END
>  <CHROM.1>
-174.38482341,-83.24926594,6.84719832,-126.09651471,-123.89057431,151.22301724
-74.06707220,59.05025685,-6.79677471,-41.11772284,6.22747549,2.67601073,0.79851269
-1.92114105

>  <Name>
ligand

>  <RI>
0

>  <Rbt.Current_Directory>
/home/itssahil/PROJECTS/Mol_Feturizer/New_Systems/rnas/3D2G

>  <Rbt.Executable>
rbdock ($Id: //depot/dev/client3/rdock/2013.1/src/exe/rbdock.cxx#4 $)

>  <Rbt.Library>
libRbt.so (2013.1, Build901 2013/11/27)

>  <Rbt.Parameter_File>
/export/apps/rDock/src/rDock_2013.1_src/data/scripts/dock_solv.prm

>  <Rbt.Receptor>
prm/pocket_docking_2.prm

>  <SCORE>
-14.3795

>  <SCORE.INTER>
-15.379

>  <SCORE.INTER.CONST>
1

>  <SCORE.INTER.POLAR>
0

>  <SCORE.INTER.ROT>
8

>  <SCORE.INTER.SOLV>
22.0231

>  <SCORE.INTER.VDW>
-26.527

>  <SCORE.INTER.norm>
-0.591498

>  <SCORE.INTRA>
0.999487

>  <SCORE.INTRA.DIHEDRAL>
1.73495

>  <SCORE.INTRA.DIHEDRAL.0>
9.09364

>  <SCORE.INTRA.POLAR>
0

>  <SCORE.INTRA.POLAR.0>
0

>  <SCORE.INTRA.REPUL>
0

>  <SCORE.INTRA.REPUL.0>
0

>  <SCORE.INTRA.SOLV>
-0.644565

>  <SCORE.INTRA.SOLV.lig_0>
-78.5846

>  <SCORE.INTRA.VDW>
0.454295

>  <SCORE.INTRA.VDW.0>
-2.81163

>  <SCORE.INTRA.norm>
0.0384418

>  <SCORE.RESTR>
0

>  <SCORE.RESTR.CAVITY>
0

>  <SCORE.RESTR.norm>
0

>  <SCORE.SYSTEM>
0

>  <SCORE.SYSTEM.CONST>
0

>  <SCORE.SYSTEM.DIHEDRAL>
0

>  <SCORE.SYSTEM.SOLV>
0

>  <SCORE.SYSTEM.norm>
0

>  <SCORE.heavy>
26

>  <SCORE.norm>
-0.553057

>  <RMSD>
0.771

$$$$
ligand
 OpenBabel11021811463D
libRbt.so/2013.1/901 2013/11/27
 26 27  0  0  0  0  0  0  0  0999 V2000
  -12.7997  -37.7418    1.9269 C   0  0  0  0  0  0  0  0  0  0  0  0
   -8.1636  -41.8331    4.6756 C   0  0  0  0  0  0  0  0  0  0  0  0
   -3.7993  -41.8882    8.1561 P   0  0  1  0  0  0  0  0  0  0  0  0
   -3.5402  -44.3297    9.3869 P   0  0  2  0  0  0  0  0  0  0  0  0
   -7.4318  -39.6797    2.5355 C   0  0  0  0  0  0  0  0  0  0  0  0
   -9.5544  -38.7383    3.5060 C   0  0  0  0  0  0  0  0  0  0  0  0
   -8.8471  -39.1827    2.3848 C   0  0  0  0  0  0  0  0  0  0  0  0
   -9.4296  -39.1344    1.1154 C   0  0  0  0  0  0  0  0  0  0  0  0
   -8.7525  -39.5394    0.0616 N   0  0  0  0  0  0  0  0  0  0  0  0
  -10.7219  -38.6901    0.9759 N   0  0  0  0  0  0  0  0  0  0  0  0
  -11.4073  -38.2398    2.0866 C   0  0  0  0  0  0  0  0  0  0  0  0
  -10.8404  -38.2740    3.3468 N   0  0  0  0  0  0  0  0  0  0  0  0
   -4.3058  -40.5589    8.6261 O   0  5  0  0  0  0  0  0  0  0  0  0
   -3.9807  -44.8210   10.7084 O   0  0  0  0  0  0  0  0  0  0  0  0
   -6.0562  -38.8117    5.9976 S   0  0  0  0  0  0  0  0  0  0  0  0
   -6.3206  -38.6175    4.4501 C   0  0  0  0  0  0  0  0  0  0  0  0
   -2.4054  -41.9043    7.6363 O   0  0  0  0  0  0  0  0  0  0  0  0
   -2.0792  -44.4334    9.2106 O   0  5  0  0  0  0  0  0  0  0  0  0
   -7.0701  -39.6329    3.9253 N   0  0  0  0  0  0  0  0  0  0  0  0
   -4.0387  -42.8251    9.4091 O   0  0  0  0  0  0  0  0  0  0  0  0
   -4.0847  -45.0242    8.1810 O   0  0  0  0  0  0  0  0  0  0  0  0
   -7.3743  -40.5743    4.8679 C   0  0  1  0  0  0  0  0  0  0  0  0
   -6.8463  -40.2017    6.0786 C   0  0  2  0  0  0  0  0  0  0  0  0
   -6.9017  -40.8696    7.4300 C   0  0  0  0  0  0  0  0  0  0  0  0
   -6.2317  -42.2482    7.4173 C   0  0  0  0  0  0  0  0  0  0  0  0
   -4.8602  -42.3233    7.0732 O   0  0  0  0  0  0  0  0  0  0  0  0
  1 11  1  0  0  0  0
  3 13  1  1  0  0  0
  3 17  2  0  0  0  0
  3 20  1  0  0  0  0
  3 26  1  0  0  0  0
  4 14  1  1  0  0  0
  4 18  1  0  0  0  0
  4 21  2  0  0  0  0
  4 20  1  0  0  0  0
  5 19  1  0  0  0  0
  5  7  1  0  0  0  0
  6  7  2  0  0  0  0
  6 12  1  0  0  0  0
  7  8  1  0  0  0  0
  8  9  1  0  0  0  0
  8 10  2  0  0  0  0
 10 11  1  0  0  0  0
 11 12  2  0  0  0  0
 15 23  1  0  0  0  0
 15 16  1  0  0  0  0
 16 19  1  0  0  0  0
 19 22  1  0  0  0  0
 22  2  1  1  0  0  0
 22 23  1  0  0  0  0
 23 24  1  1  0  0  0
 24 25  1  0  0  0  0
 25 26  1  0  0  0  0
M  CHG  2  13  -1  18  -1
M  END
>  <CHROM.1>
-175.52565031,-99.79722091,1.85886258,-179.07079950,-118.60953606,60.11337310
76.45154163,-49.26758054,-6.40477182,-41.00339031,5.88816575,2.43982811,-0.64645334
-0.34599032

>  <Name>
ligand

>  <RI>
0

>  <Rbt.Current_Directory>
/home/itssahil/PROJECTS/Mol_Feturizer/New_Systems/rnas/3D2G

>  <Rbt.Executable>
rbdock ($Id: //depot/dev/client3/rdock/2013.1/src/exe/rbdock.cxx#4 $)

>  <Rbt.Library>
libRbt.so (2013.1, Build901 2013/11/27)

>  <Rbt.Parameter_File>
/export/apps/rDock/src/rDock_2013.1_src/data/scripts/dock_solv.prm

>  <Rbt.Receptor>
prm/pocket_docking_2.prm

>  <SCORE>
-18.3838

>  <SCORE.INTER>
-16.3968

>  <SCORE.INTER.CONST>
1

>  <SCORE.INTER.POLAR>
0

>  <SCORE.INTER.ROT>
8

>  <SCORE.INTER.SOLV>
18.6221

>  <SCORE.INTER.VDW>
-26.0719

>  <SCORE.INTER.norm>
-0.630647

>  <SCORE.INTRA>
-1.98703

>  <SCORE.INTRA.DIHEDRAL>
-2.9156

>  <SCORE.INTRA.DIHEDRAL.0>
9.09364

>  <SCORE.INTRA.POLAR>
0

>  <SCORE.INTRA.POLAR.0>
0

>  <SCORE.INTRA.REPUL>
0

>  <SCORE.INTRA.REPUL.0>
0

>  <SCORE.INTRA.SOLV>
0.082036

>  <SCORE.INTRA.SOLV.lig_0>
-78.5846

>  <SCORE.INTRA.VDW>
-0.570252

>  <SCORE.INTRA.VDW.0>
-2.81163

>  <SCORE.INTRA.norm>
-0.0764243

>  <SCORE.RESTR>
0

>  <SCORE.RESTR.CAVITY>
0

>  <SCORE.RESTR.norm>
0

>  <SCORE.SYSTEM>
0

>  <SCORE.SYSTEM.CONST>
0

>  <SCORE.SYSTEM.DIHEDRAL>
0

>  <SCORE.SYSTEM.SOLV>
0

>  <SCORE.SYSTEM.norm>
0

>  <SCORE.heavy>
26

>  <SCORE.norm>
-0.707071

>  <RMSD>
0.812

$$$$
ligand
 OpenBabel11021811463D
libRbt.so/2013.1/901 2013/11/27
 26 27  0  0  0  0  0  0  0  0999 V2000
  -13.1768  -37.8153    2.0367 C   0  0  0  0  0  0  0  0  0  0  0  0
   -8.3847  -41.9260    4.7401 C   0  0  0  0  0  0  0  0  0  0  0  0
   -3.9769  -42.9553    7.8691 P   0  0  1  0  0  0  0  0  0  0  0  0
   -3.0599  -44.2030   10.1374 P   0  0  2  0  0  0  0  0  0  0  0  0
   -7.7484  -39.3936    3.0271 C   0  0  0  0  0  0  0  0  0  0  0  0
   -9.9991  -38.6208    3.8457 C   0  0  0  0  0  0  0  0  0  0  0  0
   -9.1793  -38.9916    2.7755 C   0  0  0  0  0  0  0  0  0  0  0  0
   -9.6657  -38.9559    1.4658 C   0  0  0  0  0  0  0  0  0  0  0  0
   -8.8837  -39.2909    0.4610 N   0  0  0  0  0  0  0  0  0  0  0  0
  -10.9715  -38.5983    1.2339 N   0  0  0  0  0  0  0  0  0  0  0  0
  -11.7692  -38.2200    2.2955 C   0  0  0  0  0  0  0  0  0  0  0  0
  -11.2987  -38.2425    3.5950 N   0  0  0  0  0  0  0  0  0  0  0  0
   -3.2060  -41.6894    8.0877 O   0  5  0  0  0  0  0  0  0  0  0  0
   -3.0726  -45.5560    9.5449 O   0  0  0  0  0  0  0  0  0  0  0  0
   -6.8800  -38.9039    6.7200 S   0  0  0  0  0  0  0  0  0  0  0  0
   -7.0064  -38.5081    5.1937 C   0  0  0  0  0  0  0  0  0  0  0  0
   -3.3456  -43.9506    6.9613 O   0  0  0  0  0  0  0  0  0  0  0  0
   -3.3063  -44.2274   11.5918 O   0  5  0  0  0  0  0  0  0  0  0  0
   -7.5442  -39.5165    4.4440 N   0  0  0  0  0  0  0  0  0  0  0  0
   -4.2252  -43.4810    9.3413 O   0  0  0  0  0  0  0  0  0  0  0  0
   -1.7982  -43.4120   10.0132 O   0  0  0  0  0  0  0  0  0  0  0  0
   -7.8076  -40.6227    5.2018 C   0  0  1  0  0  0  0  0  0  0  0  0
   -7.4676  -40.3779    6.5086 C   0  0  2  0  0  0  0  0  0  0  0  0
   -7.5679  -41.2478    7.7369 C   0  0  0  0  0  0  0  0  0  0  0  0
   -6.1908  -41.7062    8.2301 C   0  0  0  0  0  0  0  0  0  0  0  0
   -5.3742  -42.4479    7.3424 O   0  0  0  0  0  0  0  0  0  0  0  0
  1 11  1  0  0  0  0
  3 13  1  1  0  0  0
  3 17  2  0  0  0  0
  3 20  1  0  0  0  0
  3 26  1  0  0  0  0
  4 14  1  6  0  0  0
  4 18  1  0  0  0  0
  4 21  2  0  0  0  0
  4 20  1  0  0  0  0
  5 19  1  0  0  0  0
  5  7  1  0  0  0  0
  6  7  2  0  0  0  0
  6 12  1  0  0  0  0
  7  8  1  0  0  0  0
  8  9  1  0  0  0  0
  8 10  2  0  0  0  0
 10 11  1  0  0  0  0
 11 12  2  0  0  0  0
 15 23  1  0  0  0  0
 15 16  1  0  0  0  0
 16 19  1  0  0  0  0
 19 22  1  0  0  0  0
 22  2  1  1  0  0  0
 22 23  1  0  0  0  0
 23 24  1  1  0  0  0
 24 25  1  0  0  0  0
 25 26  1  0  0  0  0
M  CHG  2  13  -1  18  -1
M  END
>  <CHROM.1>
-77.63889804,-96.90748317,9.06800348,-78.19454100,-71.38054914,-58.72662955
-178.15378146,-66.17992591,-6.57745477,-41.15333061,6.24415200,2.55298739
0.70749628,-1.70524963

>  <Name>
ligand

>  <RI>
0

>  <Rbt.Current_Directory>
/home/itssahil/PROJECTS/Mol_Feturizer/New_Systems/rnas/3D2G

>  <Rbt.Executable>
rbdock ($Id: //depot/dev/client3/rdock/2013.1/src/exe/rbdock.cxx#4 $)

>  <Rbt.Library>
libRbt.so (2013.1, Build901 2013/11/27)

>  <Rbt.Parameter_File>
/export/apps/rDock/src/rDock_2013.1_src/data/scripts/dock_solv.prm

>  <Rbt.Receptor>
prm/pocket_docking_2.prm

>  <SCORE>
-18.4871

>  <SCORE.INTER>
-15.5726

>  <SCORE.INTER.CONST>
1

>  <SCORE.INTER.POLAR>
0

>  <SCORE.INTER.ROT>
8

>  <SCORE.INTER.SOLV>
20.74

>  <SCORE.INTER.VDW>
-26.2284

>  <SCORE.INTER.norm>
-0.598947

>  <SCORE.INTRA>
-2.91449

>  <SCORE.INTRA.DIHEDRAL>
-2.97233

>  <SCORE.INTRA.DIHEDRAL.0>
9.09364

>  <SCORE.INTRA.POLAR>
0

>  <SCORE.INTRA.POLAR.0>
0

>  <SCORE.INTRA.REPUL>
0

>  <SCORE.INTRA.REPUL.0>
0

>  <SCORE.INTRA.SOLV>
-2.0336

>  <SCORE.INTRA.SOLV.lig_0>
-78.5846

>  <SCORE.INTRA.VDW>
-0.411532

>  <SCORE.INTRA.VDW.0>
-2.81163

>  <SCORE.INTRA.norm>
-0.112096

>  <SCORE.RESTR>
0

>  <SCORE.RESTR.CAVITY>
0

>  <SCORE.RESTR.norm>
0

>  <SCORE.SYSTEM>
0

>  <SCORE.SYSTEM.CONST>
0

>  <SCORE.SYSTEM.DIHEDRAL>
0

>  <SCORE.SYSTEM.SOLV>
0

>  <SCORE.SYSTEM.norm>
0

>  <SCORE.heavy>
26

>  <SCORE.norm>
-0.711043

>  <RMSD>
0.926

$$$$
ligand
 OpenBabel11021811463D
libRbt.so/2013.1/901 2013/11/27
 26 27  0  0  0  0  0  0  0  0999 V2000
  -13.2772  -37.8453    1.9554 C   0  0  0  0  0  0  0  0  0  0  0  0
   -8.5973  -41.7782    4.6186 C   0  0  0  0  0  0  0  0  0  0  0  0
   -4.0333  -42.5840    8.0436 P   0  0  1  0  0  0  0  0  0  0  0  0
   -3.1249  -44.0983   10.1471 P   0  0  2  0  0  0  0  0  0  0  0  0
   -7.8048  -39.2569    2.9550 C   0  0  0  0  0  0  0  0  0  0  0  0
  -10.0677  -38.5111    3.7650 C   0  0  0  0  0  0  0  0  0  0  0  0
   -9.2469  -38.8985    2.7014 C   0  0  0  0  0  0  0  0  0  0  0  0
   -9.7435  -38.9197    1.3953 C   0  0  0  0  0  0  0  0  0  0  0  0
   -8.9610  -39.2700    0.3962 N   0  0  0  0  0  0  0  0  0  0  0  0
  -11.0594  -38.6020    1.1619 N   0  0  0  0  0  0  0  0  0  0  0  0
  -11.8583  -38.2067    2.2164 C   0  0  0  0  0  0  0  0  0  0  0  0
  -11.3779  -38.1731    3.5121 N   0  0  0  0  0  0  0  0  0  0  0  0
   -2.8623  -41.6557    8.1508 O   0  5  0  0  0  0  0  0  0  0  0  0
   -3.2578  -45.2909    9.2858 O   0  0  0  0  0  0  0  0  0  0  0  0
   -6.9112  -38.8934    6.6565 S   0  0  0  0  0  0  0  0  0  0  0  0
   -7.0116  -38.4610    5.1382 C   0  0  0  0  0  0  0  0  0  0  0  0
   -3.9207  -43.6539    7.0160 O   0  0  0  0  0  0  0  0  0  0  0  0
   -3.3953  -44.4002   11.5656 O   0  5  0  0  0  0  0  0  0  0  0  0
   -7.6098  -39.4197    4.3692 N   0  0  0  0  0  0  0  0  0  0  0  0
   -4.2031  -43.1172    9.5242 O   0  0  0  0  0  0  0  0  0  0  0  0
   -1.7914  -43.4249   10.1845 O   0  0  0  0  0  0  0  0  0  0  0  0
   -7.9415  -40.5221    5.1054 C   0  0  1  0  0  0  0  0  0  0  0  0
   -7.5883  -40.3241    6.4166 C   0  0  2  0  0  0  0  0  0  0  0  0
   -7.7430  -41.2099    7.6278 C   0  0  0  0  0  0  0  0  0  0  0  0
   -6.5540  -42.1621    7.7987 C   0  0  0  0  0  0  0  0  0  0  0  0
   -5.2488  -41.6131    7.7842 O   0  0  0  0  0  0  0  0  0  0  0  0
  1 11  1  0  0  0  0
  3 13  1  6  0  0  0
  3 17  2  0  0  0  0
  3 20  1  0  0  0  0
  3 26  1  0  0  0  0
  4 14  1  6  0  0  0
  4 18  1  0  0  0  0
  4 21  2  0  0  0  0
  4 20  1  0  0  0  0
  5 19  1  0  0  0  0
  5  7  1  0  0  0  0
  6  7  2  0  0  0  0
  6 12  1  0  0  0  0
  7  8  1  0  0  0  0
  8  9  1  0  0  0  0
  8 10  2  0  0  0  0
 10 11  1  0  0  0  0
 11 12  2  0  0  0  0
 15 23  1  0  0  0  0
 15 16  1  0  0  0  0
 16 19  1  0  0  0  0
 19 22  1  0  0  0  0
 22  2  1  1  0  0  0
 22 23  1  0  0  0  0
 23 24  1  1  0  0  0
 24 25  1  0  0  0  0
 25 26  1  0  0  0  0
M  CHG  2  13  -1  18  -1
M  END
>  <CHROM.1>
-69.86958004,-102.59523202,13.13080695,-64.09928628,-92.94153952,51.57238798
176.53014733,-172.23947964,-6.66001768,-41.04176283,6.22352304,2.44108113
0.59676086,-1.54482099

>  <Name>
ligand

>  <RI>
0

>  <Rbt.Current_Directory>
/home/itssahil/PROJECTS/Mol_Feturizer/New_Systems/rnas/3D2G

>  <Rbt.Executable>
rbdock ($Id: //depot/dev/client3/rdock/2013.1/src/exe/rbdock.cxx#4 $)

>  <Rbt.Library>
libRbt.so (2013.1, Build901 2013/11/27)

>  <Rbt.Parameter_File>
/export/apps/rDock/src/rDock_2013.1_src/data/scripts/dock_solv.prm

>  <Rbt.Receptor>
prm/pocket_docking_2.prm

>  <SCORE>
-18.8325

>  <SCORE.INTER>
-14.8791

>  <SCORE.INTER.CONST>
1

>  <SCORE.INTER.POLAR>
0

>  <SCORE.INTER.ROT>
8

>  <SCORE.INTER.SOLV>
21.754

>  <SCORE.INTER.VDW>
-26.104

>  <SCORE.INTER.norm>
-0.572271

>  <SCORE.INTRA>
-3.95999

>  <SCORE.INTRA.DIHEDRAL>
-3.79307

>  <SCORE.INTRA.DIHEDRAL.0>
9.09364

>  <SCORE.INTRA.POLAR>
0

>  <SCORE.INTRA.POLAR.0>
0

>  <SCORE.INTRA.REPUL>
0

>  <SCORE.INTRA.REPUL.0>
0

>  <SCORE.INTRA.SOLV>
-2.39984

>  <SCORE.INTRA.SOLV.lig_0>
-78.5846

>  <SCORE.INTRA.VDW>
-0.863538

>  <SCORE.INTRA.VDW.0>
-2.81163

>  <SCORE.INTRA.norm>
-0.152307

>  <SCORE.RESTR>
0.00657329

>  <SCORE.RESTR.CAVITY>
0.00657329

>  <SCORE.RESTR.norm>
0.000252819

>  <SCORE.SYSTEM>
0

>  <SCORE.SYSTEM.CONST>
0

>  <SCORE.SYSTEM.DIHEDRAL>
0

>  <SCORE.SYSTEM.SOLV>
0

>  <SCORE.SYSTEM.norm>
0

>  <SCORE.heavy>
26

>  <SCORE.norm>
-0.724326

>  <RMSD>
1.030

$$$$
ligand
 OpenBabel11021811463D
libRbt.so/2013.1/901 2013/11/27
 26 27  0  0  0  0  0  0  0  0999 V2000
  -13.1333  -37.7574    2.0587 C   0  0  0  0  0  0  0  0  0  0  0  0
   -8.1773  -42.1204    4.8528 C   0  0  0  0  0  0  0  0  0  0  0  0
   -3.8241  -42.7546    8.1546 P   0  0  1  0  0  0  0  0  0  0  0  0
   -3.7550  -45.2566    9.2851 P   0  0  2  0  0  0  0  0  0  0  0  0
   -7.7854  -39.5286    3.1553 C   0  0  0  0  0  0  0  0  0  0  0  0
  -10.0031  -38.6200    3.9232 C   0  0  0  0  0  0  0  0  0  0  0  0
   -9.1958  -39.0753    2.8763 C   0  0  0  0  0  0  0  0  0  0  0  0
   -9.6742  -39.0778    1.5631 C   0  0  0  0  0  0  0  0  0  0  0  0
   -8.9035  -39.4927    0.5798 N   0  0  0  0  0  0  0  0  0  0  0  0
  -10.9616  -38.6735    1.3068 N   0  0  0  0  0  0  0  0  0  0  0  0
  -11.7464  -38.2120    2.3449 C   0  0  0  0  0  0  0  0  0  0  0  0
  -11.2832  -38.1961    3.6471 N   0  0  0  0  0  0  0  0  0  0  0  0
   -3.6971  -42.4314    9.6120 O   0  5  0  0  0  0  0  0  0  0  0  0
   -2.7787  -44.8495   10.3161 O   0  0  0  0  0  0  0  0  0  0  0  0
   -7.0710  -38.9535    6.8688 S   0  0  0  0  0  0  0  0  0  0  0  0
   -7.2022  -38.5707    5.3396 C   0  0  0  0  0  0  0  0  0  0  0  0
   -3.0711  -41.8692    7.2259 O   0  0  0  0  0  0  0  0  0  0  0  0
   -3.6121  -46.6761    8.9094 O   0  5  0  0  0  0  0  0  0  0  0  0
   -7.6046  -39.6312    4.5770 N   0  0  0  0  0  0  0  0  0  0  0  0
   -3.4017  -44.2786    8.0887 O   0  0  0  0  0  0  0  0  0  0  0  0
   -5.2045  -45.1332    9.6269 O   0  0  0  0  0  0  0  0  0  0  0  0
   -7.7616  -40.7618    5.3284 C   0  0  1  0  0  0  0  0  0  0  0  0
   -7.4844  -40.4835    6.6432 C   0  0  2  0  0  0  0  0  0  0  0  0
   -7.5176  -41.3621    7.8690 C   0  0  0  0  0  0  0  0  0  0  0  0
   -6.1137  -41.6250    8.4255 C   0  0  0  0  0  0  0  0  0  0  0  0
   -5.3809  -42.7191    7.9050 O   0  0  0  0  0  0  0  0  0  0  0  0
  1 11  1  0  0  0  0
  3 13  1  1  0  0  0
  3 17  2  0  0  0  0
  3 20  1  0  0  0  0
  3 26  1  0  0  0  0
  4 14  1  1  0  0  0
  4 18  1  0  0  0  0
  4 21  2  0  0  0  0
  4 20  1  0  0  0  0
  5 19  1  0  0  0  0
  5  7  1  0  0  0  0
  6  7  2  0  0  0  0
  6 12  1  0  0  0  0
  7  8  1  0  0  0  0
  8  9  1  0  0  0  0
  8 10  2  0  0  0  0
 10 11  1  0  0  0  0
 11 12  2  0  0  0  0
 15 23  1  0  0  0  0
 15 16  1  0  0  0  0
 16 19  1  0  0  0  0
 19 22  1  0  0  0  0
 22  2  1  1  0  0  0
 22 23  1  0  0  0  0
 23 24  1  1  0  0  0
 24 25  1  0  0  0  0
 25 26  1  0  0  0  0
M  CHG  2  13  -1  18  -1
M  END
>  <CHROM.1>
34.27513663,-88.09345948,10.64024651,-74.66840736,-69.41355739,-87.37562852
162.84584543,46.58754239,-6.73480390,-41.37899759,6.22148603,2.92749140,-0.89888215
0.45294670

>  <Name>
ligand

>  <RI>
0

>  <Rbt.Current_Directory>
/home/itssahil/PROJECTS/Mol_Feturizer/New_Systems/rnas/3D2G

>  <Rbt.Executable>
rbdock ($Id: //depot/dev/client3/rdock/2013.1/src/exe/rbdock.cxx#4 $)

>  <Rbt.Library>
libRbt.so (2013.1, Build901 2013/11/27)

>  <Rbt.Parameter_File>
/export/apps/rDock/src/rDock_2013.1_src/data/scripts/dock_solv.prm

>  <Rbt.Receptor>
prm/pocket_docking_2.prm

>  <SCORE>
-15.1259

>  <SCORE.INTER>
-15.1474

>  <SCORE.INTER.CONST>
1

>  <SCORE.INTER.POLAR>
0

>  <SCORE.INTER.ROT>
8

>  <SCORE.INTER.SOLV>
17.4375

>  <SCORE.INTER.VDW>
-24.8441

>  <SCORE.INTER.norm>
-0.582593

>  <SCORE.INTRA>
0.00958476

>  <SCORE.INTRA.DIHEDRAL>
1.27675

>  <SCORE.INTRA.DIHEDRAL.0>
9.09364

>  <SCORE.INTRA.POLAR>
0

>  <SCORE.INTRA.POLAR.0>
0

>  <SCORE.INTRA.REPUL>
0

>  <SCORE.INTRA.REPUL.0>
0

>  <SCORE.INTRA.SOLV>
-1.72043

>  <SCORE.INTRA.SOLV.lig_0>
-78.5846

>  <SCORE.INTRA.VDW>
0.231422

>  <SCORE.INTRA.VDW.0>
-2.81163

>  <SCORE.INTRA.norm>
0.000368645

>  <SCORE.RESTR>
0.0119681

>  <SCORE.RESTR.CAVITY>
0.0119681

>  <SCORE.RESTR.norm>
0.000460313

>  <SCORE.SYSTEM>
0

>  <SCORE.SYSTEM.CONST>
0

>  <SCORE.SYSTEM.DIHEDRAL>
0

>  <SCORE.SYSTEM.SOLV>
0

>  <SCORE.SYSTEM.norm>
0

>  <SCORE.heavy>
26

>  <SCORE.norm>
-0.581764

>  <RMSD>
1.099

$$$$
ligand
 OpenBabel11021811463D
libRbt.so/2013.1/901 2013/11/27
 26 27  0  0  0  0  0  0  0  0999 V2000
  -13.2765  -37.8190    1.9866 C   0  0  0  0  0  0  0  0  0  0  0  0
   -8.4927  -41.1913    4.8759 C   0  0  0  0  0  0  0  0  0  0  0  0
   -3.5662  -41.7742    7.9340 P   0  0  1  0  0  0  0  0  0  0  0  0
   -3.3995  -44.0538    9.4567 P   0  0  2  0  0  0  0  0  0  0  0  0
   -7.7628  -39.3365    2.4718 C   0  0  0  0  0  0  0  0  0  0  0  0
   -9.9416  -38.6044    3.4966 C   0  0  0  0  0  0  0  0  0  0  0  0
   -9.2152  -38.9507    2.3532 C   0  0  0  0  0  0  0  0  0  0  0  0
   -9.8160  -38.9051    1.0922 C   0  0  0  0  0  0  0  0  0  0  0  0
   -9.1220  -39.2169    0.0178 N   0  0  0  0  0  0  0  0  0  0  0  0
  -11.1415  -38.5623    0.9815 N   0  0  0  0  0  0  0  0  0  0  0  0
  -11.8467  -38.2080    2.1145 C   0  0  0  0  0  0  0  0  0  0  0  0
  -11.2627  -38.2404    3.3669 N   0  0  0  0  0  0  0  0  0  0  0  0
   -2.4000  -41.0205    8.4966 O   0  5  0  0  0  0  0  0  0  0  0  0
   -2.0709  -43.6737    9.9782 O   0  0  0  0  0  0  0  0  0  0  0  0
   -6.2114  -38.1353    5.7555 S   0  0  0  0  0  0  0  0  0  0  0  0
   -6.5312  -38.1104    4.2065 C   0  0  0  0  0  0  0  0  0  0  0  0
   -3.2965  -42.5589    6.6991 O   0  0  0  0  0  0  0  0  0  0  0  0
   -3.3060  -44.8909    8.2455 O   0  5  0  0  0  0  0  0  0  0  0  0
   -7.3424  -39.1449    3.8324 N   0  0  0  0  0  0  0  0  0  0  0  0
   -4.0574  -42.6417    9.1633 O   0  0  0  0  0  0  0  0  0  0  0  0
   -4.2885  -44.8475   10.3583 O   0  0  0  0  0  0  0  0  0  0  0  0
   -7.6455  -39.9557    4.8898 C   0  0  1  0  0  0  0  0  0  0  0  0
   -7.0534  -39.4693    6.0282 C   0  0  2  0  0  0  0  0  0  0  0  0
   -7.0801  -39.9724    7.4501 C   0  0  0  0  0  0  0  0  0  0  0  0
   -6.0179  -41.0494    7.6983 C   0  0  0  0  0  0  0  0  0  0  0  0
   -4.6578  -40.6560    7.7212 O   0  0  0  0  0  0  0  0  0  0  0  0
  1 11  1  0  0  0  0
  3 13  1  1  0  0  0
  3 17  2  0  0  0  0
  3 20  1  0  0  0  0
  3 26  1  0  0  0  0
  4 14  1  1  0  0  0
  4 18  1  0  0  0  0
  4 21  2  0  0  0  0
  4 20  1  0  0  0  0
  5 19  1  0  0  0  0
  5  7  1  0  0  0  0
  6  7  2  0  0  0  0
  6 12  1  0  0  0  0
  7  8  1  0  0  0  0
  8  9  1  0  0  0  0
  8 10  2  0  0  0  0
 10 11  1  0  0  0  0
 11 12  2  0  0  0  0
 15 23  1  0  0  0  0
 15 16  1  0  0  0  0
 16 19  1  0  0  0  0
 19 22  1  0  0  0  0
 22  2  1  1  0  0  0
 22 23  1  0  0  0  0
 23 24  1  1  0  0  0
 24 25  1  0  0  0  0
 25 26  1  0  0  0  0
M  CHG  2  13  -1  18  -1
M  END
>  <CHROM.1>
-86.05409644,-106.51805536,-5.41573410,72.69884164,-95.58873631,70.57402538
-178.20745882,-155.98233260,-6.47855404,-40.65541715,5.85606914,2.41082423
-0.52277865,-0.45976106

>  <Name>
ligand

>  <RI>
0

>  <Rbt.Current_Directory>
/home/itssahil/PROJECTS/Mol_Feturizer/New_Systems/rnas/3D2G

>  <Rbt.Executable>
rbdock ($Id: //depot/dev/client3/rdock/2013.1/src/exe/rbdock.cxx#4 $)

>  <Rbt.Library>
libRbt.so (2013.1, Build901 2013/11/27)

>  <Rbt.Parameter_File>
/export/apps/rDock/src/rDock_2013.1_src/data/scripts/dock_solv.prm

>  <Rbt.Receptor>
prm/pocket_docking_2.prm

>  <SCORE>
-21.2199

>  <SCORE.INTER>
-18.4638

>  <SCORE.INTER.CONST>
1

>  <SCORE.INTER.POLAR>
0

>  <SCORE.INTER.ROT>
8

>  <SCORE.INTER.SOLV>
20.4041

>  <SCORE.INTER.VDW>
-28.0439

>  <SCORE.INTER.norm>
-0.710145

>  <SCORE.INTRA>
-2.77713

>  <SCORE.INTRA.DIHEDRAL>
-2.32342

>  <SCORE.INTRA.DIHEDRAL.0>
9.09364

>  <SCORE.INTRA.POLAR>
0

>  <SCORE.INTRA.POLAR.0>
0

>  <SCORE.INTRA.REPUL>
0

>  <SCORE.INTRA.REPUL.0>
0

>  <SCORE.INTRA.SOLV>
-2.37068

>  <SCORE.INTRA.SOLV.lig_0>
-78.5846

>  <SCORE.INTRA.VDW>
-0.430082

>  <SCORE.INTRA.VDW.0>
-2.81163

>  <SCORE.INTRA.norm>
-0.106813

>  <SCORE.RESTR>
0.0210007

>  <SCORE.RESTR.CAVITY>
0.0210007

>  <SCORE.RESTR.norm>
0.000807719

>  <SCORE.SYSTEM>
0

>  <SCORE.SYSTEM.CONST>
0

>  <SCORE.SYSTEM.DIHEDRAL>
0

>  <SCORE.SYSTEM.SOLV>
0

>  <SCORE.SYSTEM.norm>
0

>  <SCORE.heavy>
26

>  <SCORE.norm>
-0.81615

>  <RMSD>
1.301

$$$$
ligand
 OpenBabel11021811463D
libRbt.so/2013.1/901 2013/11/27
 26 27  0  0  0  0  0  0  0  0999 V2000
  -13.7939  -37.7338    2.1291 C   0  0  0  0  0  0  0  0  0  0  0  0
   -7.6395  -42.2519    4.1215 C   0  0  0  0  0  0  0  0  0  0  0  0
   -3.9566  -43.1858    8.7262 P   0  0  1  0  0  0  0  0  0  0  0  0
   -4.0166  -45.6549    9.9274 P   0  0  2  0  0  0  0  0  0  0  0  0
   -8.3823  -39.4267    3.0175 C   0  0  0  0  0  0  0  0  0  0  0  0
  -10.6691  -38.8254    3.8792 C   0  0  0  0  0  0  0  0  0  0  0  0
   -9.8090  -38.9959    2.7901 C   0  0  0  0  0  0  0  0  0  0  0  0
  -10.2513  -38.7327    1.4908 C   0  0  0  0  0  0  0  0  0  0  0  0
   -9.4318  -38.8798    0.4711 N   0  0  0  0  0  0  0  0  0  0  0  0
  -11.5530  -38.3483    1.2795 N   0  0  0  0  0  0  0  0  0  0  0  0
  -12.3908  -38.1687    2.3623 C   0  0  0  0  0  0  0  0  0  0  0  0
  -11.9641  -38.4172    3.6533 N   0  0  0  0  0  0  0  0  0  0  0  0
   -3.6071  -41.8168    9.2244 O   0  5  0  0  0  0  0  0  0  0  0  0
   -4.2461  -46.0152   11.3413 O   0  0  0  0  0  0  0  0  0  0  0  0
   -8.1024  -39.4670    6.8321 S   0  0  0  0  0  0  0  0  0  0  0  0
   -8.3448  -38.8382    5.4010 C   0  0  0  0  0  0  0  0  0  0  0  0
   -3.1886  -43.6614    7.5441 O   0  0  0  0  0  0  0  0  0  0  0  0
   -2.8520  -46.3557    9.3538 O   0  5  0  0  0  0  0  0  0  0  0  0
   -8.2159  -39.7644    4.4041 N   0  0  0  0  0  0  0  0  0  0  0  0
   -3.7928  -44.0880   10.0162 O   0  0  0  0  0  0  0  0  0  0  0  0
   -5.1131  -45.9540    8.9571 O   0  0  0  0  0  0  0  0  0  0  0  0
   -7.8797  -40.9933    4.8981 C   0  0  1  0  0  0  0  0  0  0  0  0
   -7.7917  -40.9319    6.2661 C   0  0  2  0  0  0  0  0  0  0  0  0
   -7.4693  -41.9958    7.2858 C   0  0  0  0  0  0  0  0  0  0  0  0
   -5.9663  -42.0766    7.5761 C   0  0  0  0  0  0  0  0  0  0  0  0
   -5.5065  -43.0913    8.4501 O   0  0  0  0  0  0  0  0  0  0  0  0
  1 11  1  0  0  0  0
  3 13  1  1  0  0  0
  3 17  2  0  0  0  0
  3 20  1  0  0  0  0
  3 26  1  0  0  0  0
  4 14  1  1  0  0  0
  4 18  1  0  0  0  0
  4 21  2  0  0  0  0
  4 20  1  0  0  0  0
  5 19  1  0  0  0  0
  5  7  1  0  0  0  0
  6  7  2  0  0  0  0
  6 12  1  0  0  0  0
  7  8  1  0  0  0  0
  8  9  1  0  0  0  0
  8 10  2  0  0  0  0
 10 11  1  0  0  0  0
 11 12  2  0  0  0  0
 15 23  1  0  0  0  0
 15 16  1  0  0  0  0
 16 19  1  0  0  0  0
 19 22  1  0  0  0  0
 22  2  1  1  0  0  0
 22 23  1  0  0  0  0
 23 24  1  1  0  0  0
 24 25  1  0  0  0  0
 25 26  1  0  0  0  0
M  CHG  2  13  -1  18  -1
M  END
>  <CHROM.1>
-177.63385455,-64.48269407,7.63420997,-160.76075446,-90.26188961,-175.93715100
178.97482230,55.74134378,-7.10290009,-41.63249470,6.31780246,2.59786655,0.79364633
-1.71157180

>  <Name>
ligand

>  <RI>
0

>  <Rbt.Current_Directory>
/home/itssahil/PROJECTS/Mol_Feturizer/New_Systems/rnas/3D2G

>  <Rbt.Executable>
rbdock ($Id: //depot/dev/client3/rdock/2013.1/src/exe/rbdock.cxx#4 $)

>  <Rbt.Library>
libRbt.so (2013.1, Build901 2013/11/27)

>  <Rbt.Parameter_File>
/export/apps/rDock/src/rDock_2013.1_src/data/scripts/dock_solv.prm

>  <Rbt.Receptor>
prm/pocket_docking_2.prm

>  <SCORE>
-16.9567

>  <SCORE.INTER>
-15.4341

>  <SCORE.INTER.CONST>
1

>  <SCORE.INTER.POLAR>
0

>  <SCORE.INTER.ROT>
8

>  <SCORE.INTER.SOLV>
20.4535

>  <SCORE.INTER.VDW>
-26.0405

>  <SCORE.INTER.norm>
-0.593619

>  <SCORE.INTRA>
-1.71542

>  <SCORE.INTRA.DIHEDRAL>
-3.1573

>  <SCORE.INTRA.DIHEDRAL.0>
9.09364

>  <SCORE.INTRA.POLAR>
0

>  <SCORE.INTRA.POLAR.0>
0

>  <SCORE.INTRA.REPUL>
0

>  <SCORE.INTRA.REPUL.0>
0

>  <SCORE.INTRA.SOLV>
-1.40339

>  <SCORE.INTRA.SOLV.lig_0>
-78.5846

>  <SCORE.INTRA.VDW>
0.56493

>  <SCORE.INTRA.VDW.0>
-2.81163

>  <SCORE.INTRA.norm>
-0.0659775

>  <SCORE.RESTR>
0.192856

>  <SCORE.RESTR.CAVITY>
0.192856

>  <SCORE.RESTR.norm>
0.00741753

>  <SCORE.SYSTEM>
0

>  <SCORE.SYSTEM.CONST>
0

>  <SCORE.SYSTEM.DIHEDRAL>
0

>  <SCORE.SYSTEM.SOLV>
0

>  <SCORE.SYSTEM.norm>
0

>  <SCORE.heavy>
26

>  <SCORE.norm>
-0.652179

>  <RMSD>
1.340

$$$$
ligand
 OpenBabel11021811463D
libRbt.so/2013.1/901 2013/11/27
 26 27  0  0  0  0  0  0  0  0999 V2000
  -13.2543  -37.8852    1.9271 C   0  0  0  0  0  0  0  0  0  0  0  0
   -8.5242  -41.8722    4.6165 C   0  0  0  0  0  0  0  0  0  0  0  0
   -4.4178  -43.2406    7.3540 P   0  0  1  0  0  0  0  0  0  0  0  0
   -4.4176  -44.4789    9.8054 P   0  0  2  0  0  0  0  0  0  0  0  0
   -7.8111  -39.1781    3.2074 C   0  0  0  0  0  0  0  0  0  0  0  0
  -10.1217  -38.4572    3.8964 C   0  0  0  0  0  0  0  0  0  0  0  0
   -9.2458  -38.8508    2.8801 C   0  0  0  0  0  0  0  0  0  0  0  0
   -9.6806  -38.9068    1.5532 C   0  0  0  0  0  0  0  0  0  0  0  0
   -8.8466  -39.2626    0.5988 N   0  0  0  0  0  0  0  0  0  0  0  0
  -10.9894  -38.6174    1.2528 N   0  0  0  0  0  0  0  0  0  0  0  0
  -11.8431  -38.2158    2.2609 C   0  0  0  0  0  0  0  0  0  0  0  0
  -11.4242  -38.1479    3.5763 N   0  0  0  0  0  0  0  0  0  0  0  0
   -3.1424  -42.6193    7.8355 O   0  5  0  0  0  0  0  0  0  0  0  0
   -5.4956  -43.5268   10.1420 O   0  0  0  0  0  0  0  0  0  0  0  0
   -7.2130  -39.0443    6.9832 S   0  0  0  0  0  0  0  0  0  0  0  0
   -7.2382  -38.5021    5.4973 C   0  0  0  0  0  0  0  0  0  0  0  0
   -4.5152  -43.4673    5.8868 O   0  0  0  0  0  0  0  0  0  0  0  0
   -3.0941  -44.0064   10.2542 O   0  5  0  0  0  0  0  0  0  0  0  0
   -7.7051  -39.4373    4.6167 N   0  0  0  0  0  0  0  0  0  0  0  0
   -4.5252  -44.5573    8.2258 O   0  0  0  0  0  0  0  0  0  0  0  0
   -4.5101  -45.8526   10.3865 O   0  0  0  0  0  0  0  0  0  0  0  0
   -8.0028  -40.6150    5.2427 C   0  0  1  0  0  0  0  0  0  0  0  0
   -7.7597  -40.4961    6.5880 C   0  0  2  0  0  0  0  0  0  0  0  0
   -7.9317  -41.4832    7.7158 C   0  0  0  0  0  0  0  0  0  0  0  0
   -6.8851  -42.6020    7.6645 C   0  0  0  0  0  0  0  0  0  0  0  0
   -5.5301  -42.2628    7.8963 O   0  0  0  0  0  0  0  0  0  0  0  0
  1 11  1  0  0  0  0
  3 13  1  1  0  0  0
  3 17  2  0  0  0  0
  3 20  1  0  0  0  0
  3 26  1  0  0  0  0
  4 14  1  1  0  0  0
  4 18  1  0  0  0  0
  4 21  2  0  0  0  0
  4 20  1  0  0  0  0
  5 19  1  0  0  0  0
  5  7  1  0  0  0  0
  6  7  2  0  0  0  0
  6 12  1  0  0  0  0
  7  8  1  0  0  0  0
  8  9  1  0  0  0  0
  8 10  2  0  0  0  0
 10 11  1  0  0  0  0
 11 12  2  0  0  0  0
 15 23  1  0  0  0  0
 15 16  1  0  0  0  0
 16 19  1  0  0  0  0
 19 22  1  0  0  0  0
 22  2  1  1  0  0  0
 22 23  1  0  0  0  0
 23 24  1  1  0  0  0
 24 25  1  0  0  0  0
 25 26  1  0  0  0  0
M  CHG  2  13  -1  18  -1
M  END
>  <CHROM.1>
52.53716436,-100.39149346,18.67272567,56.48797093,-108.95066838,66.88014088
-158.43171580,-177.03519490,-7.06721105,-41.28199562,6.12184394,2.38820121
0.64904818,-1.44886044

>  <Name>
ligand

>  <RI>
0

>  <Rbt.Current_Directory>
/home/itssahil/PROJECTS/Mol_Feturizer/New_Systems/rnas/3D2G

>  <Rbt.Executable>
rbdock ($Id: //depot/dev/client3/rdock/2013.1/src/exe/rbdock.cxx#4 $)

>  <Rbt.Library>
libRbt.so (2013.1, Build901 2013/11/27)

>  <Rbt.Parameter_File>
/export/apps/rDock/src/rDock_2013.1_src/data/scripts/dock_solv.prm

>  <Rbt.Receptor>
prm/pocket_docking_2.prm

>  <SCORE>
-17.1353

>  <SCORE.INTER>
-13.9492

>  <SCORE.INTER.CONST>
1

>  <SCORE.INTER.POLAR>
0

>  <SCORE.INTER.ROT>
8

>  <SCORE.INTER.SOLV>
17.9438

>  <SCORE.INTER.VDW>
-24.2141

>  <SCORE.INTER.norm>
-0.536509

>  <SCORE.INTRA>
-3.24118

>  <SCORE.INTRA.DIHEDRAL>
-2.125

>  <SCORE.INTRA.DIHEDRAL.0>
9.09364

>  <SCORE.INTRA.POLAR>
0

>  <SCORE.INTRA.POLAR.0>
0

>  <SCORE.INTRA.REPUL>
0

>  <SCORE.INTRA.REPUL.0>
0

>  <SCORE.INTRA.SOLV>
-2.88764

>  <SCORE.INTRA.SOLV.lig_0>
-78.5846

>  <SCORE.INTRA.VDW>
-0.734855

>  <SCORE.INTRA.VDW.0>
-2.81163

>  <SCORE.INTRA.norm>
-0.124661

>  <SCORE.RESTR>
0.0551198

>  <SCORE.RESTR.CAVITY>
0.0551198

>  <SCORE.RESTR.norm>
0.00211999

>  <SCORE.SYSTEM>
0

>  <SCORE.SYSTEM.CONST>
0

>  <SCORE.SYSTEM.DIHEDRAL>
0

>  <SCORE.SYSTEM.SOLV>
0

>  <SCORE.SYSTEM.norm>
0

>  <SCORE.heavy>
26

>  <SCORE.norm>
-0.659049

>  <RMSD>
1.350

$$$$
ligand
 OpenBabel11021811463D
libRbt.so/2013.1/901 2013/11/27
 26 27  0  0  0  0  0  0  0  0999 V2000
  -13.2072  -37.7131    2.0723 C   0  0  0  0  0  0  0  0  0  0  0  0
   -8.3112  -41.2981    4.9182 C   0  0  0  0  0  0  0  0  0  0  0  0
   -4.3950  -42.7195    7.5869 P   0  0  1  0  0  0  0  0  0  0  0  0
   -2.6889  -43.7901    9.4539 P   0  0  2  0  0  0  0  0  0  0  0  0
   -7.7443  -39.4234    2.4857 C   0  0  0  0  0  0  0  0  0  0  0  0
   -9.8671  -38.5681    3.5323 C   0  0  0  0  0  0  0  0  0  0  0  0
   -9.1837  -38.9864    2.3865 C   0  0  0  0  0  0  0  0  0  0  0  0
   -9.8141  -38.9666    1.1394 C   0  0  0  0  0  0  0  0  0  0  0  0
   -9.1599  -39.3466    0.0620 N   0  0  0  0  0  0  0  0  0  0  0  0
  -11.1281  -38.5772    1.0469 N   0  0  0  0  0  0  0  0  0  0  0  0
  -11.7903  -38.1520    2.1814 C   0  0  0  0  0  0  0  0  0  0  0  0
  -11.1764  -38.1584    3.4198 N   0  0  0  0  0  0  0  0  0  0  0  0
   -3.5624  -43.3294    6.5009 O   0  5  0  0  0  0  0  0  0  0  0  0
   -3.8453  -44.4355   10.1080 O   0  0  0  0  0  0  0  0  0  0  0  0
   -6.1357  -38.1428    5.7113 S   0  0  0  0  0  0  0  0  0  0  0  0
   -6.5088  -38.1381    4.1741 C   0  0  0  0  0  0  0  0  0  0  0  0
   -5.6210  -43.4730    7.9648 O   0  0  0  0  0  0  0  0  0  0  0  0
   -1.6396  -43.4122   10.4196 O   0  5  0  0  0  0  0  0  0  0  0  0
   -7.2867  -39.2083    3.8306 N   0  0  0  0  0  0  0  0  0  0  0  0
   -3.3580  -42.5277    8.7671 O   0  0  0  0  0  0  0  0  0  0  0  0
   -1.9469  -44.5875    8.4308 O   0  0  0  0  0  0  0  0  0  0  0  0
   -7.5183  -40.0270    4.8999 C   0  0  1  0  0  0  0  0  0  0  0  0
   -6.9095  -39.5108    6.0161 C   0  0  2  0  0  0  0  0  0  0  0  0
   -6.8661  -40.0087    7.4395 C   0  0  0  0  0  0  0  0  0  0  0  0
   -5.4463  -40.3944    7.8700 C   0  0  0  0  0  0  0  0  0  0  0  0
   -4.7104  -41.2743    7.0399 O   0  0  0  0  0  0  0  0  0  0  0  0
  1 11  1  0  0  0  0
  3 13  1  6  0  0  0
  3 17  2  0  0  0  0
  3 20  1  0  0  0  0
  3 26  1  0  0  0  0
  4 14  1  1  0  0  0
  4 18  1  0  0  0  0
  4 21  2  0  0  0  0
  4 20  1  0  0  0  0
  5 19  1  0  0  0  0
  5  7  1  0  0  0  0
  6  7  2  0  0  0  0
  6 12  1  0  0  0  0
  7  8  1  0  0  0  0
  8  9  1  0  0  0  0
  8 10  2  0  0  0  0
 10 11  1  0  0  0  0
 11 12  2  0  0  0  0
 15 23  1  0  0  0  0
 15 16  1  0  0  0  0
 16 19  1  0  0  0  0
 19 22  1  0  0  0  0
 22  2  1  1  0  0  0
 22 23  1  0  0  0  0
 23 24  1  1  0  0  0
 24 25  1  0  0  0  0
 25 26  1  0  0  0  0
M  CHG  2  13  -1  18  -1
M  END
>  <CHROM.1>
-64.82012636,-101.59743808,-4.83646582,-66.19158225,-65.25522847,-51.34028437
-111.95607212,-177.19161455,-6.45165755,-40.80226821,5.79216612,2.92163186
-0.84138247,0.34571869

>  <Name>
ligand

>  <RI>
0

>  <Rbt.Current_Directory>
/home/itssahil/PROJECTS/Mol_Feturizer/New_Systems/rnas/3D2G

>  <Rbt.Executable>
rbdock ($Id: //depot/dev/client3/rdock/2013.1/src/exe/rbdock.cxx#4 $)

>  <Rbt.Library>
libRbt.so (2013.1, Build901 2013/11/27)

>  <Rbt.Parameter_File>
/export/apps/rDock/src/rDock_2013.1_src/data/scripts/dock_solv.prm

>  <Rbt.Receptor>
prm/pocket_docking_2.prm

>  <SCORE>
-18.0725

>  <SCORE.INTER>
-18.3012

>  <SCORE.INTER.CONST>
1

>  <SCORE.INTER.POLAR>
0

>  <SCORE.INTER.ROT>
8

>  <SCORE.INTER.SOLV>
19.203

>  <SCORE.INTER.VDW>
-27.5351

>  <SCORE.INTER.norm>
-0.703893

>  <SCORE.INTRA>
0.207456

>  <SCORE.INTRA.DIHEDRAL>
3.44587

>  <SCORE.INTRA.DIHEDRAL.0>
9.09364

>  <SCORE.INTRA.POLAR>
0

>  <SCORE.INTRA.POLAR.0>
0

>  <SCORE.INTRA.REPUL>
0

>  <SCORE.INTRA.REPUL.0>
0

>  <SCORE.INTRA.SOLV>
-1.76453

>  <SCORE.INTRA.SOLV.lig_0>
-78.5846

>  <SCORE.INTRA.VDW>
-0.633214

>  <SCORE.INTRA.VDW.0>
-2.81163

>  <SCORE.INTRA.norm>
0.00797907

>  <SCORE.RESTR>
0.021277

>  <SCORE.RESTR.CAVITY>
0.021277

>  <SCORE.RESTR.norm>
0.000818346

>  <SCORE.SYSTEM>
0

>  <SCORE.SYSTEM.CONST>
0

>  <SCORE.SYSTEM.DIHEDRAL>
0

>  <SCORE.SYSTEM.SOLV>
0

>  <SCORE.SYSTEM.norm>
0

>  <SCORE.heavy>
26

>  <SCORE.norm>
-0.695095

>  <RMSD>
1.357

$$$$
ligand
 OpenBabel11021811463D
libRbt.so/2013.1/901 2013/11/27
 26 27  0  0  0  0  0  0  0  0999 V2000
  -13.2922  -37.6920    2.3758 C   0  0  0  0  0  0  0  0  0  0  0  0
   -8.1189  -41.3351    4.7685 C   0  0  0  0  0  0  0  0  0  0  0  0
   -4.5081  -43.2079    8.4945 P   0  0  1  0  0  0  0  0  0  0  0  0
   -2.6770  -44.3455   10.1962 P   0  0  2  0  0  0  0  0  0  0  0  0
   -7.8256  -39.4387    2.3048 C   0  0  0  0  0  0  0  0  0  0  0  0
   -9.9193  -38.8129    3.5530 C   0  0  0  0  0  0  0  0  0  0  0  0
   -9.2657  -38.9938    2.3303 C   0  0  0  0  0  0  0  0  0  0  0  0
   -9.9269  -38.7278    1.1281 C   0  0  0  0  0  0  0  0  0  0  0  0
   -9.3008  -38.8847   -0.0193 N   0  0  0  0  0  0  0  0  0  0  0  0
  -11.2416  -38.3305    1.1476 N   0  0  0  0  0  0  0  0  0  0  0  0
  -11.8742  -38.1408    2.3602 C   0  0  0  0  0  0  0  0  0  0  0  0
  -11.2298  -38.3919    3.5569 N   0  0  0  0  0  0  0  0  0  0  0  0
   -3.3795  -42.9655    7.5396 O   0  5  0  0  0  0  0  0  0  0  0  0
   -2.0976  -43.8658   11.4674 O   0  0  0  0  0  0  0  0  0  0  0  0
   -5.9531  -38.1318    5.3736 S   0  0  0  0  0  0  0  0  0  0  0  0
   -6.4682  -38.1305    3.8779 C   0  0  0  0  0  0  0  0  0  0  0  0
   -5.3570  -44.3955    8.2074 O   0  0  0  0  0  0  0  0  0  0  0  0
   -1.6712  -44.4306    9.1203 O   0  5  0  0  0  0  0  0  0  0  0  0
   -7.2495  -39.2176    3.6023 N   0  0  0  0  0  0  0  0  0  0  0  0
   -3.7833  -43.2492    9.9010 O   0  0  0  0  0  0  0  0  0  0  0  0
   -3.2998  -45.7040   10.1962 O   0  0  0  0  0  0  0  0  0  0  0  0
   -7.3610  -40.0454    4.6838 C   0  0  1  0  0  0  0  0  0  0  0  0
   -6.6628  -39.5189    5.7413 C   0  0  2  0  0  0  0  0  0  0  0  0
   -6.4751  -40.0208    7.1515 C   0  0  0  0  0  0  0  0  0  0  0  0
   -5.6893  -41.3363    7.1930 C   0  0  0  0  0  0  0  0  0  0  0  0
   -5.3176  -41.8549    8.4571 O   0  0  0  0  0  0  0  0  0  0  0  0
  1 11  1  0  0  0  0
  3 13  1  6  0  0  0
  3 17  2  0  0  0  0
  3 20  1  0  0  0  0
  3 26  1  0  0  0  0
  4 14  1  1  0  0  0
  4 18  1  0  0  0  0
  4 21  2  0  0  0  0
  4 20  1  0  0  0  0
  5 19  1  0  0  0  0
  5  7  1  0  0  0  0
  6  7  2  0  0  0  0
  6 12  1  0  0  0  0
  7  8  1  0  0  0  0
  8  9  1  0  0  0  0
  8 10  2  0  0  0  0
 10 11  1  0  0  0  0
 11 12  2  0  0  0  0
 15 23  1  0  0  0  0
 15 16  1  0  0  0  0
 16 19  1  0  0  0  0
 19 22  1  0  0  0  0
 22  2  1  1  0  0  0
 22 23  1  0  0  0  0
 23 24  1  1  0  0  0
 24 25  1  0  0  0  0
 25 26  1  0  0  0  0
M  CHG  2  13  -1  18  -1
M  END
>  <CHROM.1>
-60.95962637,-99.77364945,-17.23607651,169.36321798,-115.33625307,173.61213610
-179.94329680,51.01762561,-6.45337030,-41.02785982,6.05078109,2.26808196
-0.35403575,-0.64267000

>  <Name>
ligand

>  <RI>
0

>  <Rbt.Current_Directory>
/home/itssahil/PROJECTS/Mol_Feturizer/New_Systems/rnas/3D2G

>  <Rbt.Executable>
rbdock ($Id: //depot/dev/client3/rdock/2013.1/src/exe/rbdock.cxx#4 $)

>  <Rbt.Library>
libRbt.so (2013.1, Build901 2013/11/27)

>  <Rbt.Parameter_File>
/export/apps/rDock/src/rDock_2013.1_src/data/scripts/dock_solv.prm

>  <Rbt.Receptor>
prm/pocket_docking_2.prm

>  <SCORE>
-19.7722

>  <SCORE.INTER>
-18.0303

>  <SCORE.INTER.CONST>
1

>  <SCORE.INTER.POLAR>
0

>  <SCORE.INTER.ROT>
8

>  <SCORE.INTER.SOLV>
22.9012

>  <SCORE.INTER.VDW>
-28.5872

>  <SCORE.INTER.norm>
-0.693472

>  <SCORE.INTRA>
-1.78709

>  <SCORE.INTRA.DIHEDRAL>
-3.64375

>  <SCORE.INTRA.DIHEDRAL.0>
9.09364

>  <SCORE.INTRA.POLAR>
0

>  <SCORE.INTRA.POLAR.0>
0

>  <SCORE.INTRA.REPUL>
0

>  <SCORE.INTRA.REPUL.0>
0

>  <SCORE.INTRA.SOLV>
-0.272128

>  <SCORE.INTRA.SOLV.lig_0>
-78.5846

>  <SCORE.INTRA.VDW>
0.170851

>  <SCORE.INTRA.VDW.0>
-2.81163

>  <SCORE.INTRA.norm>
-0.0687342

>  <SCORE.RESTR>
0.0451562

>  <SCORE.RESTR.CAVITY>
0.0451562

>  <SCORE.RESTR.norm>
0.00173678

>  <SCORE.SYSTEM>
0

>  <SCORE.SYSTEM.CONST>
0

>  <SCORE.SYSTEM.DIHEDRAL>
0

>  <SCORE.SYSTEM.SOLV>
0

>  <SCORE.SYSTEM.norm>
0

>  <SCORE.heavy>
26

>  <SCORE.norm>
-0.760469

>  <RMSD>
1.402

$$$$
ligand
 OpenBabel11021811463D
libRbt.so/2013.1/901 2013/11/27
 26 27  0  0  0  0  0  0  0  0999 V2000
  -13.0087  -37.6992    2.3290 C   0  0  0  0  0  0  0  0  0  0  0  0
   -7.2994  -41.6631    4.6251 C   0  0  0  0  0  0  0  0  0  0  0  0
   -3.2492  -43.0172    8.0123 P   0  0  1  0  0  0  0  0  0  0  0  0
   -4.3717  -44.9703    9.5835 P   0  0  2  0  0  0  0  0  0  0  0  0
   -7.5857  -39.5779    2.3180 C   0  0  0  0  0  0  0  0  0  0  0  0
   -9.6490  -38.8200    3.5434 C   0  0  0  0  0  0  0  0  0  0  0  0
   -9.0146  -39.0977    2.3287 C   0  0  0  0  0  0  0  0  0  0  0  0
   -9.6838  -38.8967    1.1184 C   0  0  0  0  0  0  0  0  0  0  0  0
   -9.0754  -39.1448   -0.0223 N   0  0  0  0  0  0  0  0  0  0  0  0
  -10.9886  -38.4674    1.1250 N   0  0  0  0  0  0  0  0  0  0  0  0
  -11.6020  -38.1820    2.3287 C   0  0  0  0  0  0  0  0  0  0  0  0
  -10.9492  -38.3681    3.5327 N   0  0  0  0  0  0  0  0  0  0  0  0
   -2.0037  -42.1957    8.1473 O   0  5  0  0  0  0  0  0  0  0  0  0
   -5.6178  -44.2847    9.1850 O   0  0  0  0  0  0  0  0  0  0  0  0
   -5.8877  -38.0982    5.4098 S   0  0  0  0  0  0  0  0  0  0  0  0
   -6.4739  -38.1082    3.9406 C   0  0  0  0  0  0  0  0  0  0  0  0
   -3.3441  -43.8545    6.7862 O   0  0  0  0  0  0  0  0  0  0  0  0
   -4.4160  -45.4435   10.9801 O   0  5  0  0  0  0  0  0  0  0  0  0
   -7.0020  -39.3237    3.6061 N   0  0  0  0  0  0  0  0  0  0  0  0
   -3.2850  -43.8368    9.3659 O   0  0  0  0  0  0  0  0  0  0  0  0
   -3.9864  -46.1931    8.8157 O   0  0  0  0  0  0  0  0  0  0  0  0
   -6.8606  -40.2306    4.6185 C   0  0  1  0  0  0  0  0  0  0  0  0
   -6.2414  -39.6345    5.6882 C   0  0  2  0  0  0  0  0  0  0  0  0
   -5.8645  -40.1797    7.0433 C   0  0  0  0  0  0  0  0  0  0  0  0
   -4.7281  -41.2047    6.9543 C   0  0  0  0  0  0  0  0  0  0  0  0
   -4.4059  -41.9499    8.1143 O   0  0  0  0  0  0  0  0  0  0  0  0
  1 11  1  0  0  0  0
  3 13  1  6  0  0  0
  3 17  2  0  0  0  0
  3 20  1  0  0  0  0
  3 26  1  0  0  0  0
  4 14  1  6  0  0  0
  4 18  1  0  0  0  0
  4 21  2  0  0  0  0
  4 20  1  0  0  0  0
  5 19  1  0  0  0  0
  5  7  1  0  0  0  0
  6  7  2  0  0  0  0
  6 12  1  0  0  0  0
  7  8  1  0  0  0  0
  8  9  1  0  0  0  0
  8 10  2  0  0  0  0
 10 11  1  0  0  0  0
 11 12  2  0  0  0  0
 15 23  1  0  0  0  0
 15 16  1  0  0  0  0
 16 19  1  0  0  0  0
 19 22  1  0  0  0  0
 22  2  1  1  0  0  0
 22 23  1  0  0  0  0
 23 24  1  1  0  0  0
 24 25  1  0  0  0  0
 25 26  1  0  0  0  0
M  CHG  2  13  -1  18  -1
M  END
>  <CHROM.1>
-173.24713412,-83.48754636,-15.40032845,-48.73533103,-111.21837618,-170.55687002
179.17796669,80.95219337,-6.37278642,-41.15777715,5.81612446,2.22070136,-0.34733687
-0.61790843

>  <Name>
ligand

>  <RI>
0

>  <Rbt.Current_Directory>
/home/itssahil/PROJECTS/Mol_Feturizer/New_Systems/rnas/3D2G

>  <Rbt.Executable>
rbdock ($Id: //depot/dev/client3/rdock/2013.1/src/exe/rbdock.cxx#4 $)

>  <Rbt.Library>
libRbt.so (2013.1, Build901 2013/11/27)

>  <Rbt.Parameter_File>
/export/apps/rDock/src/rDock_2013.1_src/data/scripts/dock_solv.prm

>  <Rbt.Receptor>
prm/pocket_docking_2.prm

>  <SCORE>
-21.0697

>  <SCORE.INTER>
-17.3864

>  <SCORE.INTER.CONST>
1

>  <SCORE.INTER.POLAR>
0

>  <SCORE.INTER.ROT>
8

>  <SCORE.INTER.SOLV>
19.8692

>  <SCORE.INTER.VDW>
-27.1473

>  <SCORE.INTER.norm>
-0.668707

>  <SCORE.INTRA>
-3.68329

>  <SCORE.INTRA.DIHEDRAL>
-3.0963

>  <SCORE.INTRA.DIHEDRAL.0>
9.09364

>  <SCORE.INTRA.POLAR>
0

>  <SCORE.INTRA.POLAR.0>
0

>  <SCORE.INTRA.REPUL>
0

>  <SCORE.INTRA.REPUL.0>
0

>  <SCORE.INTRA.SOLV>
-3.57806

>  <SCORE.INTRA.SOLV.lig_0>
-78.5846

>  <SCORE.INTRA.VDW>
-0.346115

>  <SCORE.INTRA.VDW.0>
-2.81163

>  <SCORE.INTRA.norm>
-0.141665

>  <SCORE.RESTR>
0

>  <SCORE.RESTR.CAVITY>
0

>  <SCORE.RESTR.norm>
0

>  <SCORE.SYSTEM>
0

>  <SCORE.SYSTEM.CONST>
0

>  <SCORE.SYSTEM.DIHEDRAL>
0

>  <SCORE.SYSTEM.SOLV>
0

>  <SCORE.SYSTEM.norm>
0

>  <SCORE.heavy>
26

>  <SCORE.norm>
-0.810372

>  <RMSD>
1.418

$$$$
ligand
 OpenBabel11021811463D
libRbt.so/2013.1/901 2013/11/27
 26 27  0  0  0  0  0  0  0  0999 V2000
  -13.0444  -37.7550    2.3717 C   0  0  0  0  0  0  0  0  0  0  0  0
   -7.5033  -42.1684    3.8861 C   0  0  0  0  0  0  0  0  0  0  0  0
   -4.8881  -43.1316    9.0705 P   0  0  1  0  0  0  0  0  0  0  0  0
   -2.4327  -44.3163    9.4027 P   0  0  2  0  0  0  0  0  0  0  0  0
   -7.5813  -39.5097    2.2498 C   0  0  0  0  0  0  0  0  0  0  0  0
   -9.6412  -38.8150    3.5177 C   0  0  0  0  0  0  0  0  0  0  0  0
   -9.0203  -39.0623    2.2895 C   0  0  0  0  0  0  0  0  0  0  0  0
   -9.7132  -38.8607    1.0927 C   0  0  0  0  0  0  0  0  0  0  0  0
   -9.1178  -39.0799   -0.0607 N   0  0  0  0  0  0  0  0  0  0  0  0
  -11.0271  -38.4613    1.1257 N   0  0  0  0  0  0  0  0  0  0  0  0
  -11.6273  -38.2058    2.3427 C   0  0  0  0  0  0  0  0  0  0  0  0
  -10.9512  -38.3928    3.5336 N   0  0  0  0  0  0  0  0  0  0  0  0
   -5.5461  -44.4773    9.0943 O   0  5  0  0  0  0  0  0  0  0  0  0
   -1.3776  -44.1261   10.4187 O   0  0  0  0  0  0  0  0  0  0  0  0
   -6.1260  -39.0163    5.7527 S   0  0  0  0  0  0  0  0  0  0  0  0
   -6.5910  -38.5931    4.3012 C   0  0  0  0  0  0  0  0  0  0  0  0
   -5.7289  -41.9904    9.5224 O   0  0  0  0  0  0  0  0  0  0  0  0
   -1.9770  -43.9500    8.0482 O   0  5  0  0  0  0  0  0  0  0  0  0
   -7.1018  -39.6475    3.5972 N   0  0  0  0  0  0  0  0  0  0  0  0
   -3.5796  -43.3584    9.9317 O   0  0  0  0  0  0  0  0  0  0  0  0
   -2.9716  -45.6987    9.2245 O   0  0  0  0  0  0  0  0  0  0  0  0
   -7.0518  -40.8069    4.3188 C   0  0  1  0  0  0  0  0  0  0  0  0
   -6.5158  -40.5565    5.5570 C   0  0  2  0  0  0  0  0  0  0  0  0
   -6.2554  -41.4732    6.7264 C   0  0  0  0  0  0  0  0  0  0  0  0
   -4.7664  -41.8050    6.8757 C   0  0  0  0  0  0  0  0  0  0  0  0
   -4.4095  -42.9833    7.5751 O   0  0  0  0  0  0  0  0  0  0  0  0
  1 11  1  0  0  0  0
  3 13  1  1  0  0  0
  3 17  2  0  0  0  0
  3 20  1  0  0  0  0
  3 26  1  0  0  0  0
  4 14  1  1  0  0  0
  4 18  1  0  0  0  0
  4 21  2  0  0  0  0
  4 20  1  0  0  0  0
  5 19  1  0  0  0  0
  5  7  1  0  0  0  0
  6  7  2  0  0  0  0
  6 12  1  0  0  0  0
  7  8  1  0  0  0  0
  8  9  1  0  0  0  0
  8 10  2  0  0  0  0
 10 11  1  0  0  0  0
 11 12  2  0  0  0  0
 15 23  1  0  0  0  0
 15 16  1  0  0  0  0
 16 19  1  0  0  0  0
 19 22  1  0  0  0  0
 22  2  1  1  0  0  0
 22 23  1  0  0  0  0
 23 24  1  1  0  0  0
 24 25  1  0  0  0  0
 25 26  1  0  0  0  0
M  CHG  2  13  -1  18  -1
M  END
>  <CHROM.1>
66.68248569,-85.85792938,1.99416938,174.36565332,-75.47145371,-157.52901012
-58.65855622,128.57540871,-6.35987294,-41.28940954,5.95364448,2.27806586
0.35734101,-1.22018279

>  <Name>
ligand

>  <RI>
0

>  <Rbt.Current_Directory>
/home/itssahil/PROJECTS/Mol_Feturizer/New_Systems/rnas/3D2G

>  <Rbt.Executable>
rbdock ($Id: //depot/dev/client3/rdock/2013.1/src/exe/rbdock.cxx#4 $)

>  <Rbt.Library>
libRbt.so (2013.1, Build901 2013/11/27)

>  <Rbt.Parameter_File>
/export/apps/rDock/src/rDock_2013.1_src/data/scripts/dock_solv.prm

>  <Rbt.Receptor>
prm/pocket_docking_2.prm

>  <SCORE>
-13.9976

>  <SCORE.INTER>
-15.211

>  <SCORE.INTER.CONST>
1

>  <SCORE.INTER.POLAR>
0

>  <SCORE.INTER.ROT>
8

>  <SCORE.INTER.SOLV>
18.7642

>  <SCORE.INTER.VDW>
-25.3287

>  <SCORE.INTER.norm>
-0.585037

>  <SCORE.INTRA>
1.05842

>  <SCORE.INTRA.DIHEDRAL>
0.438161

>  <SCORE.INTRA.DIHEDRAL.0>
9.09364

>  <SCORE.INTRA.POLAR>
0

>  <SCORE.INTRA.POLAR.0>
0

>  <SCORE.INTRA.REPUL>
0

>  <SCORE.INTRA.REPUL.0>
0

>  <SCORE.INTRA.SOLV>
0.422893

>  <SCORE.INTRA.SOLV.lig_0>
-78.5846

>  <SCORE.INTRA.VDW>
0.627894

>  <SCORE.INTRA.VDW.0>
-2.81163

>  <SCORE.INTRA.norm>
0.0407085

>  <SCORE.RESTR>
0.154979

>  <SCORE.RESTR.CAVITY>
0.154979

>  <SCORE.RESTR.norm>
0.00596072

>  <SCORE.SYSTEM>
0

>  <SCORE.SYSTEM.CONST>
0

>  <SCORE.SYSTEM.DIHEDRAL>
0

>  <SCORE.SYSTEM.SOLV>
0

>  <SCORE.SYSTEM.norm>
0

>  <SCORE.heavy>
26

>  <SCORE.norm>
-0.538368

>  <RMSD>
1.472

$$$$
ligand
 OpenBabel11021811463D
libRbt.so/2013.1/901 2013/11/27
 26 27  0  0  0  0  0  0  0  0999 V2000
  -13.0545  -37.8410    2.3441 C   0  0  0  0  0  0  0  0  0  0  0  0
   -7.2911  -41.5331    4.5429 C   0  0  0  0  0  0  0  0  0  0  0  0
   -4.1263  -42.2506    9.1780 P   0  0  1  0  0  0  0  0  0  0  0  0
   -3.0029  -44.5582    8.2003 P   0  0  2  0  0  0  0  0  0  0  0  0
   -7.5221  -39.3675    2.3047 C   0  0  0  0  0  0  0  0  0  0  0  0
   -9.6063  -38.6810    3.5369 C   0  0  0  0  0  0  0  0  0  0  0  0
   -8.9788  -38.9797    2.3236 C   0  0  0  0  0  0  0  0  0  0  0  0
   -9.6828  -38.8843    1.1202 C   0  0  0  0  0  0  0  0  0  0  0  0
   -9.0817  -39.1514   -0.0202 N   0  0  0  0  0  0  0  0  0  0  0  0
  -11.0124  -38.5395    1.1347 N   0  0  0  0  0  0  0  0  0  0  0  0
  -11.6196  -38.2324    2.3361 C   0  0  0  0  0  0  0  0  0  0  0  0
  -10.9330  -38.3143    3.5329 N   0  0  0  0  0  0  0  0  0  0  0  0
   -4.9997  -43.0001   10.1371 O   0  5  0  0  0  0  0  0  0  0  0  0
   -3.0682  -44.0750    6.8061 O   0  0  0  0  0  0  0  0  0  0  0  0
   -5.9014  -37.9985    5.4876 S   0  0  0  0  0  0  0  0  0  0  0  0
   -6.4514  -37.9563    4.0050 C   0  0  0  0  0  0  0  0  0  0  0  0
   -3.7871  -40.8546    9.5649 O   0  0  0  0  0  0  0  0  0  0  0  0
   -4.2014  -45.3295    8.5814 O   0  5  0  0  0  0  0  0  0  0  0  0
   -6.9703  -39.1591    3.6149 N   0  0  0  0  0  0  0  0  0  0  0  0
   -2.8738  -43.2045    9.0151 O   0  0  0  0  0  0  0  0  0  0  0  0
   -1.8754  -45.4717    8.5571 O   0  0  0  0  0  0  0  0  0  0  0  0
   -6.8532  -40.1013    4.5977 C   0  0  1  0  0  0  0  0  0  0  0  0
   -6.2607  -39.5436    5.7027 C   0  0  2  0  0  0  0  0  0  0  0  0
   -5.9168  -40.1364    7.0465 C   0  0  0  0  0  0  0  0  0  0  0  0
   -4.8450  -41.2267    6.9360 C   0  0  0  0  0  0  0  0  0  0  0  0
   -4.9203  -42.3319    7.8178 O   0  0  0  0  0  0  0  0  0  0  0  0
  1 11  1  0  0  0  0
  3 13  1  1  0  0  0
  3 17  2  0  0  0  0
  3 20  1  0  0  0  0
  3 26  1  0  0  0  0
  4 14  1  6  0  0  0
  4 18  1  0  0  0  0
  4 21  2  0  0  0  0
  4 20  1  0  0  0  0
  5 19  1  0  0  0  0
  5  7  1  0  0  0  0
  6  7  2  0  0  0  0
  6 12  1  0  0  0  0
  7  8  1  0  0  0  0
  8  9  1  0  0  0  0
  8 10  2  0  0  0  0
 10 11  1  0  0  0  0
 11 12  2  0  0  0  0
 15 23  1  0  0  0  0
 15 16  1  0  0  0  0
 16 19  1  0  0  0  0
 19 22  1  0  0  0  0
 22  2  1  1  0  0  0
 22 23  1  0  0  0  0
 23 24  1  1  0  0  0
 24 25  1  0  0  0  0
 25 26  1  0  0  0  0
M  CHG  2  13  -1  18  -1
M  END
>  <CHROM.1>
72.06631925,-87.48470557,-8.59714184,73.47618989,-115.12913796,-145.37494104
-92.26760435,145.90439474,-6.28864297,-40.90031020,5.76990653,2.99481971
-0.89238682,0.48634294

>  <Name>
ligand

>  <RI>
0

>  <Rbt.Current_Directory>
/home/itssahil/PROJECTS/Mol_Feturizer/New_Systems/rnas/3D2G

>  <Rbt.Executable>
rbdock ($Id: //depot/dev/client3/rdock/2013.1/src/exe/rbdock.cxx#4 $)

>  <Rbt.Library>
libRbt.so (2013.1, Build901 2013/11/27)

>  <Rbt.Parameter_File>
/export/apps/rDock/src/rDock_2013.1_src/data/scripts/dock_solv.prm

>  <Rbt.Receptor>
prm/pocket_docking_2.prm

>  <SCORE>
-14.7923

>  <SCORE.INTER>
-16.4486

>  <SCORE.INTER.CONST>
1

>  <SCORE.INTER.POLAR>
0

>  <SCORE.INTER.ROT>
8

>  <SCORE.INTER.SOLV>
17.6509

>  <SCORE.INTER.VDW>
-25.7827

>  <SCORE.INTER.norm>
-0.632639

>  <SCORE.INTRA>
1.58344

>  <SCORE.INTRA.DIHEDRAL>
5.70065

>  <SCORE.INTRA.DIHEDRAL.0>
9.09364

>  <SCORE.INTRA.POLAR>
0

>  <SCORE.INTRA.POLAR.0>
0

>  <SCORE.INTRA.REPUL>
0

>  <SCORE.INTRA.REPUL.0>
0

>  <SCORE.INTRA.SOLV>
-1.97568

>  <SCORE.INTRA.SOLV.lig_0>
-78.5846

>  <SCORE.INTRA.VDW>
-0.279046

>  <SCORE.INTRA.VDW.0>
-2.81163

>  <SCORE.INTRA.norm>
0.0609015

>  <SCORE.RESTR>
0.0728237

>  <SCORE.RESTR.CAVITY>
0.0728237

>  <SCORE.RESTR.norm>
0.00280091

>  <SCORE.SYSTEM>
0

>  <SCORE.SYSTEM.CONST>
0

>  <SCORE.SYSTEM.DIHEDRAL>
0

>  <SCORE.SYSTEM.SOLV>
0

>  <SCORE.SYSTEM.norm>
0

>  <SCORE.heavy>
26

>  <SCORE.norm>
-0.568936

>  <RMSD>
1.521

$$$$
ligand
 OpenBabel11021811463D
libRbt.so/2013.1/901 2013/11/27
 26 27  0  0  0  0  0  0  0  0999 V2000
  -13.4670  -37.7863    2.1368 C   0  0  0  0  0  0  0  0  0  0  0  0
   -8.0299  -38.9436    6.2011 C   0  0  0  0  0  0  0  0  0  0  0  0
   -4.0601  -42.0487    8.1973 P   0  0  1  0  0  0  0  0  0  0  0  0
   -4.1059  -44.4200    9.5822 P   0  0  2  0  0  0  0  0  0  0  0  0
   -8.0160  -39.3029    3.0990 C   0  0  0  0  0  0  0  0  0  0  0  0
  -10.2493  -38.4834    3.9199 C   0  0  0  0  0  0  0  0  0  0  0  0
   -9.4527  -38.9166    2.8556 C   0  0  0  0  0  0  0  0  0  0  0  0
   -9.9677  -38.9584    1.5571 C   0  0  0  0  0  0  0  0  0  0  0  0
   -9.2075  -39.3519    0.5570 N   0  0  0  0  0  0  0  0  0  0  0  0
  -11.2787  -38.6152    1.3333 N   0  0  0  0  0  0  0  0  0  0  0  0
  -12.0535  -38.1749    2.3881 C   0  0  0  0  0  0  0  0  0  0  0  0
  -11.5546  -38.1206    3.6759 N   0  0  0  0  0  0  0  0  0  0  0  0
   -3.9939  -40.6202    8.6440 O   0  5  0  0  0  0  0  0  0  0  0  0
   -5.2377  -44.8373    8.7297 O   0  0  0  0  0  0  0  0  0  0  0  0
   -7.9345  -42.6502    4.9486 S   0  0  0  0  0  0  0  0  0  0  0  0
   -7.9637  -41.6840    3.6964 C   0  0  0  0  0  0  0  0  0  0  0  0
   -2.9259  -42.5186    7.3569 O   0  0  0  0  0  0  0  0  0  0  0  0
   -4.2032  -44.9682   10.9484 O   0  5  0  0  0  0  0  0  0  0  0  0
   -7.9796  -40.3674    4.0634 N   0  0  0  0  0  0  0  0  0  0  0  0
   -4.2360  -42.8403    9.5566 O   0  0  0  0  0  0  0  0  0  0  0  0
   -2.7343  -44.8207    9.1452 O   0  0  0  0  0  0  0  0  0  0  0  0
   -7.9972  -40.2230    5.4222 C   0  0  1  0  0  0  0  0  0  0  0  0
   -7.9723  -41.4591    6.0175 C   0  0  2  0  0  0  0  0  0  0  0  0
   -7.9644  -41.8568    7.4726 C   0  0  0  0  0  0  0  0  0  0  0  0
   -6.5930  -41.6360    8.1209 C   0  0  0  0  0  0  0  0  0  0  0  0
   -5.4486  -42.1372    7.4546 O   0  0  0  0  0  0  0  0  0  0  0  0
  1 11  1  0  0  0  0
  3 13  1  1  0  0  0
  3 17  2  0  0  0  0
  3 20  1  0  0  0  0
  3 26  1  0  0  0  0
  4 14  1  6  0  0  0
  4 18  1  0  0  0  0
  4 21  2  0  0  0  0
  4 20  1  0  0  0  0
  5 19  1  0  0  0  0
  5  7  1  0  0  0  0
  6  7  2  0  0  0  0
  6 12  1  0  0  0  0
  7  8  1  0  0  0  0
  8  9  1  0  0  0  0
  8 10  2  0  0  0  0
 10 11  1  0  0  0  0
 11 12  2  0  0  0  0
 15 23  1  0  0  0  0
 15 16  1  0  0  0  0
 16 19  1  0  0  0  0
 19 22  1  0  0  0  0
 22  2  1  1  0  0  0
 22 23  1  0  0  0  0
 23 24  1  1  0  0  0
 24 25  1  0  0  0  0
 25 26  1  0  0  0  0
M  CHG  2  13  -1  18  -1
M  END
>  <CHROM.1>
-169.62690649,93.05111956,58.54600251,-63.69170772,104.00963141,-49.20992666
-173.42233602,-50.01717176,-7.06921206,-41.34932713,6.05295336,2.30531522
0.35343979,-1.24609080

>  <Name>
ligand

>  <RI>
0

>  <Rbt.Current_Directory>
/home/itssahil/PROJECTS/Mol_Feturizer/New_Systems/rnas/3D2G

>  <Rbt.Executable>
rbdock ($Id: //depot/dev/client3/rdock/2013.1/src/exe/rbdock.cxx#4 $)

>  <Rbt.Library>
libRbt.so (2013.1, Build901 2013/11/27)

>  <Rbt.Parameter_File>
/export/apps/rDock/src/rDock_2013.1_src/data/scripts/dock_solv.prm

>  <Rbt.Receptor>
prm/pocket_docking_2.prm

>  <SCORE>
-19.7034

>  <SCORE.INTER>
-15.458

>  <SCORE.INTER.CONST>
1

>  <SCORE.INTER.POLAR>
0

>  <SCORE.INTER.ROT>
8

>  <SCORE.INTER.SOLV>
20.4649

>  <SCORE.INTER.VDW>
-26.0603

>  <SCORE.INTER.norm>
-0.59454

>  <SCORE.INTRA>
-4.24539

>  <SCORE.INTRA.DIHEDRAL>
-3.36854

>  <SCORE.INTRA.DIHEDRAL.0>
9.09364

>  <SCORE.INTRA.POLAR>
0

>  <SCORE.INTRA.POLAR.0>
0

>  <SCORE.INTRA.REPUL>
0

>  <SCORE.INTRA.REPUL.0>
0

>  <SCORE.INTRA.SOLV>
-3.23915

>  <SCORE.INTRA.SOLV.lig_0>
-78.5846

>  <SCORE.INTRA.VDW>
-0.941545

>  <SCORE.INTRA.VDW.0>
-2.81163

>  <SCORE.INTRA.norm>
-0.163284

>  <SCORE.RESTR>
0

>  <SCORE.RESTR.CAVITY>
0

>  <SCORE.RESTR.norm>
0

>  <SCORE.SYSTEM>
0

>  <SCORE.SYSTEM.CONST>
0

>  <SCORE.SYSTEM.DIHEDRAL>
0

>  <SCORE.SYSTEM.SOLV>
0

>  <SCORE.SYSTEM.norm>
0

>  <SCORE.heavy>
26

>  <SCORE.norm>
-0.757824

>  <RMSD>
1.610

$$$$
ligand
 OpenBabel11021811463D
libRbt.so/2013.1/901 2013/11/27
 26 27  0  0  0  0  0  0  0  0999 V2000
  -13.0436  -37.7335    2.1363 C   0  0  0  0  0  0  0  0  0  0  0  0
   -8.1024  -41.8485    4.5942 C   0  0  0  0  0  0  0  0  0  0  0  0
   -4.7553  -44.1017    8.3938 P   0  0  1  0  0  0  0  0  0  0  0  0
   -4.7886  -44.0882   11.1400 P   0  0  2  0  0  0  0  0  0  0  0  0
   -7.6323  -39.6185    2.4593 C   0  0  0  0  0  0  0  0  0  0  0  0
   -9.7308  -38.7574    3.5492 C   0  0  0  0  0  0  0  0  0  0  0  0
   -9.0584  -39.1359    2.3832 C   0  0  0  0  0  0  0  0  0  0  0  0
   -9.6868  -39.0342    1.1390 C   0  0  0  0  0  0  0  0  0  0  0  0
   -9.0426  -39.3771    0.0433 N   0  0  0  0  0  0  0  0  0  0  0  0
  -10.9889  -38.6030    1.0671 N   0  0  0  0  0  0  0  0  0  0  0  0
  -11.6399  -38.2178    2.2222 C   0  0  0  0  0  0  0  0  0  0  0  0
  -11.0278  -38.3052    3.4584 N   0  0  0  0  0  0  0  0  0  0  0  0
   -3.3929  -43.4971    8.5442 O   0  5  0  0  0  0  0  0  0  0  0  0
   -5.3421  -45.0540   12.1109 O   0  0  0  0  0  0  0  0  0  0  0  0
   -6.1299  -38.7136    5.8586 S   0  0  0  0  0  0  0  0  0  0  0  0
   -6.4907  -38.5137    4.3315 C   0  0  0  0  0  0  0  0  0  0  0  0
   -4.9593  -44.9490    7.1880 O   0  0  0  0  0  0  0  0  0  0  0  0
   -5.5126  -42.8029   11.1553 O   0  5  0  0  0  0  0  0  0  0  0  0
   -7.1990  -39.5688    3.8283 N   0  0  0  0  0  0  0  0  0  0  0  0
   -4.9626  -44.8611    9.7669 O   0  0  0  0  0  0  0  0  0  0  0  0
   -3.3607  -43.6833   11.3140 O   0  0  0  0  0  0  0  0  0  0  0  0
   -7.3884  -40.5428    4.7679 C   0  0  1  0  0  0  0  0  0  0  0  0
   -6.8209  -40.1544    5.9554 C   0  0  2  0  0  0  0  0  0  0  0  0
   -6.7582  -40.8451    7.2950 C   0  0  0  0  0  0  0  0  0  0  0  0
   -5.7692  -42.0163    7.2916 C   0  0  0  0  0  0  0  0  0  0  0  0
   -5.7176  -42.8528    8.4329 O   0  0  0  0  0  0  0  0  0  0  0  0
  1 11  1  0  0  0  0
  3 13  1  6  0  0  0
  3 17  2  0  0  0  0
  3 20  1  0  0  0  0
  3 26  1  0  0  0  0
  4 14  1  1  0  0  0
  4 18  1  0  0  0  0
  4 21  2  0  0  0  0
  4 20  1  0  0  0  0
  5 19  1  0  0  0  0
  5  7  1  0  0  0  0
  6  7  2  0  0  0  0
  6 12  1  0  0  0  0
  7  8  1  0  0  0  0
  8  9  1  0  0  0  0
  8 10  2  0  0  0  0
 10 11  1  0  0  0  0
 11 12  2  0  0  0  0
 15 23  1  0  0  0  0
 15 16  1  0  0  0  0
 16 19  1  0  0  0  0
 19 22  1  0  0  0  0
 22  2  1  1  0  0  0
 22 23  1  0  0  0  0
 23 24  1  1  0  0  0
 24 25  1  0  0  0  0
 25 26  1  0  0  0  0
M  CHG  2  13  -1  18  -1
M  END
>  <CHROM.1>
53.81203572,-96.43779562,-1.07185795,168.36480805,-106.91345118,-172.87900888
176.74847132,74.19311245,-6.91227265,-41.33474969,6.31041503,2.10769078,0.32666718
-1.16542851

>  <Name>
ligand

>  <RI>
0

>  <Rbt.Current_Directory>
/home/itssahil/PROJECTS/Mol_Feturizer/New_Systems/rnas/3D2G

>  <Rbt.Executable>
rbdock ($Id: //depot/dev/client3/rdock/2013.1/src/exe/rbdock.cxx#4 $)

>  <Rbt.Library>
libRbt.so (2013.1, Build901 2013/11/27)

>  <Rbt.Parameter_File>
/export/apps/rDock/src/rDock_2013.1_src/data/scripts/dock_solv.prm

>  <Rbt.Receptor>
prm/pocket_docking_3.prm

>  <SCORE>
-20.6156

>  <SCORE.INTER>
-18.0749

>  <SCORE.INTER.CONST>
1

>  <SCORE.INTER.POLAR>
0

>  <SCORE.INTER.ROT>
8

>  <SCORE.INTER.SOLV>
16.5178

>  <SCORE.INTER.VDW>
-26.4892

>  <SCORE.INTER.norm>
-0.69519

>  <SCORE.INTRA>
-2.54064

>  <SCORE.INTRA.DIHEDRAL>
-3.7774

>  <SCORE.INTRA.DIHEDRAL.0>
9.09364

>  <SCORE.INTRA.POLAR>
0

>  <SCORE.INTRA.POLAR.0>
0

>  <SCORE.INTRA.REPUL>
0

>  <SCORE.INTRA.REPUL.0>
0

>  <SCORE.INTRA.SOLV>
-0.58337

>  <SCORE.INTRA.SOLV.lig_0>
-78.5846

>  <SCORE.INTRA.VDW>
-0.360255

>  <SCORE.INTRA.VDW.0>
-2.81163

>  <SCORE.INTRA.norm>
-0.0977169

>  <SCORE.RESTR>
0

>  <SCORE.RESTR.CAVITY>
0

>  <SCORE.RESTR.norm>
0

>  <SCORE.SYSTEM>
0

>  <SCORE.SYSTEM.CONST>
0

>  <SCORE.SYSTEM.DIHEDRAL>
0

>  <SCORE.SYSTEM.SOLV>
0

>  <SCORE.SYSTEM.norm>
0

>  <SCORE.heavy>
26

>  <SCORE.norm>
-0.792907

>  <RMSD>
1.623

$$$$
ligand
 OpenBabel11021811463D
libRbt.so/2013.1/901 2013/11/27
 26 27  0  0  0  0  0  0  0  0999 V2000
  -13.7902  -37.7029    2.0785 C   0  0  0  0  0  0  0  0  0  0  0  0
   -6.8061  -37.9426    5.2016 C   0  0  0  0  0  0  0  0  0  0  0  0
   -4.0579  -42.3497    8.8469 P   0  0  1  0  0  0  0  0  0  0  0  0
   -3.2555  -44.6907   10.0381 P   0  0  2  0  0  0  0  0  0  0  0  0
   -8.3026  -39.2297    2.7817 C   0  0  0  0  0  0  0  0  0  0  0  0
  -10.5357  -38.5519    3.7235 C   0  0  0  0  0  0  0  0  0  0  0  0
   -9.7486  -38.8418    2.6049 C   0  0  0  0  0  0  0  0  0  0  0  0
  -10.2824  -38.7377    1.3175 C   0  0  0  0  0  0  0  0  0  0  0  0
   -9.5314  -38.9966    0.2677 N   0  0  0  0  0  0  0  0  0  0  0  0
  -11.6018  -38.3929    1.1534 N   0  0  0  0  0  0  0  0  0  0  0  0
  -12.3673  -38.0944    2.2631 C   0  0  0  0  0  0  0  0  0  0  0  0
  -11.8499  -38.1850    3.5417 N   0  0  0  0  0  0  0  0  0  0  0  0
   -3.0440  -41.5231    9.5772 O   0  5  0  0  0  0  0  0  0  0  0  0
   -3.9351  -45.6009   10.9823 O   0  0  0  0  0  0  0  0  0  0  0  0
   -8.3518  -41.4737    5.8791 S   0  0  0  0  0  0  0  0  0  0  0  0
   -8.6678  -41.0506    4.3880 C   0  0  0  0  0  0  0  0  0  0  0  0
   -3.6784  -42.7770    7.4733 O   0  0  0  0  0  0  0  0  0  0  0  0
   -1.9807  -44.1781   10.5753 O   0  5  0  0  0  0  0  0  0  0  0  0
   -8.1390  -39.8291    4.0773 N   0  0  0  0  0  0  0  0  0  0  0  0
   -4.3334  -43.5439    9.8485 O   0  0  0  0  0  0  0  0  0  0  0  0
   -2.8709  -45.2474    8.7058 O   0  0  0  0  0  0  0  0  0  0  0  0
   -7.4969  -39.2709    5.1466 C   0  0  1  0  0  0  0  0  0  0  0  0
   -7.5591  -40.1250    6.2189 C   0  0  2  0  0  0  0  0  0  0  0  0
   -7.0066  -40.0001    7.6170 C   0  0  0  0  0  0  0  0  0  0  0  0
   -5.6164  -40.6333    7.7439 C   0  0  0  0  0  0  0  0  0  0  0  0
   -5.3521  -41.4487    8.8709 O   0  0  0  0  0  0  0  0  0  0  0  0
  1 11  1  0  0  0  0
  3 13  1  1  0  0  0
  3 17  2  0  0  0  0
  3 20  1  0  0  0  0
  3 26  1  0  0  0  0
  4 14  1  1  0  0  0
  4 18  1  0  0  0  0
  4 21  2  0  0  0  0
  4 20  1  0  0  0  0
  5 19  1  0  0  0  0
  5  7  1  0  0  0  0
  6  7  2  0  0  0  0
  6 12  1  0  0  0  0
  7  8  1  0  0  0  0
  8  9  1  0  0  0  0
  8 10  2  0  0  0  0
 10 11  1  0  0  0  0
 11 12  2  0  0  0  0
 15 23  1  0  0  0  0
 15 16  1  0  0  0  0
 16 19  1  0  0  0  0
 19 22  1  0  0  0  0
 22  2  1  6  0  0  0
 22 23  1  0  0  0  0
 23 24  1  6  0  0  0
 24 25  1  0  0  0  0
 25 26  1  0  0  0  0
M  CHG  2  13  -1  18  -1
M  END
>  <CHROM.1>
-73.93683784,69.02780725,26.83503966,-177.38333687,86.60293214,-135.34890562
166.64130597,95.82566039,-6.87892621,-41.09657645,6.28493715,2.42663125,-0.56648573
-0.39358173

>  <Name>
ligand

>  <RI>
0

>  <Rbt.Current_Directory>
/home/itssahil/PROJECTS/Mol_Feturizer/New_Systems/rnas/3D2G

>  <Rbt.Executable>
rbdock ($Id: //depot/dev/client3/rdock/2013.1/src/exe/rbdock.cxx#4 $)

>  <Rbt.Library>
libRbt.so (2013.1, Build901 2013/11/27)

>  <Rbt.Parameter_File>
/export/apps/rDock/src/rDock_2013.1_src/data/scripts/dock_solv.prm

>  <Rbt.Receptor>
prm/pocket_docking_2.prm

>  <SCORE>
-17.1215

>  <SCORE.INTER>
-17.8714

>  <SCORE.INTER.CONST>
1

>  <SCORE.INTER.POLAR>
0

>  <SCORE.INTER.ROT>
8

>  <SCORE.INTER.SOLV>
22.1507

>  <SCORE.INTER.VDW>
-28.2312

>  <SCORE.INTER.norm>
-0.687362

>  <SCORE.INTRA>
0.72712

>  <SCORE.INTRA.DIHEDRAL>
2.56311

>  <SCORE.INTRA.DIHEDRAL.0>
9.09364

>  <SCORE.INTRA.POLAR>
0

>  <SCORE.INTRA.POLAR.0>
0

>  <SCORE.INTRA.REPUL>
0

>  <SCORE.INTRA.REPUL.0>
0

>  <SCORE.INTRA.SOLV>
-0.402337

>  <SCORE.INTRA.SOLV.lig_0>
-78.5846

>  <SCORE.INTRA.VDW>
-0.353264

>  <SCORE.INTRA.VDW.0>
-2.81163

>  <SCORE.INTRA.norm>
0.0279662

>  <SCORE.RESTR>
0.0228306

>  <SCORE.RESTR.CAVITY>
0.0228306

>  <SCORE.RESTR.norm>
0.0008781

>  <SCORE.SYSTEM>
0

>  <SCORE.SYSTEM.CONST>
0

>  <SCORE.SYSTEM.DIHEDRAL>
0

>  <SCORE.SYSTEM.SOLV>
0

>  <SCORE.SYSTEM.norm>
0

>  <SCORE.heavy>
26

>  <SCORE.norm>
-0.658517

>  <RMSD>
1.652

$$$$
ligand
 OpenBabel11021811463D
libRbt.so/2013.1/901 2013/11/27
 26 27  0  0  0  0  0  0  0  0999 V2000
  -13.5013  -37.6215    2.0060 C   0  0  0  0  0  0  0  0  0  0  0  0
   -7.7889  -38.3747    5.6128 C   0  0  0  0  0  0  0  0  0  0  0  0
   -4.3440  -42.5534    8.7746 P   0  0  1  0  0  0  0  0  0  0  0  0
   -2.8439  -44.4537   10.0713 P   0  0  2  0  0  0  0  0  0  0  0  0
   -8.1064  -39.4529    2.6992 C   0  0  0  0  0  0  0  0  0  0  0  0
  -10.2375  -38.4858    3.6245 C   0  0  0  0  0  0  0  0  0  0  0  0
   -9.5285  -38.9834    2.5269 C   0  0  0  0  0  0  0  0  0  0  0  0
  -10.1162  -39.0139    1.2593 C   0  0  0  0  0  0  0  0  0  0  0  0
   -9.4377  -39.4687    0.2270 N   0  0  0  0  0  0  0  0  0  0  0  0
  -11.4147  -38.5949    1.1007 N   0  0  0  0  0  0  0  0  0  0  0  0
  -12.1019  -38.0917    2.1874 C   0  0  0  0  0  0  0  0  0  0  0  0
  -11.5301  -38.0478    3.4450 N   0  0  0  0  0  0  0  0  0  0  0  0
   -3.9377  -41.3851    9.6199 O   0  5  0  0  0  0  0  0  0  0  0  0
   -2.4846  -43.8726   11.3808 O   0  0  0  0  0  0  0  0  0  0  0  0
   -8.0049  -42.2688    5.2861 S   0  0  0  0  0  0  0  0  0  0  0  0
   -8.1124  -41.6243    3.8455 C   0  0  0  0  0  0  0  0  0  0  0  0
   -3.5800  -42.7367    7.5113 O   0  0  0  0  0  0  0  0  0  0  0  0
   -1.8442  -44.1476    9.0305 O   0  5  0  0  0  0  0  0  0  0  0  0
   -8.0257  -40.2607    3.8846 N   0  0  0  0  0  0  0  0  0  0  0  0
   -4.2452  -43.7726    9.7791 O   0  0  0  0  0  0  0  0  0  0  0  0
   -2.9793  -45.9400    9.9948 O   0  0  0  0  0  0  0  0  0  0  0  0
   -7.8987  -39.8002    5.1649 C   0  0  1  0  0  0  0  0  0  0  0  0
   -7.8752  -40.8603    6.0359 C   0  0  2  0  0  0  0  0  0  0  0  0
   -7.7401  -40.9045    7.5377 C   0  0  0  0  0  0  0  0  0  0  0  0
   -6.2811  -41.0681    7.9786 C   0  0  0  0  0  0  0  0  0  0  0  0
   -5.8828  -42.3107    8.5283 O   0  0  0  0  0  0  0  0  0  0  0  0
  1 11  1  0  0  0  0
  3 13  1  1  0  0  0
  3 17  2  0  0  0  0
  3 20  1  0  0  0  0
  3 26  1  0  0  0  0
  4 14  1  1  0  0  0
  4 18  1  0  0  0  0
  4 21  2  0  0  0  0
  4 20  1  0  0  0  0
  5 19  1  0  0  0  0
  5  7  1  0  0  0  0
  6  7  2  0  0  0  0
  6 12  1  0  0  0  0
  7  8  1  0  0  0  0
  8  9  1  0  0  0  0
  8 10  2  0  0  0  0
 10 11  1  0  0  0  0
 11 12  2  0  0  0  0
 15 23  1  0  0  0  0
 15 16  1  0  0  0  0
 16 19  1  0  0  0  0
 19 22  1  0  0  0  0
 22  2  1  6  0  0  0
 22 23  1  0  0  0  0
 23 24  1  6  0  0  0
 24 25  1  0  0  0  0
 25 26  1  0  0  0  0
M  CHG  2  13  -1  18  -1
M  END
>  <CHROM.1>
-81.65297766,95.41694401,44.97955834,101.56383853,86.54801163,-108.57079252
170.79276112,54.50345454,-6.85258232,-41.30941525,6.20192654,2.64270226,0.75901939
-1.87274434

>  <Name>
ligand

>  <RI>
0

>  <Rbt.Current_Directory>
/home/itssahil/PROJECTS/Mol_Feturizer/New_Systems/rnas/3D2G

>  <Rbt.Executable>
rbdock ($Id: //depot/dev/client3/rdock/2013.1/src/exe/rbdock.cxx#4 $)

>  <Rbt.Library>
libRbt.so (2013.1, Build901 2013/11/27)

>  <Rbt.Parameter_File>
/export/apps/rDock/src/rDock_2013.1_src/data/scripts/dock_solv.prm

>  <Rbt.Receptor>
prm/pocket_docking_2.prm

>  <SCORE>
-15.5972

>  <SCORE.INTER>
-16.6756

>  <SCORE.INTER.CONST>
1

>  <SCORE.INTER.POLAR>
0

>  <SCORE.INTER.ROT>
8

>  <SCORE.INTER.SOLV>
22.0411

>  <SCORE.INTER.VDW>
-27.3975

>  <SCORE.INTER.norm>
-0.641371

>  <SCORE.INTRA>
1.05088

>  <SCORE.INTRA.DIHEDRAL>
3.71537

>  <SCORE.INTRA.DIHEDRAL.0>
9.09364

>  <SCORE.INTRA.POLAR>
0

>  <SCORE.INTRA.POLAR.0>
0

>  <SCORE.INTRA.REPUL>
0

>  <SCORE.INTRA.REPUL.0>
0

>  <SCORE.INTRA.SOLV>
-1.35126

>  <SCORE.INTRA.SOLV.lig_0>
-78.5846

>  <SCORE.INTRA.VDW>
-0.131181

>  <SCORE.INTRA.VDW.0>
-2.81163

>  <SCORE.INTRA.norm>
0.0404183

>  <SCORE.RESTR>
0.0275297

>  <SCORE.RESTR.CAVITY>
0.0275297

>  <SCORE.RESTR.norm>
0.00105884

>  <SCORE.SYSTEM>
0

>  <SCORE.SYSTEM.CONST>
0

>  <SCORE.SYSTEM.DIHEDRAL>
0

>  <SCORE.SYSTEM.SOLV>
0

>  <SCORE.SYSTEM.norm>
0

>  <SCORE.heavy>
26

>  <SCORE.norm>
-0.599893

>  <RMSD>
1.669

$$$$
ligand
 OpenBabel11021811463D
libRbt.so/2013.1/901 2013/11/27
 26 27  0  0  0  0  0  0  0  0999 V2000
  -13.5653  -37.7458    1.9246 C   0  0  0  0  0  0  0  0  0  0  0  0
   -6.6947  -37.9834    5.2719 C   0  0  0  0  0  0  0  0  0  0  0  0
   -3.9538  -42.5751    7.7581 P   0  0  1  0  0  0  0  0  0  0  0  0
   -3.0278  -43.8188   10.0250 P   0  0  2  0  0  0  0  0  0  0  0  0
   -8.1162  -39.3061    2.8260 C   0  0  0  0  0  0  0  0  0  0  0  0
  -10.3315  -38.4619    3.6706 C   0  0  0  0  0  0  0  0  0  0  0  0
   -9.5524  -38.9082    2.5987 C   0  0  0  0  0  0  0  0  0  0  0  0
  -10.0843  -38.9525    1.3071 C   0  0  0  0  0  0  0  0  0  0  0  0
   -9.3406  -39.3584    0.2996 N   0  0  0  0  0  0  0  0  0  0  0  0
  -11.3951  -38.5988    1.0981 N   0  0  0  0  0  0  0  0  0  0  0  0
  -12.1523  -38.1457    2.1601 C   0  0  0  0  0  0  0  0  0  0  0  0
  -11.6365  -38.0887    3.4412 N   0  0  0  0  0  0  0  0  0  0  0  0
   -2.5895  -42.1888    7.2743 O   0  5  0  0  0  0  0  0  0  0  0  0
   -3.9562  -44.9408    9.7784 O   0  0  0  0  0  0  0  0  0  0  0  0
   -8.2759  -41.4973    5.9572 S   0  0  0  0  0  0  0  0  0  0  0  0
   -8.5412  -41.0983    4.4497 C   0  0  0  0  0  0  0  0  0  0  0  0
   -4.5181  -43.8235    7.1782 O   0  0  0  0  0  0  0  0  0  0  0  0
   -2.8009  -43.5868   11.4641 O   0  5  0  0  0  0  0  0  0  0  0  0
   -7.9976  -39.8840    4.1361 N   0  0  0  0  0  0  0  0  0  0  0  0
   -3.7790  -42.6076    9.3309 O   0  0  0  0  0  0  0  0  0  0  0  0
   -1.6449  -43.9390    9.4714 O   0  0  0  0  0  0  0  0  0  0  0  0
   -7.3886  -39.3101    5.2165 C   0  0  1  0  0  0  0  0  0  0  0  0
   -7.4894  -40.1458    6.3002 C   0  0  2  0  0  0  0  0  0  0  0  0
   -6.9826  -39.9993    7.7135 C   0  0  0  0  0  0  0  0  0  0  0  0
   -6.0647  -41.1585    8.1176 C   0  0  0  0  0  0  0  0  0  0  0  0
   -4.8300  -41.3030    7.4397 O   0  0  0  0  0  0  0  0  0  0  0  0
  1 11  1  0  0  0  0
  3 13  1  6  0  0  0
  3 17  2  0  0  0  0
  3 20  1  0  0  0  0
  3 26  1  0  0  0  0
  4 14  1  6  0  0  0
  4 18  1  0  0  0  0
  4 21  2  0  0  0  0
  4 20  1  0  0  0  0
  5 19  1  0  0  0  0
  5  7  1  0  0  0  0
  6  7  2  0  0  0  0
  6 12  1  0  0  0  0
  7  8  1  0  0  0  0
  8  9  1  0  0  0  0
  8 10  2  0  0  0  0
 10 11  1  0  0  0  0
 11 12  2  0  0  0  0
 15 23  1  0  0  0  0
 15 16  1  0  0  0  0
 16 19  1  0  0  0  0
 19 22  1  0  0  0  0
 22  2  1  6  0  0  0
 22 23  1  0  0  0  0
 23 24  1  6  0  0  0
 24 25  1  0  0  0  0
 25 26  1  0  0  0  0
M  CHG  2  13  -1  18  -1
M  END
>  <CHROM.1>
-75.78698514,69.38518766,33.28411399,-67.38513756,56.66040433,65.19556522
-174.11432974,-161.27830264,-6.74598007,-41.02753191,6.06585324,2.36734463
0.38586711,-1.33897629

>  <Name>
ligand

>  <RI>
0

>  <Rbt.Current_Directory>
/home/itssahil/PROJECTS/Mol_Feturizer/New_Systems/rnas/3D2G

>  <Rbt.Executable>
rbdock ($Id: //depot/dev/client3/rdock/2013.1/src/exe/rbdock.cxx#4 $)

>  <Rbt.Library>
libRbt.so (2013.1, Build901 2013/11/27)

>  <Rbt.Parameter_File>
/export/apps/rDock/src/rDock_2013.1_src/data/scripts/dock_solv.prm

>  <Rbt.Receptor>
prm/pocket_docking_2.prm

>  <SCORE>
-20.0675

>  <SCORE.INTER>
-17.0682

>  <SCORE.INTER.CONST>
1

>  <SCORE.INTER.POLAR>
0

>  <SCORE.INTER.ROT>
8

>  <SCORE.INTER.SOLV>
21.0117

>  <SCORE.INTER.VDW>
-27.3161

>  <SCORE.INTER.norm>
-0.65647

>  <SCORE.INTRA>
-3.12328

>  <SCORE.INTRA.DIHEDRAL>
-3.23643

>  <SCORE.INTRA.DIHEDRAL.0>
9.09364

>  <SCORE.INTRA.POLAR>
0

>  <SCORE.INTRA.POLAR.0>
0

>  <SCORE.INTRA.REPUL>
0

>  <SCORE.INTRA.REPUL.0>
0

>  <SCORE.INTRA.SOLV>
-2.34303

>  <SCORE.INTRA.SOLV.lig_0>
-78.5846

>  <SCORE.INTRA.VDW>
-0.333553

>  <SCORE.INTRA.VDW.0>
-2.81163

>  <SCORE.INTRA.norm>
-0.120126

>  <SCORE.RESTR>
0.124003

>  <SCORE.RESTR.CAVITY>
0.124003

>  <SCORE.RESTR.norm>
0.00476936

>  <SCORE.SYSTEM>
0

>  <SCORE.SYSTEM.CONST>
0

>  <SCORE.SYSTEM.DIHEDRAL>
0

>  <SCORE.SYSTEM.SOLV>
0

>  <SCORE.SYSTEM.norm>
0

>  <SCORE.heavy>
26

>  <SCORE.norm>
-0.771826

>  <RMSD>
1.702

$$$$
ligand
 OpenBabel11021811463D
libRbt.so/2013.1/901 2013/11/27
 26 27  0  0  0  0  0  0  0  0999 V2000
  -13.5520  -37.6764    2.1443 C   0  0  0  0  0  0  0  0  0  0  0  0
   -6.5312  -38.4935    5.2234 C   0  0  0  0  0  0  0  0  0  0  0  0
   -4.0560  -41.6959    8.8671 P   0  0  1  0  0  0  0  0  0  0  0  0
   -2.8674  -43.8006   10.1712 P   0  0  2  0  0  0  0  0  0  0  0  0
   -8.1100  -39.4155    2.6917 C   0  0  0  0  0  0  0  0  0  0  0  0
  -10.2618  -38.5744    3.6894 C   0  0  0  0  0  0  0  0  0  0  0  0
   -9.5442  -38.9711    2.5569 C   0  0  0  0  0  0  0  0  0  0  0  0
  -10.1352  -38.9227    1.2914 C   0  0  0  0  0  0  0  0  0  0  0  0
   -9.4489  -39.2823    0.2272 N   0  0  0  0  0  0  0  0  0  0  0  0
  -11.4445  -38.5264    1.1662 N   0  0  0  0  0  0  0  0  0  0  0  0
  -12.1406  -38.1228    2.2882 C   0  0  0  0  0  0  0  0  0  0  0  0
  -11.5657  -38.1575    3.5448 N   0  0  0  0  0  0  0  0  0  0  0  0
   -4.3153  -40.2717    9.2529 O   0  5  0  0  0  0  0  0  0  0  0  0
   -2.4194  -43.9569   11.5700 O   0  0  0  0  0  0  0  0  0  0  0  0
   -8.2593  -41.9929    5.5141 S   0  0  0  0  0  0  0  0  0  0  0  0
   -8.5618  -41.3862    4.0849 C   0  0  0  0  0  0  0  0  0  0  0  0
   -3.3467  -41.8991    7.5752 O   0  0  0  0  0  0  0  0  0  0  0  0
   -1.7981  -44.1119    9.2037 O   0  5  0  0  0  0  0  0  0  0  0  0
   -7.9703  -40.1666    3.9085 N   0  0  0  0  0  0  0  0  0  0  0  0
   -3.2933  -42.2742   10.1277 O   0  0  0  0  0  0  0  0  0  0  0  0
   -4.0056  -44.6555    9.7163 O   0  0  0  0  0  0  0  0  0  0  0  0
   -7.2924  -39.7688    5.0263 C   0  0  1  0  0  0  0  0  0  0  0  0
   -7.3934  -40.7353    5.9951 C   0  0  2  0  0  0  0  0  0  0  0  0
   -6.8261  -40.8001    7.3914 C   0  0  0  0  0  0  0  0  0  0  0  0
   -6.3047  -42.2000    7.7351 C   0  0  0  0  0  0  0  0  0  0  0  0
   -5.4918  -42.3484    8.8850 O   0  0  0  0  0  0  0  0  0  0  0  0
  1 11  1  0  0  0  0
  3 13  1  1  0  0  0
  3 17  2  0  0  0  0
  3 20  1  0  0  0  0
  3 26  1  0  0  0  0
  4 14  1  1  0  0  0
  4 18  1  0  0  0  0
  4 21  2  0  0  0  0
  4 20  1  0  0  0  0
  5 19  1  0  0  0  0
  5  7  1  0  0  0  0
  6  7  2  0  0  0  0
  6 12  1  0  0  0  0
  7  8  1  0  0  0  0
  8  9  1  0  0  0  0
  8 10  2  0  0  0  0
 10 11  1  0  0  0  0
 11 12  2  0  0  0  0
 15 23  1  0  0  0  0
 15 16  1  0  0  0  0
 16 19  1  0  0  0  0
 19 22  1  0  0  0  0
 22  2  1  6  0  0  0
 22 23  1  0  0  0  0
 23 24  1  6  0  0  0
 24 25  1  0  0  0  0
 25 26  1  0  0  0  0
M  CHG  2  13  -1  18  -1
M  END
>  <CHROM.1>
177.65921110,67.28538787,37.71514166,-170.58910776,40.12484913,166.65499093
-67.85912147,83.35641257,-6.75368322,-41.01919495,6.24450181,2.33168408,0.33127150
-1.34175467

>  <Name>
ligand

>  <RI>
0

>  <Rbt.Current_Directory>
/home/itssahil/PROJECTS/Mol_Feturizer/New_Systems/rnas/3D2G

>  <Rbt.Executable>
rbdock ($Id: //depot/dev/client3/rdock/2013.1/src/exe/rbdock.cxx#4 $)

>  <Rbt.Library>
libRbt.so (2013.1, Build901 2013/11/27)

>  <Rbt.Parameter_File>
/export/apps/rDock/src/rDock_2013.1_src/data/scripts/dock_solv.prm

>  <Rbt.Receptor>
prm/pocket_docking_2.prm

>  <SCORE>
-17.0579

>  <SCORE.INTER>
-17.0207

>  <SCORE.INTER.CONST>
1

>  <SCORE.INTER.POLAR>
0

>  <SCORE.INTER.ROT>
8

>  <SCORE.INTER.SOLV>
20.5719

>  <SCORE.INTER.VDW>
-27.1378

>  <SCORE.INTER.norm>
-0.654644

>  <SCORE.INTRA>
-0.608299

>  <SCORE.INTRA.DIHEDRAL>
-2.46079

>  <SCORE.INTRA.DIHEDRAL.0>
9.09364

>  <SCORE.INTRA.POLAR>
0

>  <SCORE.INTRA.POLAR.0>
0

>  <SCORE.INTRA.REPUL>
0

>  <SCORE.INTRA.REPUL.0>
0

>  <SCORE.INTRA.SOLV>
-0.120848

>  <SCORE.INTRA.SOLV.lig_0>
-78.5846

>  <SCORE.INTRA.VDW>
0.682521

>  <SCORE.INTRA.VDW.0>
-2.81163

>  <SCORE.INTRA.norm>
-0.0233961

>  <SCORE.RESTR>
0.571132

>  <SCORE.RESTR.CAVITY>
0.571132

>  <SCORE.RESTR.norm>
0.0219666

>  <SCORE.SYSTEM>
0

>  <SCORE.SYSTEM.CONST>
0

>  <SCORE.SYSTEM.DIHEDRAL>
0

>  <SCORE.SYSTEM.SOLV>
0

>  <SCORE.SYSTEM.norm>
0

>  <SCORE.heavy>
26

>  <SCORE.norm>
-0.656073

>  <RMSD>
1.713

$$$$
ligand
 OpenBabel11021811463D
libRbt.so/2013.1/901 2013/11/27
 26 27  0  0  0  0  0  0  0  0999 V2000
  -13.3400  -37.8490    2.0763 C   0  0  0  0  0  0  0  0  0  0  0  0
   -7.8394  -38.9181    6.1930 C   0  0  0  0  0  0  0  0  0  0  0  0
   -4.0641  -42.5486    8.1976 P   0  0  1  0  0  0  0  0  0  0  0  0
   -4.0287  -44.6871    9.9205 P   0  0  2  0  0  0  0  0  0  0  0  0
   -7.9384  -39.4820    3.1230 C   0  0  0  0  0  0  0  0  0  0  0  0
  -10.2017  -38.7248    3.9212 C   0  0  0  0  0  0  0  0  0  0  0  0
   -9.3625  -39.0659    2.8561 C   0  0  0  0  0  0  0  0  0  0  0  0
   -9.8228  -38.9874    1.5389 C   0  0  0  0  0  0  0  0  0  0  0  0
   -9.0226  -39.2945    0.5397 N   0  0  0  0  0  0  0  0  0  0  0  0
  -11.1224  -38.6168    1.2928 N   0  0  0  0  0  0  0  0  0  0  0  0
  -11.9393  -38.2680    2.3499 C   0  0  0  0  0  0  0  0  0  0  0  0
  -11.4946  -38.3329    3.6570 N   0  0  0  0  0  0  0  0  0  0  0  0
   -4.0010  -41.7521    9.4649 O   0  5  0  0  0  0  0  0  0  0  0  0
   -3.6230  -46.0866    9.6787 O   0  0  0  0  0  0  0  0  0  0  0  0
   -7.9913  -42.6987    5.1923 S   0  0  0  0  0  0  0  0  0  0  0  0
   -8.0031  -41.8173    3.8788 C   0  0  0  0  0  0  0  0  0  0  0  0
   -3.3955  -41.9407    7.0156 O   0  0  0  0  0  0  0  0  0  0  0  0
   -5.4902  -44.5454   10.0630 O   0  5  0  0  0  0  0  0  0  0  0  0
   -7.9336  -40.4807    4.1560 N   0  0  0  0  0  0  0  0  0  0  0  0
   -3.4757  -43.9532    8.6288 O   0  0  0  0  0  0  0  0  0  0  0  0
   -3.4951  -44.0208   11.1471 O   0  0  0  0  0  0  0  0  0  0  0  0
   -7.9024  -40.2459    5.5019 C   0  0  1  0  0  0  0  0  0  0  0  0
   -7.9297  -41.4393    6.1787 C   0  0  2  0  0  0  0  0  0  0  0  0
   -7.9008  -41.7397    7.6568 C   0  0  0  0  0  0  0  0  0  0  0  0
   -6.4795  -41.6787    8.2276 C   0  0  0  0  0  0  0  0  0  0  0  0
   -5.6104  -42.7685    7.9787 O   0  0  0  0  0  0  0  0  0  0  0  0
  1 11  1  0  0  0  0
  3 13  1  1  0  0  0
  3 17  2  0  0  0  0
  3 20  1  0  0  0  0
  3 26  1  0  0  0  0
  4 14  1  6  0  0  0
  4 18  1  0  0  0  0
  4 21  2  0  0  0  0
  4 20  1  0  0  0  0
  5 19  1  0  0  0  0
  5  7  1  0  0  0  0
  6  7  2  0  0  0  0
  6 12  1  0  0  0  0
  7  8  1  0  0  0  0
  8  9  1  0  0  0  0
  8 10  2  0  0  0  0
 10 11  1  0  0  0  0
 11 12  2  0  0  0  0
 15 23  1  0  0  0  0
 15 16  1  0  0  0  0
 16 19  1  0  0  0  0
 19 22  1  0  0  0  0
 22  2  1  6  0  0  0
 22 23  1  0  0  0  0
 23 24  1  6  0  0  0
 24 25  1  0  0  0  0
 25 26  1  0  0  0  0
M  CHG  2  13  -1  18  -1
M  END
>  <CHROM.1>
49.92070784,91.00015238,49.08975344,159.78855128,98.92670727,-76.94652752
163.07508427,41.64548590,-7.03090772,-41.53128361,6.19783303,2.26742513,0.35074412
-1.22245523

>  <Name>
ligand

>  <RI>
0

>  <Rbt.Current_Directory>
/home/itssahil/PROJECTS/Mol_Feturizer/New_Systems/rnas/3D2G

>  <Rbt.Executable>
rbdock ($Id: //depot/dev/client3/rdock/2013.1/src/exe/rbdock.cxx#4 $)

>  <Rbt.Library>
libRbt.so (2013.1, Build901 2013/11/27)

>  <Rbt.Parameter_File>
/export/apps/rDock/src/rDock_2013.1_src/data/scripts/dock_solv.prm

>  <Rbt.Receptor>
prm/pocket_docking_2.prm

>  <SCORE>
-17.7103

>  <SCORE.INTER>
-16.7257

>  <SCORE.INTER.CONST>
1

>  <SCORE.INTER.POLAR>
0

>  <SCORE.INTER.ROT>
8

>  <SCORE.INTER.SOLV>
17.8943

>  <SCORE.INTER.VDW>
-26.0486

>  <SCORE.INTER.norm>
-0.643295

>  <SCORE.INTRA>
-0.98639

>  <SCORE.INTRA.DIHEDRAL>
-0.714136

>  <SCORE.INTRA.DIHEDRAL.0>
9.09364

>  <SCORE.INTRA.POLAR>
0

>  <SCORE.INTRA.POLAR.0>
0

>  <SCORE.INTRA.REPUL>
0

>  <SCORE.INTRA.REPUL.0>
0

>  <SCORE.INTRA.SOLV>
-0.206272

>  <SCORE.INTRA.SOLV.lig_0>
-78.5846

>  <SCORE.INTRA.VDW>
-0.526186

>  <SCORE.INTRA.VDW.0>
-2.81163

>  <SCORE.INTRA.norm>
-0.0379381

>  <SCORE.RESTR>
0.0017634

>  <SCORE.RESTR.CAVITY>
0.0017634

>  <SCORE.RESTR.norm>
6.7823e-05

>  <SCORE.SYSTEM>
0

>  <SCORE.SYSTEM.CONST>
0

>  <SCORE.SYSTEM.DIHEDRAL>
0

>  <SCORE.SYSTEM.SOLV>
0

>  <SCORE.SYSTEM.norm>
0

>  <SCORE.heavy>
26

>  <SCORE.norm>
-0.681165

>  <RMSD>
1.738

$$$$
ligand
 OpenBabel11021811463D
libRbt.so/2013.1/901 2013/11/27
 26 27  0  0  0  0  0  0  0  0999 V2000
  -13.6448  -37.8159    1.7993 C   0  0  0  0  0  0  0  0  0  0  0  0
   -7.6768  -41.9920    4.8267 C   0  0  0  0  0  0  0  0  0  0  0  0
   -4.6055  -42.9698    9.6097 P   0  0  1  0  0  0  0  0  0  0  0  0
   -4.4884  -45.7076    9.7924 P   0  0  2  0  0  0  0  0  0  0  0  0
   -8.3590  -39.2355    3.5272 C   0  0  0  0  0  0  0  0  0  0  0  0
  -10.6961  -38.4426    4.0200 C   0  0  0  0  0  0  0  0  0  0  0  0
   -9.7534  -38.8746    3.0821 C   0  0  0  0  0  0  0  0  0  0  0  0
  -10.0826  -38.9385    1.7254 C   0  0  0  0  0  0  0  0  0  0  0  0
   -9.1855  -39.3308    0.8454 N   0  0  0  0  0  0  0  0  0  0  0  0
  -11.3547  -38.6186    1.3177 N   0  0  0  0  0  0  0  0  0  0  0  0
  -12.2744  -38.1793    2.2491 C   0  0  0  0  0  0  0  0  0  0  0  0
  -11.9599  -38.1032    3.5929 N   0  0  0  0  0  0  0  0  0  0  0  0
   -4.3364  -41.8787   10.6005 O   0  5  0  0  0  0  0  0  0  0  0  0
   -3.1074  -45.7862    9.2743 O   0  0  0  0  0  0  0  0  0  0  0  0
   -8.6328  -39.1497    7.3416 S   0  0  0  0  0  0  0  0  0  0  0  0
   -8.6893  -38.5750    5.8689 C   0  0  0  0  0  0  0  0  0  0  0  0
   -3.7424  -42.9727    8.3979 O   0  0  0  0  0  0  0  0  0  0  0  0
   -5.4951  -45.8172    8.7196 O   0  5  0  0  0  0  0  0  0  0  0  0
   -8.3823  -39.5242    4.9346 N   0  0  0  0  0  0  0  0  0  0  0  0
   -4.5016  -44.2829   10.4873 O   0  0  0  0  0  0  0  0  0  0  0  0
   -4.9129  -46.7518   10.7736 O   0  0  0  0  0  0  0  0  0  0  0  0
   -8.0746  -40.7223    5.5153 C   0  0  1  0  0  0  0  0  0  0  0  0
   -8.1879  -40.6162    6.8787 C   0  0  2  0  0  0  0  0  0  0  0  0
   -7.9762  -41.6344    7.9715 C   0  0  0  0  0  0  0  0  0  0  0  0
   -6.4945  -41.7904    8.3321 C   0  0  0  0  0  0  0  0  0  0  0  0
   -6.1349  -42.7882    9.2701 O   0  0  0  0  0  0  0  0  0  0  0  0
  1 11  1  0  0  0  0
  3 13  1  1  0  0  0
  3 17  2  0  0  0  0
  3 20  1  0  0  0  0
  3 26  1  0  0  0  0
  4 14  1  6  0  0  0
  4 18  1  0  0  0  0
  4 21  2  0  0  0  0
  4 20  1  0  0  0  0
  5 19  1  0  0  0  0
  5  7  1  0  0  0  0
  6  7  2  0  0  0  0
  6 12  1  0  0  0  0
  7  8  1  0  0  0  0
  8  9  1  0  0  0  0
  8 10  2  0  0  0  0
 10 11  1  0  0  0  0
 11 12  2  0  0  0  0
 15 23  1  0  0  0  0
 15 16  1  0  0  0  0
 16 19  1  0  0  0  0
 19 22  1  0  0  0  0
 22  2  1  6  0  0  0
 22 23  1  0  0  0  0
 23 24  1  6  0  0  0
 24 25  1  0  0  0  0
 25 26  1  0  0  0  0
M  CHG  2  13  -1  18  -1
M  END
>  <CHROM.1>
-170.10383205,-64.53984451,20.75073795,76.70611294,-98.74348027,-175.14627466
178.44477755,80.68519540,-7.41496911,-41.50754836,6.68629087,-2.99051376
-0.96202335,0.89705529

>  <Name>
ligand

>  <RI>
0

>  <Rbt.Current_Directory>
/home/itssahil/PROJECTS/Mol_Feturizer/New_Systems/rnas/3D2G

>  <Rbt.Executable>
rbdock ($Id: //depot/dev/client3/rdock/2013.1/src/exe/rbdock.cxx#4 $)

>  <Rbt.Library>
libRbt.so (2013.1, Build901 2013/11/27)

>  <Rbt.Parameter_File>
/export/apps/rDock/src/rDock_2013.1_src/data/scripts/dock_solv.prm

>  <Rbt.Receptor>
prm/pocket_docking_5.prm

>  <SCORE>
-20.1343

>  <SCORE.INTER>
-17.7524

>  <SCORE.INTER.CONST>
1

>  <SCORE.INTER.POLAR>
0

>  <SCORE.INTER.ROT>
8

>  <SCORE.INTER.SOLV>
20.0986

>  <SCORE.INTER.VDW>
-27.4678

>  <SCORE.INTER.norm>
-0.682783

>  <SCORE.INTRA>
-2.38195

>  <SCORE.INTRA.DIHEDRAL>
-2.99212

>  <SCORE.INTRA.DIHEDRAL.0>
9.09364

>  <SCORE.INTRA.POLAR>
0

>  <SCORE.INTRA.POLAR.0>
0

>  <SCORE.INTRA.REPUL>
0

>  <SCORE.INTRA.REPUL.0>
0

>  <SCORE.INTRA.SOLV>
-2.62165

>  <SCORE.INTRA.SOLV.lig_0>
-78.5846

>  <SCORE.INTRA.VDW>
0.424939

>  <SCORE.INTRA.VDW.0>
-2.81163

>  <SCORE.INTRA.norm>
-0.0916133

>  <SCORE.RESTR>
0

>  <SCORE.RESTR.CAVITY>
0

>  <SCORE.RESTR.norm>
0

>  <SCORE.SYSTEM>
0

>  <SCORE.SYSTEM.CONST>
0

>  <SCORE.SYSTEM.DIHEDRAL>
0

>  <SCORE.SYSTEM.SOLV>
0

>  <SCORE.SYSTEM.norm>
0

>  <SCORE.heavy>
26

>  <SCORE.norm>
-0.774397

>  <RMSD>
1.746

$$$$
ligand
 OpenBabel11021811463D
libRbt.so/2013.1/901 2013/11/27
 26 27  0  0  0  0  0  0  0  0999 V2000
  -13.4812  -37.8047    1.8432 C   0  0  0  0  0  0  0  0  0  0  0  0
   -8.3750  -41.7692    5.0772 C   0  0  0  0  0  0  0  0  0  0  0  0
   -5.3230  -43.3882    9.6870 P   0  0  1  0  0  0  0  0  0  0  0  0
   -4.1716  -45.6721    8.6866 P   0  0  2  0  0  0  0  0  0  0  0  0
   -8.1293  -39.1155    3.4494 C   0  0  0  0  0  0  0  0  0  0  0  0
  -10.4298  -38.2376    3.9694 C   0  0  0  0  0  0  0  0  0  0  0  0
   -9.5407  -38.7821    3.0378 C   0  0  0  0  0  0  0  0  0  0  0  0
   -9.9393  -38.9851    1.7137 C   0  0  0  0  0  0  0  0  0  0  0  0
   -9.0924  -39.4832    0.8375 N   0  0  0  0  0  0  0  0  0  0  0  0
  -11.2271  -38.6904    1.3376 N   0  0  0  0  0  0  0  0  0  0  0  0
  -12.0935  -38.1398    2.2609 C   0  0  0  0  0  0  0  0  0  0  0  0
  -11.7101  -37.9257    3.5715 N   0  0  0  0  0  0  0  0  0  0  0  0
   -5.4875  -44.0235   11.0338 O   0  5  0  0  0  0  0  0  0  0  0  0
   -4.2967  -46.3014   10.0171 O   0  0  0  0  0  0  0  0  0  0  0  0
   -7.8565  -38.5358    7.2205 S   0  0  0  0  0  0  0  0  0  0  0  0
   -7.8815  -38.1402    5.6891 C   0  0  0  0  0  0  0  0  0  0  0  0
   -4.1312  -42.5126    9.5243 O   0  0  0  0  0  0  0  0  0  0  0  0
   -2.8595  -45.0254    8.4952 O   0  5  0  0  0  0  0  0  0  0  0  0
   -8.0781  -39.2249    4.8811 N   0  0  0  0  0  0  0  0  0  0  0  0
   -5.3623  -44.6257    8.7011 O   0  0  0  0  0  0  0  0  0  0  0  0
   -4.2963  -46.5623    7.4928 O   0  0  0  0  0  0  0  0  0  0  0  0
   -8.1725  -40.3811    5.6034 C   0  0  1  0  0  0  0  0  0  0  0  0
   -8.0608  -40.0989    6.9417 C   0  0  2  0  0  0  0  0  0  0  0  0
   -8.1095  -41.0000    8.1505 C   0  0  0  0  0  0  0  0  0  0  0  0
   -6.7790  -41.7259    8.3799 C   0  0  0  0  0  0  0  0  0  0  0  0
   -6.6819  -42.6158    9.4770 O   0  0  0  0  0  0  0  0  0  0  0  0
  1 11  1  0  0  0  0
  3 13  1  1  0  0  0
  3 17  2  0  0  0  0
  3 20  1  0  0  0  0
  3 26  1  0  0  0  0
  4 14  1  1  0  0  0
  4 18  1  0  0  0  0
  4 21  2  0  0  0  0
  4 20  1  0  0  0  0
  5 19  1  0  0  0  0
  5  7  1  0  0  0  0
  6  7  2  0  0  0  0
  6 12  1  0  0  0  0
  7  8  1  0  0  0  0
  8  9  1  0  0  0  0
  8 10  2  0  0  0  0
 10 11  1  0  0  0  0
 11 12  2  0  0  0  0
 15 23  1  0  0  0  0
 15 16  1  0  0  0  0
 16 19  1  0  0  0  0
 19 22  1  0  0  0  0
 22  2  1  1  0  0  0
 22 23  1  0  0  0  0
 23 24  1  1  0  0  0
 24 25  1  0  0  0  0
 25 26  1  0  0  0  0
M  CHG  2  13  -1  18  -1
M  END
>  <CHROM.1>
-68.92306034,-86.31532789,19.58456886,66.92065013,-100.97053993,-179.53106734
178.46110480,170.28465477,-7.37146520,-41.45216398,6.50434995,-2.93147170
-0.96595894,1.02711779

>  <Name>
ligand

>  <RI>
0

>  <Rbt.Current_Directory>
/home/itssahil/PROJECTS/Mol_Feturizer/New_Systems/rnas/3D2G

>  <Rbt.Executable>
rbdock ($Id: //depot/dev/client3/rdock/2013.1/src/exe/rbdock.cxx#4 $)

>  <Rbt.Library>
libRbt.so (2013.1, Build901 2013/11/27)

>  <Rbt.Parameter_File>
/export/apps/rDock/src/rDock_2013.1_src/data/scripts/dock_solv.prm

>  <Rbt.Receptor>
prm/pocket_docking_3.prm

>  <SCORE>
-20.5823

>  <SCORE.INTER>
-17.2087

>  <SCORE.INTER.CONST>
1

>  <SCORE.INTER.POLAR>
0

>  <SCORE.INTER.ROT>
8

>  <SCORE.INTER.SOLV>
14.6286

>  <SCORE.INTER.VDW>
-25.282

>  <SCORE.INTER.norm>
-0.661871

>  <SCORE.INTRA>
-3.37366

>  <SCORE.INTRA.DIHEDRAL>
-3.77694

>  <SCORE.INTRA.DIHEDRAL.0>
9.09364

>  <SCORE.INTRA.POLAR>
0

>  <SCORE.INTRA.POLAR.0>
0

>  <SCORE.INTRA.REPUL>
0

>  <SCORE.INTRA.REPUL.0>
0

>  <SCORE.INTRA.SOLV>
-2.31633

>  <SCORE.INTRA.SOLV.lig_0>
-78.5846

>  <SCORE.INTRA.VDW>
-0.327023

>  <SCORE.INTRA.VDW.0>
-2.81163

>  <SCORE.INTRA.norm>
-0.129756

>  <SCORE.RESTR>
0

>  <SCORE.RESTR.CAVITY>
0

>  <SCORE.RESTR.norm>
0

>  <SCORE.SYSTEM>
0

>  <SCORE.SYSTEM.CONST>
0

>  <SCORE.SYSTEM.DIHEDRAL>
0

>  <SCORE.SYSTEM.SOLV>
0

>  <SCORE.SYSTEM.norm>
0

>  <SCORE.heavy>
26

>  <SCORE.norm>
-0.791627

>  <RMSD>
1.758

$$$$
ligand
 OpenBabel11021811463D
libRbt.so/2013.1/901 2013/11/27
 26 27  0  0  0  0  0  0  0  0999 V2000
  -13.2339  -37.7370    1.9567 C   0  0  0  0  0  0  0  0  0  0  0  0
   -8.4978  -40.8765    5.6998 C   0  0  0  0  0  0  0  0  0  0  0  0
   -4.2043  -41.7138    8.3763 P   0  0  1  0  0  0  0  0  0  0  0  0
   -3.2475  -42.8788   10.6720 P   0  0  2  0  0  0  0  0  0  0  0  0
   -7.8488  -39.4147    3.0176 C   0  0  0  0  0  0  0  0  0  0  0  0
  -10.0220  -38.3901    3.7665 C   0  0  0  0  0  0  0  0  0  0  0  0
   -9.2686  -38.9846    2.7497 C   0  0  0  0  0  0  0  0  0  0  0  0
   -9.8098  -39.1494    1.4718 C   0  0  0  0  0  0  0  0  0  0  0  0
   -9.0897  -39.6953    0.5144 N   0  0  0  0  0  0  0  0  0  0  0  0
  -11.1060  -38.7665    1.2267 N   0  0  0  0  0  0  0  0  0  0  0  0
  -11.8372  -38.1672    2.2330 C   0  0  0  0  0  0  0  0  0  0  0  0
  -11.3117  -37.9903    3.4991 N   0  0  0  0  0  0  0  0  0  0  0  0
   -2.8335  -41.3993    7.8601 O   0  5  0  0  0  0  0  0  0  0  0  0
   -1.9014  -42.7974   10.0694 O   0  0  0  0  0  0  0  0  0  0  0  0
   -6.4434  -37.5643    6.0562 S   0  0  0  0  0  0  0  0  0  0  0  0
   -6.7351  -37.8273    4.5238 C   0  0  0  0  0  0  0  0  0  0  0  0
   -4.8239  -42.9612    7.8533 O   0  0  0  0  0  0  0  0  0  0  0  0
   -3.8892  -44.1854   10.4321 O   0  5  0  0  0  0  0  0  0  0  0  0
   -7.4679  -38.9643    4.3277 N   0  0  0  0  0  0  0  0  0  0  0  0
   -4.0082  -41.6921    9.9468 O   0  0  0  0  0  0  0  0  0  0  0  0
   -3.3466  -42.7113   12.1536 O   0  0  0  0  0  0  0  0  0  0  0  0
   -7.7357  -39.6010    5.5068 C   0  0  1  0  0  0  0  0  0  0  0  0
   -7.1991  -38.8870    6.5486 C   0  0  2  0  0  0  0  0  0  0  0  0
   -7.2187  -39.1398    8.0356 C   0  0  0  0  0  0  0  0  0  0  0  0
   -6.3937  -40.3734    8.4194 C   0  0  0  0  0  0  0  0  0  0  0  0
   -5.0362  -40.4223    8.0196 O   0  0  0  0  0  0  0  0  0  0  0  0
  1 11  1  0  0  0  0
  3 13  1  6  0  0  0
  3 17  2  0  0  0  0
  3 20  1  0  0  0  0
  3 26  1  0  0  0  0
  4 14  1  6  0  0  0
  4 18  1  0  0  0  0
  4 21  2  0  0  0  0
  4 20  1  0  0  0  0
  5 19  1  0  0  0  0
  5  7  1  0  0  0  0
  6  7  2  0  0  0  0
  6 12  1  0  0  0  0
  7  8  1  0  0  0  0
  8  9  1  0  0  0  0
  8 10  2  0  0  0  0
 10 11  1  0  0  0  0
 11 12  2  0  0  0  0
 15 23  1  0  0  0  0
 15 16  1  0  0  0  0
 16 19  1  0  0  0  0
 19 22  1  0  0  0  0
 22  2  1  1  0  0  0
 22 23  1  0  0  0  0
 23 24  1  1  0  0  0
 24 25  1  0  0  0  0
 25 26  1  0  0  0  0
M  CHG  2  13  -1  18  -1
M  END
>  <CHROM.1>
-73.59574210,-98.70054212,-6.63439128,62.02089617,-112.71100368,55.53296720
-178.06214595,-177.91595087,-6.63812769,-40.27436511,6.43061164,3.03740406
-0.88828776,0.35548840

>  <Name>
ligand

>  <RI>
0

>  <Rbt.Current_Directory>
/home/itssahil/PROJECTS/Mol_Feturizer/New_Systems/rnas/3D2G

>  <Rbt.Executable>
rbdock ($Id: //depot/dev/client3/rdock/2013.1/src/exe/rbdock.cxx#4 $)

>  <Rbt.Library>
libRbt.so (2013.1, Build901 2013/11/27)

>  <Rbt.Parameter_File>
/export/apps/rDock/src/rDock_2013.1_src/data/scripts/dock_solv.prm

>  <Rbt.Receptor>
prm/pocket_docking_4.prm

>  <SCORE>
-22.5631

>  <SCORE.INTER>
-18.5531

>  <SCORE.INTER.CONST>
1

>  <SCORE.INTER.POLAR>
0

>  <SCORE.INTER.ROT>
8

>  <SCORE.INTER.SOLV>
19.2855

>  <SCORE.INTER.VDW>
-27.7306

>  <SCORE.INTER.norm>
-0.713582

>  <SCORE.INTRA>
-4.00992

>  <SCORE.INTRA.DIHEDRAL>
-4.09525

>  <SCORE.INTRA.DIHEDRAL.0>
9.09364

>  <SCORE.INTRA.POLAR>
0

>  <SCORE.INTRA.POLAR.0>
0

>  <SCORE.INTRA.REPUL>
0

>  <SCORE.INTRA.REPUL.0>
0

>  <SCORE.INTRA.SOLV>
-2.47926

>  <SCORE.INTRA.SOLV.lig_0>
-78.5846

>  <SCORE.INTRA.VDW>
-0.722664

>  <SCORE.INTRA.VDW.0>
-2.81163

>  <SCORE.INTRA.norm>
-0.154228

>  <SCORE.RESTR>
0

>  <SCORE.RESTR.CAVITY>
0

>  <SCORE.RESTR.norm>
0

>  <SCORE.SYSTEM>
0

>  <SCORE.SYSTEM.CONST>
0

>  <SCORE.SYSTEM.DIHEDRAL>
0

>  <SCORE.SYSTEM.SOLV>
0

>  <SCORE.SYSTEM.norm>
0

>  <SCORE.heavy>
26

>  <SCORE.norm>
-0.86781

>  <RMSD>
1.770

$$$$
ligand
 OpenBabel11021811463D
libRbt.so/2013.1/901 2013/11/27
 26 27  0  0  0  0  0  0  0  0999 V2000
  -13.0562  -37.6560    2.3005 C   0  0  0  0  0  0  0  0  0  0  0  0
   -6.1897  -37.9978    4.4767 C   0  0  0  0  0  0  0  0  0  0  0  0
   -4.1868  -41.9393    8.6790 P   0  0  1  0  0  0  0  0  0  0  0  0
   -3.9193  -44.6691    8.8193 P   0  0  2  0  0  0  0  0  0  0  0  0
   -7.6840  -39.6755    2.3077 C   0  0  0  0  0  0  0  0  0  0  0  0
   -9.7406  -38.8897    3.5267 C   0  0  0  0  0  0  0  0  0  0  0  0
   -9.1000  -39.1583    2.3133 C   0  0  0  0  0  0  0  0  0  0  0  0
   -9.7500  -38.9145    1.1004 C   0  0  0  0  0  0  0  0  0  0  0  0
   -9.1355  -39.1545   -0.0388 N   0  0  0  0  0  0  0  0  0  0  0  0
  -11.0432  -38.4515    1.1021 N   0  0  0  0  0  0  0  0  0  0  0  0
  -11.6625  -38.1755    2.3049 C   0  0  0  0  0  0  0  0  0  0  0  0
  -11.0284  -38.4038    3.5117 N   0  0  0  0  0  0  0  0  0  0  0  0
   -4.0997  -40.8518    9.7057 O   0  5  0  0  0  0  0  0  0  0  0  0
   -2.8588  -44.5572    7.7972 O   0  0  0  0  0  0  0  0  0  0  0  0
   -7.2198  -41.6104    5.5746 S   0  0  0  0  0  0  0  0  0  0  0  0
   -7.6957  -41.3692    4.0854 C   0  0  0  0  0  0  0  0  0  0  0  0
   -3.3392  -41.7589    7.4697 O   0  0  0  0  0  0  0  0  0  0  0  0
   -5.2401  -44.9516    8.2258 O   0  5  0  0  0  0  0  0  0  0  0  0
   -7.3507  -40.1274    3.6303 N   0  0  0  0  0  0  0  0  0  0  0  0
   -3.8631  -43.2449    9.5132 O   0  0  0  0  0  0  0  0  0  0  0  0
   -3.7671  -45.7396    9.8508 O   0  0  0  0  0  0  0  0  0  0  0  0
   -6.7081  -39.3988    4.5913 C   0  0  1  0  0  0  0  0  0  0  0  0
   -6.5823  -40.1504    5.7325 C   0  0  2  0  0  0  0  0  0  0  0  0
   -5.9490  -39.8301    7.0637 C   0  0  0  0  0  0  0  0  0  0  0  0
   -6.4212  -40.7823    8.1683 C   0  0  0  0  0  0  0  0  0  0  0  0
   -5.7262  -42.0037    8.3420 O   0  0  0  0  0  0  0  0  0  0  0  0
  1 11  1  0  0  0  0
  3 13  1  1  0  0  0
  3 17  2  0  0  0  0
  3 20  1  0  0  0  0
  3 26  1  0  0  0  0
  4 14  1  6  0  0  0
  4 18  1  0  0  0  0
  4 21  2  0  0  0  0
  4 20  1  0  0  0  0
  5 19  1  0  0  0  0
  5  7  1  0  0  0  0
  6  7  2  0  0  0  0
  6 12  1  0  0  0  0
  7  8  1  0  0  0  0
  8  9  1  0  0  0  0
  8 10  2  0  0  0  0
 10 11  1  0  0  0  0
 11 12  2  0  0  0  0
 15 23  1  0  0  0  0
 15 16  1  0  0  0  0
 16 19  1  0  0  0  0
 19 22  1  0  0  0  0
 22  2  1  6  0  0  0
 22 23  1  0  0  0  0
 23 24  1  6  0  0  0
 24 25  1  0  0  0  0
 25 26  1  0  0  0  0
M  CHG  2  13  -1  18  -1
M  END
>  <CHROM.1>
176.86493582,82.92590630,14.72094664,62.84850483,-18.55731561,86.76889295
59.52097727,43.47259486,-6.67314834,-41.10758444,5.83877388,-2.85758332,0.90088456
-2.86716029

>  <Name>
ligand

>  <RI>
0

>  <Rbt.Current_Directory>
/home/itssahil/PROJECTS/Mol_Feturizer/New_Systems/rnas/3D2G

>  <Rbt.Executable>
rbdock ($Id: //depot/dev/client3/rdock/2013.1/src/exe/rbdock.cxx#4 $)

>  <Rbt.Library>
libRbt.so (2013.1, Build901 2013/11/27)

>  <Rbt.Parameter_File>
/export/apps/rDock/src/rDock_2013.1_src/data/scripts/dock_solv.prm

>  <Rbt.Receptor>
prm/pocket_docking_2.prm

>  <SCORE>
-14.7572

>  <SCORE.INTER>
-15.5635

>  <SCORE.INTER.CONST>
1

>  <SCORE.INTER.POLAR>
0

>  <SCORE.INTER.ROT>
8

>  <SCORE.INTER.SOLV>
19.2157

>  <SCORE.INTER.VDW>
-25.7142

>  <SCORE.INTER.norm>
-0.598596

>  <SCORE.INTRA>
0.783521

>  <SCORE.INTRA.DIHEDRAL>
-1.40294

>  <SCORE.INTRA.DIHEDRAL.0>
9.09364

>  <SCORE.INTRA.POLAR>
0

>  <SCORE.INTRA.POLAR.0>
0

>  <SCORE.INTRA.REPUL>
0

>  <SCORE.INTRA.REPUL.0>
0

>  <SCORE.INTRA.SOLV>
-1.89007

>  <SCORE.INTRA.SOLV.lig_0>
-78.5846

>  <SCORE.INTRA.VDW>
2.43003

>  <SCORE.INTRA.VDW.0>
-2.81163

>  <SCORE.INTRA.norm>
0.0301354

>  <SCORE.RESTR>
0.0227653

>  <SCORE.RESTR.CAVITY>
0.0227653

>  <SCORE.RESTR.norm>
0.000875587

>  <SCORE.SYSTEM>
0

>  <SCORE.SYSTEM.CONST>
0

>  <SCORE.SYSTEM.DIHEDRAL>
0

>  <SCORE.SYSTEM.SOLV>
0

>  <SCORE.SYSTEM.norm>
0

>  <SCORE.heavy>
26

>  <SCORE.norm>
-0.567585

>  <RMSD>
1.790

$$$$
ligand
 OpenBabel11021811463D
libRbt.so/2013.1/901 2013/11/27
 26 27  0  0  0  0  0  0  0  0999 V2000
  -13.4290  -37.6768    2.2798 C   0  0  0  0  0  0  0  0  0  0  0  0
   -6.3125  -38.4780    5.1885 C   0  0  0  0  0  0  0  0  0  0  0  0
   -3.7929  -42.4158    8.2722 P   0  0  1  0  0  0  0  0  0  0  0  0
   -4.3255  -44.7120    9.6816 P   0  0  2  0  0  0  0  0  0  0  0  0
   -7.9716  -39.4009    2.7089 C   0  0  0  0  0  0  0  0  0  0  0  0
  -10.1110  -38.5883    3.7559 C   0  0  0  0  0  0  0  0  0  0  0  0
   -9.4097  -38.9606    2.6050 C   0  0  0  0  0  0  0  0  0  0  0  0
  -10.0209  -38.8913    1.3501 C   0  0  0  0  0  0  0  0  0  0  0  0
   -9.3499  -39.2280    0.2687 N   0  0  0  0  0  0  0  0  0  0  0  0
  -11.3336  -38.4988    1.2529 N   0  0  0  0  0  0  0  0  0  0  0  0
  -12.0136  -38.1194    2.3932 C   0  0  0  0  0  0  0  0  0  0  0  0
  -11.4188  -38.1748    3.6396 N   0  0  0  0  0  0  0  0  0  0  0  0
   -2.3096  -42.3512    8.4725 O   0  5  0  0  0  0  0  0  0  0  0  0
   -5.4219  -45.0581    8.7544 O   0  0  0  0  0  0  0  0  0  0  0  0
   -8.0586  -41.9621    5.5487 S   0  0  0  0  0  0  0  0  0  0  0  0
   -8.3979  -41.3606    4.1256 C   0  0  0  0  0  0  0  0  0  0  0  0
   -4.2497  -43.0603    7.0115 O   0  0  0  0  0  0  0  0  0  0  0  0
   -4.5816  -45.1904   11.0535 O   0  5  0  0  0  0  0  0  0  0  0  0
   -7.8024  -40.1467    3.9253 N   0  0  0  0  0  0  0  0  0  0  0  0
   -4.3006  -43.1296    9.5905 O   0  0  0  0  0  0  0  0  0  0  0  0
   -2.9687  -45.2569    9.3726 O   0  0  0  0  0  0  0  0  0  0  0  0
   -7.0891  -39.7482    5.0207 C   0  0  1  0  0  0  0  0  0  0  0  0
   -7.1693  -40.7088    5.9974 C   0  0  2  0  0  0  0  0  0  0  0  0
   -6.5619  -40.7707    7.3769 C   0  0  0  0  0  0  0  0  0  0  0  0
   -5.0784  -40.3850    7.3691 C   0  0  0  0  0  0  0  0  0  0  0  0
   -4.2447  -40.9091    8.3866 O   0  0  0  0  0  0  0  0  0  0  0  0
  1 11  1  0  0  0  0
  3 13  1  1  0  0  0
  3 17  2  0  0  0  0
  3 20  1  0  0  0  0
  3 26  1  0  0  0  0
  4 14  1  6  0  0  0
  4 18  1  0  0  0  0
  4 21  2  0  0  0  0
  4 20  1  0  0  0  0
  5 19  1  0  0  0  0
  5  7  1  0  0  0  0
  6  7  2  0  0  0  0
  6 12  1  0  0  0  0
  7  8  1  0  0  0  0
  8  9  1  0  0  0  0
  8 10  2  0  0  0  0
 10 11  1  0  0  0  0
 11 12  2  0  0  0  0
 15 23  1  0  0  0  0
 15 16  1  0  0  0  0
 16 19  1  0  0  0  0
 19 22  1  0  0  0  0
 22  2  1  6  0  0  0
 22 23  1  0  0  0  0
 23 24  1  6  0  0  0
 24 25  1  0  0  0  0
 25 26  1  0  0  0  0
M  CHG  2  13  -1  18  -1
M  END
>  <CHROM.1>
-85.72784811,66.58401210,36.34569768,-70.33179935,133.00022576,-153.66848163
76.22879408,130.16308766,-6.84052045,-41.27693940,6.03425034,2.27084211,-0.32197056
-0.66729394

>  <Name>
ligand

>  <RI>
0

>  <Rbt.Current_Directory>
/home/itssahil/PROJECTS/Mol_Feturizer/New_Systems/rnas/3D2G

>  <Rbt.Executable>
rbdock ($Id: //depot/dev/client3/rdock/2013.1/src/exe/rbdock.cxx#4 $)

>  <Rbt.Library>
libRbt.so (2013.1, Build901 2013/11/27)

>  <Rbt.Parameter_File>
/export/apps/rDock/src/rDock_2013.1_src/data/scripts/dock_solv.prm

>  <Rbt.Receptor>
prm/pocket_docking_2.prm

>  <SCORE>
-15.9438

>  <SCORE.INTER>
-16.4645

>  <SCORE.INTER.CONST>
1

>  <SCORE.INTER.POLAR>
0

>  <SCORE.INTER.ROT>
8

>  <SCORE.INTER.SOLV>
19.8801

>  <SCORE.INTER.VDW>
-26.5364

>  <SCORE.INTER.norm>
-0.633249

>  <SCORE.INTRA>
0.518145

>  <SCORE.INTRA.DIHEDRAL>
1.97648

>  <SCORE.INTRA.DIHEDRAL.0>
9.09364

>  <SCORE.INTRA.POLAR>
0

>  <SCORE.INTRA.POLAR.0>
0

>  <SCORE.INTRA.REPUL>
0

>  <SCORE.INTRA.REPUL.0>
0

>  <SCORE.INTRA.SOLV>
-1.45474

>  <SCORE.INTRA.SOLV.lig_0>
-78.5846

>  <SCORE.INTRA.VDW>
0.257274

>  <SCORE.INTRA.VDW.0>
-2.81163

>  <SCORE.INTRA.norm>
0.0199287

>  <SCORE.RESTR>
0.00251186

>  <SCORE.RESTR.CAVITY>
0.00251186

>  <SCORE.RESTR.norm>
9.66099e-05

>  <SCORE.SYSTEM>
0

>  <SCORE.SYSTEM.CONST>
0

>  <SCORE.SYSTEM.DIHEDRAL>
0

>  <SCORE.SYSTEM.SOLV>
0

>  <SCORE.SYSTEM.norm>
0

>  <SCORE.heavy>
26

>  <SCORE.norm>
-0.613224

>  <RMSD>
1.803

$$$$
ligand
 OpenBabel11021811463D
libRbt.so/2013.1/901 2013/11/27
 26 27  0  0  0  0  0  0  0  0999 V2000
  -12.8493  -37.3585    2.5440 C   0  0  0  0  0  0  0  0  0  0  0  0
   -6.6533  -42.0910    4.8285 C   0  0  0  0  0  0  0  0  0  0  0  0
   -4.0536  -42.5152    8.9794 P   0  0  1  0  0  0  0  0  0  0  0  0
   -4.3164  -45.1240    9.7967 P   0  0  2  0  0  0  0  0  0  0  0  0
   -7.8144  -40.1082    2.7136 C   0  0  0  0  0  0  0  0  0  0  0  0
   -9.6047  -38.8722    1.4485 C   0  0  0  0  0  0  0  0  0  0  0  0
   -9.1293  -39.3725    2.6645 C   0  0  0  0  0  0  0  0  0  0  0  0
   -9.8836  -39.2293    3.8323 C   0  0  0  0  0  0  0  0  0  0  0  0
   -9.4378  -39.7167    4.9710 N   0  0  0  0  0  0  0  0  0  0  0  0
  -11.0780  -38.5521    3.7925 N   0  0  0  0  0  0  0  0  0  0  0  0
  -11.5461  -38.0742    2.5846 C   0  0  0  0  0  0  0  0  0  0  0  0
  -10.8146  -38.2163    1.4205 N   0  0  0  0  0  0  0  0  0  0  0  0
   -3.2173  -41.3972    9.5227 O   0  5  0  0  0  0  0  0  0  0  0  0
   -5.5642  -44.9948    9.0169 O   0  0  0  0  0  0  0  0  0  0  0  0
   -6.0837  -38.2975    5.6046 S   0  0  0  0  0  0  0  0  0  0  0  0
   -6.8706  -38.4314    4.2389 C   0  0  0  0  0  0  0  0  0  0  0  0
   -3.6792  -43.0067    7.6260 O   0  0  0  0  0  0  0  0  0  0  0  0
   -4.5022  -45.9281   11.0196 O   0  5  0  0  0  0  0  0  0  0  0  0
   -7.1200  -39.7356    3.9150 N   0  0  0  0  0  0  0  0  0  0  0  0
   -3.9676  -43.6113   10.1180 O   0  0  0  0  0  0  0  0  0  0  0  0
   -3.1530  -45.7788    9.1252 O   0  0  0  0  0  0  0  0  0  0  0  0
   -6.5975  -40.5938    4.8413 C   0  0  1  0  0  0  0  0  0  0  0  0
   -5.9896  -39.8779    5.8418 C   0  0  2  0  0  0  0  0  0  0  0  0
   -5.2800  -40.3322    7.0931 C   0  0  0  0  0  0  0  0  0  0  0  0
   -6.0728  -41.4076    7.8447 C   0  0  0  0  0  0  0  0  0  0  0  0
   -5.5200  -41.9375    9.0357 O   0  0  0  0  0  0  0  0  0  0  0  0
  1 11  1  0  0  0  0
  3 13  1  1  0  0  0
  3 17  2  0  0  0  0
  3 20  1  0  0  0  0
  3 26  1  0  0  0  0
  4 14  1  6  0  0  0
  4 18  1  0  0  0  0
  4 21  2  0  0  0  0
  4 20  1  0  0  0  0
  5 19  1  0  0  0  0
  5  7  1  0  0  0  0
  6  7  2  0  0  0  0
  6 12  1  0  0  0  0
  7  8  1  0  0  0  0
  8  9  1  0  0  0  0
  8 10  2  0  0  0  0
 10 11  1  0  0  0  0
 11 12  2  0  0  0  0
 15 23  1  0  0  0  0
 15 16  1  0  0  0  0
 16 19  1  0  0  0  0
 19 22  1  0  0  0  0
 22  2  1  1  0  0  0
 22 23  1  0  0  0  0
 23 24  1  1  0  0  0
 24 25  1  0  0  0  0
 25 26  1  0  0  0  0
M  CHG  2  13  -1  18  -1
M  END
>  <CHROM.1>
-160.75301615,-53.97770918,141.05136097,-45.56524094,133.15373801,179.45004742
-53.38609795,98.99443484,-6.56216611,-41.21111998,6.38427651,2.26330311,-0.50134357
-0.48922805

>  <Name>
ligand

>  <RI>
0

>  <Rbt.Current_Directory>
/home/itssahil/PROJECTS/Mol_Feturizer/New_Systems/rnas/3D2G

>  <Rbt.Executable>
rbdock ($Id: //depot/dev/client3/rdock/2013.1/src/exe/rbdock.cxx#4 $)

>  <Rbt.Library>
libRbt.so (2013.1, Build901 2013/11/27)

>  <Rbt.Parameter_File>
/export/apps/rDock/src/rDock_2013.1_src/data/scripts/dock_solv.prm

>  <Rbt.Receptor>
prm/pocket_docking_2.prm

>  <SCORE>
-16.0787

>  <SCORE.INTER>
-17.5061

>  <SCORE.INTER.CONST>
1

>  <SCORE.INTER.POLAR>
0

>  <SCORE.INTER.ROT>
8

>  <SCORE.INTER.SOLV>
12.3357

>  <SCORE.INTER.VDW>
-24.716

>  <SCORE.INTER.norm>
-0.673312

>  <SCORE.INTRA>
1.36305

>  <SCORE.INTRA.DIHEDRAL>
-1.61726

>  <SCORE.INTRA.DIHEDRAL.0>
9.09364

>  <SCORE.INTRA.POLAR>
0

>  <SCORE.INTRA.POLAR.0>
0

>  <SCORE.INTRA.REPUL>
0

>  <SCORE.INTRA.REPUL.0>
0

>  <SCORE.INTRA.SOLV>
2.56562

>  <SCORE.INTRA.SOLV.lig_0>
-78.5846

>  <SCORE.INTRA.VDW>
0.888877

>  <SCORE.INTRA.VDW.0>
-2.81163

>  <SCORE.INTRA.norm>
0.0524252

>  <SCORE.RESTR>
0.0643962

>  <SCORE.RESTR.CAVITY>
0.0643962

>  <SCORE.RESTR.norm>
0.00247678

>  <SCORE.SYSTEM>
0

>  <SCORE.SYSTEM.CONST>
0

>  <SCORE.SYSTEM.DIHEDRAL>
0

>  <SCORE.SYSTEM.SOLV>
0

>  <SCORE.SYSTEM.norm>
0

>  <SCORE.heavy>
26

>  <SCORE.norm>
-0.61841

>  <RMSD>
1.843

$$$$
ligand
 OpenBabel11021811463D
libRbt.so/2013.1/901 2013/11/27
 26 27  0  0  0  0  0  0  0  0999 V2000
  -13.3611  -37.7729    2.1198 C   0  0  0  0  0  0  0  0  0  0  0  0
   -7.0852  -38.4102    5.6755 C   0  0  0  0  0  0  0  0  0  0  0  0
   -4.3873  -42.5495    7.5444 P   0  0  1  0  0  0  0  0  0  0  0  0
   -3.6544  -44.0162    9.7477 P   0  0  2  0  0  0  0  0  0  0  0  0
   -7.9198  -39.4458    2.8500 C   0  0  0  0  0  0  0  0  0  0  0  0
  -10.1173  -38.6416    3.7758 C   0  0  0  0  0  0  0  0  0  0  0  0
   -9.3539  -39.0190    2.6669 C   0  0  0  0  0  0  0  0  0  0  0  0
   -9.8994  -38.9671    1.3812 C   0  0  0  0  0  0  0  0  0  0  0  0
   -9.1702  -39.3085    0.3397 N   0  0  0  0  0  0  0  0  0  0  0  0
  -11.2084  -38.5868    1.2119 N   0  0  0  0  0  0  0  0  0  0  0  0
  -11.9499  -38.2022    2.3112 C   0  0  0  0  0  0  0  0  0  0  0  0
  -11.4206  -38.2405    3.5875 N   0  0  0  0  0  0  0  0  0  0  0  0
   -3.1388  -42.8036    6.7561 O   0  5  0  0  0  0  0  0  0  0  0  0
   -2.6148  -44.6258    8.8936 O   0  0  0  0  0  0  0  0  0  0  0  0
   -7.9475  -42.2228    5.4805 S   0  0  0  0  0  0  0  0  0  0  0  0
   -8.1269  -41.5801    4.0463 C   0  0  0  0  0  0  0  0  0  0  0  0
   -5.5368  -43.4453    7.2452 O   0  0  0  0  0  0  0  0  0  0  0  0
   -4.8858  -44.8272    9.7945 O   0  5  0  0  0  0  0  0  0  0  0  0
   -7.8233  -40.2474    4.0386 N   0  0  0  0  0  0  0  0  0  0  0  0
   -3.8829  -42.6146    9.0432 O   0  0  0  0  0  0  0  0  0  0  0  0
   -3.3217  -43.8082   11.1896 O   0  0  0  0  0  0  0  0  0  0  0  0
   -7.4709  -39.8034    5.2820 C   0  0  1  0  0  0  0  0  0  0  0  0
   -7.5083  -40.8473    6.1719 C   0  0  2  0  0  0  0  0  0  0  0  0
   -7.2002  -40.9012    7.6476 C   0  0  0  0  0  0  0  0  0  0  0  0
   -5.7746  -40.4284    7.9544 C   0  0  0  0  0  0  0  0  0  0  0  0
   -4.7031  -41.0321    7.2527 O   0  0  0  0  0  0  0  0  0  0  0  0
  1 11  1  0  0  0  0
  3 13  1  6  0  0  0
  3 17  2  0  0  0  0
  3 20  1  0  0  0  0
  3 26  1  0  0  0  0
  4 14  1  6  0  0  0
  4 18  1  0  0  0  0
  4 21  2  0  0  0  0
  4 20  1  0  0  0  0
  5 19  1  0  0  0  0
  5  7  1  0  0  0  0
  6  7  2  0  0  0  0
  6 12  1  0  0  0  0
  7  8  1  0  0  0  0
  8  9  1  0  0  0  0
  8 10  2  0  0  0  0
 10 11  1  0  0  0  0
 11 12  2  0  0  0  0
 15 23  1  0  0  0  0
 15 16  1  0  0  0  0
 16 19  1  0  0  0  0
 19 22  1  0  0  0  0
 22  2  1  6  0  0  0
 22 23  1  0  0  0  0
 23 24  1  6  0  0  0
 24 25  1  0  0  0  0
 25 26  1  0  0  0  0
M  CHG  2  13  -1  18  -1
M  END
>  <CHROM.1>
-79.75009698,82.35280443,39.82168762,60.84793624,121.95840822,-52.94320368
-67.63494572,-174.36209886,-6.89167471,-41.22568478,5.94503348,2.38390375
0.51731638,-1.43146991

>  <Name>
ligand

>  <RI>
0

>  <Rbt.Current_Directory>
/home/itssahil/PROJECTS/Mol_Feturizer/New_Systems/rnas/3D2G

>  <Rbt.Executable>
rbdock ($Id: //depot/dev/client3/rdock/2013.1/src/exe/rbdock.cxx#4 $)

>  <Rbt.Library>
libRbt.so (2013.1, Build901 2013/11/27)

>  <Rbt.Parameter_File>
/export/apps/rDock/src/rDock_2013.1_src/data/scripts/dock_solv.prm

>  <Rbt.Receptor>
prm/pocket_docking_2.prm

>  <SCORE>
-20.3942

>  <SCORE.INTER>
-16.5636

>  <SCORE.INTER.CONST>
1

>  <SCORE.INTER.POLAR>
0

>  <SCORE.INTER.ROT>
8

>  <SCORE.INTER.SOLV>
17.3438

>  <SCORE.INTER.VDW>
-25.757

>  <SCORE.INTER.norm>
-0.637061

>  <SCORE.INTRA>
-3.83065

>  <SCORE.INTRA.DIHEDRAL>
-3.81002

>  <SCORE.INTRA.DIHEDRAL.0>
9.09364

>  <SCORE.INTRA.POLAR>
0

>  <SCORE.INTRA.POLAR.0>
0

>  <SCORE.INTRA.REPUL>
0

>  <SCORE.INTRA.REPUL.0>
0

>  <SCORE.INTRA.SOLV>
-1.15654

>  <SCORE.INTRA.SOLV.lig_0>
-78.5846

>  <SCORE.INTRA.VDW>
-1.34737

>  <SCORE.INTRA.VDW.0>
-2.81163

>  <SCORE.INTRA.norm>
-0.147333

>  <SCORE.RESTR>
0

>  <SCORE.RESTR.CAVITY>
0

>  <SCORE.RESTR.norm>
0

>  <SCORE.SYSTEM>
0

>  <SCORE.SYSTEM.CONST>
0

>  <SCORE.SYSTEM.DIHEDRAL>
0

>  <SCORE.SYSTEM.SOLV>
0

>  <SCORE.SYSTEM.norm>
0

>  <SCORE.heavy>
26

>  <SCORE.norm>
-0.784394

>  <RMSD>
1.876

$$$$
ligand
 OpenBabel11021811463D
libRbt.so/2013.1/901 2013/11/27
 26 27  0  0  0  0  0  0  0  0999 V2000
  -13.5290  -37.6567    2.0298 C   0  0  0  0  0  0  0  0  0  0  0  0
   -6.4396  -37.9082    4.6811 C   0  0  0  0  0  0  0  0  0  0  0  0
   -4.3491  -42.2578    8.7989 P   0  0  1  0  0  0  0  0  0  0  0  0
   -2.3218  -44.0220    8.2326 P   0  0  2  0  0  0  0  0  0  0  0  0
   -8.1946  -39.6420    2.7662 C   0  0  0  0  0  0  0  0  0  0  0  0
  -10.3358  -38.6933    3.6874 C   0  0  0  0  0  0  0  0  0  0  0  0
   -9.6014  -39.1326    2.5817 C   0  0  0  0  0  0  0  0  0  0  0  0
  -10.1485  -39.0676    1.2973 C   0  0  0  0  0  0  0  0  0  0  0  0
   -9.4458  -39.4678    0.2585 N   0  0  0  0  0  0  0  0  0  0  0  0
  -11.4331  -38.6120    1.1268 N   0  0  0  0  0  0  0  0  0  0  0  0
  -12.1453  -38.1669    2.2227 C   0  0  0  0  0  0  0  0  0  0  0  0
  -11.6134  -38.2176    3.4975 N   0  0  0  0  0  0  0  0  0  0  0  0
   -5.4080  -42.9591    9.5935 O   0  5  0  0  0  0  0  0  0  0  0  0
   -2.5056  -45.4482    7.8951 O   0  0  0  0  0  0  0  0  0  0  0  0
   -8.1627  -41.0062    6.3397 S   0  0  0  0  0  0  0  0  0  0  0  0
   -8.5599  -40.9538    4.8094 C   0  0  0  0  0  0  0  0  0  0  0  0
   -3.3362  -41.5069    9.5887 O   0  0  0  0  0  0  0  0  0  0  0  0
   -1.9427  -43.8261    9.6448 O   0  5  0  0  0  0  0  0  0  0  0  0
   -7.9753  -39.9013    4.1623 N   0  0  0  0  0  0  0  0  0  0  0  0
   -3.7491  -43.4162    7.9026 O   0  0  0  0  0  0  0  0  0  0  0  0
   -1.2691  -43.2706    7.4841 O   0  0  0  0  0  0  0  0  0  0  0  0
   -7.2197  -39.1438    5.0123 C   0  0  1  0  0  0  0  0  0  0  0  0
   -7.2588  -39.6867    6.2720 C   0  0  2  0  0  0  0  0  0  0  0  0
   -6.5967  -39.2547    7.5569 C   0  0  0  0  0  0  0  0  0  0  0  0
   -6.1278  -40.4516    8.3919 C   0  0  0  0  0  0  0  0  0  0  0  0
   -5.1740  -41.3313    7.8251 O   0  0  0  0  0  0  0  0  0  0  0  0
  1 11  1  0  0  0  0
  3 13  1  1  0  0  0
  3 17  2  0  0  0  0
  3 20  1  0  0  0  0
  3 26  1  0  0  0  0
  4 14  1  6  0  0  0
  4 18  1  0  0  0  0
  4 21  2  0  0  0  0
  4 20  1  0  0  0  0
  5 19  1  0  0  0  0
  5  7  1  0  0  0  0
  6  7  2  0  0  0  0
  6 12  1  0  0  0  0
  7  8  1  0  0  0  0
  8  9  1  0  0  0  0
  8 10  2  0  0  0  0
 10 11  1  0  0  0  0
 11 12  2  0  0  0  0
 15 23  1  0  0  0  0
 15 16  1  0  0  0  0
 16 19  1  0  0  0  0
 19 22  1  0  0  0  0
 22  2  1  6  0  0  0
 22 23  1  0  0  0  0
 23 24  1  6  0  0  0
 24 25  1  0  0  0  0
 25 26  1  0  0  0  0
M  CHG  2  13  -1  18  -1
M  END
>  <CHROM.1>
-106.10340959,71.58121941,14.87926213,143.98241173,37.04701535,60.64031656
160.43257687,53.79569453,-6.66304753,-40.91787213,5.95488828,2.63613490,0.63626157
-1.75183858

>  <Name>
ligand

>  <RI>
0

>  <Rbt.Current_Directory>
/home/itssahil/PROJECTS/Mol_Feturizer/New_Systems/rnas/3D2G

>  <Rbt.Executable>
rbdock ($Id: //depot/dev/client3/rdock/2013.1/src/exe/rbdock.cxx#4 $)

>  <Rbt.Library>
libRbt.so (2013.1, Build901 2013/11/27)

>  <Rbt.Parameter_File>
/export/apps/rDock/src/rDock_2013.1_src/data/scripts/dock_solv.prm

>  <Rbt.Receptor>
prm/pocket_docking_2.prm

>  <SCORE>
-14.489

>  <SCORE.INTER>
-16.7773

>  <SCORE.INTER.CONST>
1

>  <SCORE.INTER.POLAR>
0

>  <SCORE.INTER.ROT>
8

>  <SCORE.INTER.SOLV>
17.5489

>  <SCORE.INTER.VDW>
-25.9678

>  <SCORE.INTER.norm>
-0.64528

>  <SCORE.INTRA>
1.45826

>  <SCORE.INTRA.DIHEDRAL>
1.06745

>  <SCORE.INTRA.DIHEDRAL.0>
9.09364

>  <SCORE.INTRA.POLAR>
0

>  <SCORE.INTRA.POLAR.0>
0

>  <SCORE.INTRA.REPUL>
0

>  <SCORE.INTRA.REPUL.0>
0

>  <SCORE.INTRA.SOLV>
-0.987331

>  <SCORE.INTRA.SOLV.lig_0>
-78.5846

>  <SCORE.INTRA.VDW>
1.4182

>  <SCORE.INTRA.VDW.0>
-2.81163

>  <SCORE.INTRA.norm>
0.0560869

>  <SCORE.RESTR>
0.830012

>  <SCORE.RESTR.CAVITY>
0.830012

>  <SCORE.RESTR.norm>
0.0319236

>  <SCORE.SYSTEM>
0

>  <SCORE.SYSTEM.CONST>
0

>  <SCORE.SYSTEM.DIHEDRAL>
0

>  <SCORE.SYSTEM.SOLV>
0

>  <SCORE.SYSTEM.norm>
0

>  <SCORE.heavy>
26

>  <SCORE.norm>
-0.55727

>  <RMSD>
1.890

$$$$
ligand
 OpenBabel11021811463D
libRbt.so/2013.1/901 2013/11/27
 26 27  0  0  0  0  0  0  0  0999 V2000
  -13.4242  -37.7177    2.1506 C   0  0  0  0  0  0  0  0  0  0  0  0
   -7.2939  -38.4829    5.6484 C   0  0  0  0  0  0  0  0  0  0  0  0
   -4.2615  -42.2854    8.2629 P   0  0  1  0  0  0  0  0  0  0  0  0
   -4.1540  -44.6581    9.6418 P   0  0  2  0  0  0  0  0  0  0  0  0
   -8.0302  -39.5635    2.8125 C   0  0  0  0  0  0  0  0  0  0  0  0
  -10.2338  -38.8178    3.7724 C   0  0  0  0  0  0  0  0  0  0  0  0
   -9.4523  -39.0919    2.6458 C   0  0  0  0  0  0  0  0  0  0  0  0
   -9.9679  -38.8953    1.3618 C   0  0  0  0  0  0  0  0  0  0  0  0
   -9.2215  -39.1400    0.3053 N   0  0  0  0  0  0  0  0  0  0  0  0
  -11.2660  -38.4740    1.2065 N   0  0  0  0  0  0  0  0  0  0  0  0
  -12.0253  -38.1920    2.3247 C   0  0  0  0  0  0  0  0  0  0  0  0
  -11.5254  -38.3739    3.6005 N   0  0  0  0  0  0  0  0  0  0  0  0
   -3.0399  -41.5358    7.8267 O   0  5  0  0  0  0  0  0  0  0  0  0
   -3.1802  -45.3324    8.7592 O   0  0  0  0  0  0  0  0  0  0  0  0
   -8.0471  -42.3191    5.4654 S   0  0  0  0  0  0  0  0  0  0  0  0
   -8.2086  -41.6930    4.0217 C   0  0  0  0  0  0  0  0  0  0  0  0
   -4.9422  -43.0854    7.2092 O   0  0  0  0  0  0  0  0  0  0  0  0
   -5.5482  -44.9028    9.2260 O   0  5  0  0  0  0  0  0  0  0  0  0
   -7.9413  -40.3526    4.0099 N   0  0  0  0  0  0  0  0  0  0  0  0
   -3.7393  -43.1355    9.4916 O   0  0  0  0  0  0  0  0  0  0  0  0
   -4.1509  -45.0421   11.0860 O   0  0  0  0  0  0  0  0  0  0  0  0
   -7.6318  -39.8892    5.2576 C   0  0  1  0  0  0  0  0  0  0  0  0
   -7.6626  -40.9266    6.1554 C   0  0  2  0  0  0  0  0  0  0  0  0
   -7.3895  -40.9603    7.6386 C   0  0  0  0  0  0  0  0  0  0  0  0
   -5.9977  -40.4154    7.9789 C   0  0  0  0  0  0  0  0  0  0  0  0
   -5.1859  -41.1601    8.8684 O   0  0  0  0  0  0  0  0  0  0  0  0
  1 11  1  0  0  0  0
  3 13  1  6  0  0  0
  3 17  2  0  0  0  0
  3 20  1  0  0  0  0
  3 26  1  0  0  0  0
  4 14  1  6  0  0  0
  4 18  1  0  0  0  0
  4 21  2  0  0  0  0
  4 20  1  0  0  0  0
  5 19  1  0  0  0  0
  5  7  1  0  0  0  0
  6  7  2  0  0  0  0
  6 12  1  0  0  0  0
  7  8  1  0  0  0  0
  8  9  1  0  0  0  0
  8 10  2  0  0  0  0
 10 11  1  0  0  0  0
 11 12  2  0  0  0  0
 15 23  1  0  0  0  0
 15 16  1  0  0  0  0
 16 19  1  0  0  0  0
 19 22  1  0  0  0  0
 22  2  1  6  0  0  0
 22 23  1  0  0  0  0
 23 24  1  6  0  0  0
 24 25  1  0  0  0  0
 25 26  1  0  0  0  0
M  CHG  2  13  -1  18  -1
M  END
>  <CHROM.1>
-136.22601146,86.50431079,32.68801351,82.76234488,123.30026257,-132.89279371
87.85934599,84.11976715,-7.05223669,-41.31820667,6.07170639,2.41486291,-0.62767434
-0.35395392

>  <Name>
ligand

>  <RI>
0

>  <Rbt.Current_Directory>
/home/itssahil/PROJECTS/Mol_Feturizer/New_Systems/rnas/3D2G

>  <Rbt.Executable>
rbdock ($Id: //depot/dev/client3/rdock/2013.1/src/exe/rbdock.cxx#4 $)

>  <Rbt.Library>
libRbt.so (2013.1, Build901 2013/11/27)

>  <Rbt.Parameter_File>
/export/apps/rDock/src/rDock_2013.1_src/data/scripts/dock_solv.prm

>  <Rbt.Receptor>
prm/pocket_docking_2.prm

>  <SCORE>
-14.0627

>  <SCORE.INTER>
-16.2581

>  <SCORE.INTER.CONST>
1

>  <SCORE.INTER.POLAR>
0

>  <SCORE.INTER.ROT>
8

>  <SCORE.INTER.SOLV>
19.4521

>  <SCORE.INTER.VDW>
-26.2561

>  <SCORE.INTER.norm>
-0.62531

>  <SCORE.INTRA>
2.19534

>  <SCORE.INTRA.DIHEDRAL>
7.02353

>  <SCORE.INTRA.DIHEDRAL.0>
9.09364

>  <SCORE.INTRA.POLAR>
0

>  <SCORE.INTRA.POLAR.0>
0

>  <SCORE.INTRA.REPUL>
0

>  <SCORE.INTRA.REPUL.0>
0

>  <SCORE.INTRA.SOLV>
-1.30907

>  <SCORE.INTRA.SOLV.lig_0>
-78.5846

>  <SCORE.INTRA.VDW>
-0.661897

>  <SCORE.INTRA.VDW.0>
-2.81163

>  <SCORE.INTRA.norm>
0.0844361

>  <SCORE.RESTR>
0

>  <SCORE.RESTR.CAVITY>
0

>  <SCORE.RESTR.norm>
0

>  <SCORE.SYSTEM>
0

>  <SCORE.SYSTEM.CONST>
0

>  <SCORE.SYSTEM.DIHEDRAL>
0

>  <SCORE.SYSTEM.SOLV>
0

>  <SCORE.SYSTEM.norm>
0

>  <SCORE.heavy>
26

>  <SCORE.norm>
-0.540874

>  <RMSD>
1.894

$$$$
ligand
 OpenBabel11021811463D
libRbt.so/2013.1/901 2013/11/27
 26 27  0  0  0  0  0  0  0  0999 V2000
  -13.4594  -37.6458    2.2759 C   0  0  0  0  0  0  0  0  0  0  0  0
   -6.4547  -38.2571    4.9469 C   0  0  0  0  0  0  0  0  0  0  0  0
   -4.9573  -42.9613    8.3290 P   0  0  1  0  0  0  0  0  0  0  0  0
   -3.6529  -45.0474    9.5496 P   0  0  2  0  0  0  0  0  0  0  0  0
   -8.0516  -39.5424    2.5910 C   0  0  0  0  0  0  0  0  0  0  0  0
  -10.1692  -38.7400    3.6889 C   0  0  0  0  0  0  0  0  0  0  0  0
   -9.4770  -39.0572    2.5162 C   0  0  0  0  0  0  0  0  0  0  0  0
  -10.0846  -38.8914    1.2687 C   0  0  0  0  0  0  0  0  0  0  0  0
   -9.4218  -39.1766    0.1676 N   0  0  0  0  0  0  0  0  0  0  0  0
  -11.3860  -38.4577    1.1975 N   0  0  0  0  0  0  0  0  0  0  0  0
  -12.0567  -38.1333    2.3600 C   0  0  0  0  0  0  0  0  0  0  0  0
  -11.4651  -38.2844    3.6000 N   0  0  0  0  0  0  0  0  0  0  0  0
   -5.8143  -43.9715    7.6293 O   0  5  0  0  0  0  0  0  0  0  0  0
   -4.0017  -46.1159    8.5912 O   0  0  0  0  0  0  0  0  0  0  0  0
   -7.9707  -41.7888    5.6860 S   0  0  0  0  0  0  0  0  0  0  0  0
   -8.3491  -41.3645    4.2098 C   0  0  0  0  0  0  0  0  0  0  0  0
   -5.5598  -42.3189    9.5281 O   0  0  0  0  0  0  0  0  0  0  0  0
   -4.6412  -44.9288   10.6385 O   0  5  0  0  0  0  0  0  0  0  0  0
   -7.8337  -40.1428    3.8781 N   0  0  0  0  0  0  0  0  0  0  0  0
   -3.6244  -43.7638    8.6198 O   0  0  0  0  0  0  0  0  0  0  0  0
   -2.3524  -45.1746   10.2746 O   0  0  0  0  0  0  0  0  0  0  0  0
   -7.1472  -39.5854    4.9200 C   0  0  1  0  0  0  0  0  0  0  0  0
   -7.1644  -40.4404    5.9932 C   0  0  2  0  0  0  0  0  0  0  0  0
   -6.5537  -40.3166    7.3670 C   0  0  0  0  0  0  0  0  0  0  0  0
   -5.0452  -40.5889    7.3516 C   0  0  0  0  0  0  0  0  0  0  0  0
   -4.6075  -41.9260    7.1919 O   0  0  0  0  0  0  0  0  0  0  0  0
  1 11  1  0  0  0  0
  3 13  1  6  0  0  0
  3 17  2  0  0  0  0
  3 20  1  0  0  0  0
  3 26  1  0  0  0  0
  4 14  1  6  0  0  0
  4 18  1  0  0  0  0
  4 21  2  0  0  0  0
  4 20  1  0  0  0  0
  5 19  1  0  0  0  0
  5  7  1  0  0  0  0
  6  7  2  0  0  0  0
  6 12  1  0  0  0  0
  7  8  1  0  0  0  0
  8  9  1  0  0  0  0
  8 10  2  0  0  0  0
 10 11  1  0  0  0  0
 11 12  2  0  0  0  0
 15 23  1  0  0  0  0
 15 16  1  0  0  0  0
 16 19  1  0  0  0  0
 19 22  1  0  0  0  0
 22  2  1  6  0  0  0
 22 23  1  0  0  0  0
 23 24  1  6  0  0  0
 24 25  1  0  0  0  0
 25 26  1  0  0  0  0
M  CHG  2  13  -1  18  -1
M  END
>  <CHROM.1>
-61.95314139,73.39446416,25.13758110,86.15754698,102.27671328,-73.47803271
-64.78883699,118.01060338,-6.98783274,-41.43600176,6.00257448,2.28627060
-0.45599295,-0.51757894

>  <Name>
ligand

>  <RI>
0

>  <Rbt.Current_Directory>
/home/itssahil/PROJECTS/Mol_Feturizer/New_Systems/rnas/3D2G

>  <Rbt.Executable>
rbdock ($Id: //depot/dev/client3/rdock/2013.1/src/exe/rbdock.cxx#4 $)

>  <Rbt.Library>
libRbt.so (2013.1, Build901 2013/11/27)

>  <Rbt.Parameter_File>
/export/apps/rDock/src/rDock_2013.1_src/data/scripts/dock_solv.prm

>  <Rbt.Receptor>
prm/pocket_docking_2.prm

>  <SCORE>
-16.3386

>  <SCORE.INTER>
-15.3192

>  <SCORE.INTER.CONST>
1

>  <SCORE.INTER.POLAR>
0

>  <SCORE.INTER.ROT>
8

>  <SCORE.INTER.SOLV>
22.0501

>  <SCORE.INTER.VDW>
-26.4962

>  <SCORE.INTER.norm>
-0.589201

>  <SCORE.INTRA>
-1.07148

>  <SCORE.INTRA.DIHEDRAL>
-0.405002

>  <SCORE.INTRA.DIHEDRAL.0>
9.09364

>  <SCORE.INTRA.POLAR>
0

>  <SCORE.INTRA.POLAR.0>
0

>  <SCORE.INTRA.REPUL>
0

>  <SCORE.INTRA.REPUL.0>
0

>  <SCORE.INTRA.SOLV>
-0.413013

>  <SCORE.INTRA.SOLV.lig_0>
-78.5846

>  <SCORE.INTRA.VDW>
-0.662474

>  <SCORE.INTRA.VDW.0>
-2.81163

>  <SCORE.INTRA.norm>
-0.0412109

>  <SCORE.RESTR>
0.0521516

>  <SCORE.RESTR.CAVITY>
0.0521516

>  <SCORE.RESTR.norm>
0.00200583

>  <SCORE.SYSTEM>
0

>  <SCORE.SYSTEM.CONST>
0

>  <SCORE.SYSTEM.DIHEDRAL>
0

>  <SCORE.SYSTEM.SOLV>
0

>  <SCORE.SYSTEM.norm>
0

>  <SCORE.heavy>
26

>  <SCORE.norm>
-0.628406

>  <RMSD>
1.902

$$$$
ligand
 OpenBabel11021811463D
libRbt.so/2013.1/901 2013/11/27
 26 27  0  0  0  0  0  0  0  0999 V2000
  -13.4624  -37.7804    1.9816 C   0  0  0  0  0  0  0  0  0  0  0  0
   -6.9263  -38.3712    5.9614 C   0  0  0  0  0  0  0  0  0  0  0  0
   -4.6643  -43.8815    7.4260 P   0  0  1  0  0  0  0  0  0  0  0  0
   -3.2766  -43.3607    9.7381 P   0  0  2  0  0  0  0  0  0  0  0  0
   -8.0083  -39.1442    3.1358 C   0  0  0  0  0  0  0  0  0  0  0  0
  -10.2560  -38.2681    3.8524 C   0  0  0  0  0  0  0  0  0  0  0  0
   -9.4458  -38.7971    2.8431 C   0  0  0  0  0  0  0  0  0  0  0  0
   -9.9482  -38.9717    1.5507 C   0  0  0  0  0  0  0  0  0  0  0  0
   -9.1754  -39.4553    0.6010 N   0  0  0  0  0  0  0  0  0  0  0  0
  -11.2599  -38.6645    1.2829 N   0  0  0  0  0  0  0  0  0  0  0  0
  -12.0481  -38.1292    2.2822 C   0  0  0  0  0  0  0  0  0  0  0  0
  -11.5618  -37.9432    3.5626 N   0  0  0  0  0  0  0  0  0  0  0  0
   -3.3144  -43.6862    6.8064 O   0  5  0  0  0  0  0  0  0  0  0  0
   -3.5343  -43.7801   11.1308 O   0  0  0  0  0  0  0  0  0  0  0  0
   -8.2815  -42.0282    5.6337 S   0  0  0  0  0  0  0  0  0  0  0  0
   -8.4378  -41.2942    4.2412 C   0  0  0  0  0  0  0  0  0  0  0  0
   -5.5518  -44.8661    6.7503 O   0  0  0  0  0  0  0  0  0  0  0  0
   -3.4899  -41.9143    9.5413 O   0  5  0  0  0  0  0  0  0  0  0  0
   -7.9652  -40.0123    4.2799 N   0  0  0  0  0  0  0  0  0  0  0  0
   -4.3193  -44.2387    8.9288 O   0  0  0  0  0  0  0  0  0  0  0  0
   -1.9014  -43.5846    9.1981 O   0  0  0  0  0  0  0  0  0  0  0  0
   -7.5053  -39.6819    5.5236 C   0  0  1  0  0  0  0  0  0  0  0  0
   -7.6390  -40.7575    6.3653 C   0  0  2  0  0  0  0  0  0  0  0  0
   -7.2772  -40.9267    7.8200 C   0  0  0  0  0  0  0  0  0  0  0  0
   -6.5271  -42.2387    8.0764 C   0  0  0  0  0  0  0  0  0  0  0  0
   -5.2718  -42.4263    7.4486 O   0  0  0  0  0  0  0  0  0  0  0  0
  1 11  1  0  0  0  0
  3 13  1  6  0  0  0
  3 17  2  0  0  0  0
  3 20  1  0  0  0  0
  3 26  1  0  0  0  0
  4 14  1  1  0  0  0
  4 18  1  0  0  0  0
  4 21  2  0  0  0  0
  4 20  1  0  0  0  0
  5 19  1  0  0  0  0
  5  7  1  0  0  0  0
  6  7  2  0  0  0  0
  6 12  1  0  0  0  0
  7  8  1  0  0  0  0
  8  9  1  0  0  0  0
  8 10  2  0  0  0  0
 10 11  1  0  0  0  0
 11 12  2  0  0  0  0
 15 23  1  0  0  0  0
 15 16  1  0  0  0  0
 16 19  1  0  0  0  0
 19 22  1  0  0  0  0
 22  2  1  6  0  0  0
 22 23  1  0  0  0  0
 23 24  1  6  0  0  0
 24 25  1  0  0  0  0
 25 26  1  0  0  0  0
M  CHG  2  13  -1  18  -1
M  END
>  <CHROM.1>
47.64034839,68.66660999,53.31903706,164.91654206,46.14614430,62.48807972
-165.68088279,-175.30299673,-6.94760895,-41.31878757,6.00563961,2.88561869
0.83269866,-2.15475314

>  <Name>
ligand

>  <RI>
0

>  <Rbt.Current_Directory>
/home/itssahil/PROJECTS/Mol_Feturizer/New_Systems/rnas/3D2G

>  <Rbt.Executable>
rbdock ($Id: //depot/dev/client3/rdock/2013.1/src/exe/rbdock.cxx#4 $)

>  <Rbt.Library>
libRbt.so (2013.1, Build901 2013/11/27)

>  <Rbt.Parameter_File>
/export/apps/rDock/src/rDock_2013.1_src/data/scripts/dock_solv.prm

>  <Rbt.Receptor>
prm/pocket_docking_2.prm

>  <SCORE>
-16.7788

>  <SCORE.INTER>
-15.3785

>  <SCORE.INTER.CONST>
1

>  <SCORE.INTER.POLAR>
0

>  <SCORE.INTER.ROT>
8

>  <SCORE.INTER.SOLV>
14.1423

>  <SCORE.INTER.VDW>
-23.8998

>  <SCORE.INTER.norm>
-0.591481

>  <SCORE.INTRA>
-1.83109

>  <SCORE.INTRA.DIHEDRAL>
-2.62504

>  <SCORE.INTRA.DIHEDRAL.0>
9.09364

>  <SCORE.INTRA.POLAR>
0

>  <SCORE.INTRA.POLAR.0>
0

>  <SCORE.INTRA.REPUL>
0

>  <SCORE.INTRA.REPUL.0>
0

>  <SCORE.INTRA.SOLV>
-0.267681

>  <SCORE.INTRA.SOLV.lig_0>
-78.5846

>  <SCORE.INTRA.VDW>
-0.384729

>  <SCORE.INTRA.VDW.0>
-2.81163

>  <SCORE.INTRA.norm>
-0.0704265

>  <SCORE.RESTR>
0.43084

>  <SCORE.RESTR.CAVITY>
0.43084

>  <SCORE.RESTR.norm>
0.0165708

>  <SCORE.SYSTEM>
0

>  <SCORE.SYSTEM.CONST>
0

>  <SCORE.SYSTEM.DIHEDRAL>
0

>  <SCORE.SYSTEM.SOLV>
0

>  <SCORE.SYSTEM.norm>
0

>  <SCORE.heavy>
26

>  <SCORE.norm>
-0.645337

>  <RMSD>
1.909

$$$$
ligand
 OpenBabel11021811463D
libRbt.so/2013.1/901 2013/11/27
 26 27  0  0  0  0  0  0  0  0999 V2000
  -13.4531  -37.5543    2.1665 C   0  0  0  0  0  0  0  0  0  0  0  0
   -7.0304  -38.0702    5.0628 C   0  0  0  0  0  0  0  0  0  0  0  0
   -4.8071  -42.4788    8.1644 P   0  0  1  0  0  0  0  0  0  0  0  0
   -3.1428  -44.5441    8.8767 P   0  0  2  0  0  0  0  0  0  0  0  0
   -8.0979  -39.5831    2.5480 C   0  0  0  0  0  0  0  0  0  0  0  0
  -10.2455  -38.8265    3.6197 C   0  0  0  0  0  0  0  0  0  0  0  0
   -9.5100  -39.0637    2.4545 C   0  0  0  0  0  0  0  0  0  0  0  0
  -10.0613  -38.7863    1.2006 C   0  0  0  0  0  0  0  0  0  0  0  0
   -9.3577  -38.9968    0.1081 N   0  0  0  0  0  0  0  0  0  0  0  0
  -11.3507  -38.3211    1.1116 N   0  0  0  0  0  0  0  0  0  0  0  0
  -12.0640  -38.0763    2.2682 C   0  0  0  0  0  0  0  0  0  0  0  0
  -11.5282  -38.3380    3.5151 N   0  0  0  0  0  0  0  0  0  0  0  0
   -5.8656  -43.2870    7.4783 O   0  5  0  0  0  0  0  0  0  0  0  0
   -2.8430  -43.8591   10.1505 O   0  0  0  0  0  0  0  0  0  0  0  0
   -7.9039  -41.8431    5.6280 S   0  0  0  0  0  0  0  0  0  0  0  0
   -8.2030  -41.4652    4.1214 C   0  0  0  0  0  0  0  0  0  0  0  0
   -5.0670  -42.1475    9.5914 O   0  0  0  0  0  0  0  0  0  0  0  0
   -1.9977  -45.3323    8.3828 O   0  5  0  0  0  0  0  0  0  0  0  0
   -7.9019  -40.1601    3.8492 N   0  0  0  0  0  0  0  0  0  0  0  0
   -3.4946  -43.3292    7.9211 O   0  0  0  0  0  0  0  0  0  0  0  0
   -4.2669  -45.5288    8.8759 O   0  0  0  0  0  0  0  0  0  0  0  0
   -7.4469  -39.5056    4.9592 C   0  0  1  0  0  0  0  0  0  0  0  0
   -7.4091  -40.3725    6.0223 C   0  0  2  0  0  0  0  0  0  0  0  0
   -6.9785  -40.1656    7.4532 C   0  0  0  0  0  0  0  0  0  0  0  0
   -5.4548  -40.0628    7.5853 C   0  0  0  0  0  0  0  0  0  0  0  0
   -4.6756  -41.1977    7.2540 O   0  0  0  0  0  0  0  0  0  0  0  0
  1 11  1  0  0  0  0
  3 13  1  6  0  0  0
  3 17  2  0  0  0  0
  3 20  1  0  0  0  0
  3 26  1  0  0  0  0
  4 14  1  1  0  0  0
  4 18  1  0  0  0  0
  4 21  2  0  0  0  0
  4 20  1  0  0  0  0
  5 19  1  0  0  0  0
  5  7  1  0  0  0  0
  6  7  2  0  0  0  0
  6 12  1  0  0  0  0
  7  8  1  0  0  0  0
  8  9  1  0  0  0  0
  8 10  2  0  0  0  0
 10 11  1  0  0  0  0
 11 12  2  0  0  0  0
 15 23  1  0  0  0  0
 15 16  1  0  0  0  0
 16 19  1  0  0  0  0
 19 22  1  0  0  0  0
 22  2  1  6  0  0  0
 22 23  1  0  0  0  0
 23 24  1  6  0  0  0
 24 25  1  0  0  0  0
 25 26  1  0  0  0  0
M  CHG  2  13  -1  18  -1
M  END
>  <CHROM.1>
-83.57417360,87.34893715,18.90892421,-67.83856745,105.55337911,-64.46855313
-66.50579898,92.76052179,-6.90755562,-41.18967182,5.82017508,2.87868521,0.84496676
-2.11593085

>  <Name>
ligand

>  <RI>
0

>  <Rbt.Current_Directory>
/home/itssahil/PROJECTS/Mol_Feturizer/New_Systems/rnas/3D2G

>  <Rbt.Executable>
rbdock ($Id: //depot/dev/client3/rdock/2013.1/src/exe/rbdock.cxx#4 $)

>  <Rbt.Library>
libRbt.so (2013.1, Build901 2013/11/27)

>  <Rbt.Parameter_File>
/export/apps/rDock/src/rDock_2013.1_src/data/scripts/dock_solv.prm

>  <Rbt.Receptor>
prm/pocket_docking_2.prm

>  <SCORE>
-19.0565

>  <SCORE.INTER>
-16.4235

>  <SCORE.INTER.CONST>
1

>  <SCORE.INTER.POLAR>
0

>  <SCORE.INTER.ROT>
8

>  <SCORE.INTER.SOLV>
17.8095

>  <SCORE.INTER.VDW>
-25.8189

>  <SCORE.INTER.norm>
-0.631674

>  <SCORE.INTRA>
-2.69034

>  <SCORE.INTRA.DIHEDRAL>
-2.74727

>  <SCORE.INTRA.DIHEDRAL.0>
9.09364

>  <SCORE.INTRA.POLAR>
0

>  <SCORE.INTRA.POLAR.0>
0

>  <SCORE.INTRA.REPUL>
0

>  <SCORE.INTRA.REPUL.0>
0

>  <SCORE.INTRA.SOLV>
-0.44374

>  <SCORE.INTRA.SOLV.lig_0>
-78.5846

>  <SCORE.INTRA.VDW>
-1.09483

>  <SCORE.INTRA.VDW.0>
-2.81163

>  <SCORE.INTRA.norm>
-0.103475

>  <SCORE.RESTR>
0.0573294

>  <SCORE.RESTR.CAVITY>
0.0573294

>  <SCORE.RESTR.norm>
0.00220498

>  <SCORE.SYSTEM>
0

>  <SCORE.SYSTEM.CONST>
0

>  <SCORE.SYSTEM.DIHEDRAL>
0

>  <SCORE.SYSTEM.SOLV>
0

>  <SCORE.SYSTEM.norm>
0

>  <SCORE.heavy>
26

>  <SCORE.norm>
-0.732944

>  <RMSD>
1.912

$$$$
ligand
 OpenBabel11021811463D
libRbt.so/2013.1/901 2013/11/27
 26 27  0  0  0  0  0  0  0  0999 V2000
  -13.5235  -37.6913    2.0386 C   0  0  0  0  0  0  0  0  0  0  0  0
   -6.5818  -38.1097    5.1702 C   0  0  0  0  0  0  0  0  0  0  0  0
   -5.0379  -43.4664    8.3348 P   0  0  1  0  0  0  0  0  0  0  0  0
   -2.9688  -43.8810   10.0925 P   0  0  2  0  0  0  0  0  0  0  0  0
   -8.1291  -39.4835    2.8312 C   0  0  0  0  0  0  0  0  0  0  0  0
  -10.3534  -38.7320    3.7374 C   0  0  0  0  0  0  0  0  0  0  0  0
   -9.5514  -39.0259    2.6304 C   0  0  0  0  0  0  0  0  0  0  0  0
  -10.0467  -38.8619    1.3339 C   0  0  0  0  0  0  0  0  0  0  0  0
   -9.2812  -39.1250    0.2957 N   0  0  0  0  0  0  0  0  0  0  0  0
  -11.3449  -38.4534    1.1477 N   0  0  0  0  0  0  0  0  0  0  0  0
  -12.1246  -38.1517    2.2465 C   0  0  0  0  0  0  0  0  0  0  0  0
  -11.6448  -38.3012    3.5342 N   0  0  0  0  0  0  0  0  0  0  0  0
   -4.1267  -43.2102    7.1735 O   0  5  0  0  0  0  0  0  0  0  0  0
   -1.9831  -43.7259    9.0034 O   0  0  0  0  0  0  0  0  0  0  0  0
   -8.2815  -41.5194    6.0659 S   0  0  0  0  0  0  0  0  0  0  0  0
   -8.5762  -41.1796    4.5493 C   0  0  0  0  0  0  0  0  0  0  0  0
   -5.5690  -44.8515    8.4492 O   0  0  0  0  0  0  0  0  0  0  0  0
   -3.3563  -45.2893   10.2995 O   0  5  0  0  0  0  0  0  0  0  0  0
   -7.9940  -40.0048    4.1632 N   0  0  0  0  0  0  0  0  0  0  0  0
   -4.1766  -42.9938    9.5757 O   0  0  0  0  0  0  0  0  0  0  0  0
   -2.5591  -43.4304   11.4572 O   0  0  0  0  0  0  0  0  0  0  0  0
   -7.3299  -39.4075    5.1974 C   0  0  1  0  0  0  0  0  0  0  0  0
   -7.4312  -40.1874    6.3220 C   0  0  2  0  0  0  0  0  0  0  0  0
   -6.8761  -39.9970    7.7117 C   0  0  0  0  0  0  0  0  0  0  0  0
   -5.7935  -41.0299    8.0442 C   0  0  0  0  0  0  0  0  0  0  0  0
   -6.1753  -42.3890    8.1536 O   0  0  0  0  0  0  0  0  0  0  0  0
  1 11  1  0  0  0  0
  3 13  1  6  0  0  0
  3 17  2  0  0  0  0
  3 20  1  0  0  0  0
  3 26  1  0  0  0  0
  4 14  1  6  0  0  0
  4 18  1  0  0  0  0
  4 21  2  0  0  0  0
  4 20  1  0  0  0  0
  5 19  1  0  0  0  0
  5  7  1  0  0  0  0
  6  7  2  0  0  0  0
  6 12  1  0  0  0  0
  7  8  1  0  0  0  0
  8  9  1  0  0  0  0
  8 10  2  0  0  0  0
 10 11  1  0  0  0  0
 11 12  2  0  0  0  0
 15 23  1  0  0  0  0
 15 16  1  0  0  0  0
 16 19  1  0  0  0  0
 19 22  1  0  0  0  0
 22  2  1  6  0  0  0
 22 23  1  0  0  0  0
 23 24  1  6  0  0  0
 24 25  1  0  0  0  0
 25 26  1  0  0  0  0
M  CHG  2  13  -1  18  -1
M  END
>  <CHROM.1>
-74.24500053,69.87821555,21.15545561,70.00592811,67.39739710,-66.43795404
173.27134602,-54.58250983,-6.94380521,-41.25140367,6.21775859,2.25105688
0.13162290,-1.05610598

>  <Name>
ligand

>  <RI>
0

>  <Rbt.Current_Directory>
/home/itssahil/PROJECTS/Mol_Feturizer/New_Systems/rnas/3D2G

>  <Rbt.Executable>
rbdock ($Id: //depot/dev/client3/rdock/2013.1/src/exe/rbdock.cxx#4 $)

>  <Rbt.Library>
libRbt.so (2013.1, Build901 2013/11/27)

>  <Rbt.Parameter_File>
/export/apps/rDock/src/rDock_2013.1_src/data/scripts/dock_solv.prm

>  <Rbt.Receptor>
prm/pocket_docking_2.prm

>  <SCORE>
-19.5681

>  <SCORE.INTER>
-16.8306

>  <SCORE.INTER.CONST>
1

>  <SCORE.INTER.POLAR>
0

>  <SCORE.INTER.ROT>
8

>  <SCORE.INTER.SOLV>
21.1337

>  <SCORE.INTER.VDW>
-27.1983

>  <SCORE.INTER.norm>
-0.647332

>  <SCORE.INTRA>
-2.92437

>  <SCORE.INTRA.DIHEDRAL>
-3.29519

>  <SCORE.INTRA.DIHEDRAL.0>
9.09364

>  <SCORE.INTRA.POLAR>
0

>  <SCORE.INTRA.POLAR.0>
0

>  <SCORE.INTRA.REPUL>
0

>  <SCORE.INTRA.REPUL.0>
0

>  <SCORE.INTRA.SOLV>
-2.19678

>  <SCORE.INTRA.SOLV.lig_0>
-78.5846

>  <SCORE.INTRA.VDW>
-0.178385

>  <SCORE.INTRA.VDW.0>
-2.81163

>  <SCORE.INTRA.norm>
-0.112476

>  <SCORE.RESTR>
0.18688

>  <SCORE.RESTR.CAVITY>
0.18688

>  <SCORE.RESTR.norm>
0.0071877

>  <SCORE.SYSTEM>
0

>  <SCORE.SYSTEM.CONST>
0

>  <SCORE.SYSTEM.DIHEDRAL>
0

>  <SCORE.SYSTEM.SOLV>
0

>  <SCORE.SYSTEM.norm>
0

>  <SCORE.heavy>
26

>  <SCORE.norm>
-0.75262

>  <RMSD>
1.922

$$$$
ligand
 OpenBabel11021811463D
libRbt.so/2013.1/901 2013/11/27
 26 27  0  0  0  0  0  0  0  0999 V2000
  -12.6949  -37.4274    2.2846 C   0  0  0  0  0  0  0  0  0  0  0  0
   -7.1094  -41.9373    5.5067 C   0  0  0  0  0  0  0  0  0  0  0  0
   -4.0307  -43.6124    7.9634 P   0  0  1  0  0  0  0  0  0  0  0  0
   -4.2454  -45.8245    9.5770 P   0  0  2  0  0  0  0  0  0  0  0  0
   -7.7653  -40.2939    2.9335 C   0  0  0  0  0  0  0  0  0  0  0  0
   -9.4349  -39.0875    1.4877 C   0  0  0  0  0  0  0  0  0  0  0  0
   -9.0519  -39.5281    2.7582 C   0  0  0  0  0  0  0  0  0  0  0  0
   -9.8732  -39.2969    3.8650 C   0  0  0  0  0  0  0  0  0  0  0  0
   -9.5145  -39.7284    5.0559 N   0  0  0  0  0  0  0  0  0  0  0  0
  -11.0420  -38.5920    3.7101 N   0  0  0  0  0  0  0  0  0  0  0  0
  -11.4189  -38.1736    2.4495 C   0  0  0  0  0  0  0  0  0  0  0  0
  -10.6204  -38.4027    1.3448 N   0  0  0  0  0  0  0  0  0  0  0  0
   -3.3134  -43.1128    9.1801 O   0  5  0  0  0  0  0  0  0  0  0  0
   -2.9475  -46.1506    8.9518 O   0  0  0  0  0  0  0  0  0  0  0  0
   -5.8939  -38.2173    5.5445 S   0  0  0  0  0  0  0  0  0  0  0  0
   -6.6147  -38.5097    4.1671 C   0  0  0  0  0  0  0  0  0  0  0  0
   -3.1712  -43.9520    6.7975 O   0  0  0  0  0  0  0  0  0  0  0  0
   -5.0809  -47.0219    9.7877 O   0  5  0  0  0  0  0  0  0  0  0  0
   -7.0820  -39.7921    4.0936 N   0  0  0  0  0  0  0  0  0  0  0  0
   -4.8801  -44.8253    8.5225 O   0  0  0  0  0  0  0  0  0  0  0  0
   -4.2144  -45.1822   10.9259 O   0  0  0  0  0  0  0  0  0  0  0  0
   -6.7792  -40.5044    5.2198 C   0  0  1  0  0  0  0  0  0  0  0  0
   -6.1063  -39.7013    6.1060 C   0  0  2  0  0  0  0  0  0  0  0  0
   -5.5635  -39.9862    7.4844 C   0  0  0  0  0  0  0  0  0  0  0  0
   -4.5634  -41.1480    7.4790 C   0  0  0  0  0  0  0  0  0  0  0  0
   -5.0626  -42.4623    7.6474 O   0  0  0  0  0  0  0  0  0  0  0  0
  1 11  1  0  0  0  0
  3 13  1  1  0  0  0
  3 17  2  0  0  0  0
  3 20  1  0  0  0  0
  3 26  1  0  0  0  0
  4 14  1  6  0  0  0
  4 18  1  0  0  0  0
  4 21  2  0  0  0  0
  4 20  1  0  0  0  0
  5 19  1  0  0  0  0
  5  7  1  0  0  0  0
  6  7  2  0  0  0  0
  6 12  1  0  0  0  0
  7  8  1  0  0  0  0
  8  9  1  0  0  0  0
  8 10  2  0  0  0  0
 10 11  1  0  0  0  0
 11 12  2  0  0  0  0
 15 23  1  0  0  0  0
 15 16  1  0  0  0  0
 16 19  1  0  0  0  0
 19 22  1  0  0  0  0
 22  2  1  1  0  0  0
 22 23  1  0  0  0  0
 23 24  1  1  0  0  0
 24 25  1  0  0  0  0
 25 26  1  0  0  0  0
M  CHG  2  13  -1  18  -1
M  END
>  <CHROM.1>
-41.01777311,-64.02537928,136.29758312,-48.74852774,-122.62946491,-88.58862234
-166.59578282,55.09334466,-6.45680297,-41.57242531,6.19257319,2.22923231
-0.45674295,-0.43314332

>  <Name>
ligand

>  <RI>
0

>  <Rbt.Current_Directory>
/home/itssahil/PROJECTS/Mol_Feturizer/New_Systems/rnas/3D2G

>  <Rbt.Executable>
rbdock ($Id: //depot/dev/client3/rdock/2013.1/src/exe/rbdock.cxx#4 $)

>  <Rbt.Library>
libRbt.so (2013.1, Build901 2013/11/27)

>  <Rbt.Parameter_File>
/export/apps/rDock/src/rDock_2013.1_src/data/scripts/dock_solv.prm

>  <Rbt.Receptor>
prm/pocket_docking_2.prm

>  <SCORE>
-16.0234

>  <SCORE.INTER>
-17.6269

>  <SCORE.INTER.CONST>
1

>  <SCORE.INTER.POLAR>
0

>  <SCORE.INTER.ROT>
8

>  <SCORE.INTER.SOLV>
13.8993

>  <SCORE.INTER.VDW>
-25.3177

>  <SCORE.INTER.norm>
-0.677959

>  <SCORE.INTRA>
1.60277

>  <SCORE.INTRA.DIHEDRAL>
0.214298

>  <SCORE.INTRA.DIHEDRAL.0>
9.09364

>  <SCORE.INTRA.POLAR>
0

>  <SCORE.INTRA.POLAR.0>
0

>  <SCORE.INTRA.REPUL>
0

>  <SCORE.INTRA.REPUL.0>
0

>  <SCORE.INTRA.SOLV>
2.53307

>  <SCORE.INTRA.SOLV.lig_0>
-78.5846

>  <SCORE.INTRA.VDW>
0.229085

>  <SCORE.INTRA.VDW.0>
-2.81163

>  <SCORE.INTRA.norm>
0.0616449

>  <SCORE.RESTR>
0.000774336

>  <SCORE.RESTR.CAVITY>
0.000774336

>  <SCORE.RESTR.norm>
2.97821e-05

>  <SCORE.SYSTEM>
0

>  <SCORE.SYSTEM.CONST>
0

>  <SCORE.SYSTEM.DIHEDRAL>
0

>  <SCORE.SYSTEM.SOLV>
0

>  <SCORE.SYSTEM.norm>
0

>  <SCORE.heavy>
26

>  <SCORE.norm>
-0.616284

>  <RMSD>
1.930

$$$$
ligand
 OpenBabel11021811463D
libRbt.so/2013.1/901 2013/11/27
 26 27  0  0  0  0  0  0  0  0999 V2000
  -12.6570  -38.0134    1.9240 C   0  0  0  0  0  0  0  0  0  0  0  0
   -8.5517  -41.6936    4.8189 C   0  0  0  0  0  0  0  0  0  0  0  0
   -4.8258  -43.9557    7.9611 P   0  0  1  0  0  0  0  0  0  0  0  0
   -2.7865  -44.0924    9.7956 P   0  0  2  0  0  0  0  0  0  0  0  0
   -7.2318  -39.3421    3.2439 C   0  0  0  0  0  0  0  0  0  0  0  0
   -9.1662  -39.3361    1.6341 C   0  0  0  0  0  0  0  0  0  0  0  0
   -8.6515  -38.9836    2.8854 C   0  0  0  0  0  0  0  0  0  0  0  0
   -9.4568  -38.3332    3.8244 C   0  0  0  0  0  0  0  0  0  0  0  0
   -8.9709  -38.0183    5.0067 N   0  0  0  0  0  0  0  0  0  0  0  0
  -10.7481  -37.9975    3.4978 N   0  0  0  0  0  0  0  0  0  0  0  0
  -11.2520  -38.3625    2.2652 C   0  0  0  0  0  0  0  0  0  0  0  0
  -10.4694  -39.0135    1.3302 N   0  0  0  0  0  0  0  0  0  0  0  0
   -4.7364  -44.0859    6.4713 O   0  5  0  0  0  0  0  0  0  0  0  0
   -2.8743  -45.5636    9.6968 O   0  0  0  0  0  0  0  0  0  0  0  0
   -6.5019  -39.1675    6.9947 S   0  0  0  0  0  0  0  0  0  0  0  0
   -6.4369  -38.7141    5.4806 C   0  0  0  0  0  0  0  0  0  0  0  0
   -5.4269  -45.1124    8.6782 O   0  0  0  0  0  0  0  0  0  0  0  0
   -3.5919  -43.5580   10.9102 O   0  5  0  0  0  0  0  0  0  0  0  0
   -7.1501  -39.5462    4.6638 N   0  0  0  0  0  0  0  0  0  0  0  0
   -3.3347  -43.6315    8.3814 O   0  0  0  0  0  0  0  0  0  0  0  0
   -1.4346  -43.5006   10.0304 O   0  0  0  0  0  0  0  0  0  0  0  0
   -7.7132  -40.5771    5.3621 C   0  0  1  0  0  0  0  0  0  0  0  0
   -7.4063  -40.4536    6.6939 C   0  0  2  0  0  0  0  0  0  0  0  0
   -7.7845  -41.3059    7.8797 C   0  0  0  0  0  0  0  0  0  0  0  0
   -7.0293  -42.6398    7.8925 C   0  0  0  0  0  0  0  0  0  0  0  0
   -5.6399  -42.6204    8.1647 O   0  0  0  0  0  0  0  0  0  0  0  0
  1 11  1  0  0  0  0
  3 13  1  6  0  0  0
  3 17  2  0  0  0  0
  3 20  1  0  0  0  0
  3 26  1  0  0  0  0
  4 14  1  1  0  0  0
  4 18  1  0  0  0  0
  4 21  2  0  0  0  0
  4 20  1  0  0  0  0
  5 19  1  0  0  0  0
  5  7  1  0  0  0  0
  6  7  2  0  0  0  0
  6 12  1  0  0  0  0
  7  8  1  0  0  0  0
  8  9  1  0  0  0  0
  8 10  2  0  0  0  0
 10 11  1  0  0  0  0
 11 12  2  0  0  0  0
 15 23  1  0  0  0  0
 15 16  1  0  0  0  0
 16 19  1  0  0  0  0
 19 22  1  0  0  0  0
 22  2  1  1  0  0  0
 22 23  1  0  0  0  0
 23 24  1  1  0  0  0
 24 25  1  0  0  0  0
 25 26  1  0  0  0  0
M  CHG  2  13  -1  18  -1
M  END
>  <CHROM.1>
-149.80533771,-113.30303101,-149.76523123,63.03889517,-107.65766411,69.96525887
-170.80417894,73.53855432,-6.57386950,-41.37365211,6.40942813,2.67463062
-0.81701465,0.11157251

>  <Name>
ligand

>  <RI>
0

>  <Rbt.Current_Directory>
/home/itssahil/PROJECTS/Mol_Feturizer/New_Systems/rnas/3D2G

>  <Rbt.Executable>
rbdock ($Id: //depot/dev/client3/rdock/2013.1/src/exe/rbdock.cxx#4 $)

>  <Rbt.Library>
libRbt.so (2013.1, Build901 2013/11/27)

>  <Rbt.Parameter_File>
/export/apps/rDock/src/rDock_2013.1_src/data/scripts/dock_solv.prm

>  <Rbt.Receptor>
prm/pocket_docking_2.prm

>  <SCORE>
-14.0518

>  <SCORE.INTER>
-14.7735

>  <SCORE.INTER.CONST>
1

>  <SCORE.INTER.POLAR>
0

>  <SCORE.INTER.ROT>
8

>  <SCORE.INTER.SOLV>
11.8143

>  <SCORE.INTER.VDW>
-22.7204

>  <SCORE.INTER.norm>
-0.568212

>  <SCORE.INTRA>
0.715188

>  <SCORE.INTRA.DIHEDRAL>
-1.82263

>  <SCORE.INTRA.DIHEDRAL.0>
9.09364

>  <SCORE.INTRA.POLAR>
0

>  <SCORE.INTRA.POLAR.0>
0

>  <SCORE.INTRA.REPUL>
0

>  <SCORE.INTRA.REPUL.0>
0

>  <SCORE.INTRA.SOLV>
2.39053

>  <SCORE.INTRA.SOLV.lig_0>
-78.5846

>  <SCORE.INTRA.VDW>
0.431238

>  <SCORE.INTRA.VDW.0>
-2.81163

>  <SCORE.INTRA.norm>
0.0275072

>  <SCORE.RESTR>
0.00650557

>  <SCORE.RESTR.CAVITY>
0.00650557

>  <SCORE.RESTR.norm>
0.000250214

>  <SCORE.SYSTEM>
0

>  <SCORE.SYSTEM.CONST>
0

>  <SCORE.SYSTEM.DIHEDRAL>
0

>  <SCORE.SYSTEM.SOLV>
0

>  <SCORE.SYSTEM.norm>
0

>  <SCORE.heavy>
26

>  <SCORE.norm>
-0.540455

>  <RMSD>
1.938

$$$$
ligand
 OpenBabel11021811463D
libRbt.so/2013.1/901 2013/11/27
 26 27  0  0  0  0  0  0  0  0999 V2000
  -13.5961  -37.8040    1.9829 C   0  0  0  0  0  0  0  0  0  0  0  0
   -8.2950  -41.4966    5.1482 C   0  0  0  0  0  0  0  0  0  0  0  0
   -6.0075  -42.8970    9.2263 P   0  0  1  0  0  0  0  0  0  0  0  0
   -4.8674  -45.1640   10.2769 P   0  0  2  0  0  0  0  0  0  0  0  0
   -8.1286  -39.1083    3.1430 C   0  0  0  0  0  0  0  0  0  0  0  0
  -10.4012  -38.3075    3.8692 C   0  0  0  0  0  0  0  0  0  0  0  0
   -9.5695  -38.7773    2.8482 C   0  0  0  0  0  0  0  0  0  0  0  0
  -10.0541  -38.9070    1.5438 C   0  0  0  0  0  0  0  0  0  0  0  0
   -9.2614  -39.3347    0.5837 N   0  0  0  0  0  0  0  0  0  0  0  0
  -11.3687  -38.6145    1.2737 N   0  0  0  0  0  0  0  0  0  0  0  0
  -12.1785  -38.1375    2.2852 C   0  0  0  0  0  0  0  0  0  0  0  0
  -11.7101  -37.9963    3.5780 N   0  0  0  0  0  0  0  0  0  0  0  0
   -4.9554  -43.0442    8.1700 O   0  5  0  0  0  0  0  0  0  0  0  0
   -6.0866  -45.8692    9.8318 O   0  0  0  0  0  0  0  0  0  0  0  0
   -7.3923  -38.0372    6.7406 S   0  0  0  0  0  0  0  0  0  0  0  0
   -7.5793  -37.8532    5.1806 C   0  0  0  0  0  0  0  0  0  0  0  0
   -7.3761  -43.3381    8.8445 O   0  0  0  0  0  0  0  0  0  0  0  0
   -4.3244  -45.7225   11.5297 O   0  5  0  0  0  0  0  0  0  0  0  0
   -7.9151  -39.0245    4.5614 N   0  0  0  0  0  0  0  0  0  0  0  0
   -5.3902  -43.6783   10.4566 O   0  0  0  0  0  0  0  0  0  0  0  0
   -3.6922  -45.1775    9.3539 O   0  0  0  0  0  0  0  0  0  0  0  0
   -7.9735  -40.0640    5.4466 C   0  0  1  0  0  0  0  0  0  0  0  0
   -7.6942  -39.6091    6.7107 C   0  0  2  0  0  0  0  0  0  0  0  0
   -7.6396  -40.3327    8.0333 C   0  0  0  0  0  0  0  0  0  0  0  0
   -6.2108  -40.4201    8.5816 C   0  0  0  0  0  0  0  0  0  0  0  0
   -5.9409  -41.3662    9.5999 O   0  0  0  0  0  0  0  0  0  0  0  0
  1 11  1  0  0  0  0
  3 13  1  6  0  0  0
  3 17  2  0  0  0  0
  3 20  1  0  0  0  0
  3 26  1  0  0  0  0
  4 14  1  6  0  0  0
  4 18  1  0  0  0  0
  4 21  2  0  0  0  0
  4 20  1  0  0  0  0
  5 19  1  0  0  0  0
  5  7  1  0  0  0  0
  6  7  2  0  0  0  0
  6 12  1  0  0  0  0
  7  8  1  0  0  0  0
  8  9  1  0  0  0  0
  8 10  2  0  0  0  0
 10 11  1  0  0  0  0
 11 12  2  0  0  0  0
 15 23  1  0  0  0  0
 15 16  1  0  0  0  0
 16 19  1  0  0  0  0
 19 22  1  0  0  0  0
 22  2  1  1  0  0  0
 22 23  1  0  0  0  0
 23 24  1  1  0  0  0
 24 25  1  0  0  0  0
 25 26  1  0  0  0  0
M  CHG  2  13  -1  18  -1
M  END
>  <CHROM.1>
-52.09399767,-87.36539001,7.50226052,-59.74723501,-69.21375340,-162.88028058
68.01594632,60.93641831,-7.56818323,-41.08722941,6.60846351,2.58795986,-0.94821189
0.03277521

>  <Name>
ligand

>  <RI>
0

>  <Rbt.Current_Directory>
/home/itssahil/PROJECTS/Mol_Feturizer/New_Systems/rnas/3D2G

>  <Rbt.Executable>
rbdock ($Id: //depot/dev/client3/rdock/2013.1/src/exe/rbdock.cxx#4 $)

>  <Rbt.Library>
libRbt.so (2013.1, Build901 2013/11/27)

>  <Rbt.Parameter_File>
/export/apps/rDock/src/rDock_2013.1_src/data/scripts/dock_solv.prm

>  <Rbt.Receptor>
prm/pocket_docking_3.prm

>  <SCORE>
-19.3309

>  <SCORE.INTER>
-18.0287

>  <SCORE.INTER.CONST>
1

>  <SCORE.INTER.POLAR>
0

>  <SCORE.INTER.ROT>
8

>  <SCORE.INTER.SOLV>
22.761

>  <SCORE.INTER.VDW>
-28.5395

>  <SCORE.INTER.norm>
-0.693411

>  <SCORE.INTRA>
-1.30218

>  <SCORE.INTRA.DIHEDRAL>
-2.13913

>  <SCORE.INTRA.DIHEDRAL.0>
9.09364

>  <SCORE.INTRA.POLAR>
0

>  <SCORE.INTRA.POLAR.0>
0

>  <SCORE.INTRA.REPUL>
0

>  <SCORE.INTRA.REPUL.0>
0

>  <SCORE.INTRA.SOLV>
-0.596958

>  <SCORE.INTRA.SOLV.lig_0>
-78.5846

>  <SCORE.INTRA.VDW>
0.0658676

>  <SCORE.INTRA.VDW.0>
-2.81163

>  <SCORE.INTRA.norm>
-0.0500838

>  <SCORE.RESTR>
0

>  <SCORE.RESTR.CAVITY>
0

>  <SCORE.RESTR.norm>
0

>  <SCORE.SYSTEM>
0

>  <SCORE.SYSTEM.CONST>
0

>  <SCORE.SYSTEM.DIHEDRAL>
0

>  <SCORE.SYSTEM.SOLV>
0

>  <SCORE.SYSTEM.norm>
0

>  <SCORE.heavy>
26

>  <SCORE.norm>
-0.743495

>  <RMSD>
1.945

$$$$
ligand
 OpenBabel11021811463D
libRbt.so/2013.1/901 2013/11/27
 26 27  0  0  0  0  0  0  0  0999 V2000
  -13.6110  -37.7555    2.2219 C   0  0  0  0  0  0  0  0  0  0  0  0
   -5.9933  -38.7758    4.7717 C   0  0  0  0  0  0  0  0  0  0  0  0
   -4.1281  -42.2188    8.9575 P   0  0  1  0  0  0  0  0  0  0  0  0
   -2.9764  -44.4188   10.1308 P   0  0  2  0  0  0  0  0  0  0  0  0
   -8.0705  -39.2298    2.4845 C   0  0  0  0  0  0  0  0  0  0  0  0
  -10.2251  -38.9898    1.2065 C   0  0  0  0  0  0  0  0  0  0  0  0
   -9.5222  -38.8313    2.4047 C   0  0  0  0  0  0  0  0  0  0  0  0
  -10.1663  -38.3405    3.5437 C   0  0  0  0  0  0  0  0  0  0  0  0
   -9.5029  -38.2088    4.6731 N   0  0  0  0  0  0  0  0  0  0  0  0
  -11.4867  -37.9685    3.4720 N   0  0  0  0  0  0  0  0  0  0  0  0
  -12.1763  -38.1421    2.2885 C   0  0  0  0  0  0  0  0  0  0  0  0
  -11.5540  -38.6343    1.1567 N   0  0  0  0  0  0  0  0  0  0  0  0
   -5.0998  -41.1914    9.4522 O   0  5  0  0  0  0  0  0  0  0  0  0
   -3.6798  -45.4552   10.9138 O   0  0  0  0  0  0  0  0  0  0  0  0
   -8.2516  -41.9474    5.1704 S   0  0  0  0  0  0  0  0  0  0  0  0
   -8.6515  -41.1944    3.8379 C   0  0  0  0  0  0  0  0  0  0  0  0
   -2.8295  -41.6945    8.4554 O   0  0  0  0  0  0  0  0  0  0  0  0
   -1.6667  -44.0706   10.7137 O   0  5  0  0  0  0  0  0  0  0  0  0
   -7.8863  -40.0818    3.6267 N   0  0  0  0  0  0  0  0  0  0  0  0
   -4.0003  -43.2098   10.1850 O   0  0  0  0  0  0  0  0  0  0  0  0
   -2.6483  -44.7391    8.7085 O   0  0  0  0  0  0  0  0  0  0  0  0
   -6.9894  -39.8871    4.6392 C   0  0  1  0  0  0  0  0  0  0  0  0
   -7.1144  -40.8920    5.5653 C   0  0  2  0  0  0  0  0  0  0  0  0
   -6.3656  -41.1542    6.8483 C   0  0  0  0  0  0  0  0  0  0  0  0
   -5.3362  -42.2793    6.6929 C   0  0  0  0  0  0  0  0  0  0  0  0
   -4.9434  -42.9926    7.8513 O   0  0  0  0  0  0  0  0  0  0  0  0
  1 11  1  0  0  0  0
  3 13  1  1  0  0  0
  3 17  2  0  0  0  0
  3 20  1  0  0  0  0
  3 26  1  0  0  0  0
  4 14  1  1  0  0  0
  4 18  1  0  0  0  0
  4 21  2  0  0  0  0
  4 20  1  0  0  0  0
  5 19  1  0  0  0  0
  5  7  1  0  0  0  0
  6  7  2  0  0  0  0
  6 12  1  0  0  0  0
  7  8  1  0  0  0  0
  8  9  1  0  0  0  0
  8 10  2  0  0  0  0
 10 11  1  0  0  0  0
 11 12  2  0  0  0  0
 15 23  1  0  0  0  0
 15 16  1  0  0  0  0
 16 19  1  0  0  0  0
 19 22  1  0  0  0  0
 22  2  1  6  0  0  0
 22 23  1  0  0  0  0
 23 24  1  6  0  0  0
 24 25  1  0  0  0  0
 25 26  1  0  0  0  0
M  CHG  2  13  -1  18  -1
M  END
>  <CHROM.1>
-175.84027993,52.45834979,-129.13121453,-146.73560084,76.06405826,-155.58765019
-66.78939066,64.85955329,-6.69370899,-41.22086104,6.24150717,2.33783369,-0.36480383
-0.62325242

>  <Name>
ligand

>  <RI>
0

>  <Rbt.Current_Directory>
/home/itssahil/PROJECTS/Mol_Feturizer/New_Systems/rnas/3D2G

>  <Rbt.Executable>
rbdock ($Id: //depot/dev/client3/rdock/2013.1/src/exe/rbdock.cxx#4 $)

>  <Rbt.Library>
libRbt.so (2013.1, Build901 2013/11/27)

>  <Rbt.Parameter_File>
/export/apps/rDock/src/rDock_2013.1_src/data/scripts/dock_solv.prm

>  <Rbt.Receptor>
prm/pocket_docking_2.prm

>  <SCORE>
-14.9188

>  <SCORE.INTER>
-16.7282

>  <SCORE.INTER.CONST>
1

>  <SCORE.INTER.POLAR>
0

>  <SCORE.INTER.ROT>
8

>  <SCORE.INTER.SOLV>
15.5579

>  <SCORE.INTER.VDW>
-25.2715

>  <SCORE.INTER.norm>
-0.643393

>  <SCORE.INTRA>
1.72023

>  <SCORE.INTRA.DIHEDRAL>
-0.0709456

>  <SCORE.INTRA.DIHEDRAL.0>
9.09364

>  <SCORE.INTRA.POLAR>
0

>  <SCORE.INTRA.POLAR.0>
0

>  <SCORE.INTRA.REPUL>
0

>  <SCORE.INTRA.REPUL.0>
0

>  <SCORE.INTRA.SOLV>
3.61902

>  <SCORE.INTRA.SOLV.lig_0>
-78.5846

>  <SCORE.INTRA.VDW>
-0.0538071

>  <SCORE.INTRA.VDW.0>
-2.81163

>  <SCORE.INTRA.norm>
0.0661627

>  <SCORE.RESTR>
0.0892138

>  <SCORE.RESTR.CAVITY>
0.0892138

>  <SCORE.RESTR.norm>
0.0034313

>  <SCORE.SYSTEM>
0

>  <SCORE.SYSTEM.CONST>
0

>  <SCORE.SYSTEM.DIHEDRAL>
0

>  <SCORE.SYSTEM.SOLV>
0

>  <SCORE.SYSTEM.norm>
0

>  <SCORE.heavy>
26

>  <SCORE.norm>
-0.573799

>  <RMSD>
1.965

$$$$
ligand
 OpenBabel11021811463D
libRbt.so/2013.1/901 2013/11/27
 26 27  0  0  0  0  0  0  0  0999 V2000
  -13.5349  -37.8815    1.7273 C   0  0  0  0  0  0  0  0  0  0  0  0
   -7.0275  -41.7147    4.6106 C   0  0  0  0  0  0  0  0  0  0  0  0
   -5.8499  -44.6538    8.0887 P   0  0  1  0  0  0  0  0  0  0  0  0
   -3.2063  -45.1354    8.6562 P   0  0  2  0  0  0  0  0  0  0  0  0
   -8.2541  -38.9985    3.6778 C   0  0  0  0  0  0  0  0  0  0  0  0
  -10.5760  -38.0873    4.0122 C   0  0  0  0  0  0  0  0  0  0  0  0
   -9.6473  -38.7150    3.1765 C   0  0  0  0  0  0  0  0  0  0  0  0
   -9.9889  -39.0486    1.8631 C   0  0  0  0  0  0  0  0  0  0  0  0
   -9.1047  -39.6249    1.0762 N   0  0  0  0  0  0  0  0  0  0  0  0
  -11.2600  -38.7994    1.4060 N   0  0  0  0  0  0  0  0  0  0  0  0
  -12.1658  -38.1663    2.2338 C   0  0  0  0  0  0  0  0  0  0  0  0
  -11.8387  -37.8231    3.5322 N   0  0  0  0  0  0  0  0  0  0  0  0
   -5.3320  -44.4903    6.6925 O   0  5  0  0  0  0  0  0  0  0  0  0
   -2.5607  -46.0770    9.5933 O   0  0  0  0  0  0  0  0  0  0  0  0
   -8.9124  -39.6930    7.3814 S   0  0  0  0  0  0  0  0  0  0  0  0
   -8.9681  -38.8821    6.0243 C   0  0  0  0  0  0  0  0  0  0  0  0
   -7.2281  -45.2012    8.2093 O   0  0  0  0  0  0  0  0  0  0  0  0
   -2.9648  -43.7272    9.0237 O   0  5  0  0  0  0  0  0  0  0  0  0
   -8.3412  -39.5425    5.0048 N   0  0  0  0  0  0  0  0  0  0  0  0
   -4.7346  -45.5370    8.7822 O   0  0  0  0  0  0  0  0  0  0  0  0
   -2.7847  -45.1966    7.2238 O   0  0  0  0  0  0  0  0  0  0  0  0
   -7.7988  -40.7235    5.4274 C   0  0  1  0  0  0  0  0  0  0  0  0
   -8.0681  -40.9033    6.7609 C   0  0  2  0  0  0  0  0  0  0  0  0
   -7.7138  -42.0305    7.6988 C   0  0  0  0  0  0  0  0  0  0  0  0
   -6.2042  -42.1146    7.9514 C   0  0  0  0  0  0  0  0  0  0  0  0
   -5.7108  -43.2081    8.7035 O   0  0  0  0  0  0  0  0  0  0  0  0
  1 11  1  0  0  0  0
  3 13  1  6  0  0  0
  3 17  2  0  0  0  0
  3 20  1  0  0  0  0
  3 26  1  0  0  0  0
  4 14  1  1  0  0  0
  4 18  1  0  0  0  0
  4 21  2  0  0  0  0
  4 20  1  0  0  0  0
  5 19  1  0  0  0  0
  5  7  1  0  0  0  0
  6  7  2  0  0  0  0
  6 12  1  0  0  0  0
  7  8  1  0  0  0  0
  8  9  1  0  0  0  0
  8 10  2  0  0  0  0
 10 11  1  0  0  0  0
 11 12  2  0  0  0  0
 15 23  1  0  0  0  0
 15 16  1  0  0  0  0
 16 19  1  0  0  0  0
 19 22  1  0  0  0  0
 22  2  1  6  0  0  0
 22 23  1  0  0  0  0
 23 24  1  6  0  0  0
 24 25  1  0  0  0  0
 25 26  1  0  0  0  0
M  CHG  2  13  -1  18  -1
M  END
>  <CHROM.1>
49.33576796,-56.77015912,44.65835699,171.80589288,-113.39899936,-173.67747984
65.44099469,48.54291951,-7.32230218,-41.77320907,6.12533764,-2.58041883,-0.74821719
1.59450277

>  <Name>
ligand

>  <RI>
0

>  <Rbt.Current_Directory>
/home/itssahil/PROJECTS/Mol_Feturizer/New_Systems/rnas/3D2G

>  <Rbt.Executable>
rbdock ($Id: //depot/dev/client3/rdock/2013.1/src/exe/rbdock.cxx#4 $)

>  <Rbt.Library>
libRbt.so (2013.1, Build901 2013/11/27)

>  <Rbt.Parameter_File>
/export/apps/rDock/src/rDock_2013.1_src/data/scripts/dock_solv.prm

>  <Rbt.Receptor>
prm/pocket_docking_4.prm

>  <SCORE>
-17.1994

>  <SCORE.INTER>
-16.9222

>  <SCORE.INTER.CONST>
1

>  <SCORE.INTER.POLAR>
0

>  <SCORE.INTER.ROT>
8

>  <SCORE.INTER.SOLV>
14.3417

>  <SCORE.INTER.VDW>
-24.9953

>  <SCORE.INTER.norm>
-0.650852

>  <SCORE.INTRA>
-0.2772

>  <SCORE.INTRA.DIHEDRAL>
-3.64449

>  <SCORE.INTRA.DIHEDRAL.0>
9.09364

>  <SCORE.INTRA.POLAR>
0

>  <SCORE.INTRA.POLAR.0>
0

>  <SCORE.INTRA.REPUL>
0

>  <SCORE.INTRA.REPUL.0>
0

>  <SCORE.INTRA.SOLV>
1.39886

>  <SCORE.INTRA.SOLV.lig_0>
-78.5846

>  <SCORE.INTRA.VDW>
0.845613

>  <SCORE.INTRA.VDW.0>
-2.81163

>  <SCORE.INTRA.norm>
-0.0106615

>  <SCORE.RESTR>
0

>  <SCORE.RESTR.CAVITY>
0

>  <SCORE.RESTR.norm>
0

>  <SCORE.SYSTEM>
0

>  <SCORE.SYSTEM.CONST>
0

>  <SCORE.SYSTEM.DIHEDRAL>
0

>  <SCORE.SYSTEM.SOLV>
0

>  <SCORE.SYSTEM.norm>
0

>  <SCORE.heavy>
26

>  <SCORE.norm>
-0.661514

>  <RMSD>
1.988

$$$$
ligand
 OpenBabel11021811463D
libRbt.so/2013.1/901 2013/11/27
 26 27  0  0  0  0  0  0  0  0999 V2000
  -13.5033  -37.8922    2.3145 C   0  0  0  0  0  0  0  0  0  0  0  0
   -5.8171  -39.2921    5.1798 C   0  0  0  0  0  0  0  0  0  0  0  0
   -4.5673  -43.9466    8.7298 P   0  0  1  0  0  0  0  0  0  0  0  0
   -2.6561  -43.6820   10.6844 P   0  0  2  0  0  0  0  0  0  0  0  0
   -7.9420  -39.1868    2.8936 C   0  0  0  0  0  0  0  0  0  0  0  0
  -10.1297  -38.4001    3.8571 C   0  0  0  0  0  0  0  0  0  0  0  0
   -9.4064  -38.8585    2.7518 C   0  0  0  0  0  0  0  0  0  0  0  0
  -10.0225  -38.9790    1.5032 C   0  0  0  0  0  0  0  0  0  0  0  0
   -9.3319  -39.3959    0.4629 N   0  0  0  0  0  0  0  0  0  0  0  0
  -11.3588  -38.6889    1.3725 N   0  0  0  0  0  0  0  0  0  0  0  0
  -12.0612  -38.2232    2.4662 C   0  0  0  0  0  0  0  0  0  0  0  0
  -11.4624  -38.0911    3.7050 N   0  0  0  0  0  0  0  0  0  0  0  0
   -5.0694  -45.3474    8.9037 O   0  5  0  0  0  0  0  0  0  0  0  0
   -1.2621  -44.1652   10.7563 O   0  0  0  0  0  0  0  0  0  0  0  0
   -8.2542  -42.3504    5.0212 S   0  0  0  0  0  0  0  0  0  0  0  0
   -8.6233  -41.3370    3.8640 C   0  0  0  0  0  0  0  0  0  0  0  0
   -5.3512  -42.8864    9.4189 O   0  0  0  0  0  0  0  0  0  0  0  0
   -3.5274  -44.3387   11.6773 O   0  5  0  0  0  0  0  0  0  0  0  0
   -7.7960  -40.2490    3.8501 N   0  0  0  0  0  0  0  0  0  0  0  0
   -3.0579  -44.0480    9.1952 O   0  0  0  0  0  0  0  0  0  0  0  0
   -2.8904  -42.2262   10.9272 O   0  0  0  0  0  0  0  0  0  0  0  0
   -6.8784  -40.3006    4.8614 C   0  0  1  0  0  0  0  0  0  0  0  0
   -7.0526  -41.4544    5.5835 C   0  0  2  0  0  0  0  0  0  0  0  0
   -6.3068  -41.9969    6.7773 C   0  0  0  0  0  0  0  0  0  0  0  0
   -5.7339  -43.3935    6.5106 C   0  0  0  0  0  0  0  0  0  0  0  0
   -4.5327  -43.7608    7.1640 O   0  0  0  0  0  0  0  0  0  0  0  0
  1 11  1  0  0  0  0
  3 13  1  1  0  0  0
  3 17  2  0  0  0  0
  3 20  1  0  0  0  0
  3 26  1  0  0  0  0
  4 14  1  1  0  0  0
  4 18  1  0  0  0  0
  4 21  2  0  0  0  0
  4 20  1  0  0  0  0
  5 19  1  0  0  0  0
  5  7  1  0  0  0  0
  6  7  2  0  0  0  0
  6 12  1  0  0  0  0
  7  8  1  0  0  0  0
  8  9  1  0  0  0  0
  8 10  2  0  0  0  0
 10 11  1  0  0  0  0
 11 12  2  0  0  0  0
 15 23  1  0  0  0  0
 15 16  1  0  0  0  0
 16 19  1  0  0  0  0
 19 22  1  0  0  0  0
 22  2  1  6  0  0  0
 22 23  1  0  0  0  0
 23 24  1  6  0  0  0
 24 25  1  0  0  0  0
 25 26  1  0  0  0  0
M  CHG  2  13  -1  18  -1
M  END
>  <CHROM.1>
-95.33058546,42.97807996,61.41710883,169.12832548,56.43603795,149.06480448
67.63165460,83.46173904,-6.69568255,-41.63152829,6.26662521,-2.67966417,0.80173322
3.11957773

>  <Name>
ligand

>  <RI>
0

>  <Rbt.Current_Directory>
/home/itssahil/PROJECTS/Mol_Feturizer/New_Systems/rnas/3D2G

>  <Rbt.Executable>
rbdock ($Id: //depot/dev/client3/rdock/2013.1/src/exe/rbdock.cxx#4 $)

>  <Rbt.Library>
libRbt.so (2013.1, Build901 2013/11/27)

>  <Rbt.Parameter_File>
/export/apps/rDock/src/rDock_2013.1_src/data/scripts/dock_solv.prm

>  <Rbt.Receptor>
prm/pocket_docking_2.prm

>  <SCORE>
-10.7899

>  <SCORE.INTER>
-13.2844

>  <SCORE.INTER.CONST>
1

>  <SCORE.INTER.POLAR>
0

>  <SCORE.INTER.ROT>
8

>  <SCORE.INTER.SOLV>
19.2314

>  <SCORE.INTER.VDW>
-24.2001

>  <SCORE.INTER.norm>
-0.510937

>  <SCORE.INTRA>
1.37604

>  <SCORE.INTRA.DIHEDRAL>
1.09549

>  <SCORE.INTRA.DIHEDRAL.0>
9.09364

>  <SCORE.INTRA.POLAR>
0

>  <SCORE.INTRA.POLAR.0>
0

>  <SCORE.INTRA.REPUL>
0

>  <SCORE.INTRA.REPUL.0>
0

>  <SCORE.INTRA.SOLV>
0.510959

>  <SCORE.INTRA.SOLV.lig_0>
-78.5846

>  <SCORE.INTRA.VDW>
0.572818

>  <SCORE.INTRA.VDW.0>
-2.81163

>  <SCORE.INTRA.norm>
0.0529248

>  <SCORE.RESTR>
1.11845

>  <SCORE.RESTR.CAVITY>
1.11845

>  <SCORE.RESTR.norm>
0.0430174

>  <SCORE.SYSTEM>
0

>  <SCORE.SYSTEM.CONST>
0

>  <SCORE.SYSTEM.DIHEDRAL>
0

>  <SCORE.SYSTEM.SOLV>
0

>  <SCORE.SYSTEM.norm>
0

>  <SCORE.heavy>
26

>  <SCORE.norm>
-0.414995

>  <RMSD>
2.000

$$$$
ligand
 OpenBabel11021811463D
libRbt.so/2013.1/901 2013/11/27
 26 27  0  0  0  0  0  0  0  0999 V2000
  -13.6048  -37.6947    2.0008 C   0  0  0  0  0  0  0  0  0  0  0  0
   -6.6799  -38.1377    5.4083 C   0  0  0  0  0  0  0  0  0  0  0  0
   -4.5965  -41.5774    9.5328 P   0  0  1  0  0  0  0  0  0  0  0  0
   -2.3812  -43.0771   10.1543 P   0  0  2  0  0  0  0  0  0  0  0  0
   -8.1517  -39.2491    2.8882 C   0  0  0  0  0  0  0  0  0  0  0  0
  -10.3337  -38.3077    3.7164 C   0  0  0  0  0  0  0  0  0  0  0  0
   -9.5889  -38.8519    2.6657 C   0  0  0  0  0  0  0  0  0  0  0  0
  -10.1557  -38.9959    1.3964 C   0  0  0  0  0  0  0  0  0  0  0  0
   -9.4439  -39.4941    0.4074 N   0  0  0  0  0  0  0  0  0  0  0  0
  -11.4674  -38.6428    1.1925 N   0  0  0  0  0  0  0  0  0  0  0  0
  -12.1906  -38.0930    2.2323 C   0  0  0  0  0  0  0  0  0  0  0  0
  -11.6400  -37.9370    3.4904 N   0  0  0  0  0  0  0  0  0  0  0  0
   -4.4356  -40.4786   10.5384 O   0  5  0  0  0  0  0  0  0  0  0  0
   -1.8336  -41.9658   10.9586 O   0  0  0  0  0  0  0  0  0  0  0  0
   -8.3697  -41.6378    5.8679 S   0  0  0  0  0  0  0  0  0  0  0  0
   -8.6276  -41.1311    4.3917 C   0  0  0  0  0  0  0  0  0  0  0  0
   -4.0501  -41.3007    8.1769 O   0  0  0  0  0  0  0  0  0  0  0  0
   -1.8997  -43.0485    8.7602 O   0  5  0  0  0  0  0  0  0  0  0  0
   -8.0468  -39.9164    4.1563 N   0  0  0  0  0  0  0  0  0  0  0  0
   -3.9427  -42.8234   10.2574 O   0  0  0  0  0  0  0  0  0  0  0  0
   -2.0652  -44.4676   10.6014 O   0  0  0  0  0  0  0  0  0  0  0  0
   -7.4159  -39.4352    5.2689 C   0  0  1  0  0  0  0  0  0  0  0  0
   -7.5393  -40.3376    6.2954 C   0  0  2  0  0  0  0  0  0  0  0  0
   -7.0229  -40.3014    7.7123 C   0  0  0  0  0  0  0  0  0  0  0  0
   -6.8412  -41.7082    8.2934 C   0  0  0  0  0  0  0  0  0  0  0  0
   -6.1514  -41.8411    9.5228 O   0  0  0  0  0  0  0  0  0  0  0  0
  1 11  1  0  0  0  0
  3 13  1  1  0  0  0
  3 17  2  0  0  0  0
  3 20  1  0  0  0  0
  3 26  1  0  0  0  0
  4 14  1  1  0  0  0
  4 18  1  0  0  0  0
  4 21  2  0  0  0  0
  4 20  1  0  0  0  0
  5 19  1  0  0  0  0
  5  7  1  0  0  0  0
  6  7  2  0  0  0  0
  6 12  1  0  0  0  0
  7  8  1  0  0  0  0
  8  9  1  0  0  0  0
  8 10  2  0  0  0  0
 10 11  1  0  0  0  0
 11 12  2  0  0  0  0
 15 23  1  0  0  0  0
 15 16  1  0  0  0  0
 16 19  1  0  0  0  0
 19 22  1  0  0  0  0
 22  2  1  6  0  0  0
 22 23  1  0  0  0  0
 23 24  1  6  0  0  0
 24 25  1  0  0  0  0
 25 26  1  0  0  0  0
M  CHG  2  13  -1  18  -1
M  END
>  <CHROM.1>
-86.02964867,66.63155751,42.51129196,69.55778042,25.14238214,169.35738846
-70.73603690,122.15836078,-6.80888539,-40.69834083,6.49540018,2.40925954
0.46230906,-1.56483421

>  <Name>
ligand

>  <RI>
0

>  <Rbt.Current_Directory>
/home/itssahil/PROJECTS/Mol_Feturizer/New_Systems/rnas/3D2G

>  <Rbt.Executable>
rbdock ($Id: //depot/dev/client3/rdock/2013.1/src/exe/rbdock.cxx#4 $)

>  <Rbt.Library>
libRbt.so (2013.1, Build901 2013/11/27)

>  <Rbt.Parameter_File>
/export/apps/rDock/src/rDock_2013.1_src/data/scripts/dock_solv.prm

>  <Rbt.Receptor>
prm/pocket_docking_3.prm

>  <SCORE>
-16.4434

>  <SCORE.INTER>
-17.831

>  <SCORE.INTER.CONST>
1

>  <SCORE.INTER.POLAR>
0

>  <SCORE.INTER.ROT>
8

>  <SCORE.INTER.SOLV>
21.2114

>  <SCORE.INTER.VDW>
-27.8912

>  <SCORE.INTER.norm>
-0.68581

>  <SCORE.INTRA>
1.36879

>  <SCORE.INTRA.DIHEDRAL>
-0.235466

>  <SCORE.INTRA.DIHEDRAL.0>
9.09364

>  <SCORE.INTRA.POLAR>
0

>  <SCORE.INTRA.POLAR.0>
0

>  <SCORE.INTRA.REPUL>
0

>  <SCORE.INTRA.REPUL.0>
0

>  <SCORE.INTRA.SOLV>
-1.16653

>  <SCORE.INTRA.SOLV.lig_0>
-78.5846

>  <SCORE.INTRA.VDW>
2.06979

>  <SCORE.INTRA.VDW.0>
-2.81163

>  <SCORE.INTRA.norm>
0.0526458

>  <SCORE.RESTR>
0.0188654

>  <SCORE.RESTR.CAVITY>
0.0188654

>  <SCORE.RESTR.norm>
0.000725594

>  <SCORE.SYSTEM>
0

>  <SCORE.SYSTEM.CONST>
0

>  <SCORE.SYSTEM.DIHEDRAL>
0

>  <SCORE.SYSTEM.SOLV>
0

>  <SCORE.SYSTEM.norm>
0

>  <SCORE.heavy>
26

>  <SCORE.norm>
-0.632438

>  <RMSD>
2.000

$$$$
ligand
 OpenBabel11021811463D
libRbt.so/2013.1/901 2013/11/27
 26 27  0  0  0  0  0  0  0  0999 V2000
  -13.5326  -37.8632    1.9831 C   0  0  0  0  0  0  0  0  0  0  0  0
   -5.4675  -40.4613    4.2446 C   0  0  0  0  0  0  0  0  0  0  0  0
   -5.0081  -43.1390    9.5162 P   0  0  1  0  0  0  0  0  0  0  0  0
   -2.3432  -43.1387   10.1804 P   0  0  2  0  0  0  0  0  0  0  0  0
   -8.0462  -39.0944    3.1337 C   0  0  0  0  0  0  0  0  0  0  0  0
  -10.2929  -38.1994    3.8299 C   0  0  0  0  0  0  0  0  0  0  0  0
   -9.4919  -38.7815    2.8427 C   0  0  0  0  0  0  0  0  0  0  0  0
  -10.0116  -39.0416    1.5718 C   0  0  0  0  0  0  0  0  0  0  0  0
   -9.2477  -39.5750    0.6418 N   0  0  0  0  0  0  0  0  0  0  0  0
  -11.3307  -38.7655    1.3060 N   0  0  0  0  0  0  0  0  0  0  0  0
  -12.1100  -38.1775    2.2825 C   0  0  0  0  0  0  0  0  0  0  0  0
  -11.6067  -37.9071    3.5411 N   0  0  0  0  0  0  0  0  0  0  0  0
   -4.7184  -44.1868    8.4854 O   0  5  0  0  0  0  0  0  0  0  0  0
   -1.6333  -43.5564   11.4065 O   0  0  0  0  0  0  0  0  0  0  0  0
   -8.7242  -41.1018    6.3184 S   0  0  0  0  0  0  0  0  0  0  0  0
   -9.0724  -40.1725    5.0866 C   0  0  0  0  0  0  0  0  0  0  0  0
   -6.3832  -43.1505   10.0841 O   0  0  0  0  0  0  0  0  0  0  0  0
   -2.0584  -41.7369    9.8196 O   0  5  0  0  0  0  0  0  0  0  0  0
   -7.9785  -39.9222    4.3062 N   0  0  0  0  0  0  0  0  0  0  0  0
   -3.8602  -43.3606   10.5832 O   0  0  0  0  0  0  0  0  0  0  0  0
   -2.0398  -43.8882    8.9236 O   0  0  0  0  0  0  0  0  0  0  0  0
   -6.8546  -40.5156    4.8083 C   0  0  1  0  0  0  0  0  0  0  0  0
   -7.1705  -41.2105    5.9486 C   0  0  2  0  0  0  0  0  0  0  0  0
   -6.3131  -42.0415    6.8706 C   0  0  0  0  0  0  0  0  0  0  0  0
   -5.6700  -41.1951    7.9751 C   0  0  0  0  0  0  0  0  0  0  0  0
   -4.6644  -41.7900    8.7750 O   0  0  0  0  0  0  0  0  0  0  0  0
  1 11  1  0  0  0  0
  3 13  1  6  0  0  0
  3 17  2  0  0  0  0
  3 20  1  0  0  0  0
  3 26  1  0  0  0  0
  4 14  1  1  0  0  0
  4 18  1  0  0  0  0
  4 21  2  0  0  0  0
  4 20  1  0  0  0  0
  5 19  1  0  0  0  0
  5  7  1  0  0  0  0
  6  7  2  0  0  0  0
  6 12  1  0  0  0  0
  7  8  1  0  0  0  0
  8  9  1  0  0  0  0
  8 10  2  0  0  0  0
 10 11  1  0  0  0  0
 11 12  2  0  0  0  0
 15 23  1  0  0  0  0
 15 16  1  0  0  0  0
 16 19  1  0  0  0  0
 19 22  1  0  0  0  0
 22  2  1  6  0  0  0
 22 23  1  0  0  0  0
 23 24  1  6  0  0  0
 24 25  1  0  0  0  0
 25 26  1  0  0  0  0
M  CHG  2  13  -1  18  -1
M  END
>  <CHROM.1>
63.50703656,-8.74062977,55.00927263,-175.43161017,-92.44893015,-169.46509475
-54.87106379,85.52274624,-6.74948967,-41.15591787,6.45920853,2.29565989,0.16962047
-1.18265785

>  <Name>
ligand

>  <RI>
0

>  <Rbt.Current_Directory>
/home/itssahil/PROJECTS/Mol_Feturizer/New_Systems/rnas/3D2G

>  <Rbt.Executable>
rbdock ($Id: //depot/dev/client3/rdock/2013.1/src/exe/rbdock.cxx#4 $)

>  <Rbt.Library>
libRbt.so (2013.1, Build901 2013/11/27)

>  <Rbt.Parameter_File>
/export/apps/rDock/src/rDock_2013.1_src/data/scripts/dock_solv.prm

>  <Rbt.Receptor>
prm/pocket_docking_3.prm

>  <SCORE>
-16.422

>  <SCORE.INTER>
-17.2536

>  <SCORE.INTER.CONST>
1

>  <SCORE.INTER.POLAR>
0

>  <SCORE.INTER.ROT>
8

>  <SCORE.INTER.SOLV>
15.1584

>  <SCORE.INTER.VDW>
-25.4885

>  <SCORE.INTER.norm>
-0.663599

>  <SCORE.INTRA>
0.831523

>  <SCORE.INTRA.DIHEDRAL>
-2.90315

>  <SCORE.INTRA.DIHEDRAL.0>
9.09364

>  <SCORE.INTRA.POLAR>
0

>  <SCORE.INTRA.POLAR.0>
0

>  <SCORE.INTRA.REPUL>
0

>  <SCORE.INTRA.REPUL.0>
0

>  <SCORE.INTRA.SOLV>
0.568063

>  <SCORE.INTRA.SOLV.lig_0>
-78.5846

>  <SCORE.INTRA.VDW>
1.99907

>  <SCORE.INTRA.VDW.0>
-2.81163

>  <SCORE.INTRA.norm>
0.0319817

>  <SCORE.RESTR>
0

>  <SCORE.RESTR.CAVITY>
0

>  <SCORE.RESTR.norm>
0

>  <SCORE.SYSTEM>
0

>  <SCORE.SYSTEM.CONST>
0

>  <SCORE.SYSTEM.DIHEDRAL>
0

>  <SCORE.SYSTEM.SOLV>
0

>  <SCORE.SYSTEM.norm>
0

>  <SCORE.heavy>
26

>  <SCORE.norm>
-0.631617

>  <RMSD>
2.002

$$$$
ligand
 OpenBabel11021811463D
libRbt.so/2013.1/901 2013/11/27
 26 27  0  0  0  0  0  0  0  0999 V2000
  -13.0526  -37.6807    2.5031 C   0  0  0  0  0  0  0  0  0  0  0  0
   -6.9701  -41.9909    4.0648 C   0  0  0  0  0  0  0  0  0  0  0  0
   -3.8969  -43.2868    8.1244 P   0  0  1  0  0  0  0  0  0  0  0  0
   -6.1845  -44.3305    9.2292 P   0  0  2  0  0  0  0  0  0  0  0  0
   -7.6781  -39.6564    2.1151 C   0  0  0  0  0  0  0  0  0  0  0  0
   -9.6739  -38.9629    3.4823 C   0  0  0  0  0  0  0  0  0  0  0  0
   -9.0943  -39.1512    2.2239 C   0  0  0  0  0  0  0  0  0  0  0  0
   -9.8059  -38.8378    1.0627 C   0  0  0  0  0  0  0  0  0  0  0  0
   -9.2487  -39.0022   -0.1186 N   0  0  0  0  0  0  0  0  0  0  0  0
  -11.0994  -38.3854    1.1581 N   0  0  0  0  0  0  0  0  0  0  0  0
  -11.6583  -38.1890    2.4053 C   0  0  0  0  0  0  0  0  0  0  0  0
  -10.9630  -38.4868    3.5622 N   0  0  0  0  0  0  0  0  0  0  0  0
   -3.2608  -43.1248    9.4711 O   0  5  0  0  0  0  0  0  0  0  0  0
   -6.0530  -45.4688    8.2972 O   0  0  0  0  0  0  0  0  0  0  0  0
   -5.9477  -38.4186    5.2940 S   0  0  0  0  0  0  0  0  0  0  0  0
   -6.6358  -38.2977    3.8748 C   0  0  0  0  0  0  0  0  0  0  0  0
   -3.5170  -44.5121    7.3709 O   0  0  0  0  0  0  0  0  0  0  0  0
   -7.5940  -44.0017    9.5148 O   0  5  0  0  0  0  0  0  0  0  0  0
   -7.0357  -39.5124    3.3922 N   0  0  0  0  0  0  0  0  0  0  0  0
   -5.4429  -43.1706    8.4433 O   0  0  0  0  0  0  0  0  0  0  0  0
   -5.5827  -44.4843   10.5884 O   0  0  0  0  0  0  0  0  0  0  0  0
   -6.7104  -40.5268    4.2481 C   0  0  1  0  0  0  0  0  0  0  0  0
   -6.0904  -40.0118    5.3588 C   0  0  2  0  0  0  0  0  0  0  0  0
   -5.5505  -40.6888    6.5940 C   0  0  0  0  0  0  0  0  0  0  0  0
   -4.3148  -41.5425    6.2874 C   0  0  0  0  0  0  0  0  0  0  0  0
   -3.5029  -41.9589    7.3702 O   0  0  0  0  0  0  0  0  0  0  0  0
  1 11  1  0  0  0  0
  3 13  1  1  0  0  0
  3 17  2  0  0  0  0
  3 20  1  0  0  0  0
  3 26  1  0  0  0  0
  4 14  1  6  0  0  0
  4 18  1  0  0  0  0
  4 21  2  0  0  0  0
  4 20  1  0  0  0  0
  5 19  1  0  0  0  0
  5  7  1  0  0  0  0
  6  7  2  0  0  0  0
  6 12  1  0  0  0  0
  7  8  1  0  0  0  0
  8  9  1  0  0  0  0
  8 10  2  0  0  0  0
 10 11  1  0  0  0  0
 11 12  2  0  0  0  0
 15 23  1  0  0  0  0
 15 16  1  0  0  0  0
 16 19  1  0  0  0  0
 19 22  1  0  0  0  0
 22  2  1  1  0  0  0
 22 23  1  0  0  0  0
 23 24  1  1  0  0  0
 24 25  1  0  0  0  0
 25 26  1  0  0  0  0
M  CHG  2  13  -1  18  -1
M  END
>  <CHROM.1>
-70.47106397,-74.01405449,-15.80121190,-63.58290113,-111.69710326,164.23399324
86.27573091,-156.90965242,-6.84525722,-41.18910486,5.68379661,2.11790146
-0.11073863,-0.83163725

>  <Name>
ligand

>  <RI>
0

>  <Rbt.Current_Directory>
/home/itssahil/PROJECTS/Mol_Feturizer/New_Systems/rnas/3D2G

>  <Rbt.Executable>
rbdock ($Id: //depot/dev/client3/rdock/2013.1/src/exe/rbdock.cxx#4 $)

>  <Rbt.Library>
libRbt.so (2013.1, Build901 2013/11/27)

>  <Rbt.Parameter_File>
/export/apps/rDock/src/rDock_2013.1_src/data/scripts/dock_solv.prm

>  <Rbt.Receptor>
prm/pocket_docking_3.prm

>  <SCORE>
-16.9449

>  <SCORE.INTER>
-15.6462

>  <SCORE.INTER.CONST>
1

>  <SCORE.INTER.POLAR>
0

>  <SCORE.INTER.ROT>
8

>  <SCORE.INTER.SOLV>
18.4794

>  <SCORE.INTER.VDW>
-25.5239

>  <SCORE.INTER.norm>
-0.601778

>  <SCORE.INTRA>
-1.3073

>  <SCORE.INTRA.DIHEDRAL>
-0.0370188

>  <SCORE.INTRA.DIHEDRAL.0>
9.09364

>  <SCORE.INTRA.POLAR>
0

>  <SCORE.INTRA.POLAR.0>
0

>  <SCORE.INTRA.REPUL>
0

>  <SCORE.INTRA.REPUL.0>
0

>  <SCORE.INTRA.SOLV>
-1.81906

>  <SCORE.INTRA.SOLV.lig_0>
-78.5846

>  <SCORE.INTRA.VDW>
-0.379262

>  <SCORE.INTRA.VDW.0>
-2.81163

>  <SCORE.INTRA.norm>
-0.0502809

>  <SCORE.RESTR>
0.00861501

>  <SCORE.RESTR.CAVITY>
0.00861501

>  <SCORE.RESTR.norm>
0.000331347

>  <SCORE.SYSTEM>
0

>  <SCORE.SYSTEM.CONST>
0

>  <SCORE.SYSTEM.DIHEDRAL>
0

>  <SCORE.SYSTEM.SOLV>
0

>  <SCORE.SYSTEM.norm>
0

>  <SCORE.heavy>
26

>  <SCORE.norm>
-0.651728

>  <RMSD>
2.015

$$$$
ligand
 OpenBabel11021811463D
libRbt.so/2013.1/901 2013/11/27
 26 27  0  0  0  0  0  0  0  0999 V2000
  -13.2248  -37.7718    1.9263 C   0  0  0  0  0  0  0  0  0  0  0  0
   -6.2655  -38.6500    5.4686 C   0  0  0  0  0  0  0  0  0  0  0  0
   -3.5213  -41.9010    7.9169 P   0  0  1  0  0  0  0  0  0  0  0  0
   -3.2525  -44.0229    9.6397 P   0  0  2  0  0  0  0  0  0  0  0  0
   -7.7826  -39.3539    2.8313 C   0  0  0  0  0  0  0  0  0  0  0  0
   -9.7869  -39.1282    1.3263 C   0  0  0  0  0  0  0  0  0  0  0  0
   -9.2071  -38.9277    2.5827 C   0  0  0  0  0  0  0  0  0  0  0  0
   -9.9516  -38.3684    3.6248 C   0  0  0  0  0  0  0  0  0  0  0  0
   -9.4046  -38.1971    4.8099 N   0  0  0  0  0  0  0  0  0  0  0  0
  -11.2470  -37.9712    3.3992 N   0  0  0  0  0  0  0  0  0  0  0  0
  -11.8156  -38.1864    2.1594 C   0  0  0  0  0  0  0  0  0  0  0  0
  -11.0935  -38.7463    1.1223 N   0  0  0  0  0  0  0  0  0  0  0  0
   -3.8814  -40.4610    8.1201 O   0  5  0  0  0  0  0  0  0  0  0  0
   -1.8444  -44.0821    9.1976 O   0  0  0  0  0  0  0  0  0  0  0  0
   -8.2118  -42.0452    5.5154 S   0  0  0  0  0  0  0  0  0  0  0  0
   -8.4134  -41.3553    4.1063 C   0  0  0  0  0  0  0  0  0  0  0  0
   -2.2236  -42.1550    7.2350 O   0  0  0  0  0  0  0  0  0  0  0  0
   -4.1162  -44.9469    8.8803 O   0  5  0  0  0  0  0  0  0  0  0  0
   -7.7426  -40.1679    4.0146 N   0  0  0  0  0  0  0  0  0  0  0  0
   -3.6192  -42.5031    9.3774 O   0  0  0  0  0  0  0  0  0  0  0  0
   -3.5391  -44.3728   11.0640 O   0  0  0  0  0  0  0  0  0  0  0  0
   -7.0924  -39.8651    5.1778 C   0  0  1  0  0  0  0  0  0  0  0  0
   -7.2942  -40.8674    6.0931 C   0  0  2  0  0  0  0  0  0  0  0  0
   -6.7945  -41.0319    7.5069 C   0  0  0  0  0  0  0  0  0  0  0  0
   -6.0394  -42.3519    7.6992 C   0  0  0  0  0  0  0  0  0  0  0  0
   -4.7536  -42.4787    7.1200 O   0  0  0  0  0  0  0  0  0  0  0  0
  1 11  1  0  0  0  0
  3 13  1  1  0  0  0
  3 17  2  0  0  0  0
  3 20  1  0  0  0  0
  3 26  1  0  0  0  0
  4 14  1  6  0  0  0
  4 18  1  0  0  0  0
  4 21  2  0  0  0  0
  4 20  1  0  0  0  0
  5 19  1  0  0  0  0
  5  7  1  0  0  0  0
  6  7  2  0  0  0  0
  6 12  1  0  0  0  0
  7  8  1  0  0  0  0
  8  9  1  0  0  0  0
  8 10  2  0  0  0  0
 10 11  1  0  0  0  0
 11 12  2  0  0  0  0
 15 23  1  0  0  0  0
 15 16  1  0  0  0  0
 16 19  1  0  0  0  0
 19 22  1  0  0  0  0
 22  2  1  6  0  0  0
 22 23  1  0  0  0  0
 23 24  1  6  0  0  0
 24 25  1  0  0  0  0
 25 26  1  0  0  0  0
M  CHG  2  13  -1  18  -1
M  END
>  <CHROM.1>
-177.45192314,61.73422762,-128.39821149,59.78760645,55.14173879,72.17753230
83.38657862,-56.86370851,-6.58789125,-41.10245986,6.09372241,2.36324076,-0.33070848
-0.62215225

>  <Name>
ligand

>  <RI>
0

>  <Rbt.Current_Directory>
/home/itssahil/PROJECTS/Mol_Feturizer/New_Systems/rnas/3D2G

>  <Rbt.Executable>
rbdock ($Id: //depot/dev/client3/rdock/2013.1/src/exe/rbdock.cxx#4 $)

>  <Rbt.Library>
libRbt.so (2013.1, Build901 2013/11/27)

>  <Rbt.Parameter_File>
/export/apps/rDock/src/rDock_2013.1_src/data/scripts/dock_solv.prm

>  <Rbt.Receptor>
prm/pocket_docking_2.prm

>  <SCORE>
-16.1655

>  <SCORE.INTER>
-16.6195

>  <SCORE.INTER.CONST>
1

>  <SCORE.INTER.POLAR>
0

>  <SCORE.INTER.ROT>
8

>  <SCORE.INTER.SOLV>
14.5261

>  <SCORE.INTER.VDW>
-24.8551

>  <SCORE.INTER.norm>
-0.639213

>  <SCORE.INTRA>
0.454

>  <SCORE.INTRA.DIHEDRAL>
-0.769994

>  <SCORE.INTRA.DIHEDRAL.0>
9.09364

>  <SCORE.INTRA.POLAR>
0

>  <SCORE.INTRA.POLAR.0>
0

>  <SCORE.INTRA.REPUL>
0

>  <SCORE.INTRA.REPUL.0>
0

>  <SCORE.INTRA.SOLV>
2.76383

>  <SCORE.INTRA.SOLV.lig_0>
-78.5846

>  <SCORE.INTRA.VDW>
-0.54292

>  <SCORE.INTRA.VDW.0>
-2.81163

>  <SCORE.INTRA.norm>
0.0174615

>  <SCORE.RESTR>
0

>  <SCORE.RESTR.CAVITY>
0

>  <SCORE.RESTR.norm>
0

>  <SCORE.SYSTEM>
0

>  <SCORE.SYSTEM.CONST>
0

>  <SCORE.SYSTEM.DIHEDRAL>
0

>  <SCORE.SYSTEM.SOLV>
0

>  <SCORE.SYSTEM.norm>
0

>  <SCORE.heavy>
26

>  <SCORE.norm>
-0.621751

>  <RMSD>
2.033

$$$$
ligand
 OpenBabel11021811463D
libRbt.so/2013.1/901 2013/11/27
 26 27  0  0  0  0  0  0  0  0999 V2000
  -13.5543  -37.7167    1.8613 C   0  0  0  0  0  0  0  0  0  0  0  0
   -6.6260  -37.7580    5.4628 C   0  0  0  0  0  0  0  0  0  0  0  0
   -3.7996  -41.0920    8.6592 P   0  0  1  0  0  0  0  0  0  0  0  0
   -3.4128  -43.7994    8.4074 P   0  0  2  0  0  0  0  0  0  0  0  0
   -8.2603  -39.3659    3.3424 C   0  0  0  0  0  0  0  0  0  0  0  0
  -10.5276  -38.4515    3.9393 C   0  0  0  0  0  0  0  0  0  0  0  0
   -9.6569  -38.9443    2.9626 C   0  0  0  0  0  0  0  0  0  0  0  0
  -10.0590  -39.0138    1.6259 C   0  0  0  0  0  0  0  0  0  0  0  0
   -9.2288  -39.4638    0.7086 N   0  0  0  0  0  0  0  0  0  0  0  0
  -11.3337  -38.6385    1.2780 N   0  0  0  0  0  0  0  0  0  0  0  0
  -12.1815  -38.1397    2.2470 C   0  0  0  0  0  0  0  0  0  0  0  0
  -11.7941  -38.0574    3.5712 N   0  0  0  0  0  0  0  0  0  0  0  0
   -3.9876  -41.1139   10.1453 O   0  5  0  0  0  0  0  0  0  0  0  0
   -4.2911  -44.8805    7.9159 O   0  0  0  0  0  0  0  0  0  0  0  0
   -8.7464  -40.7242    6.8850 S   0  0  0  0  0  0  0  0  0  0  0  0
   -8.9555  -40.6460    5.3190 C   0  0  0  0  0  0  0  0  0  0  0  0
   -2.4279  -40.7666    8.1837 O   0  0  0  0  0  0  0  0  0  0  0  0
   -3.0175  -43.9966    9.8149 O   0  5  0  0  0  0  0  0  0  0  0  0
   -8.2261  -39.6382    4.7527 N   0  0  0  0  0  0  0  0  0  0  0  0
   -4.3238  -42.5168    8.2117 O   0  0  0  0  0  0  0  0  0  0  0  0
   -2.1081  -43.6037    7.7055 O   0  0  0  0  0  0  0  0  0  0  0  0
   -7.5246  -38.9349    5.6911 C   0  0  1  0  0  0  0  0  0  0  0  0
   -7.7502  -39.4720    6.9336 C   0  0  2  0  0  0  0  0  0  0  0  0
   -7.2157  -39.0862    8.2905 C   0  0  0  0  0  0  0  0  0  0  0  0
   -6.1513  -40.0700    8.7894 C   0  0  0  0  0  0  0  0  0  0  0  0
   -4.8792  -40.0525    8.1678 O   0  0  0  0  0  0  0  0  0  0  0  0
  1 11  1  0  0  0  0
  3 13  1  1  0  0  0
  3 17  2  0  0  0  0
  3 20  1  0  0  0  0
  3 26  1  0  0  0  0
  4 14  1  6  0  0  0
  4 18  1  0  0  0  0
  4 21  2  0  0  0  0
  4 20  1  0  0  0  0
  5 19  1  0  0  0  0
  5  7  1  0  0  0  0
  6  7  2  0  0  0  0
  6 12  1  0  0  0  0
  7  8  1  0  0  0  0
  8  9  1  0  0  0  0
  8 10  2  0  0  0  0
 10 11  1  0  0  0  0
 11 12  2  0  0  0  0
 15 23  1  0  0  0  0
 15 16  1  0  0  0  0
 16 19  1  0  0  0  0
 19 22  1  0  0  0  0
 22  2  1  6  0  0  0
 22 23  1  0  0  0  0
 23 24  1  6  0  0  0
 24 25  1  0  0  0  0
 25 26  1  0  0  0  0
M  CHG  2  13  -1  18  -1
M  END
>  <CHROM.1>
-77.95694631,63.61183843,21.09762719,177.98120008,74.04485823,72.13590717
-178.43698257,-39.97148355,-6.88604664,-40.52871656,6.21045158,2.93783764
0.75696031,-2.26455670

>  <Name>
ligand

>  <RI>
0

>  <Rbt.Current_Directory>
/home/itssahil/PROJECTS/Mol_Feturizer/New_Systems/rnas/3D2G

>  <Rbt.Executable>
rbdock ($Id: //depot/dev/client3/rdock/2013.1/src/exe/rbdock.cxx#4 $)

>  <Rbt.Library>
libRbt.so (2013.1, Build901 2013/11/27)

>  <Rbt.Parameter_File>
/export/apps/rDock/src/rDock_2013.1_src/data/scripts/dock_solv.prm

>  <Rbt.Receptor>
prm/pocket_docking_3.prm

>  <SCORE>
-21.0296

>  <SCORE.INTER>
-19.3633

>  <SCORE.INTER.CONST>
1

>  <SCORE.INTER.POLAR>
0

>  <SCORE.INTER.ROT>
8

>  <SCORE.INTER.SOLV>
18.9861

>  <SCORE.INTER.VDW>
-28.1709

>  <SCORE.INTER.norm>
-0.744743

>  <SCORE.INTRA>
-1.6663

>  <SCORE.INTRA.DIHEDRAL>
-2.96165

>  <SCORE.INTRA.DIHEDRAL.0>
9.09364

>  <SCORE.INTRA.POLAR>
0

>  <SCORE.INTRA.POLAR.0>
0

>  <SCORE.INTRA.REPUL>
0

>  <SCORE.INTRA.REPUL.0>
0

>  <SCORE.INTRA.SOLV>
-0.609416

>  <SCORE.INTRA.SOLV.lig_0>
-78.5846

>  <SCORE.INTRA.VDW>
0.119231

>  <SCORE.INTRA.VDW.0>
-2.81163

>  <SCORE.INTRA.norm>
-0.0640886

>  <SCORE.RESTR>
0

>  <SCORE.RESTR.CAVITY>
0

>  <SCORE.RESTR.norm>
0

>  <SCORE.SYSTEM>
0

>  <SCORE.SYSTEM.CONST>
0

>  <SCORE.SYSTEM.DIHEDRAL>
0

>  <SCORE.SYSTEM.SOLV>
0

>  <SCORE.SYSTEM.norm>
0

>  <SCORE.heavy>
26

>  <SCORE.norm>
-0.808831

>  <RMSD>
2.036

$$$$
ligand
 OpenBabel11021811463D
libRbt.so/2013.1/901 2013/11/27
 26 27  0  0  0  0  0  0  0  0999 V2000
  -13.5253  -37.6727    1.9779 C   0  0  0  0  0  0  0  0  0  0  0  0
   -6.2264  -38.2297    5.2725 C   0  0  0  0  0  0  0  0  0  0  0  0
   -5.5861  -43.1334    7.1386 P   0  0  1  0  0  0  0  0  0  0  0  0
   -3.8454  -44.1859    8.9840 P   0  0  2  0  0  0  0  0  0  0  0  0
   -8.1497  -39.3521    3.0830 C   0  0  0  0  0  0  0  0  0  0  0  0
  -10.3250  -38.3173    3.8113 C   0  0  0  0  0  0  0  0  0  0  0  0
   -9.5671  -38.9215    2.8036 C   0  0  0  0  0  0  0  0  0  0  0  0
  -10.1013  -39.0956    1.5239 C   0  0  0  0  0  0  0  0  0  0  0  0
   -9.3768  -39.6505    0.5752 N   0  0  0  0  0  0  0  0  0  0  0  0
  -11.3953  -38.7121    1.2684 N   0  0  0  0  0  0  0  0  0  0  0  0
  -12.1311  -38.1033    2.2657 C   0  0  0  0  0  0  0  0  0  0  0  0
  -11.6124  -37.9172    3.5333 N   0  0  0  0  0  0  0  0  0  0  0  0
   -4.9550  -42.6231    5.8793 O   0  5  0  0  0  0  0  0  0  0  0  0
   -4.9690  -44.1623    9.9425 O   0  0  0  0  0  0  0  0  0  0  0  0
   -8.5830  -41.1265    6.4439 S   0  0  0  0  0  0  0  0  0  0  0  0
   -8.8709  -40.8124    4.9204 C   0  0  0  0  0  0  0  0  0  0  0  0
   -7.0082  -43.5556    7.0264 O   0  0  0  0  0  0  0  0  0  0  0  0
   -3.0022  -42.9792    9.0812 O   0  5  0  0  0  0  0  0  0  0  0  0
   -8.0661  -39.8177    4.4397 N   0  0  0  0  0  0  0  0  0  0  0  0
   -4.5983  -44.2839    7.5924 O   0  0  0  0  0  0  0  0  0  0  0  0
   -2.8632  -45.3054    9.1065 O   0  0  0  0  0  0  0  0  0  0  0  0
   -7.2374  -39.3269    5.4091 C   0  0  1  0  0  0  0  0  0  0  0  0
   -7.4509  -40.0033    6.5839 C   0  0  2  0  0  0  0  0  0  0  0  0
   -6.7998  -39.8654    7.9377 C   0  0  0  0  0  0  0  0  0  0  0  0
   -6.5218  -41.2279    8.5827 C   0  0  0  0  0  0  0  0  0  0  0  0
   -5.3791  -41.9489    8.1591 O   0  0  0  0  0  0  0  0  0  0  0  0
  1 11  1  0  0  0  0
  3 13  1  6  0  0  0
  3 17  2  0  0  0  0
  3 20  1  0  0  0  0
  3 26  1  0  0  0  0
  4 14  1  1  0  0  0
  4 18  1  0  0  0  0
  4 21  2  0  0  0  0
  4 20  1  0  0  0  0
  5 19  1  0  0  0  0
  5  7  1  0  0  0  0
  6  7  2  0  0  0  0
  6 12  1  0  0  0  0
  7  8  1  0  0  0  0
  8  9  1  0  0  0  0
  8 10  2  0  0  0  0
 10 11  1  0  0  0  0
 11 12  2  0  0  0  0
 15 23  1  0  0  0  0
 15 16  1  0  0  0  0
 16 19  1  0  0  0  0
 19 22  1  0  0  0  0
 22  2  1  6  0  0  0
 22 23  1  0  0  0  0
 23 24  1  6  0  0  0
 24 25  1  0  0  0  0
 25 26  1  0  0  0  0
M  CHG  2  13  -1  18  -1
M  END
>  <CHROM.1>
118.61468094,55.57562425,35.22154581,61.31477241,40.92409312,79.85037040
-101.05585062,111.06722423,-7.28096252,-41.16061080,5.89142447,2.69378545
0.79765824,-1.84900708

>  <Name>
ligand

>  <RI>
0

>  <Rbt.Current_Directory>
/home/itssahil/PROJECTS/Mol_Feturizer/New_Systems/rnas/3D2G

>  <Rbt.Executable>
rbdock ($Id: //depot/dev/client3/rdock/2013.1/src/exe/rbdock.cxx#4 $)

>  <Rbt.Library>
libRbt.so (2013.1, Build901 2013/11/27)

>  <Rbt.Parameter_File>
/export/apps/rDock/src/rDock_2013.1_src/data/scripts/dock_solv.prm

>  <Rbt.Receptor>
prm/pocket_docking_2.prm

>  <SCORE>
-13.5637

>  <SCORE.INTER>
-17.2588

>  <SCORE.INTER.CONST>
1

>  <SCORE.INTER.POLAR>
0

>  <SCORE.INTER.ROT>
8

>  <SCORE.INTER.SOLV>
17.4131

>  <SCORE.INTER.VDW>
-26.2436

>  <SCORE.INTER.norm>
-0.663801

>  <SCORE.INTRA>
3.10422

>  <SCORE.INTRA.DIHEDRAL>
7.19972

>  <SCORE.INTRA.DIHEDRAL.0>
9.09364

>  <SCORE.INTRA.POLAR>
0

>  <SCORE.INTRA.POLAR.0>
0

>  <SCORE.INTRA.REPUL>
0

>  <SCORE.INTRA.REPUL.0>
0

>  <SCORE.INTRA.SOLV>
-1.25646

>  <SCORE.INTRA.SOLV.lig_0>
-78.5846

>  <SCORE.INTRA.VDW>
0.132588

>  <SCORE.INTRA.VDW.0>
-2.81163

>  <SCORE.INTRA.norm>
0.119393

>  <SCORE.RESTR>
0.590908

>  <SCORE.RESTR.CAVITY>
0.590908

>  <SCORE.RESTR.norm>
0.0227272

>  <SCORE.SYSTEM>
0

>  <SCORE.SYSTEM.CONST>
0

>  <SCORE.SYSTEM.DIHEDRAL>
0

>  <SCORE.SYSTEM.SOLV>
0

>  <SCORE.SYSTEM.norm>
0

>  <SCORE.heavy>
26

>  <SCORE.norm>
-0.52168

>  <RMSD>
2.044

$$$$
ligand
 OpenBabel11021811463D
libRbt.so/2013.1/901 2013/11/27
 26 27  0  0  0  0  0  0  0  0999 V2000
  -13.6137  -37.7836    1.7516 C   0  0  0  0  0  0  0  0  0  0  0  0
   -7.1444  -41.8176    4.3701 C   0  0  0  0  0  0  0  0  0  0  0  0
   -4.6752  -41.3617    7.6130 P   0  0  1  0  0  0  0  0  0  0  0  0
   -3.4269  -43.7506    7.0858 P   0  0  2  0  0  0  0  0  0  0  0  0
   -8.3135  -39.0369    3.5618 C   0  0  0  0  0  0  0  0  0  0  0  0
  -10.6260  -38.1368    3.9805 C   0  0  0  0  0  0  0  0  0  0  0  0
   -9.7117  -38.7182    3.0968 C   0  0  0  0  0  0  0  0  0  0  0  0
  -10.0723  -38.9723    1.7708 C   0  0  0  0  0  0  0  0  0  0  0  0
   -9.2016  -39.5051    0.9395 N   0  0  0  0  0  0  0  0  0  0  0  0
  -11.3480  -38.6910    1.3463 N   0  0  0  0  0  0  0  0  0  0  0  0
  -12.2395  -38.1037    2.2220 C   0  0  0  0  0  0  0  0  0  0  0  0
  -11.8936  -37.8392    3.5338 N   0  0  0  0  0  0  0  0  0  0  0  0
   -3.4886  -40.7033    8.2477 O   0  5  0  0  0  0  0  0  0  0  0  0
   -2.1660  -43.0051    7.2761 O   0  0  0  0  0  0  0  0  0  0  0  0
   -8.8994  -39.8398    7.2555 S   0  0  0  0  0  0  0  0  0  0  0  0
   -8.9650  -38.9813    5.9285 C   0  0  0  0  0  0  0  0  0  0  0  0
   -4.8851  -41.0677    6.1697 O   0  0  0  0  0  0  0  0  0  0  0  0
   -3.8165  -43.8368    5.6655 O   0  5  0  0  0  0  0  0  0  0  0  0
   -8.3834  -39.6237    4.8714 N   0  0  0  0  0  0  0  0  0  0  0  0
   -4.4511  -42.8940    7.9403 O   0  0  0  0  0  0  0  0  0  0  0  0
   -3.4570  -45.1739    7.5401 O   0  0  0  0  0  0  0  0  0  0  0  0
   -7.8657  -40.8335    5.2397 C   0  0  1  0  0  0  0  0  0  0  0  0
   -8.1068  -41.0516    6.5728 C   0  0  2  0  0  0  0  0  0  0  0  0
   -7.7625  -42.2201    7.4626 C   0  0  0  0  0  0  0  0  0  0  0  0
   -6.9636  -41.7865    8.6969 C   0  0  0  0  0  0  0  0  0  0  0  0
   -5.8814  -40.8919    8.5139 O   0  0  0  0  0  0  0  0  0  0  0  0
  1 11  1  0  0  0  0
  3 13  1  1  0  0  0
  3 17  2  0  0  0  0
  3 20  1  0  0  0  0
  3 26  1  0  0  0  0
  4 14  1  1  0  0  0
  4 18  1  0  0  0  0
  4 21  2  0  0  0  0
  4 20  1  0  0  0  0
  5 19  1  0  0  0  0
  5  7  1  0  0  0  0
  6  7  2  0  0  0  0
  6 12  1  0  0  0  0
  7  8  1  0  0  0  0
  8  9  1  0  0  0  0
  8 10  2  0  0  0  0
 10 11  1  0  0  0  0
 11 12  2  0  0  0  0
 15 23  1  0  0  0  0
 15 16  1  0  0  0  0
 16 19  1  0  0  0  0
 19 22  1  0  0  0  0
 22  2  1  6  0  0  0
 22 23  1  0  0  0  0
 23 24  1  6  0  0  0
 24 25  1  0  0  0  0
 25 26  1  0  0  0  0
M  CHG  2  13  -1  18  -1
M  END
>  <CHROM.1>
-79.08426417,-57.72428861,43.07139804,58.11119152,-55.69072578,-45.90092978
-61.75022584,-146.87351177,-7.18570347,-40.83148067,5.67587668,-2.69112240
-0.60184092,1.44893818

>  <Name>
ligand

>  <RI>
0

>  <Rbt.Current_Directory>
/home/itssahil/PROJECTS/Mol_Feturizer/New_Systems/rnas/3D2G

>  <Rbt.Executable>
rbdock ($Id: //depot/dev/client3/rdock/2013.1/src/exe/rbdock.cxx#4 $)

>  <Rbt.Library>
libRbt.so (2013.1, Build901 2013/11/27)

>  <Rbt.Parameter_File>
/export/apps/rDock/src/rDock_2013.1_src/data/scripts/dock_solv.prm

>  <Rbt.Receptor>
prm/pocket_docking_3.prm

>  <SCORE>
-17.283

>  <SCORE.INTER>
-16.7798

>  <SCORE.INTER.CONST>
1

>  <SCORE.INTER.POLAR>
0

>  <SCORE.INTER.ROT>
8

>  <SCORE.INTER.SOLV>
17.5484

>  <SCORE.INTER.VDW>
-25.9694

>  <SCORE.INTER.norm>
-0.645378

>  <SCORE.INTRA>
-0.503229

>  <SCORE.INTRA.DIHEDRAL>
-1.95378

>  <SCORE.INTRA.DIHEDRAL.0>
9.09364

>  <SCORE.INTRA.POLAR>
0

>  <SCORE.INTRA.POLAR.0>
0

>  <SCORE.INTRA.REPUL>
0

>  <SCORE.INTRA.REPUL.0>
0

>  <SCORE.INTRA.SOLV>
0.613766

>  <SCORE.INTRA.SOLV.lig_0>
-78.5846

>  <SCORE.INTRA.VDW>
0.16678

>  <SCORE.INTRA.VDW.0>
-2.81163

>  <SCORE.INTRA.norm>
-0.0193549

>  <SCORE.RESTR>
0

>  <SCORE.RESTR.CAVITY>
0

>  <SCORE.RESTR.norm>
0

>  <SCORE.SYSTEM>
0

>  <SCORE.SYSTEM.CONST>
0

>  <SCORE.SYSTEM.DIHEDRAL>
0

>  <SCORE.SYSTEM.SOLV>
0

>  <SCORE.SYSTEM.norm>
0

>  <SCORE.heavy>
26

>  <SCORE.norm>
-0.664733

>  <RMSD>
2.046

$$$$
ligand
 OpenBabel11021811463D
libRbt.so/2013.1/901 2013/11/27
 26 27  0  0  0  0  0  0  0  0999 V2000
  -13.4842  -37.6411    1.9486 C   0  0  0  0  0  0  0  0  0  0  0  0
   -7.1911  -37.9305    5.3663 C   0  0  0  0  0  0  0  0  0  0  0  0
   -4.4071  -42.0693    9.4215 P   0  0  1  0  0  0  0  0  0  0  0  0
   -2.7433  -43.8633    8.1741 P   0  0  2  0  0  0  0  0  0  0  0  0
   -8.1294  -39.5052    2.8380 C   0  0  0  0  0  0  0  0  0  0  0  0
  -10.3288  -38.6379    3.7004 C   0  0  0  0  0  0  0  0  0  0  0  0
   -9.5416  -39.0280    2.6127 C   0  0  0  0  0  0  0  0  0  0  0  0
  -10.0414  -38.9430    1.3104 C   0  0  0  0  0  0  0  0  0  0  0  0
   -9.2894  -39.2967    0.2894 N   0  0  0  0  0  0  0  0  0  0  0  0
  -11.3305  -38.5168    1.1025 N   0  0  0  0  0  0  0  0  0  0  0  0
  -12.0954  -38.1200    2.1813 C   0  0  0  0  0  0  0  0  0  0  0  0
  -11.6108  -38.1909    3.4739 N   0  0  0  0  0  0  0  0  0  0  0  0
   -4.6792  -43.4081   10.0363 O   0  5  0  0  0  0  0  0  0  0  0  0
   -1.9753  -43.9840    9.4300 O   0  0  0  0  0  0  0  0  0  0  0  0
   -8.1790  -41.6651    5.9946 S   0  0  0  0  0  0  0  0  0  0  0  0
   -8.3740  -41.3317    4.4606 C   0  0  0  0  0  0  0  0  0  0  0  0
   -3.9837  -40.9974   10.3624 O   0  0  0  0  0  0  0  0  0  0  0  0
   -1.8910  -44.0209    6.9803 O   0  5  0  0  0  0  0  0  0  0  0  0
   -8.0285  -40.0424    4.1668 N   0  0  0  0  0  0  0  0  0  0  0  0
   -3.3478  -42.4027    8.2938 O   0  0  0  0  0  0  0  0  0  0  0  0
   -3.8439  -44.8481    7.9462 O   0  0  0  0  0  0  0  0  0  0  0  0
   -7.6308  -39.3604    5.2822 C   0  0  1  0  0  0  0  0  0  0  0  0
   -7.6789  -40.1921    6.3726 C   0  0  2  0  0  0  0  0  0  0  0  0
   -7.3354  -39.9461    7.8208 C   0  0  0  0  0  0  0  0  0  0  0  0
   -5.9177  -40.4182    8.1630 C   0  0  0  0  0  0  0  0  0  0  0  0
   -5.7530  -41.7287    8.6731 O   0  0  0  0  0  0  0  0  0  0  0  0
  1 11  1  0  0  0  0
  3 13  1  1  0  0  0
  3 17  2  0  0  0  0
  3 20  1  0  0  0  0
  3 26  1  0  0  0  0
  4 14  1  1  0  0  0
  4 18  1  0  0  0  0
  4 21  2  0  0  0  0
  4 20  1  0  0  0  0
  5 19  1  0  0  0  0
  5  7  1  0  0  0  0
  6  7  2  0  0  0  0
  6 12  1  0  0  0  0
  7  8  1  0  0  0  0
  8  9  1  0  0  0  0
  8 10  2  0  0  0  0
 10 11  1  0  0  0  0
 11 12  2  0  0  0  0
 15 23  1  0  0  0  0
 15 16  1  0  0  0  0
 16 19  1  0  0  0  0
 19 22  1  0  0  0  0
 22  2  1  6  0  0  0
 22 23  1  0  0  0  0
 23 24  1  6  0  0  0
 24 25  1  0  0  0  0
 25 26  1  0  0  0  0
M  CHG  2  13  -1  18  -1
M  END
>  <CHROM.1>
-6.39858952,84.40050078,26.08187384,-65.83316867,82.40896000,-93.09979376
-161.93003173,169.65784985,-6.82580364,-40.96327002,6.06455877,2.62874639
0.67923423,-1.80526841

>  <Name>
ligand

>  <RI>
0

>  <Rbt.Current_Directory>
/home/itssahil/PROJECTS/Mol_Feturizer/New_Systems/rnas/3D2G

>  <Rbt.Executable>
rbdock ($Id: //depot/dev/client3/rdock/2013.1/src/exe/rbdock.cxx#4 $)

>  <Rbt.Library>
libRbt.so (2013.1, Build901 2013/11/27)

>  <Rbt.Parameter_File>
/export/apps/rDock/src/rDock_2013.1_src/data/scripts/dock_solv.prm

>  <Rbt.Receptor>
prm/pocket_docking_2.prm

>  <SCORE>
-15.4414

>  <SCORE.INTER>
-17.162

>  <SCORE.INTER.CONST>
1

>  <SCORE.INTER.POLAR>
0

>  <SCORE.INTER.ROT>
8

>  <SCORE.INTER.SOLV>
15.3797

>  <SCORE.INTER.VDW>
-25.5013

>  <SCORE.INTER.norm>
-0.660078

>  <SCORE.INTRA>
0.954704

>  <SCORE.INTRA.DIHEDRAL>
3.25021

>  <SCORE.INTRA.DIHEDRAL.0>
9.09364

>  <SCORE.INTRA.POLAR>
0

>  <SCORE.INTRA.POLAR.0>
0

>  <SCORE.INTRA.REPUL>
0

>  <SCORE.INTRA.REPUL.0>
0

>  <SCORE.INTRA.SOLV>
-2.15108

>  <SCORE.INTRA.SOLV.lig_0>
-78.5846

>  <SCORE.INTRA.VDW>
0.405138

>  <SCORE.INTRA.VDW.0>
-2.81163

>  <SCORE.INTRA.norm>
0.0367194

>  <SCORE.RESTR>
0.765891

>  <SCORE.RESTR.CAVITY>
0.765891

>  <SCORE.RESTR.norm>
0.0294574

>  <SCORE.SYSTEM>
0

>  <SCORE.SYSTEM.CONST>
0

>  <SCORE.SYSTEM.DIHEDRAL>
0

>  <SCORE.SYSTEM.SOLV>
0

>  <SCORE.SYSTEM.norm>
0

>  <SCORE.heavy>
26

>  <SCORE.norm>
-0.593902

>  <RMSD>
2.086

$$$$
ligand
 OpenBabel11021811463D
libRbt.so/2013.1/901 2013/11/27
 26 27  0  0  0  0  0  0  0  0999 V2000
  -13.2029  -37.7450    2.0195 C   0  0  0  0  0  0  0  0  0  0  0  0
   -8.6016  -40.5037    5.8051 C   0  0  0  0  0  0  0  0  0  0  0  0
   -4.1775  -41.3062    8.6725 P   0  0  1  0  0  0  0  0  0  0  0  0
   -1.7084  -42.4553    8.3173 P   0  0  2  0  0  0  0  0  0  0  0  0
   -7.8243  -39.5210    2.9446 C   0  0  0  0  0  0  0  0  0  0  0  0
  -10.0080  -38.5895    3.7796 C   0  0  0  0  0  0  0  0  0  0  0  0
   -9.2425  -39.0662    2.7111 C   0  0  0  0  0  0  0  0  0  0  0  0
   -9.7700  -39.0891    1.4171 C   0  0  0  0  0  0  0  0  0  0  0  0
   -9.0384  -39.5242    0.4128 N   0  0  0  0  0  0  0  0  0  0  0  0
  -11.0646  -38.6836    1.2024 N   0  0  0  0  0  0  0  0  0  0  0  0
  -11.8080  -38.2009    2.2612 C   0  0  0  0  0  0  0  0  0  0  0  0
  -11.2960  -38.1647    3.5446 N   0  0  0  0  0  0  0  0  0  0  0  0
   -4.7994  -42.4692    7.9617 O   0  5  0  0  0  0  0  0  0  0  0  0
   -1.6220  -42.4836    9.7916 O   0  0  0  0  0  0  0  0  0  0  0  0
   -6.1064  -37.4906    5.6939 S   0  0  0  0  0  0  0  0  0  0  0  0
   -6.4682  -37.9147    4.2135 C   0  0  0  0  0  0  0  0  0  0  0  0
   -4.2237  -41.3545   10.1588 O   0  0  0  0  0  0  0  0  0  0  0  0
   -0.3957  -42.2250    7.6847 O   0  5  0  0  0  0  0  0  0  0  0  0
   -7.3539  -38.9552    4.1788 N   0  0  0  0  0  0  0  0  0  0  0  0
   -2.7160  -41.2573    8.0669 O   0  0  0  0  0  0  0  0  0  0  0  0
   -2.2097  -43.6874    7.6363 O   0  0  0  0  0  0  0  0  0  0  0  0
   -7.6775  -39.3839    5.4353 C   0  0  1  0  0  0  0  0  0  0  0  0
   -7.0233  -38.6173    6.3667 C   0  0  2  0  0  0  0  0  0  0  0  0
   -7.0413  -38.6622    7.8744 C   0  0  0  0  0  0  0  0  0  0  0  0
   -6.3043  -39.8900    8.4213 C   0  0  0  0  0  0  0  0  0  0  0  0
   -4.9414  -40.0612    8.0776 O   0  0  0  0  0  0  0  0  0  0  0  0
  1 11  1  0  0  0  0
  3 13  1  6  0  0  0
  3 17  2  0  0  0  0
  3 20  1  0  0  0  0
  3 26  1  0  0  0  0
  4 14  1  1  0  0  0
  4 18  1  0  0  0  0
  4 21  2  0  0  0  0
  4 20  1  0  0  0  0
  5 19  1  0  0  0  0
  5  7  1  0  0  0  0
  6  7  2  0  0  0  0
  6 12  1  0  0  0  0
  7  8  1  0  0  0  0
  8  9  1  0  0  0  0
  8 10  2  0  0  0  0
 10 11  1  0  0  0  0
 11 12  2  0  0  0  0
 15 23  1  0  0  0  0
 15 16  1  0  0  0  0
 16 19  1  0  0  0  0
 19 22  1  0  0  0  0
 22  2  1  1  0  0  0
 22 23  1  0  0  0  0
 23 24  1  1  0  0  0
 24 25  1  0  0  0  0
 25 26  1  0  0  0  0
M  CHG  2  13  -1  18  -1
M  END
>  <CHROM.1>
-64.58169717,-105.34763577,-19.63398127,-59.11290185,-109.03917442,58.42368578
178.47105742,69.55028061,-6.27558820,-40.05763192,5.95716175,2.64544828,0.56794351
-1.82894197

>  <Name>
ligand

>  <RI>
0

>  <Rbt.Current_Directory>
/home/itssahil/PROJECTS/Mol_Feturizer/New_Systems/rnas/3D2G

>  <Rbt.Executable>
rbdock ($Id: //depot/dev/client3/rdock/2013.1/src/exe/rbdock.cxx#4 $)

>  <Rbt.Library>
libRbt.so (2013.1, Build901 2013/11/27)

>  <Rbt.Parameter_File>
/export/apps/rDock/src/rDock_2013.1_src/data/scripts/dock_solv.prm

>  <Rbt.Receptor>
prm/pocket_docking_3.prm

>  <SCORE>
-24.7644

>  <SCORE.INTER>
-21.4165

>  <SCORE.INTER.CONST>
1

>  <SCORE.INTER.POLAR>
0

>  <SCORE.INTER.ROT>
8

>  <SCORE.INTER.SOLV>
17.3891

>  <SCORE.INTER.VDW>
-29.0074

>  <SCORE.INTER.norm>
-0.823711

>  <SCORE.INTRA>
-3.34796

>  <SCORE.INTRA.DIHEDRAL>
-4.20848

>  <SCORE.INTRA.DIHEDRAL.0>
9.09364

>  <SCORE.INTRA.POLAR>
0

>  <SCORE.INTRA.POLAR.0>
0

>  <SCORE.INTRA.REPUL>
0

>  <SCORE.INTRA.REPUL.0>
0

>  <SCORE.INTRA.SOLV>
-2.07959

>  <SCORE.INTRA.SOLV.lig_0>
-78.5846

>  <SCORE.INTRA.VDW>
-0.203931

>  <SCORE.INTRA.VDW.0>
-2.81163

>  <SCORE.INTRA.norm>
-0.128768

>  <SCORE.RESTR>
0

>  <SCORE.RESTR.CAVITY>
0

>  <SCORE.RESTR.norm>
0

>  <SCORE.SYSTEM>
0

>  <SCORE.SYSTEM.CONST>
0

>  <SCORE.SYSTEM.DIHEDRAL>
0

>  <SCORE.SYSTEM.SOLV>
0

>  <SCORE.SYSTEM.norm>
0

>  <SCORE.heavy>
26

>  <SCORE.norm>
-0.952479

>  <RMSD>
2.097

$$$$
ligand
 OpenBabel11021811463D
libRbt.so/2013.1/901 2013/11/27
 26 27  0  0  0  0  0  0  0  0999 V2000
  -13.6146  -37.8156    1.7899 C   0  0  0  0  0  0  0  0  0  0  0  0
   -8.6278  -41.3026    5.2893 C   0  0  0  0  0  0  0  0  0  0  0  0
   -6.1249  -43.2868    9.5173 P   0  0  1  0  0  0  0  0  0  0  0  0
   -5.0060  -44.7223   11.5741 P   0  0  2  0  0  0  0  0  0  0  0  0
   -8.1836  -39.0333    3.1903 C   0  0  0  0  0  0  0  0  0  0  0  0
  -10.4692  -38.1677    3.7903 C   0  0  0  0  0  0  0  0  0  0  0  0
   -9.6152  -38.7242    2.8332 C   0  0  0  0  0  0  0  0  0  0  0  0
  -10.0684  -38.9619    1.5328 C   0  0  0  0  0  0  0  0  0  0  0  0
   -9.2547  -39.4712    0.6320 N   0  0  0  0  0  0  0  0  0  0  0  0
  -11.3746  -38.6893    1.2066 N   0  0  0  0  0  0  0  0  0  0  0  0
  -12.2064  -38.1265    2.1541 C   0  0  0  0  0  0  0  0  0  0  0  0
  -11.7690  -37.8784    3.4416 N   0  0  0  0  0  0  0  0  0  0  0  0
   -4.7905  -42.6438    9.2929 O   0  5  0  0  0  0  0  0  0  0  0  0
   -5.2900  -44.7560   13.0232 O   0  0  0  0  0  0  0  0  0  0  0  0
   -7.5082  -37.8556    6.7665 S   0  0  0  0  0  0  0  0  0  0  0  0
   -7.6159  -37.7312    5.1932 C   0  0  0  0  0  0  0  0  0  0  0  0
   -6.4637  -44.4128    8.6058 O   0  0  0  0  0  0  0  0  0  0  0  0
   -3.6234  -44.2967   11.2851 O   0  5  0  0  0  0  0  0  0  0  0  0
   -8.0216  -38.8998    4.6118 N   0  0  0  0  0  0  0  0  0  0  0  0
   -6.0790  -43.6797   11.0498 O   0  0  0  0  0  0  0  0  0  0  0  0
   -5.1382  -46.0054   10.8195 O   0  0  0  0  0  0  0  0  0  0  0  0
   -8.2016  -39.8880    5.5383 C   0  0  1  0  0  0  0  0  0  0  0  0
   -7.9373  -39.3976    6.7924 C   0  0  2  0  0  0  0  0  0  0  0  0
   -7.9964  -40.0597    8.1466 C   0  0  0  0  0  0  0  0  0  0  0  0
   -7.1510  -41.3373    8.1987 C   0  0  0  0  0  0  0  0  0  0  0  0
   -7.1367  -42.0824    9.4027 O   0  0  0  0  0  0  0  0  0  0  0  0
  1 11  1  0  0  0  0
  3 13  1  6  0  0  0
  3 17  2  0  0  0  0
  3 20  1  0  0  0  0
  3 26  1  0  0  0  0
  4 14  1  1  0  0  0
  4 18  1  0  0  0  0
  4 21  2  0  0  0  0
  4 20  1  0  0  0  0
  5 19  1  0  0  0  0
  5  7  1  0  0  0  0
  6  7  2  0  0  0  0
  6 12  1  0  0  0  0
  7  8  1  0  0  0  0
  8  9  1  0  0  0  0
  8 10  2  0  0  0  0
 10 11  1  0  0  0  0
 11 12  2  0  0  0  0
 15 23  1  0  0  0  0
 15 16  1  0  0  0  0
 16 19  1  0  0  0  0
 19 22  1  0  0  0  0
 22  2  1  1  0  0  0
 22 23  1  0  0  0  0
 23 24  1  1  0  0  0
 24 25  1  0  0  0  0
 25 26  1  0  0  0  0
M  CHG  2  13  -1  18  -1
M  END
>  <CHROM.1>
-62.81806087,-92.53276911,10.52275421,178.32467544,-126.04712833,-178.57795367
-172.17891265,58.09635653,-7.70748235,-41.04982399,6.93155086,2.51571886
-0.96796892,-0.10417759

>  <Name>
ligand

>  <RI>
0

>  <Rbt.Current_Directory>
/home/itssahil/PROJECTS/Mol_Feturizer/New_Systems/rnas/3D2G

>  <Rbt.Executable>
rbdock ($Id: //depot/dev/client3/rdock/2013.1/src/exe/rbdock.cxx#4 $)

>  <Rbt.Library>
libRbt.so (2013.1, Build901 2013/11/27)

>  <Rbt.Parameter_File>
/export/apps/rDock/src/rDock_2013.1_src/data/scripts/dock_solv.prm

>  <Rbt.Receptor>
prm/pocket_docking_5.prm

>  <SCORE>
-22.9282

>  <SCORE.INTER>
-20.962

>  <SCORE.INTER.CONST>
1

>  <SCORE.INTER.POLAR>
0

>  <SCORE.INTER.ROT>
8

>  <SCORE.INTER.SOLV>
21.9121

>  <SCORE.INTER.VDW>
-30.212

>  <SCORE.INTER.norm>
-0.806231

>  <SCORE.INTRA>
-1.96618

>  <SCORE.INTRA.DIHEDRAL>
-3.99764

>  <SCORE.INTRA.DIHEDRAL.0>
9.09364

>  <SCORE.INTRA.POLAR>
0

>  <SCORE.INTRA.POLAR.0>
0

>  <SCORE.INTRA.REPUL>
0

>  <SCORE.INTRA.REPUL.0>
0

>  <SCORE.INTRA.SOLV>
-0.271224

>  <SCORE.INTRA.SOLV.lig_0>
-78.5846

>  <SCORE.INTRA.VDW>
0.168248

>  <SCORE.INTRA.VDW.0>
-2.81163

>  <SCORE.INTRA.norm>
-0.0756224

>  <SCORE.RESTR>
0

>  <SCORE.RESTR.CAVITY>
0

>  <SCORE.RESTR.norm>
0

>  <SCORE.SYSTEM>
0

>  <SCORE.SYSTEM.CONST>
0

>  <SCORE.SYSTEM.DIHEDRAL>
0

>  <SCORE.SYSTEM.SOLV>
0

>  <SCORE.SYSTEM.norm>
0

>  <SCORE.heavy>
26

>  <SCORE.norm>
-0.881853

>  <RMSD>
2.111

$$$$
ligand
 OpenBabel11021811463D
libRbt.so/2013.1/901 2013/11/27
 26 27  0  0  0  0  0  0  0  0999 V2000
  -13.4825  -37.7700    1.9368 C   0  0  0  0  0  0  0  0  0  0  0  0
   -7.0148  -42.0919    2.7564 C   0  0  0  0  0  0  0  0  0  0  0  0
   -5.5338  -44.0852    8.0636 P   0  0  1  0  0  0  0  0  0  0  0  0
   -4.2038  -44.4019   10.4455 P   0  0  2  0  0  0  0  0  0  0  0  0
   -8.0795  -39.1970    3.2448 C   0  0  0  0  0  0  0  0  0  0  0  0
  -10.3326  -38.2836    3.8947 C   0  0  0  0  0  0  0  0  0  0  0  0
   -9.5040  -38.8331    2.9117 C   0  0  0  0  0  0  0  0  0  0  0  0
   -9.9752  -39.0132    1.6083 C   0  0  0  0  0  0  0  0  0  0  0  0
   -9.1848  -39.5162    0.6834 N   0  0  0  0  0  0  0  0  0  0  0  0
  -11.2751  -38.6906    1.3037 N   0  0  0  0  0  0  0  0  0  0  0  0
  -12.0815  -38.1352    2.2772 C   0  0  0  0  0  0  0  0  0  0  0  0
  -11.6259  -37.9438    3.5681 N   0  0  0  0  0  0  0  0  0  0  0  0
   -5.4626  -45.5589    7.8041 O   0  5  0  0  0  0  0  0  0  0  0  0
   -2.8053  -44.1229   10.8303 O   0  0  0  0  0  0  0  0  0  0  0  0
   -8.4391  -41.4172    6.3388 S   0  0  0  0  0  0  0  0  0  0  0  0
   -8.5524  -40.0926    5.4816 C   0  0  0  0  0  0  0  0  0  0  0  0
   -6.8132  -43.5889    8.6384 O   0  0  0  0  0  0  0  0  0  0  0  0
   -4.5202  -45.8420   10.4935 O   0  5  0  0  0  0  0  0  0  0  0  0
   -8.0870  -40.2633    4.2078 N   0  0  0  0  0  0  0  0  0  0  0  0
   -4.2649  -43.8207    8.9719 O   0  0  0  0  0  0  0  0  0  0  0  0
   -5.2801  -43.7830   11.2773 O   0  0  0  0  0  0  0  0  0  0  0  0
   -7.6135  -41.5298    4.0096 C   0  0  1  0  0  0  0  0  0  0  0  0
   -7.7687  -42.2649    5.1579 C   0  0  2  0  0  0  0  0  0  0  0  0
   -7.4276  -43.7015    5.4669 C   0  0  0  0  0  0  0  0  0  0  0  0
   -5.9133  -43.9317    5.5290 C   0  0  0  0  0  0  0  0  0  0  0  0
   -5.2081  -43.4487    6.6578 O   0  0  0  0  0  0  0  0  0  0  0  0
  1 11  1  0  0  0  0
  3 13  1  6  0  0  0
  3 17  2  0  0  0  0
  3 20  1  0  0  0  0
  3 26  1  0  0  0  0
  4 14  1  1  0  0  0
  4 18  1  0  0  0  0
  4 21  2  0  0  0  0
  4 20  1  0  0  0  0
  5 19  1  0  0  0  0
  5  7  1  0  0  0  0
  6  7  2  0  0  0  0
  6 12  1  0  0  0  0
  7  8  1  0  0  0  0
  8  9  1  0  0  0  0
  8 10  2  0  0  0  0
 10 11  1  0  0  0  0
 11 12  2  0  0  0  0
 15 23  1  0  0  0  0
 15 16  1  0  0  0  0
 16 19  1  0  0  0  0
 19 22  1  0  0  0  0
 22  2  1  6  0  0  0
 22 23  1  0  0  0  0
 23 24  1  6  0  0  0
 24 25  1  0  0  0  0
 25 26  1  0  0  0  0
M  CHG  2  13  -1  18  -1
M  END
>  <CHROM.1>
-68.02591622,-66.59692182,65.22426825,171.04697136,-110.88707039,73.93079784
64.91014071,49.33223807,-7.37295781,-41.94199525,6.03143911,2.41868601,0.74933773
-1.56124295

>  <Name>
ligand

>  <RI>
0

>  <Rbt.Current_Directory>
/home/itssahil/PROJECTS/Mol_Feturizer/New_Systems/rnas/3D2G

>  <Rbt.Executable>
rbdock ($Id: //depot/dev/client3/rdock/2013.1/src/exe/rbdock.cxx#4 $)

>  <Rbt.Library>
libRbt.so (2013.1, Build901 2013/11/27)

>  <Rbt.Parameter_File>
/export/apps/rDock/src/rDock_2013.1_src/data/scripts/dock_solv.prm

>  <Rbt.Receptor>
prm/pocket_docking_3.prm

>  <SCORE>
-16.879

>  <SCORE.INTER>
-15.6805

>  <SCORE.INTER.CONST>
1

>  <SCORE.INTER.POLAR>
0

>  <SCORE.INTER.ROT>
8

>  <SCORE.INTER.SOLV>
16.6299

>  <SCORE.INTER.VDW>
-24.9303

>  <SCORE.INTER.norm>
-0.603098

>  <SCORE.INTRA>
-1.19842

>  <SCORE.INTRA.DIHEDRAL>
-3.03542

>  <SCORE.INTRA.DIHEDRAL.0>
9.09364

>  <SCORE.INTRA.POLAR>
0

>  <SCORE.INTRA.POLAR.0>
0

>  <SCORE.INTRA.REPUL>
0

>  <SCORE.INTRA.REPUL.0>
0

>  <SCORE.INTRA.SOLV>
2.11639

>  <SCORE.INTRA.SOLV.lig_0>
-78.5846

>  <SCORE.INTRA.VDW>
-0.738908

>  <SCORE.INTRA.VDW.0>
-2.81163

>  <SCORE.INTRA.norm>
-0.0460932

>  <SCORE.RESTR>
0

>  <SCORE.RESTR.CAVITY>
0

>  <SCORE.RESTR.norm>
0

>  <SCORE.SYSTEM>
0

>  <SCORE.SYSTEM.CONST>
0

>  <SCORE.SYSTEM.DIHEDRAL>
0

>  <SCORE.SYSTEM.SOLV>
0

>  <SCORE.SYSTEM.norm>
0

>  <SCORE.heavy>
26

>  <SCORE.norm>
-0.649191

>  <RMSD>
2.116

$$$$
ligand
 OpenBabel11021811463D
libRbt.so/2013.1/901 2013/11/27
 26 27  0  0  0  0  0  0  0  0999 V2000
  -13.2266  -37.7295    1.9319 C   0  0  0  0  0  0  0  0  0  0  0  0
   -8.8080  -40.2704    6.0029 C   0  0  0  0  0  0  0  0  0  0  0  0
   -4.7429  -41.1958    9.1619 P   0  0  1  0  0  0  0  0  0  0  0  0
   -5.5867  -43.7147    9.8593 P   0  0  2  0  0  0  0  0  0  0  0  0
   -7.9185  -39.5797    3.0901 C   0  0  0  0  0  0  0  0  0  0  0  0
  -10.1189  -38.6060    3.8274 C   0  0  0  0  0  0  0  0  0  0  0  0
   -9.3188  -39.1052    2.7952 C   0  0  0  0  0  0  0  0  0  0  0  0
   -9.7940  -39.1328    1.4813 C   0  0  0  0  0  0  0  0  0  0  0  0
   -9.0297  -39.5892    0.5114 N   0  0  0  0  0  0  0  0  0  0  0  0
  -11.0723  -38.7093    1.2106 N   0  0  0  0  0  0  0  0  0  0  0  0
  -11.8499  -38.2046    2.2339 C   0  0  0  0  0  0  0  0  0  0  0  0
  -11.3895  -38.1635    3.5366 N   0  0  0  0  0  0  0  0  0  0  0  0
   -4.8209  -40.7357   10.5855 O   0  5  0  0  0  0  0  0  0  0  0  0
   -5.5383  -43.2799   11.2701 O   0  0  0  0  0  0  0  0  0  0  0  0
   -6.1709  -37.3946    5.6984 S   0  0  0  0  0  0  0  0  0  0  0  0
   -6.5178  -37.9307    4.2511 C   0  0  0  0  0  0  0  0  0  0  0  0
   -3.3933  -41.6006    8.6842 O   0  0  0  0  0  0  0  0  0  0  0  0
   -4.3390  -44.3782    9.4357 O   0  5  0  0  0  0  0  0  0  0  0  0
   -7.4507  -38.9292    4.2828 N   0  0  0  0  0  0  0  0  0  0  0  0
   -5.8290  -42.3454    9.0981 O   0  0  0  0  0  0  0  0  0  0  0  0
   -6.6471  -44.6972    9.4807 O   0  0  0  0  0  0  0  0  0  0  0  0
   -7.8235  -39.2304    5.5625 C   0  0  1  0  0  0  0  0  0  0  0  0
   -7.1557  -38.4150    6.4412 C   0  0  2  0  0  0  0  0  0  0  0  0
   -7.2109  -38.3260    7.9461 C   0  0  0  0  0  0  0  0  0  0  0  0
   -6.6758  -39.5963    8.6166 C   0  0  0  0  0  0  0  0  0  0  0  0
   -5.3397  -39.9822    8.3506 O   0  0  0  0  0  0  0  0  0  0  0  0
  1 11  1  0  0  0  0
  3 13  1  1  0  0  0
  3 17  2  0  0  0  0
  3 20  1  0  0  0  0
  3 26  1  0  0  0  0
  4 14  1  1  0  0  0
  4 18  1  0  0  0  0
  4 21  2  0  0  0  0
  4 20  1  0  0  0  0
  5 19  1  0  0  0  0
  5  7  1  0  0  0  0
  6  7  2  0  0  0  0
  6 12  1  0  0  0  0
  7  8  1  0  0  0  0
  8  9  1  0  0  0  0
  8 10  2  0  0  0  0
 10 11  1  0  0  0  0
 11 12  2  0  0  0  0
 15 23  1  0  0  0  0
 15 16  1  0  0  0  0
 16 19  1  0  0  0  0
 19 22  1  0  0  0  0
 22  2  1  6  0  0  0
 22 23  1  0  0  0  0
 23 24  1  6  0  0  0
 24 25  1  0  0  0  0
 25 26  1  0  0  0  0
M  CHG  2  13  -1  18  -1
M  END
>  <CHROM.1>
-69.37671413,-106.51267026,-24.01126741,63.26960784,-114.87384977,59.43997332
173.40790218,-60.64540443,-7.23599559,-40.23573344,6.43219465,2.33700609
-0.71362152,-0.49427691

>  <Name>
ligand

>  <RI>
0

>  <Rbt.Current_Directory>
/home/itssahil/PROJECTS/Mol_Feturizer/New_Systems/rnas/3D2G

>  <Rbt.Executable>
rbdock ($Id: //depot/dev/client3/rdock/2013.1/src/exe/rbdock.cxx#4 $)

>  <Rbt.Library>
libRbt.so (2013.1, Build901 2013/11/27)

>  <Rbt.Parameter_File>
/export/apps/rDock/src/rDock_2013.1_src/data/scripts/dock_solv.prm

>  <Rbt.Receptor>
prm/pocket_docking_3.prm

>  <SCORE>
-24.5842

>  <SCORE.INTER>
-21.8269

>  <SCORE.INTER.CONST>
1

>  <SCORE.INTER.POLAR>
0

>  <SCORE.INTER.ROT>
8

>  <SCORE.INTER.SOLV>
16.6309

>  <SCORE.INTER.VDW>
-29.0282

>  <SCORE.INTER.norm>
-0.839494

>  <SCORE.INTRA>
-2.81258

>  <SCORE.INTRA.DIHEDRAL>
-3.96863

>  <SCORE.INTRA.DIHEDRAL.0>
9.09364

>  <SCORE.INTRA.POLAR>
0

>  <SCORE.INTRA.POLAR.0>
0

>  <SCORE.INTRA.REPUL>
0

>  <SCORE.INTRA.REPUL.0>
0

>  <SCORE.INTRA.SOLV>
-2.32377

>  <SCORE.INTRA.SOLV.lig_0>
-78.5846

>  <SCORE.INTRA.VDW>
0.333623

>  <SCORE.INTRA.VDW.0>
-2.81163

>  <SCORE.INTRA.norm>
-0.108176

>  <SCORE.RESTR>
0.0552771

>  <SCORE.RESTR.CAVITY>
0.0552771

>  <SCORE.RESTR.norm>
0.00212604

>  <SCORE.SYSTEM>
0

>  <SCORE.SYSTEM.CONST>
0

>  <SCORE.SYSTEM.DIHEDRAL>
0

>  <SCORE.SYSTEM.SOLV>
0

>  <SCORE.SYSTEM.norm>
0

>  <SCORE.heavy>
26

>  <SCORE.norm>
-0.945544

>  <RMSD>
2.145

$$$$
ligand
 OpenBabel11021811463D
libRbt.so/2013.1/901 2013/11/27
 26 27  0  0  0  0  0  0  0  0999 V2000
  -13.1217  -37.9908    2.0721 C   0  0  0  0  0  0  0  0  0  0  0  0
   -8.4603  -41.5738    4.6119 C   0  0  0  0  0  0  0  0  0  0  0  0
   -4.0893  -43.2209    7.3406 P   0  0  1  0  0  0  0  0  0  0  0  0
   -2.8261  -42.1379    9.5256 P   0  0  2  0  0  0  0  0  0  0  0  0
   -7.5679  -39.3220    2.6406 C   0  0  0  0  0  0  0  0  0  0  0  0
   -9.6884  -39.2614    1.2867 C   0  0  0  0  0  0  0  0  0  0  0  0
   -9.0230  -38.9623    2.4794 C   0  0  0  0  0  0  0  0  0  0  0  0
   -9.7076  -38.3650    3.5413 C   0  0  0  0  0  0  0  0  0  0  0  0
   -9.0792  -38.1005    4.6675 N   0  0  0  0  0  0  0  0  0  0  0  0
  -11.0311  -38.0281    3.3946 N   0  0  0  0  0  0  0  0  0  0  0  0
  -11.6835  -38.3405    2.2185 C   0  0  0  0  0  0  0  0  0  0  0  0
  -11.0209  -38.9389    1.1633 N   0  0  0  0  0  0  0  0  0  0  0  0
   -2.7993  -42.7964    6.7080 O   0  5  0  0  0  0  0  0  0  0  0  0
   -3.5521  -40.9075    9.1504 O   0  0  0  0  0  0  0  0  0  0  0  0
   -6.2910  -38.7279    6.1971 S   0  0  0  0  0  0  0  0  0  0  0  0
   -6.4897  -38.4269    4.6569 C   0  0  0  0  0  0  0  0  0  0  0  0
   -4.6888  -44.4756    6.8118 O   0  0  0  0  0  0  0  0  0  0  0  0
   -1.4484  -42.1569    8.9983 O   0  5  0  0  0  0  0  0  0  0  0  0
   -7.2569  -39.3767    4.0423 N   0  0  0  0  0  0  0  0  0  0  0  0
   -3.7329  -43.2677    8.8820 O   0  0  0  0  0  0  0  0  0  0  0  0
   -2.6424  -42.4077   10.9839 O   0  0  0  0  0  0  0  0  0  0  0  0
   -7.6316  -40.3621    4.9117 C   0  0  1  0  0  0  0  0  0  0  0  0
   -7.1356  -40.0874    6.1614 C   0  0  2  0  0  0  0  0  0  0  0  0
   -7.2668  -40.8357    7.4647 C   0  0  0  0  0  0  0  0  0  0  0  0
   -6.3905  -42.0930    7.4958 C   0  0  0  0  0  0  0  0  0  0  0  0
   -5.0248  -41.9665    7.1439 O   0  0  0  0  0  0  0  0  0  0  0  0
  1 11  1  0  0  0  0
  3 13  1  6  0  0  0
  3 17  2  0  0  0  0
  3 20  1  0  0  0  0
  3 26  1  0  0  0  0
  4 14  1  6  0  0  0
  4 18  1  0  0  0  0
  4 21  2  0  0  0  0
  4 20  1  0  0  0  0
  5 19  1  0  0  0  0
  5  7  1  0  0  0  0
  6  7  2  0  0  0  0
  6 12  1  0  0  0  0
  7  8  1  0  0  0  0
  8  9  1  0  0  0  0
  8 10  2  0  0  0  0
 10 11  1  0  0  0  0
 11 12  2  0  0  0  0
 15 23  1  0  0  0  0
 15 16  1  0  0  0  0
 16 19  1  0  0  0  0
 19 22  1  0  0  0  0
 22  2  1  1  0  0  0
 22 23  1  0  0  0  0
 23 24  1  1  0  0  0
 24 25  1  0  0  0  0
 25 26  1  0  0  0  0
M  CHG  2  13  -1  18  -1
M  END
>  <CHROM.1>
40.87810554,-108.34778862,-159.09643283,54.71982877,-105.87005020,50.44909256
172.88764753,172.65161244,-6.44330924,-40.68296347,5.96876676,3.03183045
-0.78890898,0.41955917

>  <Name>
ligand

>  <RI>
0

>  <Rbt.Current_Directory>
/home/itssahil/PROJECTS/Mol_Feturizer/New_Systems/rnas/3D2G

>  <Rbt.Executable>
rbdock ($Id: //depot/dev/client3/rdock/2013.1/src/exe/rbdock.cxx#4 $)

>  <Rbt.Library>
libRbt.so (2013.1, Build901 2013/11/27)

>  <Rbt.Parameter_File>
/export/apps/rDock/src/rDock_2013.1_src/data/scripts/dock_solv.prm

>  <Rbt.Receptor>
prm/pocket_docking_4.prm

>  <SCORE>
-14.3444

>  <SCORE.INTER>
-16.2198

>  <SCORE.INTER.CONST>
1

>  <SCORE.INTER.POLAR>
0

>  <SCORE.INTER.ROT>
8

>  <SCORE.INTER.SOLV>
9.28785

>  <SCORE.INTER.VDW>
-22.8425

>  <SCORE.INTER.norm>
-0.623838

>  <SCORE.INTRA>
1.87541

>  <SCORE.INTRA.DIHEDRAL>
-3.09849

>  <SCORE.INTRA.DIHEDRAL.0>
9.09364

>  <SCORE.INTRA.POLAR>
0

>  <SCORE.INTRA.POLAR.0>
0

>  <SCORE.INTRA.REPUL>
0

>  <SCORE.INTRA.REPUL.0>
0

>  <SCORE.INTRA.SOLV>
2.89478

>  <SCORE.INTRA.SOLV.lig_0>
-78.5846

>  <SCORE.INTRA.VDW>
1.97726

>  <SCORE.INTRA.VDW.0>
-2.81163

>  <SCORE.INTRA.norm>
0.0721311

>  <SCORE.RESTR>
0

>  <SCORE.RESTR.CAVITY>
0

>  <SCORE.RESTR.norm>
0

>  <SCORE.SYSTEM>
0

>  <SCORE.SYSTEM.CONST>
0

>  <SCORE.SYSTEM.DIHEDRAL>
0

>  <SCORE.SYSTEM.SOLV>
0

>  <SCORE.SYSTEM.norm>
0

>  <SCORE.heavy>
26

>  <SCORE.norm>
-0.551707

>  <RMSD>
2.145

$$$$
ligand
 OpenBabel11021811463D
libRbt.so/2013.1/901 2013/11/27
 26 27  0  0  0  0  0  0  0  0999 V2000
  -13.5984  -37.6314    2.1113 C   0  0  0  0  0  0  0  0  0  0  0  0
   -7.0086  -37.9751    5.1083 C   0  0  0  0  0  0  0  0  0  0  0  0
   -4.4678  -42.0088    8.7153 P   0  0  1  0  0  0  0  0  0  0  0  0
   -2.4771  -43.5930    7.6806 P   0  0  2  0  0  0  0  0  0  0  0  0
   -8.1539  -39.3882    2.5698 C   0  0  0  0  0  0  0  0  0  0  0  0
  -10.3304  -38.6741    3.6119 C   0  0  0  0  0  0  0  0  0  0  0  0
   -9.5888  -38.9401    2.4568 C   0  0  0  0  0  0  0  0  0  0  0  0
  -10.1567  -38.7568    1.1931 C   0  0  0  0  0  0  0  0  0  0  0  0
   -9.4479  -38.9936    0.1093 N   0  0  0  0  0  0  0  0  0  0  0  0
  -11.4665  -38.3568    1.0869 N   0  0  0  0  0  0  0  0  0  0  0  0
  -12.1864  -38.0827    2.2327 C   0  0  0  0  0  0  0  0  0  0  0  0
  -11.6346  -38.2516    3.4887 N   0  0  0  0  0  0  0  0  0  0  0  0
   -5.4384  -42.6031    7.7410 O   0  5  0  0  0  0  0  0  0  0  0  0
   -3.3112  -44.0559    6.5528 O   0  0  0  0  0  0  0  0  0  0  0  0
   -7.9953  -41.7318    5.5888 S   0  0  0  0  0  0  0  0  0  0  0  0
   -8.3002  -41.3060    4.0961 C   0  0  0  0  0  0  0  0  0  0  0  0
   -4.4912  -42.5844   10.0870 O   0  0  0  0  0  0  0  0  0  0  0  0
   -2.5728  -44.4867    8.8504 O   0  5  0  0  0  0  0  0  0  0  0  0
   -7.9608  -40.0045    3.8533 N   0  0  0  0  0  0  0  0  0  0  0  0
   -3.0790  -42.1554    7.9703 O   0  0  0  0  0  0  0  0  0  0  0  0
   -1.0052  -43.4861    7.4459 O   0  0  0  0  0  0  0  0  0  0  0  0
   -7.4719  -39.3935    4.9737 C   0  0  1  0  0  0  0  0  0  0  0  0
   -7.4491  -40.2883    6.0139 C   0  0  2  0  0  0  0  0  0  0  0  0
   -6.9951  -40.1320    7.4439 C   0  0  0  0  0  0  0  0  0  0  0  0
   -5.4759  -39.9561    7.5482 C   0  0  0  0  0  0  0  0  0  0  0  0
   -4.8189  -40.4714    8.6918 O   0  0  0  0  0  0  0  0  0  0  0  0
  1 11  1  0  0  0  0
  3 13  1  6  0  0  0
  3 17  2  0  0  0  0
  3 20  1  0  0  0  0
  3 26  1  0  0  0  0
  4 14  1  6  0  0  0
  4 18  1  0  0  0  0
  4 21  2  0  0  0  0
  4 20  1  0  0  0  0
  5 19  1  0  0  0  0
  5  7  1  0  0  0  0
  6  7  2  0  0  0  0
  6 12  1  0  0  0  0
  7  8  1  0  0  0  0
  8  9  1  0  0  0  0
  8 10  2  0  0  0  0
 10 11  1  0  0  0  0
 11 12  2  0  0  0  0
 15 23  1  0  0  0  0
 15 16  1  0  0  0  0
 16 19  1  0  0  0  0
 19 22  1  0  0  0  0
 22  2  1  6  0  0  0
 22 23  1  0  0  0  0
 23 24  1  6  0  0  0
 24 25  1  0  0  0  0
 25 26  1  0  0  0  0
M  CHG  2  13  -1  18  -1
M  END
>  <CHROM.1>
-65.72107903,81.96106325,24.51745521,75.43782857,110.61309639,-147.68252718
81.67178665,-22.87191612,-6.74210591,-40.85312666,5.67618170,2.62454704,0.60814010
-1.72305186

>  <Name>
ligand

>  <RI>
0

>  <Rbt.Current_Directory>
/home/itssahil/PROJECTS/Mol_Feturizer/New_Systems/rnas/3D2G

>  <Rbt.Executable>
rbdock ($Id: //depot/dev/client3/rdock/2013.1/src/exe/rbdock.cxx#4 $)

>  <Rbt.Library>
libRbt.so (2013.1, Build901 2013/11/27)

>  <Rbt.Parameter_File>
/export/apps/rDock/src/rDock_2013.1_src/data/scripts/dock_solv.prm

>  <Rbt.Receptor>
prm/pocket_docking_2.prm

>  <SCORE>
-13.9702

>  <SCORE.INTER>
-15.9203

>  <SCORE.INTER.CONST>
1

>  <SCORE.INTER.POLAR>
0

>  <SCORE.INTER.ROT>
8

>  <SCORE.INTER.SOLV>
17.2847

>  <SCORE.INTER.VDW>
-25.3084

>  <SCORE.INTER.norm>
-0.61232

>  <SCORE.INTRA>
1.30639

>  <SCORE.INTRA.DIHEDRAL>
2.28363

>  <SCORE.INTRA.DIHEDRAL.0>
9.09364

>  <SCORE.INTRA.POLAR>
0

>  <SCORE.INTRA.POLAR.0>
0

>  <SCORE.INTRA.REPUL>
0

>  <SCORE.INTRA.REPUL.0>
0

>  <SCORE.INTRA.SOLV>
-0.72708

>  <SCORE.INTRA.SOLV.lig_0>
-78.5846

>  <SCORE.INTRA.VDW>
0.528118

>  <SCORE.INTRA.VDW.0>
-2.81163

>  <SCORE.INTRA.norm>
0.0502458

>  <SCORE.RESTR>
0.643696

>  <SCORE.RESTR.CAVITY>
0.643696

>  <SCORE.RESTR.norm>
0.0247575

>  <SCORE.SYSTEM>
0

>  <SCORE.SYSTEM.CONST>
0

>  <SCORE.SYSTEM.DIHEDRAL>
0

>  <SCORE.SYSTEM.SOLV>
0

>  <SCORE.SYSTEM.norm>
0

>  <SCORE.heavy>
26

>  <SCORE.norm>
-0.537317

>  <RMSD>
2.150

$$$$
ligand
 OpenBabel11021811463D
libRbt.so/2013.1/901 2013/11/27
 26 27  0  0  0  0  0  0  0  0999 V2000
  -13.7605  -37.7427    1.8923 C   0  0  0  0  0  0  0  0  0  0  0  0
   -6.3156  -38.1798    5.4079 C   0  0  0  0  0  0  0  0  0  0  0  0
   -4.0853  -41.7678    9.7048 P   0  0  1  0  0  0  0  0  0  0  0  0
   -3.4538  -43.8162   11.4219 P   0  0  2  0  0  0  0  0  0  0  0  0
   -8.3776  -39.1691    3.2814 C   0  0  0  0  0  0  0  0  0  0  0  0
  -10.6446  -38.2690    3.9007 C   0  0  0  0  0  0  0  0  0  0  0  0
   -9.7970  -38.8055    2.9268 C   0  0  0  0  0  0  0  0  0  0  0  0
  -10.2442  -38.9726    1.6133 C   0  0  0  0  0  0  0  0  0  0  0  0
   -9.4359  -39.4633    0.6973 N   0  0  0  0  0  0  0  0  0  0  0  0
  -11.5394  -38.6503    1.2889 N   0  0  0  0  0  0  0  0  0  0  0  0
  -12.3647  -38.1078    2.2538 C   0  0  0  0  0  0  0  0  0  0  0  0
  -11.9329  -37.9291    3.5547 N   0  0  0  0  0  0  0  0  0  0  0  0
   -2.9156  -40.9025   10.0619 O   0  5  0  0  0  0  0  0  0  0  0  0
   -2.1251  -43.1939   11.5932 O   0  0  0  0  0  0  0  0  0  0  0  0
   -8.9794  -40.7281    6.7222 S   0  0  0  0  0  0  0  0  0  0  0  0
   -9.2443  -40.4517    5.1873 C   0  0  0  0  0  0  0  0  0  0  0  0
   -3.9147  -42.6239    8.5000 O   0  0  0  0  0  0  0  0  0  0  0  0
   -3.4550  -44.8511   10.3705 O   0  5  0  0  0  0  0  0  0  0  0  0
   -8.3348  -39.5797    4.6576 N   0  0  0  0  0  0  0  0  0  0  0  0
   -4.3573  -42.5704   11.0416 O   0  0  0  0  0  0  0  0  0  0  0  0
   -4.0377  -44.5217   12.6028 O   0  0  0  0  0  0  0  0  0  0  0  0
   -7.4452  -39.1451    5.5996 C   0  0  1  0  0  0  0  0  0  0  0  0
   -7.7237  -39.7386    6.8051 C   0  0  2  0  0  0  0  0  0  0  0  0
   -7.0475  -39.6163    8.1480 C   0  0  0  0  0  0  0  0  0  0  0  0
   -5.8604  -40.5767    8.2828 C   0  0  0  0  0  0  0  0  0  0  0  0
   -5.2722  -40.7394    9.5605 O   0  0  0  0  0  0  0  0  0  0  0  0
  1 11  1  0  0  0  0
  3 13  1  1  0  0  0
  3 17  2  0  0  0  0
  3 20  1  0  0  0  0
  3 26  1  0  0  0  0
  4 14  1  1  0  0  0
  4 18  1  0  0  0  0
  4 21  2  0  0  0  0
  4 20  1  0  0  0  0
  5 19  1  0  0  0  0
  5  7  1  0  0  0  0
  6  7  2  0  0  0  0
  6 12  1  0  0  0  0
  7  8  1  0  0  0  0
  8  9  1  0  0  0  0
  8 10  2  0  0  0  0
 10 11  1  0  0  0  0
 11 12  2  0  0  0  0
 15 23  1  0  0  0  0
 15 16  1  0  0  0  0
 16 19  1  0  0  0  0
 19 22  1  0  0  0  0
 22  2  1  6  0  0  0
 22 23  1  0  0  0  0
 23 24  1  6  0  0  0
 24 25  1  0  0  0  0
 25 26  1  0  0  0  0
M  CHG  2  13  -1  18  -1
M  END
>  <CHROM.1>
-78.92118651,46.25643493,31.33410670,63.61170357,93.94073514,-169.40774528
177.81354562,115.06156827,-6.99808448,-40.71005315,6.97750825,2.24198667
-0.13038909,-0.97180449

>  <Name>
ligand

>  <RI>
0

>  <Rbt.Current_Directory>
/home/itssahil/PROJECTS/Mol_Feturizer/New_Systems/rnas/3D2G

>  <Rbt.Executable>
rbdock ($Id: //depot/dev/client3/rdock/2013.1/src/exe/rbdock.cxx#4 $)

>  <Rbt.Library>
libRbt.so (2013.1, Build901 2013/11/27)

>  <Rbt.Parameter_File>
/export/apps/rDock/src/rDock_2013.1_src/data/scripts/dock_solv.prm

>  <Rbt.Receptor>
prm/pocket_docking_3.prm

>  <SCORE>
-22.4011

>  <SCORE.INTER>
-21.0725

>  <SCORE.INTER.CONST>
1

>  <SCORE.INTER.POLAR>
0

>  <SCORE.INTER.ROT>
8

>  <SCORE.INTER.SOLV>
22.6191

>  <SCORE.INTER.VDW>
-30.5214

>  <SCORE.INTER.norm>
-0.810482

>  <SCORE.INTRA>
-1.33802

>  <SCORE.INTRA.DIHEDRAL>
-1.40659

>  <SCORE.INTRA.DIHEDRAL.0>
9.09364

>  <SCORE.INTRA.POLAR>
0

>  <SCORE.INTRA.POLAR.0>
0

>  <SCORE.INTRA.REPUL>
0

>  <SCORE.INTRA.REPUL.0>
0

>  <SCORE.INTRA.SOLV>
-2.26578

>  <SCORE.INTRA.SOLV.lig_0>
-78.5846

>  <SCORE.INTRA.VDW>
0.498162

>  <SCORE.INTRA.VDW.0>
-2.81163

>  <SCORE.INTRA.norm>
-0.0514625

>  <SCORE.RESTR>
0.00949015

>  <SCORE.RESTR.CAVITY>
0.00949015

>  <SCORE.RESTR.norm>
0.000365006

>  <SCORE.SYSTEM>
0

>  <SCORE.SYSTEM.CONST>
0

>  <SCORE.SYSTEM.DIHEDRAL>
0

>  <SCORE.SYSTEM.SOLV>
0

>  <SCORE.SYSTEM.norm>
0

>  <SCORE.heavy>
26

>  <SCORE.norm>
-0.86158

>  <RMSD>
2.155

$$$$
ligand
 OpenBabel11021811463D
libRbt.so/2013.1/901 2013/11/27
 26 27  0  0  0  0  0  0  0  0999 V2000
  -13.6947  -37.6888    2.0657 C   0  0  0  0  0  0  0  0  0  0  0  0
   -6.6183  -37.9721    5.2184 C   0  0  0  0  0  0  0  0  0  0  0  0
   -5.4904  -43.2378    8.6603 P   0  0  1  0  0  0  0  0  0  0  0  0
   -2.7658  -43.5244    8.4662 P   0  0  2  0  0  0  0  0  0  0  0  0
   -8.3019  -39.4083    3.0150 C   0  0  0  0  0  0  0  0  0  0  0  0
  -10.5191  -38.5584    3.8485 C   0  0  0  0  0  0  0  0  0  0  0  0
   -9.7238  -38.9689    2.7744 C   0  0  0  0  0  0  0  0  0  0  0  0
  -10.2252  -38.9391    1.4703 C   0  0  0  0  0  0  0  0  0  0  0  0
   -9.4659  -39.3118    0.4615 N   0  0  0  0  0  0  0  0  0  0  0  0
  -11.5230  -38.5475    1.2486 N   0  0  0  0  0  0  0  0  0  0  0  0
  -12.2961  -38.1301    2.3138 C   0  0  0  0  0  0  0  0  0  0  0  0
  -11.8103  -38.1464    3.6077 N   0  0  0  0  0  0  0  0  0  0  0  0
   -5.7735  -44.1113    7.4765 O   0  5  0  0  0  0  0  0  0  0  0  0
   -2.4818  -43.4298    9.9126 O   0  0  0  0  0  0  0  0  0  0  0  0
   -8.5228  -41.1817    6.3970 S   0  0  0  0  0  0  0  0  0  0  0  0
   -8.8255  -40.9370    4.8638 C   0  0  0  0  0  0  0  0  0  0  0  0
   -5.5759  -43.8997    9.9900 O   0  0  0  0  0  0  0  0  0  0  0  0
   -1.6492  -43.0223    7.6432 O   0  5  0  0  0  0  0  0  0  0  0  0
   -8.1743  -39.8367    4.3805 N   0  0  0  0  0  0  0  0  0  0  0  0
   -4.0676  -42.6310    8.3244 O   0  0  0  0  0  0  0  0  0  0  0  0
   -3.0241  -44.8855    7.9059 O   0  0  0  0  0  0  0  0  0  0  0  0
   -7.4506  -39.2104    5.3559 C   0  0  1  0  0  0  0  0  0  0  0  0
   -7.5804  -39.8953    6.5378 C   0  0  2  0  0  0  0  0  0  0  0  0
   -6.9852  -39.6398    7.9002 C   0  0  0  0  0  0  0  0  0  0  0  0
   -6.0110  -40.7470    8.3182 C   0  0  0  0  0  0  0  0  0  0  0  0
   -6.5215  -42.0553    8.4990 O   0  0  0  0  0  0  0  0  0  0  0  0
  1 11  1  0  0  0  0
  3 13  1  6  0  0  0
  3 17  2  0  0  0  0
  3 20  1  0  0  0  0
  3 26  1  0  0  0  0
  4 14  1  1  0  0  0
  4 18  1  0  0  0  0
  4 21  2  0  0  0  0
  4 20  1  0  0  0  0
  5 19  1  0  0  0  0
  5  7  1  0  0  0  0
  6  7  2  0  0  0  0
  6 12  1  0  0  0  0
  7  8  1  0  0  0  0
  8  9  1  0  0  0  0
  8 10  2  0  0  0  0
 10 11  1  0  0  0  0
 11 12  2  0  0  0  0
 15 23  1  0  0  0  0
 15 16  1  0  0  0  0
 16 19  1  0  0  0  0
 19 22  1  0  0  0  0
 22  2  1  6  0  0  0
 22 23  1  0  0  0  0
 23 24  1  6  0  0  0
 24 25  1  0  0  0  0
 25 26  1  0  0  0  0
M  CHG  2  13  -1  18  -1
M  END
>  <CHROM.1>
-75.11417004,65.63262912,23.32220911,-82.12529338,65.01737483,-63.79518615
168.70851230,-117.51614445,-7.10727451,-41.05473546,6.05601058,2.36584856
0.33698363,-1.22951263

>  <Name>
ligand

>  <RI>
0

>  <Rbt.Current_Directory>
/home/itssahil/PROJECTS/Mol_Feturizer/New_Systems/rnas/3D2G

>  <Rbt.Executable>
rbdock ($Id: //depot/dev/client3/rdock/2013.1/src/exe/rbdock.cxx#4 $)

>  <Rbt.Library>
libRbt.so (2013.1, Build901 2013/11/27)

>  <Rbt.Parameter_File>
/export/apps/rDock/src/rDock_2013.1_src/data/scripts/dock_solv.prm

>  <Rbt.Receptor>
prm/pocket_docking_2.prm

>  <SCORE>
-18.0452

>  <SCORE.INTER>
-17.7358

>  <SCORE.INTER.CONST>
1

>  <SCORE.INTER.POLAR>
0

>  <SCORE.INTER.ROT>
8

>  <SCORE.INTER.SOLV>
15.7633

>  <SCORE.INTER.VDW>
-26.0116

>  <SCORE.INTER.norm>
-0.682146

>  <SCORE.INTRA>
-0.825043

>  <SCORE.INTRA.DIHEDRAL>
-0.239587

>  <SCORE.INTRA.DIHEDRAL.0>
9.09364

>  <SCORE.INTRA.POLAR>
0

>  <SCORE.INTRA.POLAR.0>
0

>  <SCORE.INTRA.REPUL>
0

>  <SCORE.INTRA.REPUL.0>
0

>  <SCORE.INTRA.SOLV>
-2.02944

>  <SCORE.INTRA.SOLV.lig_0>
-78.5846

>  <SCORE.INTRA.VDW>
0.309469

>  <SCORE.INTRA.VDW.0>
-2.81163

>  <SCORE.INTRA.norm>
-0.0317324

>  <SCORE.RESTR>
0.515614

>  <SCORE.RESTR.CAVITY>
0.515614

>  <SCORE.RESTR.norm>
0.0198313

>  <SCORE.SYSTEM>
0

>  <SCORE.SYSTEM.CONST>
0

>  <SCORE.SYSTEM.DIHEDRAL>
0

>  <SCORE.SYSTEM.SOLV>
0

>  <SCORE.SYSTEM.norm>
0

>  <SCORE.heavy>
26

>  <SCORE.norm>
-0.694047

>  <RMSD>
2.161

$$$$
ligand
 OpenBabel11021811463D
libRbt.so/2013.1/901 2013/11/27
 26 27  0  0  0  0  0  0  0  0999 V2000
  -13.7710  -37.6715    2.7156 C   0  0  0  0  0  0  0  0  0  0  0  0
   -6.1329  -38.3191    4.2839 C   0  0  0  0  0  0  0  0  0  0  0  0
   -4.6507  -41.7598    9.0574 P   0  0  1  0  0  0  0  0  0  0  0  0
   -3.7257  -44.3143    9.4593 P   0  0  2  0  0  0  0  0  0  0  0  0
   -8.2692  -39.2187    2.1912 C   0  0  0  0  0  0  0  0  0  0  0  0
  -10.5632  -38.8835    1.2124 C   0  0  0  0  0  0  0  0  0  0  0  0
   -9.7119  -38.8005    2.3184 C   0  0  0  0  0  0  0  0  0  0  0  0
  -10.1981  -38.3676    3.5550 C   0  0  0  0  0  0  0  0  0  0  0  0
   -9.3951  -38.3070    4.5964 N   0  0  0  0  0  0  0  0  0  0  0  0
  -11.5100  -37.9778    3.6721 N   0  0  0  0  0  0  0  0  0  0  0  0
  -12.3466  -38.0769    2.5782 C   0  0  0  0  0  0  0  0  0  0  0  0
  -11.8812  -38.5113    1.3513 N   0  0  0  0  0  0  0  0  0  0  0  0
   -4.9596  -40.6283    9.9896 O   0  5  0  0  0  0  0  0  0  0  0  0
   -4.9262  -44.7928    8.7440 O   0  0  0  0  0  0  0  0  0  0  0  0
   -7.8928  -41.7293    5.0525 S   0  0  0  0  0  0  0  0  0  0  0  0
   -8.4798  -41.1383    3.7077 C   0  0  0  0  0  0  0  0  0  0  0  0
   -3.6642  -41.4645    7.9836 O   0  0  0  0  0  0  0  0  0  0  0  0
   -3.2998  -45.2452   10.5216 O   0  5  0  0  0  0  0  0  0  0  0  0
   -7.8937  -39.9508    3.3691 N   0  0  0  0  0  0  0  0  0  0  0  0
   -4.2173  -42.9232   10.0391 O   0  0  0  0  0  0  0  0  0  0  0  0
   -2.4823  -44.1149    8.6547 O   0  0  0  0  0  0  0  0  0  0  0  0
   -6.9695  -39.5619    4.2976 C   0  0  1  0  0  0  0  0  0  0  0  0
   -6.8921  -40.5032    5.2931 C   0  0  2  0  0  0  0  0  0  0  0  0
   -6.0325  -40.5657    6.5312 C   0  0  0  0  0  0  0  0  0  0  0  0
   -6.7668  -41.2185    7.7079 C   0  0  0  0  0  0  0  0  0  0  0  0
   -6.0658  -42.1664    8.4921 O   0  0  0  0  0  0  0  0  0  0  0  0
  1 11  1  0  0  0  0
  3 13  1  1  0  0  0
  3 17  2  0  0  0  0
  3 20  1  0  0  0  0
  3 26  1  0  0  0  0
  4 14  1  6  0  0  0
  4 18  1  0  0  0  0
  4 21  2  0  0  0  0
  4 20  1  0  0  0  0
  5 19  1  0  0  0  0
  5  7  1  0  0  0  0
  6  7  2  0  0  0  0
  6 12  1  0  0  0  0
  7  8  1  0  0  0  0
  8  9  1  0  0  0  0
  8 10  2  0  0  0  0
 10 11  1  0  0  0  0
 11 12  2  0  0  0  0
 15 23  1  0  0  0  0
 15 16  1  0  0  0  0
 16 19  1  0  0  0  0
 19 22  1  0  0  0  0
 22  2  1  6  0  0  0
 22 23  1  0  0  0  0
 23 24  1  6  0  0  0
 24 25  1  0  0  0  0
 25 26  1  0  0  0  0
M  CHG  2  13  -1  18  -1
M  END
>  <CHROM.1>
-176.89837112,63.08919030,-138.72724715,-62.50295191,-35.12639971,135.95338079
51.24013499,64.28182091,-7.01369569,-40.97804741,6.11995460,2.56523194,0.71365821
-1.73341659

>  <Name>
ligand

>  <RI>
0

>  <Rbt.Current_Directory>
/home/itssahil/PROJECTS/Mol_Feturizer/New_Systems/rnas/3D2G

>  <Rbt.Executable>
rbdock ($Id: //depot/dev/client3/rdock/2013.1/src/exe/rbdock.cxx#4 $)

>  <Rbt.Library>
libRbt.so (2013.1, Build901 2013/11/27)

>  <Rbt.Parameter_File>
/export/apps/rDock/src/rDock_2013.1_src/data/scripts/dock_solv.prm

>  <Rbt.Receptor>
prm/pocket_docking_2.prm

>  <SCORE>
-11.2951

>  <SCORE.INTER>
-15.7131

>  <SCORE.INTER.CONST>
1

>  <SCORE.INTER.POLAR>
0

>  <SCORE.INTER.ROT>
8

>  <SCORE.INTER.SOLV>
13.8422

>  <SCORE.INTER.VDW>
-24.0228

>  <SCORE.INTER.norm>
-0.60435

>  <SCORE.INTRA>
4.02846

>  <SCORE.INTRA.DIHEDRAL>
1.07541

>  <SCORE.INTRA.DIHEDRAL.0>
9.09364

>  <SCORE.INTRA.POLAR>
0

>  <SCORE.INTRA.POLAR.0>
0

>  <SCORE.INTRA.REPUL>
0

>  <SCORE.INTRA.REPUL.0>
0

>  <SCORE.INTRA.SOLV>
3.04572

>  <SCORE.INTRA.SOLV.lig_0>
-78.5846

>  <SCORE.INTRA.VDW>
1.9679

>  <SCORE.INTRA.VDW.0>
-2.81163

>  <SCORE.INTRA.norm>
0.154941

>  <SCORE.RESTR>
0.389554

>  <SCORE.RESTR.CAVITY>
0.389554

>  <SCORE.RESTR.norm>
0.0149828

>  <SCORE.SYSTEM>
0

>  <SCORE.SYSTEM.CONST>
0

>  <SCORE.SYSTEM.DIHEDRAL>
0

>  <SCORE.SYSTEM.SOLV>
0

>  <SCORE.SYSTEM.norm>
0

>  <SCORE.heavy>
26

>  <SCORE.norm>
-0.434426

>  <RMSD>
2.168

$$$$
ligand
 OpenBabel11021811463D
libRbt.so/2013.1/901 2013/11/27
 26 27  0  0  0  0  0  0  0  0999 V2000
  -13.2496  -37.7146    1.9003 C   0  0  0  0  0  0  0  0  0  0  0  0
   -8.8814  -40.3659    5.9541 C   0  0  0  0  0  0  0  0  0  0  0  0
   -6.2085  -42.1880    8.8863 P   0  0  1  0  0  0  0  0  0  0  0  0
   -4.0150  -43.5475    7.9463 P   0  0  2  0  0  0  0  0  0  0  0  0
   -7.9457  -39.5594    3.0859 C   0  0  0  0  0  0  0  0  0  0  0  0
  -10.1466  -38.5770    3.8100 C   0  0  0  0  0  0  0  0  0  0  0  0
   -9.3449  -39.0863    2.7839 C   0  0  0  0  0  0  0  0  0  0  0  0
   -9.8175  -39.1253    1.4693 C   0  0  0  0  0  0  0  0  0  0  0  0
   -9.0517  -39.5911    0.5052 N   0  0  0  0  0  0  0  0  0  0  0  0
  -11.0949  -38.7029    1.1923 N   0  0  0  0  0  0  0  0  0  0  0  0
  -11.8740  -38.1883    2.2094 C   0  0  0  0  0  0  0  0  0  0  0  0
  -11.4162  -38.1360    3.5126 N   0  0  0  0  0  0  0  0  0  0  0  0
   -7.0680  -43.3773    8.5841 O   0  5  0  0  0  0  0  0  0  0  0  0
   -4.8737  -44.6918    7.5790 O   0  0  0  0  0  0  0  0  0  0  0  0
   -6.2643  -37.4597    5.8054 S   0  0  0  0  0  0  0  0  0  0  0  0
   -6.5805  -37.9440    4.3331 C   0  0  0  0  0  0  0  0  0  0  0  0
   -5.7679  -42.0488   10.3005 O   0  0  0  0  0  0  0  0  0  0  0  0
   -3.4418  -43.6899    9.2981 O   0  5  0  0  0  0  0  0  0  0  0  0
   -7.5051  -38.9503    4.3104 N   0  0  0  0  0  0  0  0  0  0  0  0
   -5.0245  -42.3293    7.8455 O   0  0  0  0  0  0  0  0  0  0  0  0
   -2.8195  -43.2846    7.0891 O   0  0  0  0  0  0  0  0  0  0  0  0
   -7.8982  -39.3023    5.5709 C   0  0  1  0  0  0  0  0  0  0  0  0
   -7.2534  -38.5150    6.4915 C   0  0  2  0  0  0  0  0  0  0  0  0
   -7.3364  -38.4829    7.9974 C   0  0  0  0  0  0  0  0  0  0  0  0
   -6.5962  -39.6621    8.6387 C   0  0  0  0  0  0  0  0  0  0  0  0
   -7.0817  -40.9698    8.3957 O   0  0  0  0  0  0  0  0  0  0  0  0
  1 11  1  0  0  0  0
  3 13  1  6  0  0  0
  3 17  2  0  0  0  0
  3 20  1  0  0  0  0
  3 26  1  0  0  0  0
  4 14  1  6  0  0  0
  4 18  1  0  0  0  0
  4 21  2  0  0  0  0
  4 20  1  0  0  0  0
  5 19  1  0  0  0  0
  5  7  1  0  0  0  0
  6  7  2  0  0  0  0
  6 12  1  0  0  0  0
  7  8  1  0  0  0  0
  8  9  1  0  0  0  0
  8 10  2  0  0  0  0
 10 11  1  0  0  0  0
 11 12  2  0  0  0  0
 15 23  1  0  0  0  0
 15 16  1  0  0  0  0
 16 19  1  0  0  0  0
 19 22  1  0  0  0  0
 22  2  1  6  0  0  0
 22 23  1  0  0  0  0
 23 24  1  6  0  0  0
 24 25  1  0  0  0  0
 25 26  1  0  0  0  0
M  CHG  2  13  -1  18  -1
M  END
>  <CHROM.1>
-65.77540503,-106.55584899,-21.13175240,68.65600465,-105.41288506,-64.67536006
171.64244280,174.97971272,-7.26158114,-40.44340831,5.98033936,-3.01140408
-0.92839641,0.80197847

>  <Name>
ligand

>  <RI>
0

>  <Rbt.Current_Directory>
/home/itssahil/PROJECTS/Mol_Feturizer/New_Systems/rnas/3D2G

>  <Rbt.Executable>
rbdock ($Id: //depot/dev/client3/rdock/2013.1/src/exe/rbdock.cxx#4 $)

>  <Rbt.Library>
libRbt.so (2013.1, Build901 2013/11/27)

>  <Rbt.Parameter_File>
/export/apps/rDock/src/rDock_2013.1_src/data/scripts/dock_solv.prm

>  <Rbt.Receptor>
prm/pocket_docking_3.prm

>  <SCORE>
-23.758

>  <SCORE.INTER>
-20.8312

>  <SCORE.INTER.CONST>
1

>  <SCORE.INTER.POLAR>
0

>  <SCORE.INTER.ROT>
8

>  <SCORE.INTER.SOLV>
17.0279

>  <SCORE.INTER.VDW>
-28.4968

>  <SCORE.INTER.norm>
-0.801201

>  <SCORE.INTRA>
-2.92676

>  <SCORE.INTRA.DIHEDRAL>
-3.44995

>  <SCORE.INTRA.DIHEDRAL.0>
9.09364

>  <SCORE.INTRA.POLAR>
0

>  <SCORE.INTRA.POLAR.0>
0

>  <SCORE.INTRA.REPUL>
0

>  <SCORE.INTRA.REPUL.0>
0

>  <SCORE.INTRA.SOLV>
-2.02097

>  <SCORE.INTRA.SOLV.lig_0>
-78.5846

>  <SCORE.INTRA.VDW>
-0.191294

>  <SCORE.INTRA.VDW.0>
-2.81163

>  <SCORE.INTRA.norm>
-0.112568

>  <SCORE.RESTR>
0

>  <SCORE.RESTR.CAVITY>
0

>  <SCORE.RESTR.norm>
0

>  <SCORE.SYSTEM>
0

>  <SCORE.SYSTEM.CONST>
0

>  <SCORE.SYSTEM.DIHEDRAL>
0

>  <SCORE.SYSTEM.SOLV>
0

>  <SCORE.SYSTEM.norm>
0

>  <SCORE.heavy>
26

>  <SCORE.norm>
-0.913768

>  <RMSD>
2.168

$$$$
ligand
 OpenBabel11021811463D
libRbt.so/2013.1/901 2013/11/27
 26 27  0  0  0  0  0  0  0  0999 V2000
  -13.5366  -37.7901    2.0583 C   0  0  0  0  0  0  0  0  0  0  0  0
   -6.6222  -38.4492    5.2729 C   0  0  0  0  0  0  0  0  0  0  0  0
   -4.3542  -42.4770    8.5945 P   0  0  1  0  0  0  0  0  0  0  0  0
   -2.6166  -44.0456   10.0308 P   0  0  2  0  0  0  0  0  0  0  0  0
   -8.0231  -39.2857    2.6102 C   0  0  0  0  0  0  0  0  0  0  0  0
  -10.1160  -39.0677    1.2298 C   0  0  0  0  0  0  0  0  0  0  0  0
   -9.4672  -38.8819    2.4543 C   0  0  0  0  0  0  0  0  0  0  0  0
  -10.1592  -38.3585    3.5499 C   0  0  0  0  0  0  0  0  0  0  0  0
   -9.5468  -38.2011    4.7045 N   0  0  0  0  0  0  0  0  0  0  0  0
  -11.4725  -37.9817    3.4087 N   0  0  0  0  0  0  0  0  0  0  0  0
  -12.1089  -38.1823    2.1999 C   0  0  0  0  0  0  0  0  0  0  0  0
  -11.4390  -38.7068    1.1106 N   0  0  0  0  0  0  0  0  0  0  0  0
   -3.5074  -42.7230    7.3834 O   0  5  0  0  0  0  0  0  0  0  0  0
   -3.7531  -44.9134   10.4009 O   0  0  0  0  0  0  0  0  0  0  0  0
   -8.1507  -42.0520    5.2489 S   0  0  0  0  0  0  0  0  0  0  0  0
   -8.4215  -41.3683    3.8484 C   0  0  0  0  0  0  0  0  0  0  0  0
   -5.5783  -43.3145    8.7109 O   0  0  0  0  0  0  0  0  0  0  0  0
   -1.5967  -43.9762   11.0945 O   0  5  0  0  0  0  0  0  0  0  0  0
   -7.8961  -40.1082    3.7814 N   0  0  0  0  0  0  0  0  0  0  0  0
   -3.3294  -42.6506    9.7882 O   0  0  0  0  0  0  0  0  0  0  0  0
   -1.8285  -44.4272    8.8198 O   0  0  0  0  0  0  0  0  0  0  0  0
   -7.2961  -39.7491    4.9555 C   0  0  1  0  0  0  0  0  0  0  0  0
   -7.3846  -40.7830    5.8535 C   0  0  2  0  0  0  0  0  0  0  0  0
   -6.8804  -40.9098    7.2696 C   0  0  0  0  0  0  0  0  0  0  0  0
   -5.4182  -40.4686    7.4003 C   0  0  0  0  0  0  0  0  0  0  0  0
   -4.6746  -40.9350    8.5113 O   0  0  0  0  0  0  0  0  0  0  0  0
  1 11  1  0  0  0  0
  3 13  1  6  0  0  0
  3 17  2  0  0  0  0
  3 20  1  0  0  0  0
  3 26  1  0  0  0  0
  4 14  1  1  0  0  0
  4 18  1  0  0  0  0
  4 21  2  0  0  0  0
  4 20  1  0  0  0  0
  5 19  1  0  0  0  0
  5  7  1  0  0  0  0
  6  7  2  0  0  0  0
  6 12  1  0  0  0  0
  7  8  1  0  0  0  0
  8  9  1  0  0  0  0
  8 10  2  0  0  0  0
 10 11  1  0  0  0  0
 11 12  2  0  0  0  0
 15 23  1  0  0  0  0
 15 16  1  0  0  0  0
 16 19  1  0  0  0  0
 19 22  1  0  0  0  0
 22  2  1  6  0  0  0
 22 23  1  0  0  0  0
 23 24  1  6  0  0  0
 24 25  1  0  0  0  0
 25 26  1  0  0  0  0
M  CHG  2  13  -1  18  -1
M  END
>  <CHROM.1>
-62.51988977,68.89731622,-129.15922093,-65.52436851,131.47208173,-158.99502151
66.86622515,62.76614689,-6.69206474,-41.13376431,6.22730949,2.64631335,-0.71270479
-0.07744420

>  <Name>
ligand

>  <RI>
0

>  <Rbt.Current_Directory>
/home/itssahil/PROJECTS/Mol_Feturizer/New_Systems/rnas/3D2G

>  <Rbt.Executable>
rbdock ($Id: //depot/dev/client3/rdock/2013.1/src/exe/rbdock.cxx#4 $)

>  <Rbt.Library>
libRbt.so (2013.1, Build901 2013/11/27)

>  <Rbt.Parameter_File>
/export/apps/rDock/src/rDock_2013.1_src/data/scripts/dock_solv.prm

>  <Rbt.Receptor>
prm/pocket_docking_2.prm

>  <SCORE>
-16.7901

>  <SCORE.INTER>
-18.1994

>  <SCORE.INTER.CONST>
1

>  <SCORE.INTER.POLAR>
0

>  <SCORE.INTER.ROT>
8

>  <SCORE.INTER.SOLV>
14.9288

>  <SCORE.INTER.VDW>
-26.0425

>  <SCORE.INTER.norm>
-0.699975

>  <SCORE.INTRA>
1.12041

>  <SCORE.INTRA.DIHEDRAL>
-2.5697

>  <SCORE.INTRA.DIHEDRAL.0>
9.09364

>  <SCORE.INTRA.POLAR>
0

>  <SCORE.INTRA.POLAR.0>
0

>  <SCORE.INTRA.REPUL>
0

>  <SCORE.INTRA.REPUL.0>
0

>  <SCORE.INTRA.SOLV>
3.85453

>  <SCORE.INTRA.SOLV.lig_0>
-78.5846

>  <SCORE.INTRA.VDW>
0.477994

>  <SCORE.INTRA.VDW.0>
-2.81163

>  <SCORE.INTRA.norm>
0.0430926

>  <SCORE.RESTR>
0.288876

>  <SCORE.RESTR.CAVITY>
0.288876

>  <SCORE.RESTR.norm>
0.0111106

>  <SCORE.SYSTEM>
0

>  <SCORE.SYSTEM.CONST>
0

>  <SCORE.SYSTEM.DIHEDRAL>
0

>  <SCORE.SYSTEM.SOLV>
0

>  <SCORE.SYSTEM.norm>
0

>  <SCORE.heavy>
26

>  <SCORE.norm>
-0.645772

>  <RMSD>
2.184

$$$$
ligand
 OpenBabel11021811463D
libRbt.so/2013.1/901 2013/11/27
 26 27  0  0  0  0  0  0  0  0999 V2000
  -13.1702  -37.3876    2.1365 C   0  0  0  0  0  0  0  0  0  0  0  0
   -7.7806  -41.4536    5.2991 C   0  0  0  0  0  0  0  0  0  0  0  0
   -4.9668  -43.3708    7.0978 P   0  0  1  0  0  0  0  0  0  0  0  0
   -2.4259  -43.3128    8.1387 P   0  0  2  0  0  0  0  0  0  0  0  0
   -8.1127  -40.0738    2.5173 C   0  0  0  0  0  0  0  0  0  0  0  0
   -9.9509  -39.0274    1.1538 C   0  0  0  0  0  0  0  0  0  0  0  0
   -9.4338  -39.3556    2.4107 C   0  0  0  0  0  0  0  0  0  0  0  0
  -10.1519  -39.0563    3.5717 C   0  0  0  0  0  0  0  0  0  0  0  0
   -9.6669  -39.3824    4.7513 N   0  0  0  0  0  0  0  0  0  0  0  0
  -11.3519  -38.3944    3.4784 N   0  0  0  0  0  0  0  0  0  0  0  0
  -11.8613  -38.0873    2.2324 C   0  0  0  0  0  0  0  0  0  0  0  0
  -11.1658  -38.3849    1.0756 N   0  0  0  0  0  0  0  0  0  0  0  0
   -5.5505  -43.9929    5.8663 O   0  5  0  0  0  0  0  0  0  0  0  0
   -2.4443  -44.4206    9.1156 O   0  0  0  0  0  0  0  0  0  0  0  0
   -5.9917  -37.9927    4.9261 S   0  0  0  0  0  0  0  0  0  0  0  0
   -6.7203  -38.3451    3.5670 C   0  0  0  0  0  0  0  0  0  0  0  0
   -5.6548  -43.6949    8.3765 O   0  0  0  0  0  0  0  0  0  0  0  0
   -2.8390  -42.0305    8.7399 O   0  5  0  0  0  0  0  0  0  0  0  0
   -7.3833  -39.5385    3.6335 N   0  0  0  0  0  0  0  0  0  0  0  0
   -3.4504  -43.8211    7.0410 O   0  0  0  0  0  0  0  0  0  0  0  0
   -1.1168  -42.9878    7.4955 O   0  0  0  0  0  0  0  0  0  0  0  0
   -7.2213  -40.1380    4.8508 C   0  0  1  0  0  0  0  0  0  0  0  0
   -6.4486  -39.3412    5.6578 C   0  0  2  0  0  0  0  0  0  0  0  0
   -5.9873  -39.5267    7.0821 C   0  0  0  0  0  0  0  0  0  0  0  0
   -5.8985  -41.0074    7.4688 C   0  0  0  0  0  0  0  0  0  0  0  0
   -4.9795  -41.8280    6.7711 O   0  0  0  0  0  0  0  0  0  0  0  0
  1 11  1  0  0  0  0
  3 13  1  6  0  0  0
  3 17  2  0  0  0  0
  3 20  1  0  0  0  0
  3 26  1  0  0  0  0
  4 14  1  1  0  0  0
  4 18  1  0  0  0  0
  4 21  2  0  0  0  0
  4 20  1  0  0  0  0
  5 19  1  0  0  0  0
  5  7  1  0  0  0  0
  6  7  2  0  0  0  0
  6 12  1  0  0  0  0
  7  8  1  0  0  0  0
  8  9  1  0  0  0  0
  8 10  2  0  0  0  0
 10 11  1  0  0  0  0
 11 12  2  0  0  0  0
 15 23  1  0  0  0  0
 15 16  1  0  0  0  0
 16 19  1  0  0  0  0
 19 22  1  0  0  0  0
 22  2  1  1  0  0  0
 22 23  1  0  0  0  0
 23 24  1  1  0  0  0
 24 25  1  0  0  0  0
 25 26  1  0  0  0  0
M  CHG  2  13  -1  18  -1
M  END
>  <CHROM.1>
176.84972357,-78.00880965,141.03962890,94.90706444,-153.93488693,62.85236919
-175.56098649,109.27702989,-6.52582633,-40.85613303,5.49508355,2.48138504
-0.45446617,-0.31987156

>  <Name>
ligand

>  <RI>
0

>  <Rbt.Current_Directory>
/home/itssahil/PROJECTS/Mol_Feturizer/New_Systems/rnas/3D2G

>  <Rbt.Executable>
rbdock ($Id: //depot/dev/client3/rdock/2013.1/src/exe/rbdock.cxx#4 $)

>  <Rbt.Library>
libRbt.so (2013.1, Build901 2013/11/27)

>  <Rbt.Parameter_File>
/export/apps/rDock/src/rDock_2013.1_src/data/scripts/dock_solv.prm

>  <Rbt.Receptor>
prm/pocket_docking_2.prm

>  <SCORE>
-12.6569

>  <SCORE.INTER>
-18.1991

>  <SCORE.INTER.CONST>
1

>  <SCORE.INTER.POLAR>
0

>  <SCORE.INTER.ROT>
8

>  <SCORE.INTER.SOLV>
8.52937

>  <SCORE.INTER.VDW>
-23.9092

>  <SCORE.INTER.norm>
-0.699966

>  <SCORE.INTRA>
5.19954

>  <SCORE.INTRA.DIHEDRAL>
-0.503833

>  <SCORE.INTRA.DIHEDRAL.0>
9.09364

>  <SCORE.INTRA.POLAR>
0

>  <SCORE.INTRA.POLAR.0>
0

>  <SCORE.INTRA.REPUL>
0

>  <SCORE.INTRA.REPUL.0>
0

>  <SCORE.INTRA.SOLV>
4.76787

>  <SCORE.INTRA.SOLV.lig_0>
-78.5846

>  <SCORE.INTRA.VDW>
3.06751

>  <SCORE.INTRA.VDW.0>
-2.81163

>  <SCORE.INTRA.norm>
0.199982

>  <SCORE.RESTR>
0.342654

>  <SCORE.RESTR.CAVITY>
0.342654

>  <SCORE.RESTR.norm>
0.013179

>  <SCORE.SYSTEM>
0

>  <SCORE.SYSTEM.CONST>
0

>  <SCORE.SYSTEM.DIHEDRAL>
0

>  <SCORE.SYSTEM.SOLV>
0

>  <SCORE.SYSTEM.norm>
0

>  <SCORE.heavy>
26

>  <SCORE.norm>
-0.486804

>  <RMSD>
2.199

$$$$
ligand
 OpenBabel11021811463D
libRbt.so/2013.1/901 2013/11/27
 26 27  0  0  0  0  0  0  0  0999 V2000
  -13.5348  -37.7512    1.9691 C   0  0  0  0  0  0  0  0  0  0  0  0
   -6.7625  -42.0684    3.0544 C   0  0  0  0  0  0  0  0  0  0  0  0
   -4.8750  -42.4250    8.8955 P   0  0  1  0  0  0  0  0  0  0  0  0
   -6.0735  -43.9891   10.8087 P   0  0  2  0  0  0  0  0  0  0  0  0
   -8.1247  -39.2599    3.1503 C   0  0  0  0  0  0  0  0  0  0  0  0
  -10.3486  -38.3147    3.8532 C   0  0  0  0  0  0  0  0  0  0  0  0
   -9.5510  -38.8745    2.8506 C   0  0  0  0  0  0  0  0  0  0  0  0
  -10.0546  -39.0451    1.5581 C   0  0  0  0  0  0  0  0  0  0  0  0
   -9.2932  -39.5579    0.6145 N   0  0  0  0  0  0  0  0  0  0  0  0
  -11.3563  -38.7029    1.2840 N   0  0  0  0  0  0  0  0  0  0  0  0
  -12.1318  -38.1376    2.2767 C   0  0  0  0  0  0  0  0  0  0  0  0
  -11.6439  -37.9553    3.5570 N   0  0  0  0  0  0  0  0  0  0  0  0
   -5.2452  -41.3306    9.8493 O   0  5  0  0  0  0  0  0  0  0  0  0
   -5.8785  -45.4146   11.1427 O   0  0  0  0  0  0  0  0  0  0  0  0
   -8.5505  -41.1923    6.4238 S   0  0  0  0  0  0  0  0  0  0  0  0
   -8.7083  -39.9755    5.4254 C   0  0  0  0  0  0  0  0  0  0  0  0
   -3.6195  -42.2166    8.1250 O   0  0  0  0  0  0  0  0  0  0  0  0
   -7.3855  -43.7358   10.1835 O   0  5  0  0  0  0  0  0  0  0  0  0
   -8.1195  -40.2226    4.2169 N   0  0  0  0  0  0  0  0  0  0  0  0
   -4.8696  -43.7133    9.8149 O   0  0  0  0  0  0  0  0  0  0  0  0
   -6.0321  -43.0090   11.9360 O   0  0  0  0  0  0  0  0  0  0  0  0
   -7.5172  -41.4489    4.1908 C   0  0  1  0  0  0  0  0  0  0  0  0
   -7.7049  -42.0803    5.3947 C   0  0  2  0  0  0  0  0  0  0  0  0
   -7.2629  -43.4388    5.8791 C   0  0  0  0  0  0  0  0  0  0  0  0
   -6.0448  -43.3499    6.8055 C   0  0  0  0  0  0  0  0  0  0  0  0
   -6.1460  -42.5510    7.9702 O   0  0  0  0  0  0  0  0  0  0  0  0
  1 11  1  0  0  0  0
  3 13  1  1  0  0  0
  3 17  2  0  0  0  0
  3 20  1  0  0  0  0
  3 26  1  0  0  0  0
  4 14  1  1  0  0  0
  4 18  1  0  0  0  0
  4 21  2  0  0  0  0
  4 20  1  0  0  0  0
  5 19  1  0  0  0  0
  5  7  1  0  0  0  0
  6  7  2  0  0  0  0
  6 12  1  0  0  0  0
  7  8  1  0  0  0  0
  8  9  1  0  0  0  0
  8 10  2  0  0  0  0
 10 11  1  0  0  0  0
 11 12  2  0  0  0  0
 15 23  1  0  0  0  0
 15 16  1  0  0  0  0
 16 19  1  0  0  0  0
 19 22  1  0  0  0  0
 22  2  1  6  0  0  0
 22 23  1  0  0  0  0
 23 24  1  6  0  0  0
 24 25  1  0  0  0  0
 25 26  1  0  0  0  0
M  CHG  2  13  -1  18  -1
M  END
>  <CHROM.1>
47.08755021,-55.80094730,58.94544513,163.93567474,-78.25212504,57.22773848
-178.04562439,169.52124106,-7.66228286,-41.42296473,6.36107903,2.14923934
0.44570717,-1.30438892

>  <Name>
ligand

>  <RI>
0

>  <Rbt.Current_Directory>
/home/itssahil/PROJECTS/Mol_Feturizer/New_Systems/rnas/3D2G

>  <Rbt.Executable>
rbdock ($Id: //depot/dev/client3/rdock/2013.1/src/exe/rbdock.cxx#4 $)

>  <Rbt.Library>
libRbt.so (2013.1, Build901 2013/11/27)

>  <Rbt.Parameter_File>
/export/apps/rDock/src/rDock_2013.1_src/data/scripts/dock_solv.prm

>  <Rbt.Receptor>
prm/pocket_docking_4.prm

>  <SCORE>
-19.8964

>  <SCORE.INTER>
-17.8863

>  <SCORE.INTER.CONST>
1

>  <SCORE.INTER.POLAR>
0

>  <SCORE.INTER.ROT>
8

>  <SCORE.INTER.SOLV>
18.3977

>  <SCORE.INTER.VDW>
-26.9901

>  <SCORE.INTER.norm>
-0.687934

>  <SCORE.INTRA>
-2.01011

>  <SCORE.INTRA.DIHEDRAL>
-3.12207

>  <SCORE.INTRA.DIHEDRAL.0>
9.09364

>  <SCORE.INTRA.POLAR>
0

>  <SCORE.INTRA.POLAR.0>
0

>  <SCORE.INTRA.REPUL>
0

>  <SCORE.INTRA.REPUL.0>
0

>  <SCORE.INTRA.SOLV>
0.120858

>  <SCORE.INTRA.SOLV.lig_0>
-78.5846

>  <SCORE.INTRA.VDW>
-0.5095

>  <SCORE.INTRA.VDW.0>
-2.81163

>  <SCORE.INTRA.norm>
-0.0773118

>  <SCORE.RESTR>
0

>  <SCORE.RESTR.CAVITY>
0

>  <SCORE.RESTR.norm>
0

>  <SCORE.SYSTEM>
0

>  <SCORE.SYSTEM.CONST>
0

>  <SCORE.SYSTEM.DIHEDRAL>
0

>  <SCORE.SYSTEM.SOLV>
0

>  <SCORE.SYSTEM.norm>
0

>  <SCORE.heavy>
26

>  <SCORE.norm>
-0.765246

>  <RMSD>
2.203

$$$$
ligand
 OpenBabel11021811463D
libRbt.so/2013.1/901 2013/11/27
 26 27  0  0  0  0  0  0  0  0999 V2000
  -12.9772  -37.6381    2.3640 C   0  0  0  0  0  0  0  0  0  0  0  0
   -6.9494  -41.7155    4.7987 C   0  0  0  0  0  0  0  0  0  0  0  0
   -3.2239  -43.0979    7.6977 P   0  0  1  0  0  0  0  0  0  0  0  0
   -1.7974  -42.3645    9.9272 P   0  0  2  0  0  0  0  0  0  0  0  0
   -7.6949  -39.8823    2.3829 C   0  0  0  0  0  0  0  0  0  0  0  0
   -9.6338  -38.8298    1.1721 C   0  0  0  0  0  0  0  0  0  0  0  0
   -9.0763  -39.2788    2.3731 C   0  0  0  0  0  0  0  0  0  0  0  0
   -9.8063  -39.2075    3.5627 C   0  0  0  0  0  0  0  0  0  0  0  0
   -9.2817  -39.6468    4.6874 N   0  0  0  0  0  0  0  0  0  0  0  0
  -11.0618  -38.6504    3.5587 N   0  0  0  0  0  0  0  0  0  0  0  0
  -11.6097  -38.2230    2.3656 C   0  0  0  0  0  0  0  0  0  0  0  0
  -10.9023  -38.2953    1.1803 N   0  0  0  0  0  0  0  0  0  0  0  0
   -1.9531  -42.9581    6.9167 O   0  5  0  0  0  0  0  0  0  0  0  0
   -1.6028  -43.0226   11.2352 O   0  0  0  0  0  0  0  0  0  0  0  0
   -5.8572  -37.9729    5.1414 S   0  0  0  0  0  0  0  0  0  0  0  0
   -6.5870  -38.1714    3.7520 C   0  0  0  0  0  0  0  0  0  0  0  0
   -4.2050  -44.0834    7.1690 O   0  0  0  0  0  0  0  0  0  0  0  0
   -2.4438  -41.0448   10.0561 O   0  5  0  0  0  0  0  0  0  0  0  0
   -7.0126  -39.4581    3.5741 N   0  0  0  0  0  0  0  0  0  0  0  0
   -2.7106  -43.4103    9.1620 O   0  0  0  0  0  0  0  0  0  0  0  0
   -0.5754  -42.0740    9.1175 O   0  0  0  0  0  0  0  0  0  0  0  0
   -6.6708  -40.2529    4.6318 C   0  0  1  0  0  0  0  0  0  0  0  0
   -6.0126  -39.5058    5.5761 C   0  0  2  0  0  0  0  0  0  0  0  0
   -5.4416  -39.8883    6.9190 C   0  0  0  0  0  0  0  0  0  0  0  0
   -4.9210  -41.3300    6.9321 C   0  0  0  0  0  0  0  0  0  0  0  0
   -3.7945  -41.6281    7.7365 O   0  0  0  0  0  0  0  0  0  0  0  0
  1 11  1  0  0  0  0
  3 13  1  6  0  0  0
  3 17  2  0  0  0  0
  3 20  1  0  0  0  0
  3 26  1  0  0  0  0
  4 14  1  1  0  0  0
  4 18  1  0  0  0  0
  4 21  2  0  0  0  0
  4 20  1  0  0  0  0
  5 19  1  0  0  0  0
  5  7  1  0  0  0  0
  6  7  2  0  0  0  0
  6 12  1  0  0  0  0
  7  8  1  0  0  0  0
  8  9  1  0  0  0  0
  8 10  2  0  0  0  0
 10 11  1  0  0  0  0
 11 12  2  0  0  0  0
 15 23  1  0  0  0  0
 15 16  1  0  0  0  0
 16 19  1  0  0  0  0
 19 22  1  0  0  0  0
 22  2  1  1  0  0  0
 22 23  1  0  0  0  0
 23 24  1  1  0  0  0
 24 25  1  0  0  0  0
 25 26  1  0  0  0  0
M  CHG  2  13  -1  18  -1
M  END
>  <CHROM.1>
60.69083615,-70.84187039,141.94049299,178.00348727,-147.88531446,146.72981215
-177.35695616,106.90722917,-5.79073880,-40.64003145,5.95794750,2.79745262
-0.70292232,0.04744179

>  <Name>
ligand

>  <RI>
0

>  <Rbt.Current_Directory>
/home/itssahil/PROJECTS/Mol_Feturizer/New_Systems/rnas/3D2G

>  <Rbt.Executable>
rbdock ($Id: //depot/dev/client3/rdock/2013.1/src/exe/rbdock.cxx#4 $)

>  <Rbt.Library>
libRbt.so (2013.1, Build901 2013/11/27)

>  <Rbt.Parameter_File>
/export/apps/rDock/src/rDock_2013.1_src/data/scripts/dock_solv.prm

>  <Rbt.Receptor>
prm/pocket_docking_3.prm

>  <SCORE>
-16.0397

>  <SCORE.INTER>
-20.9351

>  <SCORE.INTER.CONST>
1

>  <SCORE.INTER.POLAR>
0

>  <SCORE.INTER.ROT>
8

>  <SCORE.INTER.SOLV>
8.80445

>  <SCORE.INTER.VDW>
-25.8249

>  <SCORE.INTER.norm>
-0.805196

>  <SCORE.INTRA>
4.89536

>  <SCORE.INTRA.DIHEDRAL>
0.876811

>  <SCORE.INTRA.DIHEDRAL.0>
9.09364

>  <SCORE.INTRA.POLAR>
0

>  <SCORE.INTRA.POLAR.0>
0

>  <SCORE.INTRA.REPUL>
0

>  <SCORE.INTRA.REPUL.0>
0

>  <SCORE.INTRA.SOLV>
4.70064

>  <SCORE.INTRA.SOLV.lig_0>
-78.5846

>  <SCORE.INTRA.VDW>
2.10664

>  <SCORE.INTRA.VDW.0>
-2.81163

>  <SCORE.INTRA.norm>
0.188283

>  <SCORE.RESTR>
0

>  <SCORE.RESTR.CAVITY>
0

>  <SCORE.RESTR.norm>
0

>  <SCORE.SYSTEM>
0

>  <SCORE.SYSTEM.CONST>
0

>  <SCORE.SYSTEM.DIHEDRAL>
0

>  <SCORE.SYSTEM.SOLV>
0

>  <SCORE.SYSTEM.norm>
0

>  <SCORE.heavy>
26

>  <SCORE.norm>
-0.616913

>  <RMSD>
2.210

$$$$
ligand
 OpenBabel11021811463D
libRbt.so/2013.1/901 2013/11/27
 26 27  0  0  0  0  0  0  0  0999 V2000
  -13.3054  -37.7166    1.9832 C   0  0  0  0  0  0  0  0  0  0  0  0
   -8.0750  -38.8362    5.9764 C   0  0  0  0  0  0  0  0  0  0  0  0
   -4.3173  -41.4218    8.8029 P   0  0  1  0  0  0  0  0  0  0  0  0
   -3.0872  -43.2563    7.1707 P   0  0  2  0  0  0  0  0  0  0  0  0
   -7.9608  -39.5743    2.9442 C   0  0  0  0  0  0  0  0  0  0  0  0
  -10.1950  -38.7726    3.7801 C   0  0  0  0  0  0  0  0  0  0  0  0
   -9.3704  -39.0992    2.6993 C   0  0  0  0  0  0  0  0  0  0  0  0
   -9.8307  -38.9522    1.3879 C   0  0  0  0  0  0  0  0  0  0  0  0
   -9.0437  -39.2463    0.3744 N   0  0  0  0  0  0  0  0  0  0  0  0
  -11.1173  -38.5278    1.1616 N   0  0  0  0  0  0  0  0  0  0  0  0
  -11.9194  -38.1939    2.2347 C   0  0  0  0  0  0  0  0  0  0  0  0
  -11.4742  -38.3264    3.5366 N   0  0  0  0  0  0  0  0  0  0  0  0
   -4.4442  -42.5032    9.8320 O   0  5  0  0  0  0  0  0  0  0  0  0
   -4.2672  -43.0915    6.2977 O   0  0  0  0  0  0  0  0  0  0  0  0
   -7.9848  -42.6694    5.1917 S   0  0  0  0  0  0  0  0  0  0  0  0
   -7.9592  -41.8642    3.8304 C   0  0  0  0  0  0  0  0  0  0  0  0
   -4.2285  -40.0330    9.3292 O   0  0  0  0  0  0  0  0  0  0  0  0
   -3.2179  -44.4151    8.0744 O   0  5  0  0  0  0  0  0  0  0  0  0
   -7.9707  -40.5124    4.0324 N   0  0  0  0  0  0  0  0  0  0  0  0
   -3.0607  -41.8798    7.9565 O   0  0  0  0  0  0  0  0  0  0  0  0
   -1.7685  -43.4832    6.5053 O   0  0  0  0  0  0  0  0  0  0  0  0
   -8.0324  -40.2019    5.3618 C   0  0  1  0  0  0  0  0  0  0  0  0
   -8.0434  -41.3556    6.1046 C   0  0  2  0  0  0  0  0  0  0  0  0
   -8.0898  -41.5714    7.5969 C   0  0  0  0  0  0  0  0  0  0  0  0
   -6.8100  -41.0865    8.2874 C   0  0  0  0  0  0  0  0  0  0  0  0
   -5.5751  -41.6456    7.8782 O   0  0  0  0  0  0  0  0  0  0  0  0
  1 11  1  0  0  0  0
  3 13  1  1  0  0  0
  3 17  2  0  0  0  0
  3 20  1  0  0  0  0
  3 26  1  0  0  0  0
  4 14  1  6  0  0  0
  4 18  1  0  0  0  0
  4 21  2  0  0  0  0
  4 20  1  0  0  0  0
  5 19  1  0  0  0  0
  5  7  1  0  0  0  0
  6  7  2  0  0  0  0
  6 12  1  0  0  0  0
  7  8  1  0  0  0  0
  8  9  1  0  0  0  0
  8 10  2  0  0  0  0
 10 11  1  0  0  0  0
 11 12  2  0  0  0  0
 15 23  1  0  0  0  0
 15 16  1  0  0  0  0
 16 19  1  0  0  0  0
 19 22  1  0  0  0  0
 22  2  1  1  0  0  0
 22 23  1  0  0  0  0
 23 24  1  1  0  0  0
 24 25  1  0  0  0  0
 25 26  1  0  0  0  0
M  CHG  2  13  -1  18  -1
M  END
>  <CHROM.1>
61.53541756,98.87300830,43.17705786,57.36023667,112.56396053,-57.95204056
-165.39127169,83.52633619,-6.91461817,-40.99602264,5.67001971,2.63407699
0.61330405,-1.79070232

>  <Name>
ligand

>  <RI>
0

>  <Rbt.Current_Directory>
/home/itssahil/PROJECTS/Mol_Feturizer/New_Systems/rnas/3D2G

>  <Rbt.Executable>
rbdock ($Id: //depot/dev/client3/rdock/2013.1/src/exe/rbdock.cxx#4 $)

>  <Rbt.Library>
libRbt.so (2013.1, Build901 2013/11/27)

>  <Rbt.Parameter_File>
/export/apps/rDock/src/rDock_2013.1_src/data/scripts/dock_solv.prm

>  <Rbt.Receptor>
prm/pocket_docking_2.prm

>  <SCORE>
-19.1634

>  <SCORE.INTER>
-16.3287

>  <SCORE.INTER.CONST>
1

>  <SCORE.INTER.POLAR>
0

>  <SCORE.INTER.ROT>
8

>  <SCORE.INTER.SOLV>
18.2386

>  <SCORE.INTER.VDW>
-25.8987

>  <SCORE.INTER.norm>
-0.628028

>  <SCORE.INTRA>
-3.14857

>  <SCORE.INTRA.DIHEDRAL>
-2.98857

>  <SCORE.INTRA.DIHEDRAL.0>
9.09364

>  <SCORE.INTRA.POLAR>
0

>  <SCORE.INTRA.POLAR.0>
0

>  <SCORE.INTRA.REPUL>
0

>  <SCORE.INTRA.REPUL.0>
0

>  <SCORE.INTRA.SOLV>
-3.00715

>  <SCORE.INTRA.SOLV.lig_0>
-78.5846

>  <SCORE.INTRA.VDW>
-0.150715

>  <SCORE.INTRA.VDW.0>
-2.81163

>  <SCORE.INTRA.norm>
-0.121099

>  <SCORE.RESTR>
0.31385

>  <SCORE.RESTR.CAVITY>
0.31385

>  <SCORE.RESTR.norm>
0.0120711

>  <SCORE.SYSTEM>
0

>  <SCORE.SYSTEM.CONST>
0

>  <SCORE.SYSTEM.DIHEDRAL>
0

>  <SCORE.SYSTEM.SOLV>
0

>  <SCORE.SYSTEM.norm>
0

>  <SCORE.heavy>
26

>  <SCORE.norm>
-0.737055

>  <RMSD>
2.222

$$$$
ligand
 OpenBabel11021811463D
libRbt.so/2013.1/901 2013/11/27
 26 27  0  0  0  0  0  0  0  0999 V2000
  -13.2061  -37.6740    1.9171 C   0  0  0  0  0  0  0  0  0  0  0  0
   -8.8694  -40.3286    6.0420 C   0  0  0  0  0  0  0  0  0  0  0  0
   -4.5052  -41.0624    9.1244 P   0  0  1  0  0  0  0  0  0  0  0  0
   -1.9667  -42.1031    9.2513 P   0  0  2  0  0  0  0  0  0  0  0  0
   -7.9628  -39.6698    3.1271 C   0  0  0  0  0  0  0  0  0  0  0  0
  -10.1385  -38.6258    3.8412 C   0  0  0  0  0  0  0  0  0  0  0  0
   -9.3464  -39.1569    2.8187 C   0  0  0  0  0  0  0  0  0  0  0  0
   -9.8134  -39.1813    1.5017 C   0  0  0  0  0  0  0  0  0  0  0  0
   -9.0564  -39.6680    0.5409 N   0  0  0  0  0  0  0  0  0  0  0  0
  -11.0769  -38.7227    1.2188 N   0  0  0  0  0  0  0  0  0  0  0  0
  -11.8461  -38.1869    2.2325 C   0  0  0  0  0  0  0  0  0  0  0  0
  -11.3935  -38.1486    3.5380 N   0  0  0  0  0  0  0  0  0  0  0  0
   -4.9737  -42.2579    8.3526 O   0  5  0  0  0  0  0  0  0  0  0  0
   -0.7068  -41.7091    8.5885 O   0  0  0  0  0  0  0  0  0  0  0  0
   -6.1756  -37.5069    5.7271 S   0  0  0  0  0  0  0  0  0  0  0  0
   -6.5312  -38.0432    4.2820 C   0  0  0  0  0  0  0  0  0  0  0  0
   -4.7843  -41.0836   10.5856 O   0  0  0  0  0  0  0  0  0  0  0  0
   -2.4049  -43.4563    8.8598 O   0  5  0  0  0  0  0  0  0  0  0  0
   -7.4837  -39.0229    4.3172 N   0  0  0  0  0  0  0  0  0  0  0  0
   -2.9683  -40.9789    8.7554 O   0  0  0  0  0  0  0  0  0  0  0  0
   -1.9679  -42.1573   10.7447 O   0  0  0  0  0  0  0  0  0  0  0  0
   -7.8640  -39.3104    5.5979 C   0  0  1  0  0  0  0  0  0  0  0  0
   -7.1812  -38.5041    6.4735 C   0  0  2  0  0  0  0  0  0  0  0  0
   -7.2366  -38.4067    7.9779 C   0  0  0  0  0  0  0  0  0  0  0  0
   -6.5686  -39.6081    8.6562 C   0  0  0  0  0  0  0  0  0  0  0  0
   -5.2003  -39.8539    8.3871 O   0  0  0  0  0  0  0  0  0  0  0  0
  1 11  1  0  0  0  0
  3 13  1  6  0  0  0
  3 17  2  0  0  0  0
  3 20  1  0  0  0  0
  3 26  1  0  0  0  0
  4 14  1  6  0  0  0
  4 18  1  0  0  0  0
  4 21  2  0  0  0  0
  4 20  1  0  0  0  0
  5 19  1  0  0  0  0
  5  7  1  0  0  0  0
  6  7  2  0  0  0  0
  6 12  1  0  0  0  0
  7  8  1  0  0  0  0
  8  9  1  0  0  0  0
  8 10  2  0  0  0  0
 10 11  1  0  0  0  0
 11 12  2  0  0  0  0
 15 23  1  0  0  0  0
 15 16  1  0  0  0  0
 16 19  1  0  0  0  0
 19 22  1  0  0  0  0
 22  2  1  6  0  0  0
 22 23  1  0  0  0  0
 23 24  1  6  0  0  0
 24 25  1  0  0  0  0
 25 26  1  0  0  0  0
M  CHG  2  13  -1  18  -1
M  END
>  <CHROM.1>
-67.60991249,-105.83491767,-24.04767431,174.79459855,-107.76861942,59.59335118
178.00352544,78.22247165,-6.46375166,-39.92686205,6.29735031,2.53068881,0.52793934
-1.75826015

>  <Name>
ligand

>  <RI>
0

>  <Rbt.Current_Directory>
/home/itssahil/PROJECTS/Mol_Feturizer/New_Systems/rnas/3D2G

>  <Rbt.Executable>
rbdock ($Id: //depot/dev/client3/rdock/2013.1/src/exe/rbdock.cxx#4 $)

>  <Rbt.Library>
libRbt.so (2013.1, Build901 2013/11/27)

>  <Rbt.Parameter_File>
/export/apps/rDock/src/rDock_2013.1_src/data/scripts/dock_solv.prm

>  <Rbt.Receptor>
prm/pocket_docking_3.prm

>  <SCORE>
-24.5053

>  <SCORE.INTER>
-22.146

>  <SCORE.INTER.CONST>
1

>  <SCORE.INTER.POLAR>
0

>  <SCORE.INTER.ROT>
8

>  <SCORE.INTER.SOLV>
16.2754

>  <SCORE.INTER.VDW>
-29.1225

>  <SCORE.INTER.norm>
-0.851771

>  <SCORE.INTRA>
-2.35929

>  <SCORE.INTRA.DIHEDRAL>
-3.9664

>  <SCORE.INTRA.DIHEDRAL.0>
9.09364

>  <SCORE.INTRA.POLAR>
0

>  <SCORE.INTRA.POLAR.0>
0

>  <SCORE.INTRA.REPUL>
0

>  <SCORE.INTRA.REPUL.0>
0

>  <SCORE.INTRA.SOLV>
-0.383044

>  <SCORE.INTRA.SOLV.lig_0>
-78.5846

>  <SCORE.INTRA.VDW>
-0.18457

>  <SCORE.INTRA.VDW.0>
-2.81163

>  <SCORE.INTRA.norm>
-0.0907419

>  <SCORE.RESTR>
0

>  <SCORE.RESTR.CAVITY>
0

>  <SCORE.RESTR.norm>
0

>  <SCORE.SYSTEM>
0

>  <SCORE.SYSTEM.CONST>
0

>  <SCORE.SYSTEM.DIHEDRAL>
0

>  <SCORE.SYSTEM.SOLV>
0

>  <SCORE.SYSTEM.norm>
0

>  <SCORE.heavy>
26

>  <SCORE.norm>
-0.942513

>  <RMSD>
2.243

$$$$
ligand
 OpenBabel11021811463D
libRbt.so/2013.1/901 2013/11/27
 26 27  0  0  0  0  0  0  0  0999 V2000
  -12.6987  -38.0101    1.9576 C   0  0  0  0  0  0  0  0  0  0  0  0
   -8.2106  -41.8249    5.1415 C   0  0  0  0  0  0  0  0  0  0  0  0
   -5.5722  -44.4745    9.1852 P   0  0  1  0  0  0  0  0  0  0  0  0
   -5.4022  -44.4937   11.9263 P   0  0  2  0  0  0  0  0  0  0  0  0
   -7.3598  -39.1855    3.7055 C   0  0  0  0  0  0  0  0  0  0  0  0
   -9.6889  -38.3472    4.1591 C   0  0  0  0  0  0  0  0  0  0  0  0
   -8.7678  -38.8876    3.2567 C   0  0  0  0  0  0  0  0  0  0  0  0
   -9.1316  -39.1193    1.9274 C   0  0  0  0  0  0  0  0  0  0  0  0
   -8.2549  -39.6134    1.0787 N   0  0  0  0  0  0  0  0  0  0  0  0
  -10.4161  -38.8570    1.5174 N   0  0  0  0  0  0  0  0  0  0  0  0
  -11.3145  -38.3100    2.4119 C   0  0  0  0  0  0  0  0  0  0  0  0
  -10.9658  -38.0679    3.7273 N   0  0  0  0  0  0  0  0  0  0  0  0
   -4.5507  -44.1636    8.1344 O   0  5  0  0  0  0  0  0  0  0  0  0
   -4.2877  -44.8226   12.8382 O   0  0  0  0  0  0  0  0  0  0  0  0
   -7.0423  -38.9359    7.5092 S   0  0  0  0  0  0  0  0  0  0  0  0
   -6.9500  -38.4418    6.0094 C   0  0  0  0  0  0  0  0  0  0  0  0
   -6.4356  -45.6569    8.9207 O   0  0  0  0  0  0  0  0  0  0  0  0
   -6.5289  -45.4369   12.0578 O   0  5  0  0  0  0  0  0  0  0  0  0
   -7.3622  -39.4001    5.1262 N   0  0  0  0  0  0  0  0  0  0  0  0
   -4.7054  -44.5823   10.5052 O   0  0  0  0  0  0  0  0  0  0  0  0
   -6.0492  -43.1565   12.0890 O   0  0  0  0  0  0  0  0  0  0  0  0
   -7.7209  -40.5536    5.7650 C   0  0  1  0  0  0  0  0  0  0  0  0
   -7.5770  -40.3939    7.1203 C   0  0  2  0  0  0  0  0  0  0  0  0
   -7.8451  -41.3421    8.2625 C   0  0  0  0  0  0  0  0  0  0  0  0
   -7.0247  -42.6314    8.1435 C   0  0  0  0  0  0  0  0  0  0  0  0
   -6.3933  -43.1335    9.3072 O   0  0  0  0  0  0  0  0  0  0  0  0
  1 11  1  0  0  0  0
  3 13  1  6  0  0  0
  3 17  2  0  0  0  0
  3 20  1  0  0  0  0
  3 26  1  0  0  0  0
  4 14  1  1  0  0  0
  4 18  1  0  0  0  0
  4 21  2  0  0  0  0
  4 20  1  0  0  0  0
  5 19  1  0  0  0  0
  5  7  1  0  0  0  0
  6  7  2  0  0  0  0
  6 12  1  0  0  0  0
  7  8  1  0  0  0  0
  8  9  1  0  0  0  0
  8 10  2  0  0  0  0
 10 11  1  0  0  0  0
 11 12  2  0  0  0  0
 15 23  1  0  0  0  0
 15 16  1  0  0  0  0
 16 19  1  0  0  0  0
 19 22  1  0  0  0  0
 22  2  1  1  0  0  0
 22 23  1  0  0  0  0
 23 24  1  1  0  0  0
 24 25  1  0  0  0  0
 25 26  1  0  0  0  0
M  CHG  2  13  -1  18  -1
M  END
>  <CHROM.1>
162.59783832,-101.78759555,25.10847532,172.51448851,-121.92326938,136.10912390
178.89928070,57.95359495,-7.33466325,-41.55983097,7.15730505,-3.00210152
-1.15884832,0.77664296

>  <Name>
ligand

>  <RI>
0

>  <Rbt.Current_Directory>
/home/itssahil/PROJECTS/Mol_Feturizer/New_Systems/rnas/3D2G

>  <Rbt.Executable>
rbdock ($Id: //depot/dev/client3/rdock/2013.1/src/exe/rbdock.cxx#4 $)

>  <Rbt.Library>
libRbt.so (2013.1, Build901 2013/11/27)

>  <Rbt.Parameter_File>
/export/apps/rDock/src/rDock_2013.1_src/data/scripts/dock_solv.prm

>  <Rbt.Receptor>
prm/pocket_docking_4.prm

>  <SCORE>
-19.3719

>  <SCORE.INTER>
-18.5851

>  <SCORE.INTER.CONST>
1

>  <SCORE.INTER.POLAR>
0

>  <SCORE.INTER.ROT>
8

>  <SCORE.INTER.SOLV>
18.98

>  <SCORE.INTER.VDW>
-27.65

>  <SCORE.INTER.norm>
-0.71481

>  <SCORE.INTRA>
-0.793623

>  <SCORE.INTRA.DIHEDRAL>
0.486866

>  <SCORE.INTRA.DIHEDRAL.0>
9.09364

>  <SCORE.INTRA.POLAR>
0

>  <SCORE.INTRA.POLAR.0>
0

>  <SCORE.INTRA.REPUL>
0

>  <SCORE.INTRA.REPUL.0>
0

>  <SCORE.INTRA.SOLV>
-1.19384

>  <SCORE.INTRA.SOLV.lig_0>
-78.5846

>  <SCORE.INTRA.VDW>
-0.440134

>  <SCORE.INTRA.VDW.0>
-2.81163

>  <SCORE.INTRA.norm>
-0.030524

>  <SCORE.RESTR>
0.00678692

>  <SCORE.RESTR.CAVITY>
0.00678692

>  <SCORE.RESTR.norm>
0.000261035

>  <SCORE.SYSTEM>
0

>  <SCORE.SYSTEM.CONST>
0

>  <SCORE.SYSTEM.DIHEDRAL>
0

>  <SCORE.SYSTEM.SOLV>
0

>  <SCORE.SYSTEM.norm>
0

>  <SCORE.heavy>
26

>  <SCORE.norm>
-0.745073

>  <RMSD>
2.276

$$$$
ligand
 OpenBabel11021811463D
libRbt.so/2013.1/901 2013/11/27
 26 27  0  0  0  0  0  0  0  0999 V2000
  -13.7137  -37.7585    1.8104 C   0  0  0  0  0  0  0  0  0  0  0  0
   -7.5732  -42.0088    4.4691 C   0  0  0  0  0  0  0  0  0  0  0  0
   -4.9439  -42.4558   10.2265 P   0  0  1  0  0  0  0  0  0  0  0  0
   -2.9252  -42.1881    8.3836 P   0  0  2  0  0  0  0  0  0  0  0  0
   -8.3955  -39.1795    3.4342 C   0  0  0  0  0  0  0  0  0  0  0  0
  -10.6886  -38.2823    3.9536 C   0  0  0  0  0  0  0  0  0  0  0  0
   -9.7983  -38.8173    3.0177 C   0  0  0  0  0  0  0  0  0  0  0  0
  -10.1871  -38.9843    1.6857 C   0  0  0  0  0  0  0  0  0  0  0  0
   -9.3388  -39.4737    0.8059 N   0  0  0  0  0  0  0  0  0  0  0  0
  -11.4672  -38.6633    1.3049 N   0  0  0  0  0  0  0  0  0  0  0  0
  -12.3347  -38.1222    2.2328 C   0  0  0  0  0  0  0  0  0  0  0  0
  -11.9608  -37.9437    3.5514 N   0  0  0  0  0  0  0  0  0  0  0  0
   -5.0746  -43.3980   11.3839 O   0  5  0  0  0  0  0  0  0  0  0  0
   -3.9564  -41.7491    7.4213 O   0  0  0  0  0  0  0  0  0  0  0  0
   -8.7072  -39.4822    7.2346 S   0  0  0  0  0  0  0  0  0  0  0  0
   -8.7824  -38.7701    5.8241 C   0  0  0  0  0  0  0  0  0  0  0  0
   -4.7467  -41.0231   10.5756 O   0  0  0  0  0  0  0  0  0  0  0  0
   -1.8359  -42.9394    7.7315 O   0  5  0  0  0  0  0  0  0  0  0  0
   -8.4152  -39.6053    4.8064 N   0  0  0  0  0  0  0  0  0  0  0  0
   -3.7648  -43.0892    9.3816 O   0  0  0  0  0  0  0  0  0  0  0  0
   -2.2040  -41.1256    9.1478 O   0  0  0  0  0  0  0  0  0  0  0  0
   -8.0467  -40.8360    5.2722 C   0  0  1  0  0  0  0  0  0  0  0  0
   -8.1778  -40.8701    6.6378 C   0  0  2  0  0  0  0  0  0  0  0  0
   -7.9198  -41.9773    7.6293 C   0  0  0  0  0  0  0  0  0  0  0  0
   -6.6469  -41.7309    8.4472 C   0  0  0  0  0  0  0  0  0  0  0  0
   -6.2622  -42.7070    9.3980 O   0  0  0  0  0  0  0  0  0  0  0  0
  1 11  1  0  0  0  0
  3 13  1  1  0  0  0
  3 17  2  0  0  0  0
  3 20  1  0  0  0  0
  3 26  1  0  0  0  0
  4 14  1  6  0  0  0
  4 18  1  0  0  0  0
  4 21  2  0  0  0  0
  4 20  1  0  0  0  0
  5 19  1  0  0  0  0
  5  7  1  0  0  0  0
  6  7  2  0  0  0  0
  6 12  1  0  0  0  0
  7  8  1  0  0  0  0
  8  9  1  0  0  0  0
  8 10  2  0  0  0  0
 10 11  1  0  0  0  0
 11 12  2  0  0  0  0
 15 23  1  0  0  0  0
 15 16  1  0  0  0  0
 16 19  1  0  0  0  0
 19 22  1  0  0  0  0
 22  2  1  6  0  0  0
 22 23  1  0  0  0  0
 23 24  1  6  0  0  0
 24 25  1  0  0  0  0
 25 26  1  0  0  0  0
M  CHG  2  13  -1  18  -1
M  END
>  <CHROM.1>
-157.27266285,-63.02699400,31.98295536,-62.01125573,-73.78407258,-178.54444071
179.38649768,162.62894160,-7.18282230,-40.70877120,6.47325103,2.36632397
0.32866044,-1.38380828

>  <Name>
ligand

>  <RI>
0

>  <Rbt.Current_Directory>
/home/itssahil/PROJECTS/Mol_Feturizer/New_Systems/rnas/3D2G

>  <Rbt.Executable>
rbdock ($Id: //depot/dev/client3/rdock/2013.1/src/exe/rbdock.cxx#4 $)

>  <Rbt.Library>
libRbt.so (2013.1, Build901 2013/11/27)

>  <Rbt.Parameter_File>
/export/apps/rDock/src/rDock_2013.1_src/data/scripts/dock_solv.prm

>  <Rbt.Receptor>
prm/pocket_docking_3.prm

>  <SCORE>
-19.2472

>  <SCORE.INTER>
-17.33

>  <SCORE.INTER.CONST>
1

>  <SCORE.INTER.POLAR>
0

>  <SCORE.INTER.ROT>
8

>  <SCORE.INTER.SOLV>
16.5247

>  <SCORE.INTER.VDW>
-25.9949

>  <SCORE.INTER.norm>
-0.666538

>  <SCORE.INTRA>
-1.9193

>  <SCORE.INTRA.DIHEDRAL>
-2.11258

>  <SCORE.INTRA.DIHEDRAL.0>
9.09364

>  <SCORE.INTRA.POLAR>
0

>  <SCORE.INTRA.POLAR.0>
0

>  <SCORE.INTRA.REPUL>
0

>  <SCORE.INTRA.REPUL.0>
0

>  <SCORE.INTRA.SOLV>
-3.01605

>  <SCORE.INTRA.SOLV.lig_0>
-78.5846

>  <SCORE.INTRA.VDW>
0.645013

>  <SCORE.INTRA.VDW.0>
-2.81163

>  <SCORE.INTRA.norm>
-0.0738192

>  <SCORE.RESTR>
0.00209879

>  <SCORE.RESTR.CAVITY>
0.00209879

>  <SCORE.RESTR.norm>
8.07228e-05

>  <SCORE.SYSTEM>
0

>  <SCORE.SYSTEM.CONST>
0

>  <SCORE.SYSTEM.DIHEDRAL>
0

>  <SCORE.SYSTEM.SOLV>
0

>  <SCORE.SYSTEM.norm>
0

>  <SCORE.heavy>
26

>  <SCORE.norm>
-0.740276

>  <RMSD>
2.281

$$$$
ligand
 OpenBabel11021811463D
libRbt.so/2013.1/901 2013/11/27
 26 27  0  0  0  0  0  0  0  0999 V2000
  -13.0127  -37.7561    2.2743 C   0  0  0  0  0  0  0  0  0  0  0  0
   -4.9982  -40.4578    4.1617 C   0  0  0  0  0  0  0  0  0  0  0  0
   -3.6986  -41.4390    9.2640 P   0  0  1  0  0  0  0  0  0  0  0  0
   -2.8374  -43.7816   10.4100 P   0  0  2  0  0  0  0  0  0  0  0  0
   -7.5771  -39.5603    2.6463 C   0  0  0  0  0  0  0  0  0  0  0  0
   -9.6900  -39.1990    1.3278 C   0  0  0  0  0  0  0  0  0  0  0  0
   -9.0004  -39.0755    2.5378 C   0  0  0  0  0  0  0  0  0  0  0  0
   -9.6341  -38.5393    3.6621 C   0  0  0  0  0  0  0  0  0  0  0  0
   -8.9843  -38.4406    4.8028 N   0  0  0  0  0  0  0  0  0  0  0  0
  -10.9280  -38.0888    3.5643 N   0  0  0  0  0  0  0  0  0  0  0  0
  -11.6055  -38.2281    2.3693 C   0  0  0  0  0  0  0  0  0  0  0  0
  -10.9938  -38.7643    1.2518 N   0  0  0  0  0  0  0  0  0  0  0  0
   -4.7716  -41.3575   10.3064 O   0  5  0  0  0  0  0  0  0  0  0  0
   -1.5952  -44.1272   11.1306 O   0  0  0  0  0  0  0  0  0  0  0  0
   -8.2770  -42.3327    5.1872 S   0  0  0  0  0  0  0  0  0  0  0  0
   -8.6208  -41.2676    4.0694 C   0  0  0  0  0  0  0  0  0  0  0  0
   -3.2367  -40.1395    8.7059 O   0  0  0  0  0  0  0  0  0  0  0  0
   -3.0733  -44.6609    9.2492 O   0  5  0  0  0  0  0  0  0  0  0  0
   -7.5126  -40.5859    3.6506 N   0  0  0  0  0  0  0  0  0  0  0  0
   -2.5660  -42.2795    9.9823 O   0  0  0  0  0  0  0  0  0  0  0  0
   -4.1190  -43.8653   11.1740 O   0  0  0  0  0  0  0  0  0  0  0  0
   -6.3930  -40.9789    4.3284 C   0  0  1  0  0  0  0  0  0  0  0  0
   -6.7188  -41.9672    5.2229 C   0  0  2  0  0  0  0  0  0  0  0  0
   -5.8648  -42.7440    6.1939 C   0  0  0  0  0  0  0  0  0  0  0  0
   -5.3227  -41.8561    7.3198 C   0  0  0  0  0  0  0  0  0  0  0  0
   -4.3219  -42.3874    8.1689 O   0  0  0  0  0  0  0  0  0  0  0  0
  1 11  1  0  0  0  0
  3 13  1  1  0  0  0
  3 17  2  0  0  0  0
  3 20  1  0  0  0  0
  3 26  1  0  0  0  0
  4 14  1  1  0  0  0
  4 18  1  0  0  0  0
  4 21  2  0  0  0  0
  4 20  1  0  0  0  0
  5 19  1  0  0  0  0
  5  7  1  0  0  0  0
  6  7  2  0  0  0  0
  6 12  1  0  0  0  0
  7  8  1  0  0  0  0
  8  9  1  0  0  0  0
  8 10  2  0  0  0  0
 10 11  1  0  0  0  0
 11 12  2  0  0  0  0
 15 23  1  0  0  0  0
 15 16  1  0  0  0  0
 16 19  1  0  0  0  0
 19 22  1  0  0  0  0
 22  2  1  6  0  0  0
 22 23  1  0  0  0  0
 23 24  1  6  0  0  0
 24 25  1  0  0  0  0
 25 26  1  0  0  0  0
M  CHG  2  13  -1  18  -1
M  END
>  <CHROM.1>
63.74926115,19.40653192,-119.43009433,-175.20199916,-113.08199271,-169.10313047
175.98797915,75.22797279,-6.35844050,-41.20118119,6.37621105,3.04635710,0.86608216
-2.51259854

>  <Name>
ligand

>  <RI>
0

>  <Rbt.Current_Directory>
/home/itssahil/PROJECTS/Mol_Feturizer/New_Systems/rnas/3D2G

>  <Rbt.Executable>
rbdock ($Id: //depot/dev/client3/rdock/2013.1/src/exe/rbdock.cxx#4 $)

>  <Rbt.Library>
libRbt.so (2013.1, Build901 2013/11/27)

>  <Rbt.Parameter_File>
/export/apps/rDock/src/rDock_2013.1_src/data/scripts/dock_solv.prm

>  <Rbt.Receptor>
prm/pocket_docking_7.prm

>  <SCORE>
-16.6353

>  <SCORE.INTER>
-15.886

>  <SCORE.INTER.CONST>
1

>  <SCORE.INTER.POLAR>
0

>  <SCORE.INTER.ROT>
8

>  <SCORE.INTER.SOLV>
13.4164

>  <SCORE.INTER.VDW>
-23.9961

>  <SCORE.INTER.norm>
-0.611001

>  <SCORE.INTRA>
-0.749264

>  <SCORE.INTRA.DIHEDRAL>
-3.49135

>  <SCORE.INTRA.DIHEDRAL.0>
9.09364

>  <SCORE.INTRA.POLAR>
0

>  <SCORE.INTRA.POLAR.0>
0

>  <SCORE.INTRA.REPUL>
0

>  <SCORE.INTRA.REPUL.0>
0

>  <SCORE.INTRA.SOLV>
1.74564

>  <SCORE.INTRA.SOLV.lig_0>
-78.5846

>  <SCORE.INTRA.VDW>
0.123587

>  <SCORE.INTRA.VDW.0>
-2.81163

>  <SCORE.INTRA.norm>
-0.0288178

>  <SCORE.RESTR>
0

>  <SCORE.RESTR.CAVITY>
0

>  <SCORE.RESTR.norm>
0

>  <SCORE.SYSTEM>
0

>  <SCORE.SYSTEM.CONST>
0

>  <SCORE.SYSTEM.DIHEDRAL>
0

>  <SCORE.SYSTEM.SOLV>
0

>  <SCORE.SYSTEM.norm>
0

>  <SCORE.heavy>
26

>  <SCORE.norm>
-0.639819

>  <RMSD>
2.283

$$$$
ligand
 OpenBabel11021811463D
libRbt.so/2013.1/901 2013/11/27
 26 27  0  0  0  0  0  0  0  0999 V2000
  -12.9705  -37.6713    2.1947 C   0  0  0  0  0  0  0  0  0  0  0  0
   -7.6267  -42.8763    5.1868 C   0  0  0  0  0  0  0  0  0  0  0  0
   -4.1056  -43.8477    8.1986 P   0  0  1  0  0  0  0  0  0  0  0  0
   -3.1943  -41.2639    8.3898 P   0  0  2  0  0  0  0  0  0  0  0  0
   -8.0242  -40.1328    3.7488 C   0  0  0  0  0  0  0  0  0  0  0  0
  -10.3246  -39.2756    4.3028 C   0  0  0  0  0  0  0  0  0  0  0  0
   -9.3313  -39.4996    3.3446 C   0  0  0  0  0  0  0  0  0  0  0  0
   -9.5256  -39.1054    2.0180 C   0  0  0  0  0  0  0  0  0  0  0  0
   -8.5800  -39.3046    1.1241 N   0  0  0  0  0  0  0  0  0  0  0  0
  -10.7186  -38.5360    1.6448 N   0  0  0  0  0  0  0  0  0  0  0  0
  -11.6879  -38.3057    2.6007 C   0  0  0  0  0  0  0  0  0  0  0  0
  -11.5058  -38.6828    3.9180 N   0  0  0  0  0  0  0  0  0  0  0  0
   -3.8052  -44.9543    7.2345 O   0  5  0  0  0  0  0  0  0  0  0  0
   -1.8520  -40.7050    8.1296 O   0  0  0  0  0  0  0  0  0  0  0  0
   -8.1451  -39.8062    7.5581 S   0  0  0  0  0  0  0  0  0  0  0  0
   -8.1872  -39.3102    6.0566 C   0  0  0  0  0  0  0  0  0  0  0  0
   -4.0727  -44.2162    9.6396 O   0  0  0  0  0  0  0  0  0  0  0  0
   -3.5259  -41.2758    9.8272 O   0  5  0  0  0  0  0  0  0  0  0  0
   -8.0298  -40.3392    5.1707 N   0  0  0  0  0  0  0  0  0  0  0  0
   -3.0675  -42.7253    7.7889 O   0  0  0  0  0  0  0  0  0  0  0  0
   -4.3603  -40.5631    7.7713 O   0  0  0  0  0  0  0  0  0  0  0  0
   -7.8453  -41.5321    5.8113 C   0  0  1  0  0  0  0  0  0  0  0  0
   -7.8949  -41.3387    7.1690 C   0  0  2  0  0  0  0  0  0  0  0  0
   -7.7655  -42.3137    8.3128 C   0  0  0  0  0  0  0  0  0  0  0  0
   -6.3003  -42.5985    8.6618 C   0  0  0  0  0  0  0  0  0  0  0  0
   -5.5202  -43.3288    7.7329 O   0  0  0  0  0  0  0  0  0  0  0  0
  1 11  1  0  0  0  0
  3 13  1  6  0  0  0
  3 17  2  0  0  0  0
  3 20  1  0  0  0  0
  3 26  1  0  0  0  0
  4 14  1  6  0  0  0
  4 18  1  0  0  0  0
  4 21  2  0  0  0  0
  4 20  1  0  0  0  0
  5 19  1  0  0  0  0
  5  7  1  0  0  0  0
  6  7  2  0  0  0  0
  6 12  1  0  0  0  0
  7  8  1  0  0  0  0
  8  9  1  0  0  0  0
  8 10  2  0  0  0  0
 10 11  1  0  0  0  0
 11 12  2  0  0  0  0
 15 23  1  0  0  0  0
 15 16  1  0  0  0  0
 16 19  1  0  0  0  0
 19 22  1  0  0  0  0
 22  2  1  6  0  0  0
 22 23  1  0  0  0  0
 23 24  1  6  0  0  0
 24 25  1  0  0  0  0
 25 26  1  0  0  0  0
M  CHG  2  13  -1  18  -1
M  END
>  <CHROM.1>
169.35343913,-58.83300866,-3.06766998,162.19145660,-97.21618658,-68.89335381
-169.00747860,159.54321536,-6.80971592,-41.08029917,6.28752180,2.36041159
-0.00327303,-0.96260084

>  <Name>
ligand

>  <RI>
0

>  <Rbt.Current_Directory>
/home/itssahil/PROJECTS/Mol_Feturizer/New_Systems/rnas/3D2G

>  <Rbt.Executable>
rbdock ($Id: //depot/dev/client3/rdock/2013.1/src/exe/rbdock.cxx#4 $)

>  <Rbt.Library>
libRbt.so (2013.1, Build901 2013/11/27)

>  <Rbt.Parameter_File>
/export/apps/rDock/src/rDock_2013.1_src/data/scripts/dock_solv.prm

>  <Rbt.Receptor>
prm/pocket_docking_3.prm

>  <SCORE>
-16.2099

>  <SCORE.INTER>
-14.9968

>  <SCORE.INTER.CONST>
1

>  <SCORE.INTER.POLAR>
0

>  <SCORE.INTER.ROT>
8

>  <SCORE.INTER.SOLV>
15.3544

>  <SCORE.INTER.VDW>
-24.0494

>  <SCORE.INTER.norm>
-0.576801

>  <SCORE.INTRA>
-1.21612

>  <SCORE.INTRA.DIHEDRAL>
-1.96282

>  <SCORE.INTRA.DIHEDRAL.0>
9.09364

>  <SCORE.INTRA.POLAR>
0

>  <SCORE.INTRA.POLAR.0>
0

>  <SCORE.INTRA.REPUL>
0

>  <SCORE.INTRA.REPUL.0>
0

>  <SCORE.INTRA.SOLV>
0.572623

>  <SCORE.INTRA.SOLV.lig_0>
-78.5846

>  <SCORE.INTRA.VDW>
-0.521021

>  <SCORE.INTRA.VDW.0>
-2.81163

>  <SCORE.INTRA.norm>
-0.0467737

>  <SCORE.RESTR>
0.00307105

>  <SCORE.RESTR.CAVITY>
0.00307105

>  <SCORE.RESTR.norm>
0.000118117

>  <SCORE.SYSTEM>
0

>  <SCORE.SYSTEM.CONST>
0

>  <SCORE.SYSTEM.DIHEDRAL>
0

>  <SCORE.SYSTEM.SOLV>
0

>  <SCORE.SYSTEM.norm>
0

>  <SCORE.heavy>
26

>  <SCORE.norm>
-0.623456

>  <RMSD>
2.296

$$$$
ligand
 OpenBabel11021811463D
libRbt.so/2013.1/901 2013/11/27
 26 27  0  0  0  0  0  0  0  0999 V2000
  -13.4787  -37.8043    1.9262 C   0  0  0  0  0  0  0  0  0  0  0  0
   -8.8092  -41.2140    5.2469 C   0  0  0  0  0  0  0  0  0  0  0  0
   -6.3360  -43.4315    9.5547 P   0  0  1  0  0  0  0  0  0  0  0  0
   -6.0372  -45.9316    8.4578 P   0  0  2  0  0  0  0  0  0  0  0  0
   -8.0098  -39.0638    3.1280 C   0  0  0  0  0  0  0  0  0  0  0  0
  -10.2817  -38.2370    3.8265 C   0  0  0  0  0  0  0  0  0  0  0  0
   -9.4511  -38.7443    2.8227 C   0  0  0  0  0  0  0  0  0  0  0  0
   -9.9370  -38.9223    1.5245 C   0  0  0  0  0  0  0  0  0  0  0  0
   -9.1452  -39.3852    0.5801 N   0  0  0  0  0  0  0  0  0  0  0  0
  -11.2519  -38.6401    1.2451 N   0  0  0  0  0  0  0  0  0  0  0  0
  -12.0607  -38.1261    2.2391 C   0  0  0  0  0  0  0  0  0  0  0  0
  -11.5910  -37.9370    3.5252 N   0  0  0  0  0  0  0  0  0  0  0  0
   -6.8966  -44.1081   10.7682 O   0  5  0  0  0  0  0  0  0  0  0  0
   -6.9179  -46.5869    9.4461 O   0  0  0  0  0  0  0  0  0  0  0  0
   -7.0755  -38.0138    6.6856 S   0  0  0  0  0  0  0  0  0  0  0  0
   -7.1871  -37.8766    5.1136 C   0  0  0  0  0  0  0  0  0  0  0  0
   -4.9109  -43.0138    9.6454 O   0  0  0  0  0  0  0  0  0  0  0  0
   -4.6230  -45.9389    8.8777 O   0  5  0  0  0  0  0  0  0  0  0  0
   -7.8021  -38.9571    4.5457 N   0  0  0  0  0  0  0  0  0  0  0  0
   -6.6395  -44.4665    8.3964 O   0  0  0  0  0  0  0  0  0  0  0  0
   -5.9935  -46.5175    7.0837 O   0  0  0  0  0  0  0  0  0  0  0  0
   -8.1367  -39.8958    5.4808 C   0  0  1  0  0  0  0  0  0  0  0  0
   -7.7684  -39.4563    6.7275 C   0  0  2  0  0  0  0  0  0  0  0  0
   -7.9193  -40.0940    8.0862 C   0  0  0  0  0  0  0  0  0  0  0  0
   -7.0734  -41.3653    8.2211 C   0  0  0  0  0  0  0  0  0  0  0  0
   -7.3155  -42.2167    9.3263 O   0  0  0  0  0  0  0  0  0  0  0  0
  1 11  1  0  0  0  0
  3 13  1  1  0  0  0
  3 17  2  0  0  0  0
  3 20  1  0  0  0  0
  3 26  1  0  0  0  0
  4 14  1  1  0  0  0
  4 18  1  0  0  0  0
  4 21  2  0  0  0  0
  4 20  1  0  0  0  0
  5 19  1  0  0  0  0
  5  7  1  0  0  0  0
  6  7  2  0  0  0  0
  6 12  1  0  0  0  0
  7  8  1  0  0  0  0
  8  9  1  0  0  0  0
  8 10  2  0  0  0  0
 10 11  1  0  0  0  0
 11 12  2  0  0  0  0
 15 23  1  0  0  0  0
 15 16  1  0  0  0  0
 16 19  1  0  0  0  0
 19 22  1  0  0  0  0
 22  2  1  1  0  0  0
 22 23  1  0  0  0  0
 23 24  1  1  0  0  0
 24 25  1  0  0  0  0
 25 26  1  0  0  0  0
M  CHG  2  13  -1  18  -1
M  END
>  <CHROM.1>
-60.06803015,-102.60569382,8.79824425,76.96762180,-114.43890111,-167.36864085
-173.02419225,-179.10577157,-7.88142333,-41.35878315,6.31457598,2.51488140
-1.02077073,0.09071702

>  <Name>
ligand

>  <RI>
0

>  <Rbt.Current_Directory>
/home/itssahil/PROJECTS/Mol_Feturizer/New_Systems/rnas/3D2G

>  <Rbt.Executable>
rbdock ($Id: //depot/dev/client3/rdock/2013.1/src/exe/rbdock.cxx#4 $)

>  <Rbt.Library>
libRbt.so (2013.1, Build901 2013/11/27)

>  <Rbt.Parameter_File>
/export/apps/rDock/src/rDock_2013.1_src/data/scripts/dock_solv.prm

>  <Rbt.Receptor>
prm/pocket_docking_4.prm

>  <SCORE>
-24.8913

>  <SCORE.INTER>
-21.987

>  <SCORE.INTER.CONST>
1

>  <SCORE.INTER.POLAR>
0

>  <SCORE.INTER.ROT>
8

>  <SCORE.INTER.SOLV>
17.8223

>  <SCORE.INTER.VDW>
-29.5321

>  <SCORE.INTER.norm>
-0.845654

>  <SCORE.INTRA>
-2.90426

>  <SCORE.INTRA.DIHEDRAL>
-2.97079

>  <SCORE.INTRA.DIHEDRAL.0>
9.09364

>  <SCORE.INTRA.POLAR>
0

>  <SCORE.INTRA.POLAR.0>
0

>  <SCORE.INTRA.REPUL>
0

>  <SCORE.INTRA.REPUL.0>
0

>  <SCORE.INTRA.SOLV>
-2.09973

>  <SCORE.INTRA.SOLV.lig_0>
-78.5846

>  <SCORE.INTRA.VDW>
-0.369005

>  <SCORE.INTRA.VDW.0>
-2.81163

>  <SCORE.INTRA.norm>
-0.111702

>  <SCORE.RESTR>
0

>  <SCORE.RESTR.CAVITY>
0

>  <SCORE.RESTR.norm>
0

>  <SCORE.SYSTEM>
0

>  <SCORE.SYSTEM.CONST>
0

>  <SCORE.SYSTEM.DIHEDRAL>
0

>  <SCORE.SYSTEM.SOLV>
0

>  <SCORE.SYSTEM.norm>
0

>  <SCORE.heavy>
26

>  <SCORE.norm>
-0.957356

>  <RMSD>
2.298

$$$$
ligand
 OpenBabel11021811463D
libRbt.so/2013.1/901 2013/11/27
 26 27  0  0  0  0  0  0  0  0999 V2000
  -12.8751  -37.8279    1.8933 C   0  0  0  0  0  0  0  0  0  0  0  0
   -6.7747  -39.3620    6.3162 C   0  0  0  0  0  0  0  0  0  0  0  0
   -4.5732  -41.1753    9.0184 P   0  0  1  0  0  0  0  0  0  0  0  0
   -3.5322  -43.2381   10.5030 P   0  0  2  0  0  0  0  0  0  0  0  0
   -7.5331  -39.3964    3.2870 C   0  0  0  0  0  0  0  0  0  0  0  0
   -9.3559  -39.0679    1.5832 C   0  0  0  0  0  0  0  0  0  0  0  0
   -8.9303  -38.9727    2.9117 C   0  0  0  0  0  0  0  0  0  0  0  0
   -9.8047  -38.5225    3.9046 C   0  0  0  0  0  0  0  0  0  0  0  0
   -9.4028  -38.4505    5.1561 N   0  0  0  0  0  0  0  0  0  0  0  0
  -11.0757  -38.1277    3.5645 N   0  0  0  0  0  0  0  0  0  0  0  0
  -11.4916  -38.2388    2.2526 C   0  0  0  0  0  0  0  0  0  0  0  0
  -10.6400  -38.6904    1.2619 N   0  0  0  0  0  0  0  0  0  0  0  0
   -5.8135  -40.3464    9.1562 O   0  5  0  0  0  0  0  0  0  0  0  0
   -3.4543  -44.0059    9.2435 O   0  0  0  0  0  0  0  0  0  0  0  0
   -8.0701  -42.7958    4.9565 S   0  0  0  0  0  0  0  0  0  0  0  0
   -8.0738  -41.7406    3.7780 C   0  0  0  0  0  0  0  0  0  0  0  0
   -3.2889  -40.4244    9.0095 O   0  0  0  0  0  0  0  0  0  0  0  0
   -3.8218  -44.0990   11.6655 O   0  5  0  0  0  0  0  0  0  0  0  0
   -7.6137  -40.5183    4.1810 N   0  0  0  0  0  0  0  0  0  0  0  0
   -4.7091  -42.2205   10.1992 O   0  0  0  0  0  0  0  0  0  0  0  0
   -2.3112  -42.4866   10.9244 O   0  0  0  0  0  0  0  0  0  0  0  0
   -7.2961  -40.5123    5.5101 C   0  0  1  0  0  0  0  0  0  0  0  0
   -7.5180  -41.7574    6.0427 C   0  0  2  0  0  0  0  0  0  0  0  0
   -7.3193  -42.2850    7.4419 C   0  0  0  0  0  0  0  0  0  0  0  0
   -5.9179  -42.8736    7.6401 C   0  0  0  0  0  0  0  0  0  0  0  0
   -4.8178  -41.9833    7.6862 O   0  0  0  0  0  0  0  0  0  0  0  0
  1 11  1  0  0  0  0
  3 13  1  1  0  0  0
  3 17  2  0  0  0  0
  3 20  1  0  0  0  0
  3 26  1  0  0  0  0
  4 14  1  6  0  0  0
  4 18  1  0  0  0  0
  4 21  2  0  0  0  0
  4 20  1  0  0  0  0
  5 19  1  0  0  0  0
  5  7  1  0  0  0  0
  6  7  2  0  0  0  0
  6 12  1  0  0  0  0
  7  8  1  0  0  0  0
  8  9  1  0  0  0  0
  8 10  2  0  0  0  0
 10 11  1  0  0  0  0
 11 12  2  0  0  0  0
 15 23  1  0  0  0  0
 15 16  1  0  0  0  0
 16 19  1  0  0  0  0
 19 22  1  0  0  0  0
 22  2  1  6  0  0  0
 22 23  1  0  0  0  0
 23 24  1  6  0  0  0
 24 25  1  0  0  0  0
 25 26  1  0  0  0  0
M  CHG  2  13  -1  18  -1
M  END
>  <CHROM.1>
-174.95406092,67.52137754,-116.03653099,-61.53450812,89.04583986,71.09272229
77.52015158,-62.09714703,-6.79208221,-41.01313718,6.55393042,-2.91798646
0.88307155,-2.95184545

>  <Name>
ligand

>  <RI>
0

>  <Rbt.Current_Directory>
/home/itssahil/PROJECTS/Mol_Feturizer/New_Systems/rnas/3D2G

>  <Rbt.Executable>
rbdock ($Id: //depot/dev/client3/rdock/2013.1/src/exe/rbdock.cxx#4 $)

>  <Rbt.Library>
libRbt.so (2013.1, Build901 2013/11/27)

>  <Rbt.Parameter_File>
/export/apps/rDock/src/rDock_2013.1_src/data/scripts/dock_solv.prm

>  <Rbt.Receptor>
prm/pocket_docking_3.prm

>  <SCORE>
-16.6474

>  <SCORE.INTER>
-15.5511

>  <SCORE.INTER.CONST>
1

>  <SCORE.INTER.POLAR>
0

>  <SCORE.INTER.ROT>
8

>  <SCORE.INTER.SOLV>
13.1456

>  <SCORE.INTER.VDW>
-23.6826

>  <SCORE.INTER.norm>
-0.598118

>  <SCORE.INTRA>
-1.09628

>  <SCORE.INTRA.DIHEDRAL>
-2.0505

>  <SCORE.INTRA.DIHEDRAL.0>
9.09364

>  <SCORE.INTRA.POLAR>
0

>  <SCORE.INTRA.POLAR.0>
0

>  <SCORE.INTRA.REPUL>
0

>  <SCORE.INTRA.REPUL.0>
0

>  <SCORE.INTRA.SOLV>
2.51963

>  <SCORE.INTRA.SOLV.lig_0>
-78.5846

>  <SCORE.INTRA.VDW>
-1.33085

>  <SCORE.INTRA.VDW.0>
-2.81163

>  <SCORE.INTRA.norm>
-0.0421647

>  <SCORE.RESTR>
0

>  <SCORE.RESTR.CAVITY>
0

>  <SCORE.RESTR.norm>
0

>  <SCORE.SYSTEM>
0

>  <SCORE.SYSTEM.CONST>
0

>  <SCORE.SYSTEM.DIHEDRAL>
0

>  <SCORE.SYSTEM.SOLV>
0

>  <SCORE.SYSTEM.norm>
0

>  <SCORE.heavy>
26

>  <SCORE.norm>
-0.640283

>  <RMSD>
2.318

$$$$
ligand
 OpenBabel11021811463D
libRbt.so/2013.1/901 2013/11/27
 26 27  0  0  0  0  0  0  0  0999 V2000
  -14.3266  -37.6875    1.8031 C   0  0  0  0  0  0  0  0  0  0  0  0
   -6.2939  -39.1984    4.9719 C   0  0  0  0  0  0  0  0  0  0  0  0
   -5.9606  -44.0175    8.8693 P   0  0  1  0  0  0  0  0  0  0  0  0
   -4.0661  -45.8111    9.7279 P   0  0  2  0  0  0  0  0  0  0  0  0
   -8.8752  -38.6969    3.2873 C   0  0  0  0  0  0  0  0  0  0  0  0
  -11.1613  -37.7785    3.8009 C   0  0  0  0  0  0  0  0  0  0  0  0
  -10.3120  -38.4412    2.9094 C   0  0  0  0  0  0  0  0  0  0  0  0
  -10.7751  -38.8360    1.6514 C   0  0  0  0  0  0  0  0  0  0  0  0
   -9.9660  -39.4452    0.8104 N   0  0  0  0  0  0  0  0  0  0  0  0
  -12.0860  -38.6121    1.3074 N   0  0  0  0  0  0  0  0  0  0  0  0
  -12.9132  -37.9443    2.1884 C   0  0  0  0  0  0  0  0  0  0  0  0
  -12.4661  -37.5407    3.4325 N   0  0  0  0  0  0  0  0  0  0  0  0
   -5.8598  -44.5103    7.4582 O   0  5  0  0  0  0  0  0  0  0  0  0
   -4.7038  -46.5370    8.6106 O   0  0  0  0  0  0  0  0  0  0  0  0
   -9.6513  -40.1854    6.7244 S   0  0  0  0  0  0  0  0  0  0  0  0
   -9.9712  -39.6056    5.2878 C   0  0  0  0  0  0  0  0  0  0  0  0
   -7.0793  -44.5785    9.6738 O   0  0  0  0  0  0  0  0  0  0  0  0
   -4.5163  -46.3035   11.0437 O   0  5  0  0  0  0  0  0  0  0  0  0
   -8.8367  -39.2559    4.6103 N   0  0  0  0  0  0  0  0  0  0  0  0
   -4.5214  -44.3172    9.4560 O   0  0  0  0  0  0  0  0  0  0  0  0
   -2.5763  -45.8751    9.8254 O   0  0  0  0  0  0  0  0  0  0  0  0
   -7.7151  -39.4689    5.3614 C   0  0  1  0  0  0  0  0  0  0  0  0
   -8.0684  -39.9961    6.5781 C   0  0  2  0  0  0  0  0  0  0  0  0
   -7.2256  -40.4206    7.7550 C   0  0  0  0  0  0  0  0  0  0  0  0
   -6.9735  -41.9326    7.7653 C   0  0  0  0  0  0  0  0  0  0  0  0
   -6.0509  -42.4515    8.7057 O   0  0  0  0  0  0  0  0  0  0  0  0
  1 11  1  0  0  0  0
  3 13  1  6  0  0  0
  3 17  2  0  0  0  0
  3 20  1  0  0  0  0
  3 26  1  0  0  0  0
  4 14  1  6  0  0  0
  4 18  1  0  0  0  0
  4 21  2  0  0  0  0
  4 20  1  0  0  0  0
  5 19  1  0  0  0  0
  5  7  1  0  0  0  0
  6  7  2  0  0  0  0
  6 12  1  0  0  0  0
  7  8  1  0  0  0  0
  8  9  1  0  0  0  0
  8 10  2  0  0  0  0
 10 11  1  0  0  0  0
 11 12  2  0  0  0  0
 15 23  1  0  0  0  0
 15 16  1  0  0  0  0
 16 19  1  0  0  0  0
 19 22  1  0  0  0  0
 22  2  1  6  0  0  0
 22 23  1  0  0  0  0
 23 24  1  6  0  0  0
 24 25  1  0  0  0  0
 25 26  1  0  0  0  0
M  CHG  2  13  -1  18  -1
M  END
>  <CHROM.1>
-70.48030367,6.45641827,48.12133137,35.82080037,81.50611799,171.60294345
170.58882594,48.33072115,-7.83632018,-41.58782398,6.38261474,2.27108933,0.48449312
-1.15206601

>  <Name>
ligand

>  <RI>
0

>  <Rbt.Current_Directory>
/home/itssahil/PROJECTS/Mol_Feturizer/New_Systems/rnas/3D2G

>  <Rbt.Executable>
rbdock ($Id: //depot/dev/client3/rdock/2013.1/src/exe/rbdock.cxx#4 $)

>  <Rbt.Library>
libRbt.so (2013.1, Build901 2013/11/27)

>  <Rbt.Parameter_File>
/export/apps/rDock/src/rDock_2013.1_src/data/scripts/dock_solv.prm

>  <Rbt.Receptor>
prm/pocket_docking_3.prm

>  <SCORE>
-14.7769

>  <SCORE.INTER>
-15.7143

>  <SCORE.INTER.CONST>
1

>  <SCORE.INTER.POLAR>
0

>  <SCORE.INTER.ROT>
8

>  <SCORE.INTER.SOLV>
26.2986

>  <SCORE.INTER.VDW>
-28.1757

>  <SCORE.INTER.norm>
-0.604395

>  <SCORE.INTRA>
0.752586

>  <SCORE.INTRA.DIHEDRAL>
-2.15021

>  <SCORE.INTRA.DIHEDRAL.0>
9.09364

>  <SCORE.INTRA.POLAR>
0

>  <SCORE.INTRA.POLAR.0>
0

>  <SCORE.INTRA.REPUL>
0

>  <SCORE.INTRA.REPUL.0>
0

>  <SCORE.INTRA.SOLV>
-2.37758

>  <SCORE.INTRA.SOLV.lig_0>
-78.5846

>  <SCORE.INTRA.VDW>
3.01648

>  <SCORE.INTRA.VDW.0>
-2.81163

>  <SCORE.INTRA.norm>
0.0289456

>  <SCORE.RESTR>
0.184782

>  <SCORE.RESTR.CAVITY>
0.184782

>  <SCORE.RESTR.norm>
0.00710702

>  <SCORE.SYSTEM>
0

>  <SCORE.SYSTEM.CONST>
0

>  <SCORE.SYSTEM.DIHEDRAL>
0

>  <SCORE.SYSTEM.SOLV>
0

>  <SCORE.SYSTEM.norm>
0

>  <SCORE.heavy>
26

>  <SCORE.norm>
-0.568343

>  <RMSD>
2.367

$$$$
ligand
 OpenBabel11021811463D
libRbt.so/2013.1/901 2013/11/27
 26 27  0  0  0  0  0  0  0  0999 V2000
  -11.5070  -38.2872    1.6829 C   0  0  0  0  0  0  0  0  0  0  0  0
   -5.9861  -42.5276    5.5202 C   0  0  0  0  0  0  0  0  0  0  0  0
   -4.4003  -44.1345    9.4356 P   0  0  1  0  0  0  0  0  0  0  0  0
   -2.1519  -42.7049   10.1020 P   0  0  2  0  0  0  0  0  0  0  0  0
   -6.8145  -39.6298    4.7025 C   0  0  0  0  0  0  0  0  0  0  0  0
   -9.1507  -38.7047    4.5626 C   0  0  0  0  0  0  0  0  0  0  0  0
   -8.0555  -39.2877    3.9180 C   0  0  0  0  0  0  0  0  0  0  0  0
   -8.0872  -39.5218    2.5405 C   0  0  0  0  0  0  0  0  0  0  0  0
   -7.0465  -40.0563    1.9369 N   0  0  0  0  0  0  0  0  0  0  0  0
   -9.2196  -39.2191    1.8244 N   0  0  0  0  0  0  0  0  0  0  0  0
  -10.2906  -38.6305    2.4669 C   0  0  0  0  0  0  0  0  0  0  0  0
  -10.2696  -38.3855    3.8271 N   0  0  0  0  0  0  0  0  0  0  0  0
   -3.9833  -43.9912    8.0038 O   0  5  0  0  0  0  0  0  0  0  0  0
   -1.0217  -43.0063   11.0039 O   0  0  0  0  0  0  0  0  0  0  0  0
   -8.2460  -40.6443    8.1015 S   0  0  0  0  0  0  0  0  0  0  0  0
   -7.9740  -39.6948    6.8659 C   0  0  0  0  0  0  0  0  0  0  0  0
   -5.1926  -45.3508    9.7617 O   0  0  0  0  0  0  0  0  0  0  0  0
   -2.8914  -41.4976   10.5165 O   0  5  0  0  0  0  0  0  0  0  0  0
   -7.2020  -40.2990    5.9134 N   0  0  0  0  0  0  0  0  0  0  0  0
   -3.0303  -44.0193   10.2199 O   0  0  0  0  0  0  0  0  0  0  0  0
   -1.8315  -42.4389    8.6668 O   0  0  0  0  0  0  0  0  0  0  0  0
   -6.8363  -41.5615    6.2873 C   0  0  1  0  0  0  0  0  0  0  0  0
   -7.3785  -41.8544    7.5134 C   0  0  2  0  0  0  0  0  0  0  0  0
   -7.2961  -43.1004    8.3598 C   0  0  0  0  0  0  0  0  0  0  0  0
   -6.6010  -42.8390    9.7007 C   0  0  0  0  0  0  0  0  0  0  0  0
   -5.1858  -42.7979    9.7248 O   0  0  0  0  0  0  0  0  0  0  0  0
  1 11  1  0  0  0  0
  3 13  1  6  0  0  0
  3 17  2  0  0  0  0
  3 20  1  0  0  0  0
  3 26  1  0  0  0  0
  4 14  1  1  0  0  0
  4 18  1  0  0  0  0
  4 21  2  0  0  0  0
  4 20  1  0  0  0  0
  5 19  1  0  0  0  0
  5  7  1  0  0  0  0
  6  7  2  0  0  0  0
  6 12  1  0  0  0  0
  7  8  1  0  0  0  0
  8  9  1  0  0  0  0
  8 10  2  0  0  0  0
 10 11  1  0  0  0  0
 11 12  2  0  0  0  0
 15 23  1  0  0  0  0
 15 16  1  0  0  0  0
 16 19  1  0  0  0  0
 19 22  1  0  0  0  0
 22  2  1  6  0  0  0
 22 23  1  0  0  0  0
 23 24  1  6  0  0  0
 24 25  1  0  0  0  0
 25 26  1  0  0  0  0
M  CHG  2  13  -1  18  -1
M  END
>  <CHROM.1>
60.21607697,-62.09452490,46.29848826,178.24166410,-63.31056439,-80.33477778
-67.19275459,100.42226602,-6.11456684,-41.56595285,7.12037227,2.23049408
0.10866229,-1.09196463

>  <Name>
ligand

>  <RI>
0

>  <Rbt.Current_Directory>
/home/itssahil/PROJECTS/Mol_Feturizer/New_Systems/rnas/3D2G

>  <Rbt.Executable>
rbdock ($Id: //depot/dev/client3/rdock/2013.1/src/exe/rbdock.cxx#4 $)

>  <Rbt.Library>
libRbt.so (2013.1, Build901 2013/11/27)

>  <Rbt.Parameter_File>
/export/apps/rDock/src/rDock_2013.1_src/data/scripts/dock_solv.prm

>  <Rbt.Receptor>
prm/pocket_docking_3.prm

>  <SCORE>
-13.4859

>  <SCORE.INTER>
-13.8482

>  <SCORE.INTER.CONST>
1

>  <SCORE.INTER.POLAR>
0

>  <SCORE.INTER.ROT>
8

>  <SCORE.INTER.SOLV>
6.9004

>  <SCORE.INTER.VDW>
-20.4656

>  <SCORE.INTER.norm>
-0.532623

>  <SCORE.INTRA>
0.362316

>  <SCORE.INTRA.DIHEDRAL>
-0.730644

>  <SCORE.INTRA.DIHEDRAL.0>
9.09364

>  <SCORE.INTRA.POLAR>
0

>  <SCORE.INTRA.POLAR.0>
0

>  <SCORE.INTRA.REPUL>
0

>  <SCORE.INTRA.REPUL.0>
0

>  <SCORE.INTRA.SOLV>
1.28016

>  <SCORE.INTRA.SOLV.lig_0>
-78.5846

>  <SCORE.INTRA.VDW>
0.0875565

>  <SCORE.INTRA.VDW.0>
-2.81163

>  <SCORE.INTRA.norm>
0.0139352

>  <SCORE.RESTR>
0

>  <SCORE.RESTR.CAVITY>
0

>  <SCORE.RESTR.norm>
0

>  <SCORE.SYSTEM>
0

>  <SCORE.SYSTEM.CONST>
0

>  <SCORE.SYSTEM.DIHEDRAL>
0

>  <SCORE.SYSTEM.SOLV>
0

>  <SCORE.SYSTEM.norm>
0

>  <SCORE.heavy>
26

>  <SCORE.norm>
-0.518688

>  <RMSD>
2.379

$$$$
ligand
 OpenBabel11021811463D
libRbt.so/2013.1/901 2013/11/27
 26 27  0  0  0  0  0  0  0  0999 V2000
  -13.5609  -37.6929    2.0612 C   0  0  0  0  0  0  0  0  0  0  0  0
   -5.9353  -38.6382    5.2037 C   0  0  0  0  0  0  0  0  0  0  0  0
   -5.1082  -43.0023    6.8853 P   0  0  1  0  0  0  0  0  0  0  0  0
   -3.3169  -41.6355    8.4557 P   0  0  2  0  0  0  0  0  0  0  0  0
   -8.1468  -39.2907    3.0975 C   0  0  0  0  0  0  0  0  0  0  0  0
  -10.3279  -38.2883    3.8534 C   0  0  0  0  0  0  0  0  0  0  0  0
   -9.5740  -38.8816    2.8362 C   0  0  0  0  0  0  0  0  0  0  0  0
  -10.1220  -39.0644    1.5636 C   0  0  0  0  0  0  0  0  0  0  0  0
   -9.4016  -39.6090    0.6058 N   0  0  0  0  0  0  0  0  0  0  0  0
  -11.4248  -38.7006    1.3247 N   0  0  0  0  0  0  0  0  0  0  0  0
  -12.1568  -38.1024    2.3311 C   0  0  0  0  0  0  0  0  0  0  0  0
  -11.6246  -37.9077    3.5918 N   0  0  0  0  0  0  0  0  0  0  0  0
   -5.4647  -42.8358    5.4397 O   0  5  0  0  0  0  0  0  0  0  0  0
   -3.0909  -40.1844    8.6137 O   0  0  0  0  0  0  0  0  0  0  0  0
   -8.6647  -41.1844    6.3804 S   0  0  0  0  0  0  0  0  0  0  0  0
   -8.9879  -40.7303    4.9000 C   0  0  0  0  0  0  0  0  0  0  0  0
   -4.4022  -44.2635    7.2381 O   0  0  0  0  0  0  0  0  0  0  0  0
   -2.0620  -42.3742    8.2191 O   0  5  0  0  0  0  0  0  0  0  0  0
   -8.0598  -39.8503    4.4180 N   0  0  0  0  0  0  0  0  0  0  0  0
   -4.2900  -41.6857    7.2053 O   0  0  0  0  0  0  0  0  0  0  0  0
   -3.9349  -42.3623    9.6059 O   0  0  0  0  0  0  0  0  0  0  0  0
   -7.1042  -39.5636    5.3519 C   0  0  1  0  0  0  0  0  0  0  0  0
   -7.3556  -40.2708    6.5007 C   0  0  2  0  0  0  0  0  0  0  0  0
   -6.6101  -40.3278    7.8109 C   0  0  0  0  0  0  0  0  0  0  0  0
   -6.6835  -41.7175    8.4536 C   0  0  0  0  0  0  0  0  0  0  0  0
   -6.4928  -42.8496    7.6249 O   0  0  0  0  0  0  0  0  0  0  0  0
  1 11  1  0  0  0  0
  3 13  1  6  0  0  0
  3 17  2  0  0  0  0
  3 20  1  0  0  0  0
  3 26  1  0  0  0  0
  4 14  1  1  0  0  0
  4 18  1  0  0  0  0
  4 21  2  0  0  0  0
  4 20  1  0  0  0  0
  5 19  1  0  0  0  0
  5  7  1  0  0  0  0
  6  7  2  0  0  0  0
  6 12  1  0  0  0  0
  7  8  1  0  0  0  0
  8  9  1  0  0  0  0
  8 10  2  0  0  0  0
 10 11  1  0  0  0  0
 11 12  2  0  0  0  0
 15 23  1  0  0  0  0
 15 16  1  0  0  0  0
 16 19  1  0  0  0  0
 19 22  1  0  0  0  0
 22  2  1  6  0  0  0
 22 23  1  0  0  0  0
 23 24  1  6  0  0  0
 24 25  1  0  0  0  0
 25 26  1  0  0  0  0
M  CHG  2  13  -1  18  -1
M  END
>  <CHROM.1>
-159.79681084,43.67463326,39.61731244,-164.05621501,33.29886514,43.87830789
61.30863224,-112.92775980,-7.08671147,-40.70235239,5.71712675,2.46879321
0.39345837,-1.45009773

>  <Name>
ligand

>  <RI>
0

>  <Rbt.Current_Directory>
/home/itssahil/PROJECTS/Mol_Feturizer/New_Systems/rnas/3D2G

>  <Rbt.Executable>
rbdock ($Id: //depot/dev/client3/rdock/2013.1/src/exe/rbdock.cxx#4 $)

>  <Rbt.Library>
libRbt.so (2013.1, Build901 2013/11/27)

>  <Rbt.Parameter_File>
/export/apps/rDock/src/rDock_2013.1_src/data/scripts/dock_solv.prm

>  <Rbt.Receptor>
prm/pocket_docking_2.prm

>  <SCORE>
-15.6975

>  <SCORE.INTER>
-18.8833

>  <SCORE.INTER.CONST>
1

>  <SCORE.INTER.POLAR>
0

>  <SCORE.INTER.ROT>
8

>  <SCORE.INTER.SOLV>
15.4964

>  <SCORE.INTER.VDW>
-26.6877

>  <SCORE.INTER.norm>
-0.726283

>  <SCORE.INTRA>
2.68653

>  <SCORE.INTRA.DIHEDRAL>
0.568644

>  <SCORE.INTRA.DIHEDRAL.0>
9.09364

>  <SCORE.INTRA.POLAR>
0

>  <SCORE.INTRA.POLAR.0>
0

>  <SCORE.INTRA.REPUL>
0

>  <SCORE.INTRA.REPUL.0>
0

>  <SCORE.INTRA.SOLV>
1.77073

>  <SCORE.INTRA.SOLV.lig_0>
-78.5846

>  <SCORE.INTRA.VDW>
1.51685

>  <SCORE.INTRA.VDW.0>
-2.81163

>  <SCORE.INTRA.norm>
0.103328

>  <SCORE.RESTR>
0.499343

>  <SCORE.RESTR.CAVITY>
0.499343

>  <SCORE.RESTR.norm>
0.0192055

>  <SCORE.SYSTEM>
0

>  <SCORE.SYSTEM.CONST>
0

>  <SCORE.SYSTEM.DIHEDRAL>
0

>  <SCORE.SYSTEM.SOLV>
0

>  <SCORE.SYSTEM.norm>
0

>  <SCORE.heavy>
26

>  <SCORE.norm>
-0.603749

>  <RMSD>
2.391

$$$$
ligand
 OpenBabel11021811463D
libRbt.so/2013.1/901 2013/11/27
 26 27  0  0  0  0  0  0  0  0999 V2000
  -13.4217  -37.8934    1.8266 C   0  0  0  0  0  0  0  0  0  0  0  0
   -7.7027  -42.1185    4.7652 C   0  0  0  0  0  0  0  0  0  0  0  0
   -4.1431  -42.8994    7.8751 P   0  0  1  0  0  0  0  0  0  0  0  0
   -3.7557  -40.5449    9.2350 P   0  0  2  0  0  0  0  0  0  0  0  0
   -8.1346  -39.2549    3.5966 C   0  0  0  0  0  0  0  0  0  0  0  0
  -10.4646  -38.4249    4.0609 C   0  0  0  0  0  0  0  0  0  0  0  0
   -9.5294  -38.9088    3.1410 C   0  0  0  0  0  0  0  0  0  0  0  0
   -9.8662  -39.0388    1.7910 C   0  0  0  0  0  0  0  0  0  0  0  0
   -8.9760  -39.4799    0.9272 N   0  0  0  0  0  0  0  0  0  0  0  0
  -11.1387  -38.7324    1.3742 N   0  0  0  0  0  0  0  0  0  0  0  0
  -12.0510  -38.2417    2.2870 C   0  0  0  0  0  0  0  0  0  0  0  0
  -11.7288  -38.1001    3.6237 N   0  0  0  0  0  0  0  0  0  0  0  0
   -3.1704  -42.4880    6.8125 O   0  5  0  0  0  0  0  0  0  0  0  0
   -3.9030  -40.1727    7.8132 O   0  0  0  0  0  0  0  0  0  0  0  0
   -8.3750  -39.3165    7.4137 S   0  0  0  0  0  0  0  0  0  0  0  0
   -8.3874  -38.6731    5.9686 C   0  0  0  0  0  0  0  0  0  0  0  0
   -4.3062  -44.3649    8.0728 O   0  0  0  0  0  0  0  0  0  0  0  0
   -2.5753  -39.9166    9.8579 O   0  5  0  0  0  0  0  0  0  0  0  0
   -8.1757  -39.6034    4.9899 N   0  0  0  0  0  0  0  0  0  0  0  0
   -3.6254  -42.1227    9.1533 O   0  0  0  0  0  0  0  0  0  0  0  0
   -4.8714  -40.1777   10.1589 O   0  0  0  0  0  0  0  0  0  0  0  0
   -7.9766  -40.8498    5.5136 C   0  0  1  0  0  0  0  0  0  0  0  0
   -8.0710  -40.7954    6.8816 C   0  0  2  0  0  0  0  0  0  0  0  0
   -7.9477  -41.8771    7.9258 C   0  0  0  0  0  0  0  0  0  0  0  0
   -6.5036  -42.0441    8.4121 C   0  0  0  0  0  0  0  0  0  0  0  0
   -5.4826  -42.1885    7.4417 O   0  0  0  0  0  0  0  0  0  0  0  0
  1 11  1  0  0  0  0
  3 13  1  6  0  0  0
  3 17  2  0  0  0  0
  3 20  1  0  0  0  0
  3 26  1  0  0  0  0
  4 14  1  6  0  0  0
  4 18  1  0  0  0  0
  4 21  2  0  0  0  0
  4 20  1  0  0  0  0
  5 19  1  0  0  0  0
  5  7  1  0  0  0  0
  6  7  2  0  0  0  0
  6 12  1  0  0  0  0
  7  8  1  0  0  0  0
  8  9  1  0  0  0  0
  8 10  2  0  0  0  0
 10 11  1  0  0  0  0
 11 12  2  0  0  0  0
 15 23  1  0  0  0  0
 15 16  1  0  0  0  0
 16 19  1  0  0  0  0
 19 22  1  0  0  0  0
 22  2  1  6  0  0  0
 22 23  1  0  0  0  0
 23 24  1  6  0  0  0
 24 25  1  0  0  0  0
 25 26  1  0  0  0  0
M  CHG  2  13  -1  18  -1
M  END
>  <CHROM.1>
69.35165157,-71.41116404,26.47294548,-20.47370704,-90.43974731,-50.49784774
-156.66735338,-162.09732719,-7.05764733,-40.46459584,6.22640395,2.78690968
0.70881248,-2.16078604

>  <Name>
ligand

>  <RI>
0

>  <Rbt.Current_Directory>
/home/itssahil/PROJECTS/Mol_Feturizer/New_Systems/rnas/3D2G

>  <Rbt.Executable>
rbdock ($Id: //depot/dev/client3/rdock/2013.1/src/exe/rbdock.cxx#4 $)

>  <Rbt.Library>
libRbt.so (2013.1, Build901 2013/11/27)

>  <Rbt.Parameter_File>
/export/apps/rDock/src/rDock_2013.1_src/data/scripts/dock_solv.prm

>  <Rbt.Receptor>
prm/pocket_docking_5.prm

>  <SCORE>
-16.5608

>  <SCORE.INTER>
-16.4713

>  <SCORE.INTER.CONST>
1

>  <SCORE.INTER.POLAR>
0

>  <SCORE.INTER.ROT>
8

>  <SCORE.INTER.SOLV>
17.6832

>  <SCORE.INTER.VDW>
-25.8086

>  <SCORE.INTER.norm>
-0.63351

>  <SCORE.INTRA>
-0.0895046

>  <SCORE.INTRA.DIHEDRAL>
0.957299

>  <SCORE.INTRA.DIHEDRAL.0>
9.09364

>  <SCORE.INTRA.POLAR>
0

>  <SCORE.INTRA.POLAR.0>
0

>  <SCORE.INTRA.REPUL>
0

>  <SCORE.INTRA.REPUL.0>
0

>  <SCORE.INTRA.SOLV>
-2.45982

>  <SCORE.INTRA.SOLV.lig_0>
-78.5846

>  <SCORE.INTRA.VDW>
0.661756

>  <SCORE.INTRA.VDW.0>
-2.81163

>  <SCORE.INTRA.norm>
-0.00344248

>  <SCORE.RESTR>
0

>  <SCORE.RESTR.CAVITY>
0

>  <SCORE.RESTR.norm>
0

>  <SCORE.SYSTEM>
0

>  <SCORE.SYSTEM.CONST>
0

>  <SCORE.SYSTEM.DIHEDRAL>
0

>  <SCORE.SYSTEM.SOLV>
0

>  <SCORE.SYSTEM.norm>
0

>  <SCORE.heavy>
26

>  <SCORE.norm>
-0.636953

>  <RMSD>
2.417

$$$$
ligand
 OpenBabel11021811463D
libRbt.so/2013.1/901 2013/11/27
 26 27  0  0  0  0  0  0  0  0999 V2000
  -13.9467  -37.7499    2.0115 C   0  0  0  0  0  0  0  0  0  0  0  0
   -7.9898  -42.0985    4.6956 C   0  0  0  0  0  0  0  0  0  0  0  0
   -5.6761  -43.9231    7.8104 P   0  0  1  0  0  0  0  0  0  0  0  0
   -6.8918  -45.8188    9.3825 P   0  0  2  0  0  0  0  0  0  0  0  0
   -8.6008  -39.3404    3.3644 C   0  0  0  0  0  0  0  0  0  0  0  0
  -10.9041  -38.5763    4.0309 C   0  0  0  0  0  0  0  0  0  0  0  0
  -10.0107  -38.9353    3.0171 C   0  0  0  0  0  0  0  0  0  0  0  0
  -10.4035  -38.8849    1.6768 C   0  0  0  0  0  0  0  0  0  0  0  0
   -9.5525  -39.2088    0.7261 N   0  0  0  0  0  0  0  0  0  0  0  0
  -11.6899  -38.5245    1.3575 N   0  0  0  0  0  0  0  0  0  0  0  0
  -12.5607  -38.1578    2.3644 C   0  0  0  0  0  0  0  0  0  0  0  0
  -12.1829  -38.1949    3.6935 N   0  0  0  0  0  0  0  0  0  0  0  0
   -4.4548  -44.5857    8.3707 O   0  5  0  0  0  0  0  0  0  0  0  0
   -8.1211  -46.6154    9.1921 O   0  0  0  0  0  0  0  0  0  0  0  0
   -8.5487  -39.1295    7.1834 S   0  0  0  0  0  0  0  0  0  0  0  0
   -8.6913  -38.5938    5.7018 C   0  0  0  0  0  0  0  0  0  0  0  0
   -5.5593  -43.4218    6.4146 O   0  0  0  0  0  0  0  0  0  0  0  0
   -6.9799  -44.9264   10.5539 O   0  5  0  0  0  0  0  0  0  0  0  0
   -8.5248  -39.5872    4.7779 N   0  0  0  0  0  0  0  0  0  0  0  0
   -6.8024  -45.0154    8.0188 O   0  0  0  0  0  0  0  0  0  0  0  0
   -5.6188  -46.5670    9.6121 O   0  0  0  0  0  0  0  0  0  0  0  0
   -8.2467  -40.7863    5.3714 C   0  0  1  0  0  0  0  0  0  0  0  0
   -8.2387  -40.6347    6.7352 C   0  0  2  0  0  0  0  0  0  0  0  0
   -8.0020  -41.6336    7.8406 C   0  0  0  0  0  0  0  0  0  0  0  0
   -6.5629  -41.5786    8.3659 C   0  0  0  0  0  0  0  0  0  0  0  0
   -5.9799  -42.7753    8.8485 O   0  0  0  0  0  0  0  0  0  0  0  0
  1 11  1  0  0  0  0
  3 13  1  1  0  0  0
  3 17  2  0  0  0  0
  3 20  1  0  0  0  0
  3 26  1  0  0  0  0
  4 14  1  6  0  0  0
  4 18  1  0  0  0  0
  4 21  2  0  0  0  0
  4 20  1  0  0  0  0
  5 19  1  0  0  0  0
  5  7  1  0  0  0  0
  6  7  2  0  0  0  0
  6 12  1  0  0  0  0
  7  8  1  0  0  0  0
  8  9  1  0  0  0  0
  8 10  2  0  0  0  0
 10 11  1  0  0  0  0
 11 12  2  0  0  0  0
 15 23  1  0  0  0  0
 15 16  1  0  0  0  0
 16 19  1  0  0  0  0
 19 22  1  0  0  0  0
 22  2  1  1  0  0  0
 22 23  1  0  0  0  0
 23 24  1  1  0  0  0
 24 25  1  0  0  0  0
 25 26  1  0  0  0  0
M  CHG  2  13  -1  18  -1
M  END
>  <CHROM.1>
43.23582351,-66.00832387,13.80318305,175.18631243,-81.98232435,-148.53257778
67.85034564,147.94283087,-8.20389131,-41.72578033,6.23839644,2.44203455,-0.90503275
-0.01101438

>  <Name>
ligand

>  <RI>
0

>  <Rbt.Current_Directory>
/home/itssahil/PROJECTS/Mol_Feturizer/New_Systems/rnas/3D2G

>  <Rbt.Executable>
rbdock ($Id: //depot/dev/client3/rdock/2013.1/src/exe/rbdock.cxx#4 $)

>  <Rbt.Library>
libRbt.so (2013.1, Build901 2013/11/27)

>  <Rbt.Parameter_File>
/export/apps/rDock/src/rDock_2013.1_src/data/scripts/dock_solv.prm

>  <Rbt.Receptor>
prm/pocket_docking_5.prm

>  <SCORE>
-20.8398

>  <SCORE.INTER>
-22.4372

>  <SCORE.INTER.CONST>
1

>  <SCORE.INTER.POLAR>
0

>  <SCORE.INTER.ROT>
8

>  <SCORE.INTER.SOLV>
20.3443

>  <SCORE.INTER.VDW>
-30.6729

>  <SCORE.INTER.norm>
-0.862969

>  <SCORE.INTRA>
1.59745

>  <SCORE.INTRA.DIHEDRAL>
1.07137

>  <SCORE.INTRA.DIHEDRAL.0>
9.09364

>  <SCORE.INTRA.POLAR>
0

>  <SCORE.INTRA.POLAR.0>
0

>  <SCORE.INTRA.REPUL>
0

>  <SCORE.INTRA.REPUL.0>
0

>  <SCORE.INTRA.SOLV>
1.34079

>  <SCORE.INTRA.SOLV.lig_0>
-78.5846

>  <SCORE.INTRA.VDW>
0.391369

>  <SCORE.INTRA.VDW.0>
-2.81163

>  <SCORE.INTRA.norm>
0.0614403

>  <SCORE.RESTR>
0

>  <SCORE.RESTR.CAVITY>
0

>  <SCORE.RESTR.norm>
0

>  <SCORE.SYSTEM>
0

>  <SCORE.SYSTEM.CONST>
0

>  <SCORE.SYSTEM.DIHEDRAL>
0

>  <SCORE.SYSTEM.SOLV>
0

>  <SCORE.SYSTEM.norm>
0

>  <SCORE.heavy>
26

>  <SCORE.norm>
-0.801529

>  <RMSD>
2.422

$$$$
ligand
 OpenBabel11021811463D
libRbt.so/2013.1/901 2013/11/27
 26 27  0  0  0  0  0  0  0  0999 V2000
  -13.1554  -37.8032    2.1059 C   0  0  0  0  0  0  0  0  0  0  0  0
   -8.5242  -41.2737    5.1251 C   0  0  0  0  0  0  0  0  0  0  0  0
   -3.5134  -41.5269    8.4314 P   0  0  1  0  0  0  0  0  0  0  0  0
   -1.3008  -40.2195    9.4000 P   0  0  2  0  0  0  0  0  0  0  0  0
   -7.6933  -39.4515    2.7290 C   0  0  0  0  0  0  0  0  0  0  0  0
   -9.8423  -38.5525    3.6811 C   0  0  0  0  0  0  0  0  0  0  0  0
   -9.1326  -39.0302    2.5753 C   0  0  0  0  0  0  0  0  0  0  0  0
   -9.7365  -39.0849    1.3162 C   0  0  0  0  0  0  0  0  0  0  0  0
   -9.0577  -39.5207    0.2758 N   0  0  0  0  0  0  0  0  0  0  0  0
  -11.0503  -38.7099    1.1744 N   0  0  0  0  0  0  0  0  0  0  0  0
  -11.7387  -38.2259    2.2691 C   0  0  0  0  0  0  0  0  0  0  0  0
  -11.1512  -38.1584    3.5184 N   0  0  0  0  0  0  0  0  0  0  0  0
   -2.7063  -42.2227    7.3784 O   0  5  0  0  0  0  0  0  0  0  0  0
   -1.6383  -40.8456   10.6945 O   0  0  0  0  0  0  0  0  0  0  0  0
   -6.1869  -38.2711    6.0409 S   0  0  0  0  0  0  0  0  0  0  0  0
   -6.4708  -38.2469    4.4849 C   0  0  0  0  0  0  0  0  0  0  0  0
   -3.7798  -42.3106    9.6677 O   0  0  0  0  0  0  0  0  0  0  0  0
   -0.7223  -38.8724    9.5645 O   0  5  0  0  0  0  0  0  0  0  0  0
   -7.2992  -39.2628    4.0977 N   0  0  0  0  0  0  0  0  0  0  0  0
   -2.7079  -40.1856    8.6707 O   0  0  0  0  0  0  0  0  0  0  0  0
   -0.3024  -40.9222    8.5382 O   0  0  0  0  0  0  0  0  0  0  0  0
   -7.6466  -40.0597    5.1521 C   0  0  1  0  0  0  0  0  0  0  0  0
   -7.0683  -39.5818    6.3012 C   0  0  2  0  0  0  0  0  0  0  0  0
   -7.1400  -40.0761    7.7247 C   0  0  0  0  0  0  0  0  0  0  0  0
   -5.7478  -40.2659    8.3375 C   0  0  0  0  0  0  0  0  0  0  0  0
   -4.8332  -41.1172    7.6715 O   0  0  0  0  0  0  0  0  0  0  0  0
  1 11  1  0  0  0  0
  3 13  1  6  0  0  0
  3 17  2  0  0  0  0
  3 20  1  0  0  0  0
  3 26  1  0  0  0  0
  4 14  1  1  0  0  0
  4 18  1  0  0  0  0
  4 21  2  0  0  0  0
  4 20  1  0  0  0  0
  5 19  1  0  0  0  0
  5  7  1  0  0  0  0
  6  7  2  0  0  0  0
  6 12  1  0  0  0  0
  7  8  1  0  0  0  0
  8  9  1  0  0  0  0
  8 10  2  0  0  0  0
 10 11  1  0  0  0  0
 11 12  2  0  0  0  0
 15 23  1  0  0  0  0
 15 16  1  0  0  0  0
 16 19  1  0  0  0  0
 19 22  1  0  0  0  0
 22  2  1  1  0  0  0
 22 23  1  0  0  0  0
 23 24  1  1  0  0  0
 24 25  1  0  0  0  0
 25 26  1  0  0  0  0
M  CHG  2  13  -1  18  -1
M  END
>  <CHROM.1>
-70.69627481,-106.53184307,-0.03303540,-57.95235790,-52.78065084,-56.16199847
-168.67309361,-171.27703318,-5.99990595,-39.85154512,6.09636145,2.43788459
-0.07488985,-1.19177002

>  <Name>
ligand

>  <RI>
0

>  <Rbt.Current_Directory>
/home/itssahil/PROJECTS/Mol_Feturizer/New_Systems/rnas/3D2G

>  <Rbt.Executable>
rbdock ($Id: //depot/dev/client3/rdock/2013.1/src/exe/rbdock.cxx#4 $)

>  <Rbt.Library>
libRbt.so (2013.1, Build901 2013/11/27)

>  <Rbt.Parameter_File>
/export/apps/rDock/src/rDock_2013.1_src/data/scripts/dock_solv.prm

>  <Rbt.Receptor>
prm/pocket_docking_7.prm

>  <SCORE>
-23.1488

>  <SCORE.INTER>
-20.4908

>  <SCORE.INTER.CONST>
1

>  <SCORE.INTER.POLAR>
0

>  <SCORE.INTER.ROT>
8

>  <SCORE.INTER.SOLV>
23.7412

>  <SCORE.INTER.VDW>
-30.5076

>  <SCORE.INTER.norm>
-0.788108

>  <SCORE.INTRA>
-2.65801

>  <SCORE.INTRA.DIHEDRAL>
-3.09472

>  <SCORE.INTRA.DIHEDRAL.0>
9.09364

>  <SCORE.INTRA.POLAR>
0

>  <SCORE.INTRA.POLAR.0>
0

>  <SCORE.INTRA.REPUL>
0

>  <SCORE.INTRA.REPUL.0>
0

>  <SCORE.INTRA.SOLV>
-2.50278

>  <SCORE.INTRA.SOLV.lig_0>
-78.5846

>  <SCORE.INTRA.VDW>
0.140743

>  <SCORE.INTRA.VDW.0>
-2.81163

>  <SCORE.INTRA.norm>
-0.102231

>  <SCORE.RESTR>
0

>  <SCORE.RESTR.CAVITY>
0

>  <SCORE.RESTR.norm>
0

>  <SCORE.SYSTEM>
0

>  <SCORE.SYSTEM.CONST>
0

>  <SCORE.SYSTEM.DIHEDRAL>
0

>  <SCORE.SYSTEM.SOLV>
0

>  <SCORE.SYSTEM.norm>
0

>  <SCORE.heavy>
26

>  <SCORE.norm>
-0.890339

>  <RMSD>
2.423

$$$$
ligand
 OpenBabel11021811463D
libRbt.so/2013.1/901 2013/11/27
 26 27  0  0  0  0  0  0  0  0999 V2000
  -13.5018  -37.7610    2.0403 C   0  0  0  0  0  0  0  0  0  0  0  0
   -9.2484  -40.5728    5.3638 C   0  0  0  0  0  0  0  0  0  0  0  0
   -6.4222  -43.0511    8.2937 P   0  0  1  0  0  0  0  0  0  0  0  0
   -3.9622  -42.7974    7.0991 P   0  0  2  0  0  0  0  0  0  0  0  0
   -8.0138  -39.2492    2.8189 C   0  0  0  0  0  0  0  0  0  0  0  0
  -10.1679  -38.2637    3.6685 C   0  0  0  0  0  0  0  0  0  0  0  0
   -9.4596  -38.8687    2.6258 C   0  0  0  0  0  0  0  0  0  0  0  0
  -10.0718  -39.0898    1.3891 C   0  0  0  0  0  0  0  0  0  0  0  0
   -9.3945  -39.6453    0.4063 N   0  0  0  0  0  0  0  0  0  0  0  0
  -11.3915  -38.7521    1.2126 N   0  0  0  0  0  0  0  0  0  0  0  0
  -12.0785  -38.1420    2.2432 C   0  0  0  0  0  0  0  0  0  0  0  0
  -11.4830  -37.9097    3.4688 N   0  0  0  0  0  0  0  0  0  0  0  0
   -7.0253  -43.5826    7.0295 O   0  5  0  0  0  0  0  0  0  0  0  0
   -3.8315  -41.4260    7.6320 O   0  0  0  0  0  0  0  0  0  0  0  0
   -6.4241  -37.9510    6.0469 S   0  0  0  0  0  0  0  0  0  0  0  0
   -6.6470  -38.0731    4.4855 C   0  0  0  0  0  0  0  0  0  0  0  0
   -7.0830  -43.4773    9.5567 O   0  0  0  0  0  0  0  0  0  0  0  0
   -4.5490  -42.8177    5.7457 O   0  5  0  0  0  0  0  0  0  0  0  0
   -7.6369  -38.9632    4.1756 N   0  0  0  0  0  0  0  0  0  0  0  0
   -4.9041  -43.4828    8.1742 O   0  0  0  0  0  0  0  0  0  0  0  0
   -2.7081  -43.5953    6.9447 O   0  0  0  0  0  0  0  0  0  0  0  0
   -8.1613  -39.5441    5.2958 C   0  0  1  0  0  0  0  0  0  0  0  0
   -7.5425  -39.0371    6.4108 C   0  0  2  0  0  0  0  0  0  0  0  0
   -7.7520  -39.3260    7.8765 C   0  0  0  0  0  0  0  0  0  0  0  0
   -7.7012  -40.8279    8.1789 C   0  0  0  0  0  0  0  0  0  0  0  0
   -6.4520  -41.4880    8.0859 O   0  0  0  0  0  0  0  0  0  0  0  0
  1 11  1  0  0  0  0
  3 13  1  6  0  0  0
  3 17  2  0  0  0  0
  3 20  1  0  0  0  0
  3 26  1  0  0  0  0
  4 14  1  1  0  0  0
  4 18  1  0  0  0  0
  4 21  2  0  0  0  0
  4 20  1  0  0  0  0
  5 19  1  0  0  0  0
  5  7  1  0  0  0  0
  6  7  2  0  0  0  0
  6 12  1  0  0  0  0
  7  8  1  0  0  0  0
  8  9  1  0  0  0  0
  8 10  2  0  0  0  0
 10 11  1  0  0  0  0
 11 12  2  0  0  0  0
 15 23  1  0  0  0  0
 15 16  1  0  0  0  0
 16 19  1  0  0  0  0
 19 22  1  0  0  0  0
 22  2  1  1  0  0  0
 22 23  1  0  0  0  0
 23 24  1  1  0  0  0
 24 25  1  0  0  0  0
 25 26  1  0  0  0  0
M  CHG  2  13  -1  18  -1
M  END
>  <CHROM.1>
69.61544227,-118.93219546,3.63011916,69.13720327,-128.72895782,70.37480269
-175.58760903,73.50061248,-7.44238544,-40.53990212,5.59662603,2.28702382
0.24808998,-1.10028350

>  <Name>
ligand

>  <RI>
0

>  <Rbt.Current_Directory>
/home/itssahil/PROJECTS/Mol_Feturizer/New_Systems/rnas/3D2G

>  <Rbt.Executable>
rbdock ($Id: //depot/dev/client3/rdock/2013.1/src/exe/rbdock.cxx#4 $)

>  <Rbt.Library>
libRbt.so (2013.1, Build901 2013/11/27)

>  <Rbt.Parameter_File>
/export/apps/rDock/src/rDock_2013.1_src/data/scripts/dock_solv.prm

>  <Rbt.Receptor>
prm/pocket_docking_3.prm

>  <SCORE>
-21.6979

>  <SCORE.INTER>
-19.5697

>  <SCORE.INTER.CONST>
1

>  <SCORE.INTER.POLAR>
0

>  <SCORE.INTER.ROT>
8

>  <SCORE.INTER.SOLV>
20.1013

>  <SCORE.INTER.VDW>
-28.6802

>  <SCORE.INTER.norm>
-0.752679

>  <SCORE.INTRA>
-2.12826

>  <SCORE.INTRA.DIHEDRAL>
-3.30086

>  <SCORE.INTRA.DIHEDRAL.0>
9.09364

>  <SCORE.INTRA.POLAR>
0

>  <SCORE.INTRA.POLAR.0>
0

>  <SCORE.INTRA.REPUL>
0

>  <SCORE.INTRA.REPUL.0>
0

>  <SCORE.INTRA.SOLV>
-2.33221

>  <SCORE.INTRA.SOLV.lig_0>
-78.5846

>  <SCORE.INTRA.VDW>
0.688276

>  <SCORE.INTRA.VDW.0>
-2.81163

>  <SCORE.INTRA.norm>
-0.0818562

>  <SCORE.RESTR>
0

>  <SCORE.RESTR.CAVITY>
0

>  <SCORE.RESTR.norm>
0

>  <SCORE.SYSTEM>
0

>  <SCORE.SYSTEM.CONST>
0

>  <SCORE.SYSTEM.DIHEDRAL>
0

>  <SCORE.SYSTEM.SOLV>
0

>  <SCORE.SYSTEM.norm>
0

>  <SCORE.heavy>
26

>  <SCORE.norm>
-0.834536

>  <RMSD>
2.425

$$$$
ligand
 OpenBabel11021811463D
libRbt.so/2013.1/901 2013/11/27
 26 27  0  0  0  0  0  0  0  0999 V2000
  -13.3977  -37.7836    2.3085 C   0  0  0  0  0  0  0  0  0  0  0  0
   -6.2643  -37.9427    4.7264 C   0  0  0  0  0  0  0  0  0  0  0  0
   -6.7153  -42.5394    9.0093 P   0  0  1  0  0  0  0  0  0  0  0  0
   -4.8182  -44.0719    7.7463 P   0  0  2  0  0  0  0  0  0  0  0  0
   -7.8774  -39.3475    2.4511 C   0  0  0  0  0  0  0  0  0  0  0  0
   -9.9923  -38.6326    3.6128 C   0  0  0  0  0  0  0  0  0  0  0  0
   -9.3312  -38.9497    2.4223 C   0  0  0  0  0  0  0  0  0  0  0  0
   -9.9987  -38.8638    1.1974 C   0  0  0  0  0  0  0  0  0  0  0  0
   -9.3659  -39.1482    0.0786 N   0  0  0  0  0  0  0  0  0  0  0  0
  -11.3256  -38.5099    1.1685 N   0  0  0  0  0  0  0  0  0  0  0  0
  -11.9660  -38.1847    2.3477 C   0  0  0  0  0  0  0  0  0  0  0  0
  -11.3158  -38.2571    3.5652 N   0  0  0  0  0  0  0  0  0  0  0  0
   -7.6102  -43.7318    9.1564 O   0  5  0  0  0  0  0  0  0  0  0  0
   -5.6640  -45.2249    8.1164 O   0  0  0  0  0  0  0  0  0  0  0  0
   -7.5563  -41.5396    5.5693 S   0  0  0  0  0  0  0  0  0  0  0  0
   -8.0132  -41.1585    4.1036 C   0  0  0  0  0  0  0  0  0  0  0  0
   -5.8977  -42.1909   10.2024 O   0  0  0  0  0  0  0  0  0  0  0  0
   -3.7350  -43.8377    8.7201 O   0  5  0  0  0  0  0  0  0  0  0  0
   -7.5783  -39.9158    3.7364 N   0  0  0  0  0  0  0  0  0  0  0  0
   -5.8688  -42.8852    7.7174 O   0  0  0  0  0  0  0  0  0  0  0  0
   -4.0988  -44.1413    6.4383 O   0  0  0  0  0  0  0  0  0  0  0  0
   -6.8840  -39.3067    4.7435 C   0  0  1  0  0  0  0  0  0  0  0  0
   -6.8136  -40.1452    5.8276 C   0  0  2  0  0  0  0  0  0  0  0  0
   -6.1586  -39.9680    7.1749 C   0  0  0  0  0  0  0  0  0  0  0  0
   -7.1632  -40.1058    8.3245 C   0  0  0  0  0  0  0  0  0  0  0  0
   -7.7061  -41.3863    8.5897 O   0  0  0  0  0  0  0  0  0  0  0  0
  1 11  1  0  0  0  0
  3 13  1  1  0  0  0
  3 17  2  0  0  0  0
  3 20  1  0  0  0  0
  3 26  1  0  0  0  0
  4 14  1  1  0  0  0
  4 18  1  0  0  0  0
  4 21  2  0  0  0  0
  4 20  1  0  0  0  0
  5 19  1  0  0  0  0
  5  7  1  0  0  0  0
  6  7  2  0  0  0  0
  6 12  1  0  0  0  0
  7  8  1  0  0  0  0
  8  9  1  0  0  0  0
  8 10  2  0  0  0  0
 10 11  1  0  0  0  0
 11 12  2  0  0  0  0
 15 23  1  0  0  0  0
 15 16  1  0  0  0  0
 16 19  1  0  0  0  0
 19 22  1  0  0  0  0
 22  2  1  6  0  0  0
 22 23  1  0  0  0  0
 23 24  1  6  0  0  0
 24 25  1  0  0  0  0
 25 26  1  0  0  0  0
M  CHG  2  13  -1  18  -1
M  END
>  <CHROM.1>
-68.00735136,73.01474986,26.40823651,58.18154263,-58.82077050,69.75180492
61.68492693,-178.02469576,-7.53811084,-41.05336025,5.76004008,2.24829435
0.56797534,-1.32640471

>  <Name>
ligand

>  <RI>
0

>  <Rbt.Current_Directory>
/home/itssahil/PROJECTS/Mol_Feturizer/New_Systems/rnas/3D2G

>  <Rbt.Executable>
rbdock ($Id: //depot/dev/client3/rdock/2013.1/src/exe/rbdock.cxx#4 $)

>  <Rbt.Library>
libRbt.so (2013.1, Build901 2013/11/27)

>  <Rbt.Parameter_File>
/export/apps/rDock/src/rDock_2013.1_src/data/scripts/dock_solv.prm

>  <Rbt.Receptor>
prm/pocket_docking_3.prm

>  <SCORE>
-22.4214

>  <SCORE.INTER>
-19.1374

>  <SCORE.INTER.CONST>
1

>  <SCORE.INTER.POLAR>
0

>  <SCORE.INTER.ROT>
8

>  <SCORE.INTER.SOLV>
19.9075

>  <SCORE.INTER.VDW>
-28.3274

>  <SCORE.INTER.norm>
-0.736055

>  <SCORE.INTRA>
-3.29411

>  <SCORE.INTRA.DIHEDRAL>
-3.57604

>  <SCORE.INTRA.DIHEDRAL.0>
9.09364

>  <SCORE.INTRA.POLAR>
0

>  <SCORE.INTRA.POLAR.0>
0

>  <SCORE.INTRA.REPUL>
0

>  <SCORE.INTRA.REPUL.0>
0

>  <SCORE.INTRA.SOLV>
-1.46933

>  <SCORE.INTRA.SOLV.lig_0>
-78.5846

>  <SCORE.INTRA.VDW>
-0.771418

>  <SCORE.INTRA.VDW.0>
-2.81163

>  <SCORE.INTRA.norm>
-0.126696

>  <SCORE.RESTR>
0.0101679

>  <SCORE.RESTR.CAVITY>
0.0101679

>  <SCORE.RESTR.norm>
0.000391074

>  <SCORE.SYSTEM>
0

>  <SCORE.SYSTEM.CONST>
0

>  <SCORE.SYSTEM.DIHEDRAL>
0

>  <SCORE.SYSTEM.SOLV>
0

>  <SCORE.SYSTEM.norm>
0

>  <SCORE.heavy>
26

>  <SCORE.norm>
-0.86236

>  <RMSD>
2.436

$$$$
ligand
 OpenBabel11021811463D
libRbt.so/2013.1/901 2013/11/27
 26 27  0  0  0  0  0  0  0  0999 V2000
  -13.4152  -37.8046    2.0039 C   0  0  0  0  0  0  0  0  0  0  0  0
   -6.5391  -38.6973    5.5364 C   0  0  0  0  0  0  0  0  0  0  0  0
   -5.2836  -42.2661    9.8442 P   0  0  1  0  0  0  0  0  0  0  0  0
   -5.0715  -44.9732   10.2560 P   0  0  2  0  0  0  0  0  0  0  0  0
   -7.9138  -39.2408    2.7855 C   0  0  0  0  0  0  0  0  0  0  0  0
   -9.9291  -38.9760    1.3016 C   0  0  0  0  0  0  0  0  0  0  0  0
   -9.3543  -38.8519    2.5701 C   0  0  0  0  0  0  0  0  0  0  0  0
  -10.1172  -38.4049    3.6524 C   0  0  0  0  0  0  0  0  0  0  0  0
   -9.5743  -38.3055    4.8475 N   0  0  0  0  0  0  0  0  0  0  0  0
  -11.4275  -38.0416    3.4577 N   0  0  0  0  0  0  0  0  0  0  0  0
  -11.9905  -38.1812    2.2047 C   0  0  0  0  0  0  0  0  0  0  0  0
  -11.2500  -38.6301    1.1274 N   0  0  0  0  0  0  0  0  0  0  0  0
   -6.7660  -42.4410    9.9715 O   0  5  0  0  0  0  0  0  0  0  0  0
   -6.5333  -45.0036   10.4657 O   0  0  0  0  0  0  0  0  0  0  0  0
   -8.2025  -42.2206    5.1665 S   0  0  0  0  0  0  0  0  0  0  0  0
   -8.4173  -41.4064    3.8273 C   0  0  0  0  0  0  0  0  0  0  0  0
   -4.7492  -40.9403   10.2567 O   0  0  0  0  0  0  0  0  0  0  0  0
   -4.3675  -45.9734   11.0808 O   0  5  0  0  0  0  0  0  0  0  0  0
   -7.8431  -40.1672    3.8815 N   0  0  0  0  0  0  0  0  0  0  0  0
   -4.7076  -43.4870   10.6705 O   0  0  0  0  0  0  0  0  0  0  0  0
   -4.5712  -45.2491    8.8752 O   0  0  0  0  0  0  0  0  0  0  0  0
   -7.2550  -39.9366    5.0932 C   0  0  1  0  0  0  0  0  0  0  0  0
   -7.4018  -41.0409    5.8945 C   0  0  2  0  0  0  0  0  0  0  0  0
   -6.9330  -41.3113    7.3026 C   0  0  0  0  0  0  0  0  0  0  0  0
   -5.4412  -41.6599    7.3543 C   0  0  0  0  0  0  0  0  0  0  0  0
   -5.0045  -42.5920    8.3266 O   0  0  0  0  0  0  0  0  0  0  0  0
  1 11  1  0  0  0  0
  3 13  1  1  0  0  0
  3 17  2  0  0  0  0
  3 20  1  0  0  0  0
  3 26  1  0  0  0  0
  4 14  1  1  0  0  0
  4 18  1  0  0  0  0
  4 21  2  0  0  0  0
  4 20  1  0  0  0  0
  5 19  1  0  0  0  0
  5  7  1  0  0  0  0
  6  7  2  0  0  0  0
  6 12  1  0  0  0  0
  7  8  1  0  0  0  0
  8  9  1  0  0  0  0
  8 10  2  0  0  0  0
 10 11  1  0  0  0  0
 11 12  2  0  0  0  0
 15 23  1  0  0  0  0
 15 16  1  0  0  0  0
 16 19  1  0  0  0  0
 19 22  1  0  0  0  0
 22  2  1  6  0  0  0
 22 23  1  0  0  0  0
 23 24  1  6  0  0  0
 24 25  1  0  0  0  0
 25 26  1  0  0  0  0
M  CHG  2  13  -1  18  -1
M  END
>  <CHROM.1>
59.45047915,64.45427599,-127.04325479,-63.62143383,101.60028023,-146.04385752
-58.25019296,71.00125417,-7.39100912,-41.38277128,6.55540744,2.45195968,-0.84835452
-0.21369954

>  <Name>
ligand

>  <RI>
0

>  <Rbt.Current_Directory>
/home/itssahil/PROJECTS/Mol_Feturizer/New_Systems/rnas/3D2G

>  <Rbt.Executable>
rbdock ($Id: //depot/dev/client3/rdock/2013.1/src/exe/rbdock.cxx#4 $)

>  <Rbt.Library>
libRbt.so (2013.1, Build901 2013/11/27)

>  <Rbt.Parameter_File>
/export/apps/rDock/src/rDock_2013.1_src/data/scripts/dock_solv.prm

>  <Rbt.Receptor>
prm/pocket_docking_3.prm

>  <SCORE>
-16.273

>  <SCORE.INTER>
-17.3188

>  <SCORE.INTER.CONST>
1

>  <SCORE.INTER.POLAR>
0

>  <SCORE.INTER.ROT>
8

>  <SCORE.INTER.SOLV>
13.5626

>  <SCORE.INTER.VDW>
-25.0001

>  <SCORE.INTER.norm>
-0.666109

>  <SCORE.INTRA>
1.04581

>  <SCORE.INTRA.DIHEDRAL>
-0.893635

>  <SCORE.INTRA.DIHEDRAL.0>
9.09364

>  <SCORE.INTRA.POLAR>
0

>  <SCORE.INTRA.POLAR.0>
0

>  <SCORE.INTRA.REPUL>
0

>  <SCORE.INTRA.REPUL.0>
0

>  <SCORE.INTRA.SOLV>
3.04128

>  <SCORE.INTRA.SOLV.lig_0>
-78.5846

>  <SCORE.INTRA.VDW>
-0.0280079

>  <SCORE.INTRA.VDW.0>
-2.81163

>  <SCORE.INTRA.norm>
0.0402236

>  <SCORE.RESTR>
0

>  <SCORE.RESTR.CAVITY>
0

>  <SCORE.RESTR.norm>
0

>  <SCORE.SYSTEM>
0

>  <SCORE.SYSTEM.CONST>
0

>  <SCORE.SYSTEM.DIHEDRAL>
0

>  <SCORE.SYSTEM.SOLV>
0

>  <SCORE.SYSTEM.norm>
0

>  <SCORE.heavy>
26

>  <SCORE.norm>
-0.625886

>  <RMSD>
2.450

$$$$
ligand
 OpenBabel11021811463D
libRbt.so/2013.1/901 2013/11/27
 26 27  0  0  0  0  0  0  0  0999 V2000
  -12.0062  -38.0126    1.8843 C   0  0  0  0  0  0  0  0  0  0  0  0
   -6.4131  -42.4898    5.3338 C   0  0  0  0  0  0  0  0  0  0  0  0
   -4.0263  -42.8172   10.1346 P   0  0  1  0  0  0  0  0  0  0  0  0
   -2.3182  -42.1629    8.0860 P   0  0  2  0  0  0  0  0  0  0  0  0
   -7.1593  -39.5637    4.5378 C   0  0  0  0  0  0  0  0  0  0  0  0
   -9.4055  -38.4289    4.5455 C   0  0  0  0  0  0  0  0  0  0  0  0
   -8.4408  -39.1652    3.8511 C   0  0  0  0  0  0  0  0  0  0  0  0
   -8.6385  -39.5033    2.5096 C   0  0  0  0  0  0  0  0  0  0  0  0
   -7.7191  -40.1829    1.8569 N   0  0  0  0  0  0  0  0  0  0  0  0
   -9.8087  -39.1492    1.8836 N   0  0  0  0  0  0  0  0  0  0  0  0
  -10.7492  -38.4099    2.5730 C   0  0  0  0  0  0  0  0  0  0  0  0
  -10.5630  -38.0613    3.8975 N   0  0  0  0  0  0  0  0  0  0  0  0
   -3.6929  -44.2661    9.9504 O   0  5  0  0  0  0  0  0  0  0  0  0
   -3.4374  -41.4552    7.4315 O   0  0  0  0  0  0  0  0  0  0  0  0
   -8.3608  -40.4623    8.0564 S   0  0  0  0  0  0  0  0  0  0  0  0
   -8.1424  -39.5431    6.7877 C   0  0  0  0  0  0  0  0  0  0  0  0
   -4.4512  -42.4185   11.5036 O   0  0  0  0  0  0  0  0  0  0  0  0
   -2.1844  -43.5543    7.6143 O   0  5  0  0  0  0  0  0  0  0  0  0
   -7.4807  -40.1974    5.7866 N   0  0  0  0  0  0  0  0  0  0  0  0
   -2.7239  -42.0822    9.6163 O   0  0  0  0  0  0  0  0  0  0  0  0
   -0.9469  -41.5999    7.8969 O   0  0  0  0  0  0  0  0  0  0  0  0
   -7.1495  -41.4723    6.1505 C   0  0  1  0  0  0  0  0  0  0  0  0
   -7.6050  -41.7222    7.4207 C   0  0  2  0  0  0  0  0  0  0  0  0
   -7.5169  -42.9603    8.2779 C   0  0  0  0  0  0  0  0  0  0  0  0
   -6.4874  -42.8077    9.4033 C   0  0  0  0  0  0  0  0  0  0  0  0
   -5.1399  -42.5557    9.0488 O   0  0  0  0  0  0  0  0  0  0  0  0
  1 11  1  0  0  0  0
  3 13  1  1  0  0  0
  3 17  2  0  0  0  0
  3 20  1  0  0  0  0
  3 26  1  0  0  0  0
  4 14  1  6  0  0  0
  4 18  1  0  0  0  0
  4 21  2  0  0  0  0
  4 20  1  0  0  0  0
  5 19  1  0  0  0  0
  5  7  1  0  0  0  0
  6  7  2  0  0  0  0
  6 12  1  0  0  0  0
  7  8  1  0  0  0  0
  8  9  1  0  0  0  0
  8 10  2  0  0  0  0
 10 11  1  0  0  0  0
 11 12  2  0  0  0  0
 15 23  1  0  0  0  0
 15 16  1  0  0  0  0
 16 19  1  0  0  0  0
 19 22  1  0  0  0  0
 22  2  1  6  0  0  0
 22 23  1  0  0  0  0
 23 24  1  6  0  0  0
 24 25  1  0  0  0  0
 25 26  1  0  0  0  0
M  CHG  2  13  -1  18  -1
M  END
>  <CHROM.1>
66.29238810,-61.95141991,51.12451885,64.69393616,-74.56405715,-59.87487471
-162.29313309,87.40331465,-6.26413792,-41.15596733,6.80503499,2.33514628
0.23913743,-1.23991272

>  <Name>
ligand

>  <RI>
0

>  <Rbt.Current_Directory>
/home/itssahil/PROJECTS/Mol_Feturizer/New_Systems/rnas/3D2G

>  <Rbt.Executable>
rbdock ($Id: //depot/dev/client3/rdock/2013.1/src/exe/rbdock.cxx#4 $)

>  <Rbt.Library>
libRbt.so (2013.1, Build901 2013/11/27)

>  <Rbt.Parameter_File>
/export/apps/rDock/src/rDock_2013.1_src/data/scripts/dock_solv.prm

>  <Rbt.Receptor>
prm/pocket_docking_3.prm

>  <SCORE>
-14.9447

>  <SCORE.INTER>
-12.6015

>  <SCORE.INTER.CONST>
1

>  <SCORE.INTER.POLAR>
0

>  <SCORE.INTER.ROT>
8

>  <SCORE.INTER.SOLV>
9.41536

>  <SCORE.INTER.VDW>
-20.4728

>  <SCORE.INTER.norm>
-0.484671

>  <SCORE.INTRA>
-2.34329

>  <SCORE.INTRA.DIHEDRAL>
-1.54794

>  <SCORE.INTRA.DIHEDRAL.0>
9.09364

>  <SCORE.INTRA.POLAR>
0

>  <SCORE.INTRA.POLAR.0>
0

>  <SCORE.INTRA.REPUL>
0

>  <SCORE.INTRA.REPUL.0>
0

>  <SCORE.INTRA.SOLV>
-2.41363

>  <SCORE.INTRA.SOLV.lig_0>
-78.5846

>  <SCORE.INTRA.VDW>
-0.362502

>  <SCORE.INTRA.VDW.0>
-2.81163

>  <SCORE.INTRA.norm>
-0.0901265

>  <SCORE.RESTR>
0

>  <SCORE.RESTR.CAVITY>
0

>  <SCORE.RESTR.norm>
0

>  <SCORE.SYSTEM>
0

>  <SCORE.SYSTEM.CONST>
0

>  <SCORE.SYSTEM.DIHEDRAL>
0

>  <SCORE.SYSTEM.SOLV>
0

>  <SCORE.SYSTEM.norm>
0

>  <SCORE.heavy>
26

>  <SCORE.norm>
-0.574798

>  <RMSD>
2.453

$$$$
ligand
 OpenBabel11021811463D
libRbt.so/2013.1/901 2013/11/27
 26 27  0  0  0  0  0  0  0  0999 V2000
  -13.8885  -37.7032    1.7982 C   0  0  0  0  0  0  0  0  0  0  0  0
   -6.6229  -37.8188    5.3787 C   0  0  0  0  0  0  0  0  0  0  0  0
   -5.3635  -42.1535    8.7142 P   0  0  1  0  0  0  0  0  0  0  0  0
   -2.8436  -42.3298    9.7920 P   0  0  2  0  0  0  0  0  0  0  0  0
   -8.6055  -39.2416    3.4299 C   0  0  0  0  0  0  0  0  0  0  0  0
  -10.9041  -38.3650    3.9602 C   0  0  0  0  0  0  0  0  0  0  0  0
   -9.9993  -38.8491    3.0105 C   0  0  0  0  0  0  0  0  0  0  0  0
  -10.3649  -38.9366    1.6645 C   0  0  0  0  0  0  0  0  0  0  0  0
   -9.5029  -39.3781    0.7728 N   0  0  0  0  0  0  0  0  0  0  0  0
  -11.6368  -38.5879    1.2805 N   0  0  0  0  0  0  0  0  0  0  0  0
  -12.5187  -38.0974    2.2229 C   0  0  0  0  0  0  0  0  0  0  0  0
  -12.1676  -37.9976    3.5560 N   0  0  0  0  0  0  0  0  0  0  0  0
   -4.7211  -41.8373    7.3982 O   0  5  0  0  0  0  0  0  0  0  0  0
   -2.2568  -41.8465    8.5256 O   0  0  0  0  0  0  0  0  0  0  0  0
   -9.2303  -40.1881    7.0831 S   0  0  0  0  0  0  0  0  0  0  0  0
   -9.4710  -40.1971    5.5197 C   0  0  0  0  0  0  0  0  0  0  0  0
   -5.8070  -43.5617    8.8977 O   0  0  0  0  0  0  0  0  0  0  0  0
   -2.9049  -43.8025    9.8535 O   0  5  0  0  0  0  0  0  0  0  0  0
   -8.5790  -39.4006    4.8577 N   0  0  0  0  0  0  0  0  0  0  0  0
   -4.2837  -41.6678    9.7646 O   0  0  0  0  0  0  0  0  0  0  0  0
   -2.1417  -41.9594   11.0582 O   0  0  0  0  0  0  0  0  0  0  0  0
   -7.7245  -38.7747    5.7212 C   0  0  1  0  0  0  0  0  0  0  0  0
   -8.0095  -39.1553    7.0085 C   0  0  2  0  0  0  0  0  0  0  0  0
   -7.3667  -38.7734    8.3186 C   0  0  0  0  0  0  0  0  0  0  0  0
   -6.2464  -39.7426    8.7128 C   0  0  0  0  0  0  0  0  0  0  0  0
   -6.5537  -41.1221    8.7989 O   0  0  0  0  0  0  0  0  0  0  0  0
  1 11  1  0  0  0  0
  3 13  1  6  0  0  0
  3 17  2  0  0  0  0
  3 20  1  0  0  0  0
  3 26  1  0  0  0  0
  4 14  1  6  0  0  0
  4 18  1  0  0  0  0
  4 21  2  0  0  0  0
  4 20  1  0  0  0  0
  5 19  1  0  0  0  0
  5  7  1  0  0  0  0
  6  7  2  0  0  0  0
  6 12  1  0  0  0  0
  7  8  1  0  0  0  0
  8  9  1  0  0  0  0
  8 10  2  0  0  0  0
 10 11  1  0  0  0  0
 11 12  2  0  0  0  0
 15 23  1  0  0  0  0
 15 16  1  0  0  0  0
 16 19  1  0  0  0  0
 19 22  1  0  0  0  0
 22  2  1  6  0  0  0
 22 23  1  0  0  0  0
 23 24  1  6  0  0  0
 24 25  1  0  0  0  0
 25 26  1  0  0  0  0
M  CHG  2  13  -1  18  -1
M  END
>  <CHROM.1>
-61.65325271,52.35927391,16.65387536,68.99728684,87.89780428,-55.42054988
159.58743681,-57.48161635,-7.27828722,-40.34035038,6.50349827,2.41825522
0.38812792,-1.47632517

>  <Name>
ligand

>  <RI>
0

>  <Rbt.Current_Directory>
/home/itssahil/PROJECTS/Mol_Feturizer/New_Systems/rnas/3D2G

>  <Rbt.Executable>
rbdock ($Id: //depot/dev/client3/rdock/2013.1/src/exe/rbdock.cxx#4 $)

>  <Rbt.Library>
libRbt.so (2013.1, Build901 2013/11/27)

>  <Rbt.Parameter_File>
/export/apps/rDock/src/rDock_2013.1_src/data/scripts/dock_solv.prm

>  <Rbt.Receptor>
prm/pocket_docking_3.prm

>  <SCORE>
-21.9443

>  <SCORE.INTER>
-20.138

>  <SCORE.INTER.CONST>
1

>  <SCORE.INTER.POLAR>
0

>  <SCORE.INTER.ROT>
8

>  <SCORE.INTER.SOLV>
17.6699

>  <SCORE.INTER.VDW>
-28.2486

>  <SCORE.INTER.norm>
-0.774537

>  <SCORE.INTRA>
-1.8063

>  <SCORE.INTRA.DIHEDRAL>
-2.01138

>  <SCORE.INTRA.DIHEDRAL.0>
9.09364

>  <SCORE.INTRA.POLAR>
0

>  <SCORE.INTRA.POLAR.0>
0

>  <SCORE.INTRA.REPUL>
0

>  <SCORE.INTRA.REPUL.0>
0

>  <SCORE.INTRA.SOLV>
-2.04725

>  <SCORE.INTRA.SOLV.lig_0>
-78.5846

>  <SCORE.INTRA.VDW>
0.223016

>  <SCORE.INTRA.VDW.0>
-2.81163

>  <SCORE.INTRA.norm>
-0.069473

>  <SCORE.RESTR>
0

>  <SCORE.RESTR.CAVITY>
0

>  <SCORE.RESTR.norm>
0

>  <SCORE.SYSTEM>
0

>  <SCORE.SYSTEM.CONST>
0

>  <SCORE.SYSTEM.DIHEDRAL>
0

>  <SCORE.SYSTEM.SOLV>
0

>  <SCORE.SYSTEM.norm>
0

>  <SCORE.heavy>
26

>  <SCORE.norm>
-0.84401

>  <RMSD>
2.459

$$$$
ligand
 OpenBabel11021811463D
libRbt.so/2013.1/901 2013/11/27
 26 27  0  0  0  0  0  0  0  0999 V2000
  -13.2426  -37.6413    2.1542 C   0  0  0  0  0  0  0  0  0  0  0  0
   -8.5456  -40.6380    5.6953 C   0  0  0  0  0  0  0  0  0  0  0  0
   -4.1274  -41.6640    8.3368 P   0  0  1  0  0  0  0  0  0  0  0  0
   -3.5469  -40.6080   10.8047 P   0  0  2  0  0  0  0  0  0  0  0  0
   -7.8586  -39.4958    2.8711 C   0  0  0  0  0  0  0  0  0  0  0  0
  -10.0101  -38.5750    3.7967 C   0  0  0  0  0  0  0  0  0  0  0  0
   -9.2781  -39.0207    2.6920 C   0  0  0  0  0  0  0  0  0  0  0  0
   -9.8401  -38.9936    1.4128 C   0  0  0  0  0  0  0  0  0  0  0  0
   -9.1400  -39.3996    0.3745 N   0  0  0  0  0  0  0  0  0  0  0  0
  -11.1361  -38.5694    1.2474 N   0  0  0  0  0  0  0  0  0  0  0  0
  -11.8461  -38.1176    2.3420 C   0  0  0  0  0  0  0  0  0  0  0  0
  -11.2997  -38.1309    3.6116 N   0  0  0  0  0  0  0  0  0  0  0  0
   -2.6801  -41.3754    8.0790 O   0  5  0  0  0  0  0  0  0  0  0  0
   -4.4096  -39.4476   10.5030 O   0  0  0  0  0  0  0  0  0  0  0  0
   -6.0753  -37.6025    5.6759 S   0  0  0  0  0  0  0  0  0  0  0  0
   -6.4771  -37.9491    4.1857 C   0  0  0  0  0  0  0  0  0  0  0  0
   -4.6872  -42.8503    7.6348 O   0  0  0  0  0  0  0  0  0  0  0  0
   -2.1356  -40.3618   10.4527 O   0  5  0  0  0  0  0  0  0  0  0  0
   -7.3563  -38.9936    4.1201 N   0  0  0  0  0  0  0  0  0  0  0  0
   -4.1995  -41.7468    9.9157 O   0  0  0  0  0  0  0  0  0  0  0  0
   -3.4754  -41.0573   12.2281 O   0  0  0  0  0  0  0  0  0  0  0  0
   -7.6403  -39.4922    5.3603 C   0  0  1  0  0  0  0  0  0  0  0  0
   -6.9645  -38.7715    6.3127 C   0  0  2  0  0  0  0  0  0  0  0  0
   -6.9382  -38.8979    7.8156 C   0  0  0  0  0  0  0  0  0  0  0  0
   -6.2138  -40.1692    8.2726 C   0  0  0  0  0  0  0  0  0  0  0  0
   -4.8472  -40.3198    7.9340 O   0  0  0  0  0  0  0  0  0  0  0  0
  1 11  1  0  0  0  0
  3 13  1  6  0  0  0
  3 17  2  0  0  0  0
  3 20  1  0  0  0  0
  3 26  1  0  0  0  0
  4 14  1  6  0  0  0
  4 18  1  0  0  0  0
  4 21  2  0  0  0  0
  4 20  1  0  0  0  0
  5 19  1  0  0  0  0
  5  7  1  0  0  0  0
  6  7  2  0  0  0  0
  6 12  1  0  0  0  0
  7  8  1  0  0  0  0
  8  9  1  0  0  0  0
  8 10  2  0  0  0  0
 10 11  1  0  0  0  0
 11 12  2  0  0  0  0
 15 23  1  0  0  0  0
 15 16  1  0  0  0  0
 16 19  1  0  0  0  0
 19 22  1  0  0  0  0
 22  2  1  1  0  0  0
 22 23  1  0  0  0  0
 23 24  1  1  0  0  0
 24 25  1  0  0  0  0
 25 26  1  0  0  0  0
M  CHG  2  13  -1  18  -1
M  END
>  <CHROM.1>
48.92946805,-104.35740632,-18.82250051,67.48300982,-110.76237304,61.50241294
-176.68462235,-169.36474254,-6.61882203,-39.72321371,6.38663515,2.45733328
0.58758655,-1.86031561

>  <Name>
ligand

>  <RI>
0

>  <Rbt.Current_Directory>
/home/itssahil/PROJECTS/Mol_Feturizer/New_Systems/rnas/3D2G

>  <Rbt.Executable>
rbdock ($Id: //depot/dev/client3/rdock/2013.1/src/exe/rbdock.cxx#4 $)

>  <Rbt.Library>
libRbt.so (2013.1, Build901 2013/11/27)

>  <Rbt.Parameter_File>
/export/apps/rDock/src/rDock_2013.1_src/data/scripts/dock_solv.prm

>  <Rbt.Receptor>
prm/pocket_docking_4.prm

>  <SCORE>
-24.7312

>  <SCORE.INTER>
-21.0609

>  <SCORE.INTER.CONST>
1

>  <SCORE.INTER.POLAR>
0

>  <SCORE.INTER.ROT>
8

>  <SCORE.INTER.SOLV>
19.3862

>  <SCORE.INTER.VDW>
-29.436

>  <SCORE.INTER.norm>
-0.810033

>  <SCORE.INTRA>
-3.67032

>  <SCORE.INTRA.DIHEDRAL>
-4.01083

>  <SCORE.INTRA.DIHEDRAL.0>
9.09364

>  <SCORE.INTRA.POLAR>
0

>  <SCORE.INTRA.POLAR.0>
0

>  <SCORE.INTRA.REPUL>
0

>  <SCORE.INTRA.REPUL.0>
0

>  <SCORE.INTRA.SOLV>
-2.76405

>  <SCORE.INTRA.SOLV.lig_0>
-78.5846

>  <SCORE.INTRA.VDW>
-0.28288

>  <SCORE.INTRA.VDW.0>
-2.81163

>  <SCORE.INTRA.norm>
-0.141166

>  <SCORE.RESTR>
0

>  <SCORE.RESTR.CAVITY>
0

>  <SCORE.RESTR.norm>
0

>  <SCORE.SYSTEM>
0

>  <SCORE.SYSTEM.CONST>
0

>  <SCORE.SYSTEM.DIHEDRAL>
0

>  <SCORE.SYSTEM.SOLV>
0

>  <SCORE.SYSTEM.norm>
0

>  <SCORE.heavy>
26

>  <SCORE.norm>
-0.951199

>  <RMSD>
2.469

$$$$
ligand
 OpenBabel11021811463D
libRbt.so/2013.1/901 2013/11/27
 26 27  0  0  0  0  0  0  0  0999 V2000
  -13.9720  -37.7706    2.0014 C   0  0  0  0  0  0  0  0  0  0  0  0
   -7.7094  -42.0627    4.2728 C   0  0  0  0  0  0  0  0  0  0  0  0
   -5.8684  -43.3985    9.6426 P   0  0  1  0  0  0  0  0  0  0  0  0
   -4.2526  -41.8329   11.2177 P   0  0  2  0  0  0  0  0  0  0  0  0
   -8.5748  -39.2219    3.3067 C   0  0  0  0  0  0  0  0  0  0  0  0
  -10.8717  -38.4509    3.9873 C   0  0  0  0  0  0  0  0  0  0  0  0
   -9.9978  -38.8530    2.9726 C   0  0  0  0  0  0  0  0  0  0  0  0
  -10.4229  -38.8792    1.6415 C   0  0  0  0  0  0  0  0  0  0  0  0
   -9.5904  -39.2434    0.6889 N   0  0  0  0  0  0  0  0  0  0  0  0
  -11.7212  -38.5519    1.3349 N   0  0  0  0  0  0  0  0  0  0  0  0
  -12.5727  -38.1423    2.3417 C   0  0  0  0  0  0  0  0  0  0  0  0
  -12.1631  -38.1035    3.6613 N   0  0  0  0  0  0  0  0  0  0  0  0
   -5.3622  -44.7076   10.1666 O   0  5  0  0  0  0  0  0  0  0  0  0
   -2.8671  -41.3663   11.0069 O   0  0  0  0  0  0  0  0  0  0  0  0
   -8.6707  -39.5512    7.1164 S   0  0  0  0  0  0  0  0  0  0  0  0
   -8.8226  -38.8283    5.7176 C   0  0  0  0  0  0  0  0  0  0  0  0
   -7.1146  -42.8858   10.2732 O   0  0  0  0  0  0  0  0  0  0  0  0
   -4.3475  -42.8323   12.2988 O   0  5  0  0  0  0  0  0  0  0  0  0
   -8.5184  -39.6577    4.6746 N   0  0  0  0  0  0  0  0  0  0  0  0
   -4.6169  -42.4425    9.8004 O   0  0  0  0  0  0  0  0  0  0  0  0
   -5.2698  -40.8083   11.6031 O   0  0  0  0  0  0  0  0  0  0  0  0
   -8.1303  -40.8936    5.1099 C   0  0  1  0  0  0  0  0  0  0  0  0
   -8.1833  -40.9372    6.4805 C   0  0  2  0  0  0  0  0  0  0  0  0
   -7.8748  -42.0529    7.4478 C   0  0  0  0  0  0  0  0  0  0  0  0
   -6.4459  -42.5814    7.2782 C   0  0  0  0  0  0  0  0  0  0  0  0
   -6.0292  -43.6599    8.0956 O   0  0  0  0  0  0  0  0  0  0  0  0
  1 11  1  0  0  0  0
  3 13  1  1  0  0  0
  3 17  2  0  0  0  0
  3 20  1  0  0  0  0
  3 26  1  0  0  0  0
  4 14  1  6  0  0  0
  4 18  1  0  0  0  0
  4 21  2  0  0  0  0
  4 20  1  0  0  0  0
  5 19  1  0  0  0  0
  5  7  1  0  0  0  0
  6  7  2  0  0  0  0
  6 12  1  0  0  0  0
  7  8  1  0  0  0  0
  8  9  1  0  0  0  0
  8 10  2  0  0  0  0
 10 11  1  0  0  0  0
 11 12  2  0  0  0  0
 15 23  1  0  0  0  0
 15 16  1  0  0  0  0
 16 19  1  0  0  0  0
 19 22  1  0  0  0  0
 22  2  1  6  0  0  0
 22 23  1  0  0  0  0
 23 24  1  6  0  0  0
 24 25  1  0  0  0  0
 25 26  1  0  0  0  0
M  CHG  2  13  -1  18  -1
M  END
>  <CHROM.1>
-78.49720827,-63.15117978,25.50356569,164.14405563,-123.57479191,-178.17408279
-67.86528165,-177.34438430,-7.71114442,-40.89895017,6.88058206,2.69082788
0.88455279,-2.12770498

>  <Name>
ligand

>  <RI>
0

>  <Rbt.Current_Directory>
/home/itssahil/PROJECTS/Mol_Feturizer/New_Systems/rnas/3D2G

>  <Rbt.Executable>
rbdock ($Id: //depot/dev/client3/rdock/2013.1/src/exe/rbdock.cxx#4 $)

>  <Rbt.Library>
libRbt.so (2013.1, Build901 2013/11/27)

>  <Rbt.Parameter_File>
/export/apps/rDock/src/rDock_2013.1_src/data/scripts/dock_solv.prm

>  <Rbt.Receptor>
prm/pocket_docking_4.prm

>  <SCORE>
-18.3125

>  <SCORE.INTER>
-17.4154

>  <SCORE.INTER.CONST>
1

>  <SCORE.INTER.POLAR>
0

>  <SCORE.INTER.ROT>
8

>  <SCORE.INTER.SOLV>
19.6951

>  <SCORE.INTER.VDW>
-27.1087

>  <SCORE.INTER.norm>
-0.669824

>  <SCORE.INTRA>
-0.897118

>  <SCORE.INTRA.DIHEDRAL>
-3.63099

>  <SCORE.INTRA.DIHEDRAL.0>
9.09364

>  <SCORE.INTRA.POLAR>
0

>  <SCORE.INTRA.POLAR.0>
0

>  <SCORE.INTRA.REPUL>
0

>  <SCORE.INTRA.REPUL.0>
0

>  <SCORE.INTRA.SOLV>
0.130445

>  <SCORE.INTRA.SOLV.lig_0>
-78.5846

>  <SCORE.INTRA.VDW>
0.853154

>  <SCORE.INTRA.VDW.0>
-2.81163

>  <SCORE.INTRA.norm>
-0.0345046

>  <SCORE.RESTR>
0

>  <SCORE.RESTR.CAVITY>
0

>  <SCORE.RESTR.norm>
0

>  <SCORE.SYSTEM>
0

>  <SCORE.SYSTEM.CONST>
0

>  <SCORE.SYSTEM.DIHEDRAL>
0

>  <SCORE.SYSTEM.SOLV>
0

>  <SCORE.SYSTEM.norm>
0

>  <SCORE.heavy>
26

>  <SCORE.norm>
-0.704328

>  <RMSD>
2.477

$$$$
ligand
 OpenBabel11021811463D
libRbt.so/2013.1/901 2013/11/27
 26 27  0  0  0  0  0  0  0  0999 V2000
  -13.5248  -37.7779    1.9652 C   0  0  0  0  0  0  0  0  0  0  0  0
   -6.0658  -41.6191    3.0621 C   0  0  0  0  0  0  0  0  0  0  0  0
   -5.5222  -44.0201    9.4035 P   0  0  1  0  0  0  0  0  0  0  0  0
   -3.9427  -46.2171    8.9332 P   0  0  2  0  0  0  0  0  0  0  0  0
   -8.0508  -39.2123    2.9231 C   0  0  0  0  0  0  0  0  0  0  0  0
  -10.1052  -39.2199    1.4696 C   0  0  0  0  0  0  0  0  0  0  0  0
   -9.4841  -38.8267    2.6589 C   0  0  0  0  0  0  0  0  0  0  0  0
  -10.1947  -38.1094    3.6251 C   0  0  0  0  0  0  0  0  0  0  0  0
   -9.6087  -37.7561    4.7498 N   0  0  0  0  0  0  0  0  0  0  0  0
  -11.4981  -37.7492    3.3838 N   0  0  0  0  0  0  0  0  0  0  0  0
  -12.1074  -38.1543    2.2129 C   0  0  0  0  0  0  0  0  0  0  0  0
  -11.4190  -38.8714    1.2524 N   0  0  0  0  0  0  0  0  0  0  0  0
   -6.4694  -44.8983   10.1625 O   0  5  0  0  0  0  0  0  0  0  0  0
   -2.5265  -46.4991    9.2442 O   0  0  0  0  0  0  0  0  0  0  0  0
   -8.6296  -41.3949    6.0107 S   0  0  0  0  0  0  0  0  0  0  0  0
   -8.8765  -40.1863    5.0204 C   0  0  0  0  0  0  0  0  0  0  0  0
   -5.4915  -42.5909    9.8155 O   0  0  0  0  0  0  0  0  0  0  0  0
   -4.2126  -46.2438    7.4831 O   0  5  0  0  0  0  0  0  0  0  0  0
   -8.0230  -40.2136    3.9532 N   0  0  0  0  0  0  0  0  0  0  0  0
   -4.1379  -44.7723    9.5556 O   0  0  0  0  0  0  0  0  0  0  0  0
   -4.9665  -47.1506    9.4932 O   0  0  0  0  0  0  0  0  0  0  0  0
   -7.1522  -41.2639    4.0308 C   0  0  1  0  0  0  0  0  0  0  0  0
   -7.4135  -41.9968    5.1612 C   0  0  2  0  0  0  0  0  0  0  0  0
   -6.7627  -43.2447    5.7040 C   0  0  0  0  0  0  0  0  0  0  0  0
   -6.2762  -43.0583    7.1456 C   0  0  0  0  0  0  0  0  0  0  0  0
   -5.9649  -44.2139    7.9023 O   0  0  0  0  0  0  0  0  0  0  0  0
  1 11  1  0  0  0  0
  3 13  1  1  0  0  0
  3 17  2  0  0  0  0
  3 20  1  0  0  0  0
  3 26  1  0  0  0  0
  4 14  1  1  0  0  0
  4 18  1  0  0  0  0
  4 21  2  0  0  0  0
  4 20  1  0  0  0  0
  5 19  1  0  0  0  0
  5  7  1  0  0  0  0
  6  7  2  0  0  0  0
  6 12  1  0  0  0  0
  7  8  1  0  0  0  0
  8  9  1  0  0  0  0
  8 10  2  0  0  0  0
 10 11  1  0  0  0  0
 11 12  2  0  0  0  0
 15 23  1  0  0  0  0
 15 16  1  0  0  0  0
 16 19  1  0  0  0  0
 19 22  1  0  0  0  0
 22  2  1  6  0  0  0
 22 23  1  0  0  0  0
 23 24  1  6  0  0  0
 24 25  1  0  0  0  0
 25 26  1  0  0  0  0
M  CHG  2  13  -1  18  -1
M  END
>  <CHROM.1>
63.85066512,-37.63264754,-108.58862531,177.31789635,-55.33616830,163.96748089
-177.51078758,125.68492483,-7.29969772,-42.17398362,6.10440023,2.38573147
0.72130634,-1.35993693

>  <Name>
ligand

>  <RI>
0

>  <Rbt.Current_Directory>
/home/itssahil/PROJECTS/Mol_Feturizer/New_Systems/rnas/3D2G

>  <Rbt.Executable>
rbdock ($Id: //depot/dev/client3/rdock/2013.1/src/exe/rbdock.cxx#4 $)

>  <Rbt.Library>
libRbt.so (2013.1, Build901 2013/11/27)

>  <Rbt.Parameter_File>
/export/apps/rDock/src/rDock_2013.1_src/data/scripts/dock_solv.prm

>  <Rbt.Receptor>
prm/pocket_docking_3.prm

>  <SCORE>
-12.2328

>  <SCORE.INTER>
-14.514

>  <SCORE.INTER.CONST>
1

>  <SCORE.INTER.POLAR>
0

>  <SCORE.INTER.ROT>
8

>  <SCORE.INTER.SOLV>
14.693

>  <SCORE.INTER.VDW>
-23.507

>  <SCORE.INTER.norm>
-0.558229

>  <SCORE.INTRA>
2.28119

>  <SCORE.INTRA.DIHEDRAL>
-0.54342

>  <SCORE.INTRA.DIHEDRAL.0>
9.09364

>  <SCORE.INTRA.POLAR>
0

>  <SCORE.INTRA.POLAR.0>
0

>  <SCORE.INTRA.REPUL>
0

>  <SCORE.INTRA.REPUL.0>
0

>  <SCORE.INTRA.SOLV>
1.33253

>  <SCORE.INTRA.SOLV.lig_0>
-78.5846

>  <SCORE.INTRA.VDW>
1.88663

>  <SCORE.INTRA.VDW.0>
-2.81163

>  <SCORE.INTRA.norm>
0.087738

>  <SCORE.RESTR>
0

>  <SCORE.RESTR.CAVITY>
0

>  <SCORE.RESTR.norm>
0

>  <SCORE.SYSTEM>
0

>  <SCORE.SYSTEM.CONST>
0

>  <SCORE.SYSTEM.DIHEDRAL>
0

>  <SCORE.SYSTEM.SOLV>
0

>  <SCORE.SYSTEM.norm>
0

>  <SCORE.heavy>
26

>  <SCORE.norm>
-0.470491

>  <RMSD>
2.519

$$$$
ligand
 OpenBabel11021811463D
libRbt.so/2013.1/901 2013/11/27
 26 27  0  0  0  0  0  0  0  0999 V2000
  -12.4727  -37.8648    1.8592 C   0  0  0  0  0  0  0  0  0  0  0  0
   -6.9167  -39.6845    7.1929 C   0  0  0  0  0  0  0  0  0  0  0  0
   -3.8012  -44.0907    7.5218 P   0  0  1  0  0  0  0  0  0  0  0  0
   -1.4745  -42.6518    7.2785 P   0  0  2  0  0  0  0  0  0  0  0  0
   -7.4088  -39.3280    4.1296 C   0  0  0  0  0  0  0  0  0  0  0  0
   -9.6819  -38.2656    4.3228 C   0  0  0  0  0  0  0  0  0  0  0  0
   -8.7463  -38.9532    3.5439 C   0  0  0  0  0  0  0  0  0  0  0  0
   -9.0266  -39.2634    2.2103 C   0  0  0  0  0  0  0  0  0  0  0  0
   -8.1350  -39.8967    1.4776 N   0  0  0  0  0  0  0  0  0  0  0  0
  -10.2476  -38.9308    1.6762 N   0  0  0  0  0  0  0  0  0  0  0  0
  -11.1595  -38.2393    2.4486 C   0  0  0  0  0  0  0  0  0  0  0  0
  -10.8921  -37.9186    3.7663 N   0  0  0  0  0  0  0  0  0  0  0  0
   -4.3087  -45.1855    6.6340 O   0  5  0  0  0  0  0  0  0  0  0  0
   -0.7896  -42.0742    6.1042 O   0  0  0  0  0  0  0  0  0  0  0  0
   -8.0424  -42.9162    5.2939 S   0  0  0  0  0  0  0  0  0  0  0  0
   -7.9582  -41.7173    4.2653 C   0  0  0  0  0  0  0  0  0  0  0  0
   -3.2932  -44.5183    8.8532 O   0  0  0  0  0  0  0  0  0  0  0  0
   -0.6162  -43.5972    8.0173 O   0  5  0  0  0  0  0  0  0  0  0  0
   -7.5515  -40.5564    4.8612 N   0  0  0  0  0  0  0  0  0  0  0  0
   -2.7250  -43.3657    6.6155 O   0  0  0  0  0  0  0  0  0  0  0  0
   -1.9370  -41.7040    8.3373 O   0  0  0  0  0  0  0  0  0  0  0  0
   -7.3505  -40.7219    6.2027 C   0  0  1  0  0  0  0  0  0  0  0  0
   -7.6008  -42.0259    6.5489 C   0  0  2  0  0  0  0  0  0  0  0  0
   -7.5172  -42.7299    7.8805 C   0  0  0  0  0  0  0  0  0  0  0  0
   -6.2889  -43.6423    7.9717 C   0  0  0  0  0  0  0  0  0  0  0  0
   -5.0266  -43.1031    7.6239 O   0  0  0  0  0  0  0  0  0  0  0  0
  1 11  1  0  0  0  0
  3 13  1  6  0  0  0
  3 17  2  0  0  0  0
  3 20  1  0  0  0  0
  3 26  1  0  0  0  0
  4 14  1  6  0  0  0
  4 18  1  0  0  0  0
  4 21  2  0  0  0  0
  4 20  1  0  0  0  0
  5 19  1  0  0  0  0
  5  7  1  0  0  0  0
  6  7  2  0  0  0  0
  6 12  1  0  0  0  0
  7  8  1  0  0  0  0
  8  9  1  0  0  0  0
  8 10  2  0  0  0  0
 10 11  1  0  0  0  0
 11 12  2  0  0  0  0
 15 23  1  0  0  0  0
 15 16  1  0  0  0  0
 16 19  1  0  0  0  0
 19 22  1  0  0  0  0
 22  2  1  6  0  0  0
 22 23  1  0  0  0  0
 23 24  1  6  0  0  0
 24 25  1  0  0  0  0
 25 26  1  0  0  0  0
M  CHG  2  13  -1  18  -1
M  END
>  <CHROM.1>
-150.20311317,60.49932227,83.64845868,-177.58414211,73.80906304,50.24592134
-171.52928983,50.66642110,-6.13076495,-41.61300323,5.73644829,-2.44194470
0.08709422,2.44269381

>  <Name>
ligand

>  <RI>
0

>  <Rbt.Current_Directory>
/home/itssahil/PROJECTS/Mol_Feturizer/New_Systems/rnas/3D2G

>  <Rbt.Executable>
rbdock ($Id: //depot/dev/client3/rdock/2013.1/src/exe/rbdock.cxx#4 $)

>  <Rbt.Library>
libRbt.so (2013.1, Build901 2013/11/27)

>  <Rbt.Parameter_File>
/export/apps/rDock/src/rDock_2013.1_src/data/scripts/dock_solv.prm

>  <Rbt.Receptor>
prm/pocket_docking_3.prm

>  <SCORE>
-12.8107

>  <SCORE.INTER>
-11.1857

>  <SCORE.INTER.CONST>
1

>  <SCORE.INTER.POLAR>
0

>  <SCORE.INTER.ROT>
8

>  <SCORE.INTER.SOLV>
11.2934

>  <SCORE.INTER.VDW>
-20.155

>  <SCORE.INTER.norm>
-0.430221

>  <SCORE.INTRA>
-1.73536

>  <SCORE.INTRA.DIHEDRAL>
-1.28365

>  <SCORE.INTRA.DIHEDRAL.0>
9.09364

>  <SCORE.INTRA.POLAR>
0

>  <SCORE.INTRA.POLAR.0>
0

>  <SCORE.INTRA.REPUL>
0

>  <SCORE.INTRA.REPUL.0>
0

>  <SCORE.INTRA.SOLV>
-0.379116

>  <SCORE.INTRA.SOLV.lig_0>
-78.5846

>  <SCORE.INTRA.VDW>
-0.903978

>  <SCORE.INTRA.VDW.0>
-2.81163

>  <SCORE.INTRA.norm>
-0.0667446

>  <SCORE.RESTR>
0.110389

>  <SCORE.RESTR.CAVITY>
0.110389

>  <SCORE.RESTR.norm>
0.00424574

>  <SCORE.SYSTEM>
0

>  <SCORE.SYSTEM.CONST>
0

>  <SCORE.SYSTEM.DIHEDRAL>
0

>  <SCORE.SYSTEM.SOLV>
0

>  <SCORE.SYSTEM.norm>
0

>  <SCORE.heavy>
26

>  <SCORE.norm>
-0.49272

>  <RMSD>
2.524

$$$$
ligand
 OpenBabel11021811463D
libRbt.so/2013.1/901 2013/11/27
 26 27  0  0  0  0  0  0  0  0999 V2000
  -13.2999  -37.7950    1.9368 C   0  0  0  0  0  0  0  0  0  0  0  0
   -6.7005  -38.3464    5.8497 C   0  0  0  0  0  0  0  0  0  0  0  0
   -6.8376  -43.8865   10.2944 P   0  0  1  0  0  0  0  0  0  0  0  0
   -4.1124  -44.1474   10.5139 P   0  0  2  0  0  0  0  0  0  0  0  0
   -7.8920  -39.3045    3.1267 C   0  0  0  0  0  0  0  0  0  0  0  0
  -10.1336  -38.4092    3.8385 C   0  0  0  0  0  0  0  0  0  0  0  0
   -9.3177  -38.9194    2.8242 C   0  0  0  0  0  0  0  0  0  0  0  0
   -9.8027  -39.0400    1.5190 C   0  0  0  0  0  0  0  0  0  0  0  0
   -9.0243  -39.5061    0.5651 N   0  0  0  0  0  0  0  0  0  0  0  0
  -11.1038  -38.6980    1.2419 N   0  0  0  0  0  0  0  0  0  0  0  0
  -11.8975  -38.1817    2.2468 C   0  0  0  0  0  0  0  0  0  0  0  0
  -11.4282  -38.0490    3.5401 N   0  0  0  0  0  0  0  0  0  0  0  0
   -7.8575  -44.5458    9.4171 O   0  5  0  0  0  0  0  0  0  0  0  0
   -3.1557  -45.0555    9.8491 O   0  0  0  0  0  0  0  0  0  0  0  0
   -8.2568  -41.9373    5.8775 S   0  0  0  0  0  0  0  0  0  0  0  0
   -8.4082  -41.3215    4.4283 C   0  0  0  0  0  0  0  0  0  0  0  0
   -7.0625  -44.0142   11.7595 O   0  0  0  0  0  0  0  0  0  0  0  0
   -4.1771  -44.3727   11.9704 O   0  5  0  0  0  0  0  0  0  0  0  0
   -7.8670  -40.0693    4.3428 N   0  0  0  0  0  0  0  0  0  0  0  0
   -5.4739  -44.5098    9.7874 O   0  0  0  0  0  0  0  0  0  0  0  0
   -3.8555  -42.6795   10.4018 O   0  0  0  0  0  0  0  0  0  0  0  0
   -7.3594  -39.6565    5.5425 C   0  0  1  0  0  0  0  0  0  0  0  0
   -7.5294  -40.6445    6.4795 C   0  0  2  0  0  0  0  0  0  0  0  0
   -7.1412  -40.7046    7.9360 C   0  0  0  0  0  0  0  0  0  0  0  0
   -6.9111  -42.1440    8.4102 C   0  0  0  0  0  0  0  0  0  0  0  0
   -6.8449  -42.3878    9.8034 O   0  0  0  0  0  0  0  0  0  0  0  0
  1 11  1  0  0  0  0
  3 13  1  6  0  0  0
  3 17  2  0  0  0  0
  3 20  1  0  0  0  0
  3 26  1  0  0  0  0
  4 14  1  6  0  0  0
  4 18  1  0  0  0  0
  4 21  2  0  0  0  0
  4 20  1  0  0  0  0
  5 19  1  0  0  0  0
  5  7  1  0  0  0  0
  6  7  2  0  0  0  0
  6 12  1  0  0  0  0
  7  8  1  0  0  0  0
  8  9  1  0  0  0  0
  8 10  2  0  0  0  0
 10 11  1  0  0  0  0
 11 12  2  0  0  0  0
 15 23  1  0  0  0  0
 15 16  1  0  0  0  0
 16 19  1  0  0  0  0
 19 22  1  0  0  0  0
 22  2  1  6  0  0  0
 22 23  1  0  0  0  0
 23 24  1  6  0  0  0
 24 25  1  0  0  0  0
 25 26  1  0  0  0  0
M  CHG  2  13  -1  18  -1
M  END
>  <CHROM.1>
-176.28949922,68.00166055,45.90264228,173.10060159,26.55112775,-165.73355001
170.51061306,-41.62436980,-7.53954255,-41.49834352,6.81281344,2.06400126
0.04874654,-1.01688346

>  <Name>
ligand

>  <RI>
0

>  <Rbt.Current_Directory>
/home/itssahil/PROJECTS/Mol_Feturizer/New_Systems/rnas/3D2G

>  <Rbt.Executable>
rbdock ($Id: //depot/dev/client3/rdock/2013.1/src/exe/rbdock.cxx#4 $)

>  <Rbt.Library>
libRbt.so (2013.1, Build901 2013/11/27)

>  <Rbt.Parameter_File>
/export/apps/rDock/src/rDock_2013.1_src/data/scripts/dock_solv.prm

>  <Rbt.Receptor>
prm/blind_docking_100.prm

>  <SCORE>
-20.518

>  <SCORE.INTER>
-20.4554

>  <SCORE.INTER.CONST>
1

>  <SCORE.INTER.POLAR>
0

>  <SCORE.INTER.ROT>
8

>  <SCORE.INTER.SOLV>
23.2612

>  <SCORE.INTER.VDW>
-30.324

>  <SCORE.INTER.norm>
-0.786745

>  <SCORE.INTRA>
-0.0626053

>  <SCORE.INTRA.DIHEDRAL>
-2.65317

>  <SCORE.INTRA.DIHEDRAL.0>
9.09364

>  <SCORE.INTRA.POLAR>
0

>  <SCORE.INTRA.POLAR.0>
0

>  <SCORE.INTRA.REPUL>
0

>  <SCORE.INTRA.REPUL.0>
0

>  <SCORE.INTRA.SOLV>
-0.988148

>  <SCORE.INTRA.SOLV.lig_0>
-78.5846

>  <SCORE.INTRA.VDW>
1.75806

>  <SCORE.INTRA.VDW.0>
-2.81163

>  <SCORE.INTRA.norm>
-0.0024079

>  <SCORE.RESTR>
0

>  <SCORE.RESTR.CAVITY>
0

>  <SCORE.RESTR.norm>
0

>  <SCORE.SYSTEM>
0

>  <SCORE.SYSTEM.CONST>
0

>  <SCORE.SYSTEM.DIHEDRAL>
0

>  <SCORE.SYSTEM.SOLV>
0

>  <SCORE.SYSTEM.norm>
0

>  <SCORE.heavy>
26

>  <SCORE.norm>
-0.789153

>  <RMSD>
2.538

$$$$
ligand
 OpenBabel11021811463D
libRbt.so/2013.1/901 2013/11/27
 26 27  0  0  0  0  0  0  0  0999 V2000
  -13.0545  -37.8602    2.0166 C   0  0  0  0  0  0  0  0  0  0  0  0
   -8.0045  -40.4755    5.3072 C   0  0  0  0  0  0  0  0  0  0  0  0
   -6.4441  -43.7231    8.3722 P   0  0  1  0  0  0  0  0  0  0  0  0
   -6.0041  -45.9445    9.9261 P   0  0  2  0  0  0  0  0  0  0  0  0
   -7.5367  -39.3875    2.4176 C   0  0  0  0  0  0  0  0  0  0  0  0
   -9.6915  -38.6278    3.4726 C   0  0  0  0  0  0  0  0  0  0  0  0
   -8.9901  -38.9989    2.3214 C   0  0  0  0  0  0  0  0  0  0  0  0
   -9.6167  -38.9758    1.0724 C   0  0  0  0  0  0  0  0  0  0  0  0
   -8.9461  -39.3109   -0.0097 N   0  0  0  0  0  0  0  0  0  0  0  0
  -10.9431  -38.6305    0.9824 N   0  0  0  0  0  0  0  0  0  0  0  0
  -11.6235  -38.2517    2.1226 C   0  0  0  0  0  0  0  0  0  0  0  0
  -11.0139  -38.2617    3.3631 N   0  0  0  0  0  0  0  0  0  0  0  0
   -7.6813  -42.9309    8.0785 O   0  5  0  0  0  0  0  0  0  0  0  0
   -6.7159  -46.4712   11.1084 O   0  0  0  0  0  0  0  0  0  0  0  0
   -7.1489  -43.1877    2.6184 S   0  0  0  0  0  0  0  0  0  0  0  0
   -7.1747  -41.7658    1.9257 C   0  0  0  0  0  0  0  0  0  0  0  0
   -5.2339  -42.9307    8.7200 O   0  0  0  0  0  0  0  0  0  0  0  0
   -4.6241  -45.5304   10.2430 O   0  5  0  0  0  0  0  0  0  0  0  0
   -7.4512  -40.7656    2.8153 N   0  0  0  0  0  0  0  0  0  0  0  0
   -6.9190  -44.7198    9.5063 O   0  0  0  0  0  0  0  0  0  0  0  0
   -5.8305  -46.8669    8.7633 O   0  0  0  0  0  0  0  0  0  0  0  0
   -7.6652  -41.2546    4.0733 C   0  0  1  0  0  0  0  0  0  0  0  0
   -7.5158  -42.6187    4.0691 C   0  0  2  0  0  0  0  0  0  0  0  0
   -7.6291  -43.6301    5.1826 C   0  0  0  0  0  0  0  0  0  0  0  0
   -6.2692  -43.9377    5.8197 C   0  0  0  0  0  0  0  0  0  0  0  0
   -6.2502  -44.5961    7.0731 O   0  0  0  0  0  0  0  0  0  0  0  0
  1 11  1  0  0  0  0
  3 13  1  6  0  0  0
  3 17  2  0  0  0  0
  3 20  1  0  0  0  0
  3 26  1  0  0  0  0
  4 14  1  1  0  0  0
  4 18  1  0  0  0  0
  4 21  2  0  0  0  0
  4 20  1  0  0  0  0
  5 19  1  0  0  0  0
  5  7  1  0  0  0  0
  6  7  2  0  0  0  0
  6 12  1  0  0  0  0
  7  8  1  0  0  0  0
  8  9  1  0  0  0  0
  8 10  2  0  0  0  0
 10 11  1  0  0  0  0
 11 12  2  0  0  0  0
 15 23  1  0  0  0  0
 15 16  1  0  0  0  0
 16 19  1  0  0  0  0
 19 22  1  0  0  0  0
 22  2  1  1  0  0  0
 22 23  1  0  0  0  0
 23 24  1  1  0  0  0
 24 25  1  0  0  0  0
 25 26  1  0  0  0  0
M  CHG  2  13  -1  18  -1
M  END
>  <CHROM.1>
167.97407408,102.26663155,82.67887854,172.23262074,85.44231362,164.44430973
-82.59552004,51.02620835,-7.67307878,-42.34871225,5.48461619,2.12113758,0.77984517
-1.28716858

>  <Name>
ligand

>  <RI>
0

>  <Rbt.Current_Directory>
/home/itssahil/PROJECTS/Mol_Feturizer/New_Systems/rnas/3D2G

>  <Rbt.Executable>
rbdock ($Id: //depot/dev/client3/rdock/2013.1/src/exe/rbdock.cxx#4 $)

>  <Rbt.Library>
libRbt.so (2013.1, Build901 2013/11/27)

>  <Rbt.Parameter_File>
/export/apps/rDock/src/rDock_2013.1_src/data/scripts/dock_solv.prm

>  <Rbt.Receptor>
prm/pocket_docking_4.prm

>  <SCORE>
-18.4555

>  <SCORE.INTER>
-17.8683

>  <SCORE.INTER.CONST>
1

>  <SCORE.INTER.POLAR>
0

>  <SCORE.INTER.ROT>
8

>  <SCORE.INTER.SOLV>
21.161

>  <SCORE.INTER.VDW>
-27.8992

>  <SCORE.INTER.norm>
-0.687242

>  <SCORE.INTRA>
-0.587184

>  <SCORE.INTRA.DIHEDRAL>
-0.526311

>  <SCORE.INTRA.DIHEDRAL.0>
9.09364

>  <SCORE.INTRA.POLAR>
0

>  <SCORE.INTRA.POLAR.0>
0

>  <SCORE.INTRA.REPUL>
0

>  <SCORE.INTRA.REPUL.0>
0

>  <SCORE.INTRA.SOLV>
0.752554

>  <SCORE.INTRA.SOLV.lig_0>
-78.5846

>  <SCORE.INTRA.VDW>
-0.700306

>  <SCORE.INTRA.VDW.0>
-2.81163

>  <SCORE.INTRA.norm>
-0.022584

>  <SCORE.RESTR>
0

>  <SCORE.RESTR.CAVITY>
0

>  <SCORE.RESTR.norm>
0

>  <SCORE.SYSTEM>
0

>  <SCORE.SYSTEM.CONST>
0

>  <SCORE.SYSTEM.DIHEDRAL>
0

>  <SCORE.SYSTEM.SOLV>
0

>  <SCORE.SYSTEM.norm>
0

>  <SCORE.heavy>
26

>  <SCORE.norm>
-0.709826

>  <RMSD>
2.573

$$$$
ligand
 OpenBabel11021811463D
libRbt.so/2013.1/901 2013/11/27
 26 27  0  0  0  0  0  0  0  0999 V2000
  -12.7795  -37.7926    1.9349 C   0  0  0  0  0  0  0  0  0  0  0  0
   -7.2824  -41.4546    4.9855 C   0  0  0  0  0  0  0  0  0  0  0  0
   -4.1308  -40.3879    9.8699 P   0  0  1  0  0  0  0  0  0  0  0  0
   -1.4753  -40.7075    9.2463 P   0  0  2  0  0  0  0  0  0  0  0  0
   -7.3683  -39.6352    2.4488 C   0  0  0  0  0  0  0  0  0  0  0  0
   -9.5409  -38.8782    3.4686 C   0  0  0  0  0  0  0  0  0  0  0  0
   -8.7948  -39.1644    2.3213 C   0  0  0  0  0  0  0  0  0  0  0  0
   -9.3497  -38.9807    1.0519 C   0  0  0  0  0  0  0  0  0  0  0  0
   -8.6364  -39.2368   -0.0246 N   0  0  0  0  0  0  0  0  0  0  0  0
  -10.6518  -38.5601    0.9325 N   0  0  0  0  0  0  0  0  0  0  0  0
  -11.3761  -38.2661    2.0707 C   0  0  0  0  0  0  0  0  0  0  0  0
  -10.8370  -38.4351    3.3322 N   0  0  0  0  0  0  0  0  0  0  0  0
   -3.7575  -41.3464   10.9591 O   0  5  0  0  0  0  0  0  0  0  0  0
   -1.1178  -41.0449   10.6392 O   0  0  0  0  0  0  0  0  0  0  0  0
   -5.8476  -37.8454    5.4680 S   0  0  0  0  0  0  0  0  0  0  0  0
   -6.3348  -38.0104    3.9721 C   0  0  0  0  0  0  0  0  0  0  0  0
   -5.1677  -39.3801   10.2202 O   0  0  0  0  0  0  0  0  0  0  0  0
   -0.3763  -40.0257    8.5366 O   0  5  0  0  0  0  0  0  0  0  0  0
   -6.8662  -39.2477    3.7380 N   0  0  0  0  0  0  0  0  0  0  0  0
   -2.7372  -39.7690    9.4456 O   0  0  0  0  0  0  0  0  0  0  0  0
   -1.8264  -41.8389    8.3354 O   0  0  0  0  0  0  0  0  0  0  0  0
   -6.8126  -40.0382    4.8514 C   0  0  1  0  0  0  0  0  0  0  0  0
   -6.2529  -39.3358    5.8889 C   0  0  2  0  0  0  0  0  0  0  0  0
   -5.9792  -39.7322    7.3185 C   0  0  0  0  0  0  0  0  0  0  0  0
   -4.8298  -40.7409    7.4248 C   0  0  0  0  0  0  0  0  0  0  0  0
   -4.5714  -41.3315    8.6855 O   0  0  0  0  0  0  0  0  0  0  0  0
  1 11  1  0  0  0  0
  3 13  1  1  0  0  0
  3 17  2  0  0  0  0
  3 20  1  0  0  0  0
  3 26  1  0  0  0  0
  4 14  1  1  0  0  0
  4 18  1  0  0  0  0
  4 21  2  0  0  0  0
  4 20  1  0  0  0  0
  5 19  1  0  0  0  0
  5  7  1  0  0  0  0
  6  7  2  0  0  0  0
  6 12  1  0  0  0  0
  7  8  1  0  0  0  0
  8  9  1  0  0  0  0
  8 10  2  0  0  0  0
 10 11  1  0  0  0  0
 11 12  2  0  0  0  0
 15 23  1  0  0  0  0
 15 16  1  0  0  0  0
 16 19  1  0  0  0  0
 19 22  1  0  0  0  0
 22  2  1  1  0  0  0
 22 23  1  0  0  0  0
 23 24  1  1  0  0  0
 24 25  1  0  0  0  0
 25 26  1  0  0  0  0
M  CHG  2  13  -1  18  -1
M  END
>  <CHROM.1>
44.61184095,-84.81464587,-20.92502581,-73.89606465,-109.24656382,-172.15230360
-62.87468270,-172.08784510,-5.85973404,-39.71196277,6.16183402,2.34160623
0.17169514,-1.47698156

>  <Name>
ligand

>  <RI>
0

>  <Rbt.Current_Directory>
/home/itssahil/PROJECTS/Mol_Feturizer/New_Systems/rnas/3D2G

>  <Rbt.Executable>
rbdock ($Id: //depot/dev/client3/rdock/2013.1/src/exe/rbdock.cxx#4 $)

>  <Rbt.Library>
libRbt.so (2013.1, Build901 2013/11/27)

>  <Rbt.Parameter_File>
/export/apps/rDock/src/rDock_2013.1_src/data/scripts/dock_solv.prm

>  <Rbt.Receptor>
prm/pocket_docking_4.prm

>  <SCORE>
-23.9443

>  <SCORE.INTER>
-21.4044

>  <SCORE.INTER.CONST>
1

>  <SCORE.INTER.POLAR>
0

>  <SCORE.INTER.ROT>
8

>  <SCORE.INTER.SOLV>
22.6001

>  <SCORE.INTER.VDW>
-30.7363

>  <SCORE.INTER.norm>
-0.823246

>  <SCORE.INTRA>
-2.53991

>  <SCORE.INTRA.DIHEDRAL>
-3.59609

>  <SCORE.INTRA.DIHEDRAL.0>
9.09364

>  <SCORE.INTRA.POLAR>
0

>  <SCORE.INTRA.POLAR.0>
0

>  <SCORE.INTRA.REPUL>
0

>  <SCORE.INTRA.REPUL.0>
0

>  <SCORE.INTRA.SOLV>
-0.884637

>  <SCORE.INTRA.SOLV.lig_0>
-78.5846

>  <SCORE.INTRA.VDW>
-0.299551

>  <SCORE.INTRA.VDW.0>
-2.81163

>  <SCORE.INTRA.norm>
-0.0976889

>  <SCORE.RESTR>
0

>  <SCORE.RESTR.CAVITY>
0

>  <SCORE.RESTR.norm>
0

>  <SCORE.SYSTEM>
0

>  <SCORE.SYSTEM.CONST>
0

>  <SCORE.SYSTEM.DIHEDRAL>
0

>  <SCORE.SYSTEM.SOLV>
0

>  <SCORE.SYSTEM.norm>
0

>  <SCORE.heavy>
26

>  <SCORE.norm>
-0.920935

>  <RMSD>
2.574

$$$$
ligand
 OpenBabel11021811463D
libRbt.so/2013.1/901 2013/11/27
 26 27  0  0  0  0  0  0  0  0999 V2000
  -12.9834  -37.6165    2.0525 C   0  0  0  0  0  0  0  0  0  0  0  0
   -7.6865  -41.5383    4.8988 C   0  0  0  0  0  0  0  0  0  0  0  0
   -6.8970  -42.9816    8.7578 P   0  0  1  0  0  0  0  0  0  0  0  0
   -6.4428  -45.1764    7.1705 P   0  0  2  0  0  0  0  0  0  0  0  0
   -7.6084  -39.5866    2.4621 C   0  0  0  0  0  0  0  0  0  0  0  0
   -9.7479  -38.7936    3.5238 C   0  0  0  0  0  0  0  0  0  0  0  0
   -9.0255  -39.0823    2.3620 C   0  0  0  0  0  0  0  0  0  0  0  0
   -9.5948  -38.8702    1.1034 C   0  0  0  0  0  0  0  0  0  0  0  0
   -8.9036  -39.1288    0.0132 N   0  0  0  0  0  0  0  0  0  0  0  0
  -10.8887  -38.4190    1.0087 N   0  0  0  0  0  0  0  0  0  0  0  0
  -11.5892  -38.1230    2.1612 C   0  0  0  0  0  0  0  0  0  0  0  0
  -11.0355  -38.3199    3.4123 N   0  0  0  0  0  0  0  0  0  0  0  0
   -7.5515  -42.8453   10.0985 O   0  5  0  0  0  0  0  0  0  0  0  0
   -5.0488  -45.0786    7.6489 O   0  0  0  0  0  0  0  0  0  0  0  0
   -6.0338  -38.0598    5.5960 S   0  0  0  0  0  0  0  0  0  0  0  0
   -6.5022  -38.1141    4.0861 C   0  0  0  0  0  0  0  0  0  0  0  0
   -5.4464  -42.6550    8.7081 O   0  0  0  0  0  0  0  0  0  0  0  0
   -6.6364  -44.5053    5.8710 O   0  5  0  0  0  0  0  0  0  0  0  0
   -7.1069  -39.3005    3.7779 N   0  0  0  0  0  0  0  0  0  0  0  0
   -7.2454  -44.4678    8.3396 O   0  0  0  0  0  0  0  0  0  0  0  0
   -6.9934  -46.5461    6.9382 O   0  0  0  0  0  0  0  0  0  0  0  0
   -7.1249  -40.1502    4.8480 C   0  0  1  0  0  0  0  0  0  0  0  0
   -6.5412  -39.5409    5.9302 C   0  0  2  0  0  0  0  0  0  0  0  0
   -6.3203  -40.0286    7.3405 C   0  0  0  0  0  0  0  0  0  0  0  0
   -7.5881  -40.6483    7.9391 C   0  0  0  0  0  0  0  0  0  0  0  0
   -7.7655  -42.0488    7.8288 O   0  0  0  0  0  0  0  0  0  0  0  0
  1 11  1  0  0  0  0
  3 13  1  1  0  0  0
  3 17  2  0  0  0  0
  3 20  1  0  0  0  0
  3 26  1  0  0  0  0
  4 14  1  1  0  0  0
  4 18  1  0  0  0  0
  4 21  2  0  0  0  0
  4 20  1  0  0  0  0
  5 19  1  0  0  0  0
  5  7  1  0  0  0  0
  6  7  2  0  0  0  0
  6 12  1  0  0  0  0
  7  8  1  0  0  0  0
  8  9  1  0  0  0  0
  8 10  2  0  0  0  0
 10 11  1  0  0  0  0
 11 12  2  0  0  0  0
 15 23  1  0  0  0  0
 15 16  1  0  0  0  0
 16 19  1  0  0  0  0
 19 22  1  0  0  0  0
 22  2  1  1  0  0  0
 22 23  1  0  0  0  0
 23 24  1  1  0  0  0
 24 25  1  0  0  0  0
 25 26  1  0  0  0  0
M  CHG  2  13  -1  18  -1
M  END
>  <CHROM.1>
-163.74863473,-87.74819717,-17.36142903,56.95195069,131.55472262,93.60136054
74.43540363,75.53887075,-7.69785615,-41.13840630,5.53847551,2.23971176,-0.91470761
-0.23927979

>  <Name>
ligand

>  <RI>
0

>  <Rbt.Current_Directory>
/home/itssahil/PROJECTS/Mol_Feturizer/New_Systems/rnas/3D2G

>  <Rbt.Executable>
rbdock ($Id: //depot/dev/client3/rdock/2013.1/src/exe/rbdock.cxx#4 $)

>  <Rbt.Library>
libRbt.so (2013.1, Build901 2013/11/27)

>  <Rbt.Parameter_File>
/export/apps/rDock/src/rDock_2013.1_src/data/scripts/dock_solv.prm

>  <Rbt.Receptor>
prm/pocket_docking_4.prm

>  <SCORE>
-22.7413

>  <SCORE.INTER>
-22.784

>  <SCORE.INTER.CONST>
1

>  <SCORE.INTER.POLAR>
0

>  <SCORE.INTER.ROT>
8

>  <SCORE.INTER.SOLV>
22.546

>  <SCORE.INTER.VDW>
-31.638

>  <SCORE.INTER.norm>
-0.876306

>  <SCORE.INTRA>
0.0388432

>  <SCORE.INTRA.DIHEDRAL>
0.866764

>  <SCORE.INTRA.DIHEDRAL.0>
9.09364

>  <SCORE.INTRA.POLAR>
0

>  <SCORE.INTRA.POLAR.0>
0

>  <SCORE.INTRA.REPUL>
0

>  <SCORE.INTRA.REPUL.0>
0

>  <SCORE.INTRA.SOLV>
-0.924873

>  <SCORE.INTRA.SOLV.lig_0>
-78.5846

>  <SCORE.INTRA.VDW>
0.0678974

>  <SCORE.INTRA.VDW.0>
-2.81163

>  <SCORE.INTRA.norm>
0.00149397

>  <SCORE.RESTR>
0.00381739

>  <SCORE.RESTR.CAVITY>
0.00381739

>  <SCORE.RESTR.norm>
0.000146823

>  <SCORE.SYSTEM>
0

>  <SCORE.SYSTEM.CONST>
0

>  <SCORE.SYSTEM.DIHEDRAL>
0

>  <SCORE.SYSTEM.SOLV>
0

>  <SCORE.SYSTEM.norm>
0

>  <SCORE.heavy>
26

>  <SCORE.norm>
-0.874666

>  <RMSD>
2.574

$$$$
ligand
 OpenBabel11021811463D
libRbt.so/2013.1/901 2013/11/27
 26 27  0  0  0  0  0  0  0  0999 V2000
  -12.6898  -37.9972    1.8563 C   0  0  0  0  0  0  0  0  0  0  0  0
   -8.6679  -41.6828    4.6424 C   0  0  0  0  0  0  0  0  0  0  0  0
   -4.7502  -43.5419    8.8671 P   0  0  1  0  0  0  0  0  0  0  0  0
   -3.6118  -41.0543    8.6246 P   0  0  2  0  0  0  0  0  0  0  0  0
   -7.2737  -39.2329    3.2982 C   0  0  0  0  0  0  0  0  0  0  0  0
   -9.1432  -39.1729    1.6145 C   0  0  0  0  0  0  0  0  0  0  0  0
   -8.6910  -38.8978    2.9087 C   0  0  0  0  0  0  0  0  0  0  0  0
   -9.5558  -38.3480    3.8588 C   0  0  0  0  0  0  0  0  0  0  0  0
   -9.1282  -38.1062    5.0802 N   0  0  0  0  0  0  0  0  0  0  0  0
  -10.8452  -38.0335    3.5047 N   0  0  0  0  0  0  0  0  0  0  0  0
  -11.2869  -38.3221    2.2287 C   0  0  0  0  0  0  0  0  0  0  0  0
  -10.4449  -38.8736    1.2815 N   0  0  0  0  0  0  0  0  0  0  0  0
   -3.7839  -44.1106    7.8734 O   0  5  0  0  0  0  0  0  0  0  0  0
   -4.3449  -39.9914    9.3420 O   0  0  0  0  0  0  0  0  0  0  0  0
   -6.6657  -39.3585    7.0726 S   0  0  0  0  0  0  0  0  0  0  0  0
   -6.5466  -38.7900    5.6012 C   0  0  0  0  0  0  0  0  0  0  0  0
   -5.2958  -44.5022    9.8639 O   0  0  0  0  0  0  0  0  0  0  0  0
   -4.0612  -41.1975    7.2268 O   0  5  0  0  0  0  0  0  0  0  0  0
   -7.2408  -39.5475    4.6998 N   0  0  0  0  0  0  0  0  0  0  0  0
   -3.9444  -42.3346    9.4982 O   0  0  0  0  0  0  0  0  0  0  0  0
   -2.1308  -40.9002    8.4982 O   0  0  0  0  0  0  0  0  0  0  0  0
   -7.8366  -40.6223    5.2974 C   0  0  1  0  0  0  0  0  0  0  0  0
   -7.5725  -40.6062    6.6439 C   0  0  2  0  0  0  0  0  0  0  0  0
   -7.9978  -41.5430    7.7471 C   0  0  0  0  0  0  0  0  0  0  0  0
   -6.8055  -42.0307    8.5780 C   0  0  0  0  0  0  0  0  0  0  0  0
   -5.8702  -42.8976    7.9628 O   0  0  0  0  0  0  0  0  0  0  0  0
  1 11  1  0  0  0  0
  3 13  1  6  0  0  0
  3 17  2  0  0  0  0
  3 20  1  0  0  0  0
  3 26  1  0  0  0  0
  4 14  1  1  0  0  0
  4 18  1  0  0  0  0
  4 21  2  0  0  0  0
  4 20  1  0  0  0  0
  5 19  1  0  0  0  0
  5  7  1  0  0  0  0
  6  7  2  0  0  0  0
  6 12  1  0  0  0  0
  7  8  1  0  0  0  0
  8  9  1  0  0  0  0
  8 10  2  0  0  0  0
 10 11  1  0  0  0  0
 11 12  2  0  0  0  0
 15 23  1  0  0  0  0
 15 16  1  0  0  0  0
 16 19  1  0  0  0  0
 19 22  1  0  0  0  0
 22  2  1  1  0  0  0
 22 23  1  0  0  0  0
 23 24  1  1  0  0  0
 24 25  1  0  0  0  0
 25 26  1  0  0  0  0
M  CHG  2  13  -1  18  -1
M  END
>  <CHROM.1>
68.55410240,-116.13762204,-149.44861425,117.07090431,-52.41843100,-68.37860010
-172.38510202,-167.24831761,-6.76640497,-40.65071323,6.33074704,2.42279185
-0.55111617,-0.47007022

>  <Name>
ligand

>  <RI>
0

>  <Rbt.Current_Directory>
/home/itssahil/PROJECTS/Mol_Feturizer/New_Systems/rnas/3D2G

>  <Rbt.Executable>
rbdock ($Id: //depot/dev/client3/rdock/2013.1/src/exe/rbdock.cxx#4 $)

>  <Rbt.Library>
libRbt.so (2013.1, Build901 2013/11/27)

>  <Rbt.Parameter_File>
/export/apps/rDock/src/rDock_2013.1_src/data/scripts/dock_solv.prm

>  <Rbt.Receptor>
prm/pocket_docking_2.prm

>  <SCORE>
-11.5423

>  <SCORE.INTER>
-14.2193

>  <SCORE.INTER.CONST>
1

>  <SCORE.INTER.POLAR>
0

>  <SCORE.INTER.ROT>
8

>  <SCORE.INTER.SOLV>
12.7044

>  <SCORE.INTER.VDW>
-22.6476

>  <SCORE.INTER.norm>
-0.546894

>  <SCORE.INTRA>
2.34445

>  <SCORE.INTRA.DIHEDRAL>
-0.470588

>  <SCORE.INTRA.DIHEDRAL.0>
9.09364

>  <SCORE.INTRA.POLAR>
0

>  <SCORE.INTRA.POLAR.0>
0

>  <SCORE.INTRA.REPUL>
0

>  <SCORE.INTRA.REPUL.0>
0

>  <SCORE.INTRA.SOLV>
5.03846

>  <SCORE.INTRA.SOLV.lig_0>
-78.5846

>  <SCORE.INTRA.VDW>
0.0605142

>  <SCORE.INTRA.VDW.0>
-2.81163

>  <SCORE.INTRA.norm>
0.0901712

>  <SCORE.RESTR>
0.332549

>  <SCORE.RESTR.CAVITY>
0.332549

>  <SCORE.RESTR.norm>
0.0127904

>  <SCORE.SYSTEM>
0

>  <SCORE.SYSTEM.CONST>
0

>  <SCORE.SYSTEM.DIHEDRAL>
0

>  <SCORE.SYSTEM.SOLV>
0

>  <SCORE.SYSTEM.norm>
0

>  <SCORE.heavy>
26

>  <SCORE.norm>
-0.443933

>  <RMSD>
2.603

$$$$
ligand
 OpenBabel11021811463D
libRbt.so/2013.1/901 2013/11/27
 26 27  0  0  0  0  0  0  0  0999 V2000
  -13.3384  -37.7785    1.9478 C   0  0  0  0  0  0  0  0  0  0  0  0
   -6.8210  -42.2247    2.4504 C   0  0  0  0  0  0  0  0  0  0  0  0
   -4.1498  -43.5096    7.5272 P   0  0  1  0  0  0  0  0  0  0  0  0
   -5.9322  -43.1110    9.5783 P   0  0  2  0  0  0  0  0  0  0  0  0
   -7.9182  -39.3512    2.9906 C   0  0  0  0  0  0  0  0  0  0  0  0
   -9.9272  -39.2489    1.4784 C   0  0  0  0  0  0  0  0  0  0  0  0
   -9.3368  -38.9288    2.7047 C   0  0  0  0  0  0  0  0  0  0  0  0
  -10.0658  -38.2514    3.6860 C   0  0  0  0  0  0  0  0  0  0  0  0
   -9.5092  -37.9671    4.8446 N   0  0  0  0  0  0  0  0  0  0  0  0
  -11.3557  -37.8575    3.4254 N   0  0  0  0  0  0  0  0  0  0  0  0
  -11.9350  -38.1907    2.2172 C   0  0  0  0  0  0  0  0  0  0  0  0
  -11.2284  -38.8678    1.2410 N   0  0  0  0  0  0  0  0  0  0  0  0
   -2.9165  -42.7724    7.1029 O   0  5  0  0  0  0  0  0  0  0  0  0
   -5.6102  -42.5135   10.8902 O   0  0  0  0  0  0  0  0  0  0  0  0
   -8.3308  -41.6553    6.0160 S   0  0  0  0  0  0  0  0  0  0  0  0
   -8.4347  -40.3092    5.1916 C   0  0  0  0  0  0  0  0  0  0  0  0
   -3.9528  -44.9311    7.9198 O   0  0  0  0  0  0  0  0  0  0  0  0
   -5.9929  -44.5839    9.6347 O   0  5  0  0  0  0  0  0  0  0  0  0
   -7.9394  -40.4428    3.9247 N   0  0  0  0  0  0  0  0  0  0  0  0
   -4.7375  -42.5917    8.6749 O   0  0  0  0  0  0  0  0  0  0  0  0
   -7.2371  -42.7343    8.9551 O   0  0  0  0  0  0  0  0  0  0  0  0
   -7.4520  -41.7002    3.7039 C   0  0  1  0  0  0  0  0  0  0  0  0
   -7.6275  -42.4666    4.8286 C   0  0  2  0  0  0  0  0  0  0  0  0
   -7.2826  -43.9085    5.1073 C   0  0  0  0  0  0  0  0  0  0  0  0
   -6.3450  -44.0524    6.3114 C   0  0  0  0  0  0  0  0  0  0  0  0
   -5.1185  -43.3450    6.2936 O   0  0  0  0  0  0  0  0  0  0  0  0
  1 11  1  0  0  0  0
  3 13  1  6  0  0  0
  3 17  2  0  0  0  0
  3 20  1  0  0  0  0
  3 26  1  0  0  0  0
  4 14  1  1  0  0  0
  4 18  1  0  0  0  0
  4 21  2  0  0  0  0
  4 20  1  0  0  0  0
  5 19  1  0  0  0  0
  5  7  1  0  0  0  0
  6  7  2  0  0  0  0
  6 12  1  0  0  0  0
  7  8  1  0  0  0  0
  8  9  1  0  0  0  0
  8 10  2  0  0  0  0
 10 11  1  0  0  0  0
 11 12  2  0  0  0  0
 15 23  1  0  0  0  0
 15 16  1  0  0  0  0
 16 19  1  0  0  0  0
 19 22  1  0  0  0  0
 22  2  1  6  0  0  0
 22 23  1  0  0  0  0
 23 24  1  6  0  0  0
 24 25  1  0  0  0  0
 25 26  1  0  0  0  0
M  CHG  2  13  -1  18  -1
M  END
>  <CHROM.1>
-170.10979289,-62.90648399,-106.22035323,145.01137454,-58.41763384,-55.80919646
-179.29936283,173.58801119,-7.39373294,-41.57148253,5.77784238,2.42532459
0.66371336,-1.50286399

>  <Name>
ligand

>  <RI>
0

>  <Rbt.Current_Directory>
/home/itssahil/PROJECTS/Mol_Feturizer/New_Systems/rnas/3D2G

>  <Rbt.Executable>
rbdock ($Id: //depot/dev/client3/rdock/2013.1/src/exe/rbdock.cxx#4 $)

>  <Rbt.Library>
libRbt.so (2013.1, Build901 2013/11/27)

>  <Rbt.Parameter_File>
/export/apps/rDock/src/rDock_2013.1_src/data/scripts/dock_solv.prm

>  <Rbt.Receptor>
prm/pocket_docking_3.prm

>  <SCORE>
-15.3546

>  <SCORE.INTER>
-15.1038

>  <SCORE.INTER.CONST>
1

>  <SCORE.INTER.POLAR>
0

>  <SCORE.INTER.ROT>
8

>  <SCORE.INTER.SOLV>
11.2696

>  <SCORE.INTER.VDW>
-22.7591

>  <SCORE.INTER.norm>
-0.580914

>  <SCORE.INTRA>
-0.261002

>  <SCORE.INTRA.DIHEDRAL>
-1.80783

>  <SCORE.INTRA.DIHEDRAL.0>
9.09364

>  <SCORE.INTRA.POLAR>
0

>  <SCORE.INTRA.POLAR.0>
0

>  <SCORE.INTRA.REPUL>
0

>  <SCORE.INTRA.REPUL.0>
0

>  <SCORE.INTRA.SOLV>
2.20271

>  <SCORE.INTRA.SOLV.lig_0>
-78.5846

>  <SCORE.INTRA.VDW>
-0.45844

>  <SCORE.INTRA.VDW.0>
-2.81163

>  <SCORE.INTRA.norm>
-0.0100385

>  <SCORE.RESTR>
0.010204

>  <SCORE.RESTR.CAVITY>
0.010204

>  <SCORE.RESTR.norm>
0.000392463

>  <SCORE.SYSTEM>
0

>  <SCORE.SYSTEM.CONST>
0

>  <SCORE.SYSTEM.DIHEDRAL>
0

>  <SCORE.SYSTEM.SOLV>
0

>  <SCORE.SYSTEM.norm>
0

>  <SCORE.heavy>
26

>  <SCORE.norm>
-0.590561

>  <RMSD>
2.613

$$$$
ligand
 OpenBabel11021811463D
libRbt.so/2013.1/901 2013/11/27
 26 27  0  0  0  0  0  0  0  0999 V2000
  -12.8093  -37.9940    1.9388 C   0  0  0  0  0  0  0  0  0  0  0  0
   -6.1828  -39.4737    5.2465 C   0  0  0  0  0  0  0  0  0  0  0  0
   -5.9448  -42.9992    9.2616 P   0  0  1  0  0  0  0  0  0  0  0  0
   -5.0145  -44.4616   11.3921 P   0  0  2  0  0  0  0  0  0  0  0  0
   -7.2451  -39.3502    2.3124 C   0  0  0  0  0  0  0  0  0  0  0  0
   -9.3337  -38.9820    0.9577 C   0  0  0  0  0  0  0  0  0  0  0  0
   -8.7028  -38.9812    2.2054 C   0  0  0  0  0  0  0  0  0  0  0  0
   -9.4241  -38.6771    3.3632 C   0  0  0  0  0  0  0  0  0  0  0  0
   -8.8280  -38.6938    4.5368 N   0  0  0  0  0  0  0  0  0  0  0  0
  -10.7503  -38.3322    3.2681 N   0  0  0  0  0  0  0  0  0  0  0  0
  -11.3683  -38.3498    2.0335 C   0  0  0  0  0  0  0  0  0  0  0  0
  -10.6691  -38.6568    0.8814 N   0  0  0  0  0  0  0  0  0  0  0  0
   -5.8315  -41.6155    9.8247 O   0  5  0  0  0  0  0  0  0  0  0  0
   -4.2266  -43.2446   11.6751 O   0  0  0  0  0  0  0  0  0  0  0  0
   -7.2816  -42.9063    3.7210 S   0  0  0  0  0  0  0  0  0  0  0  0
   -7.5076  -41.7687    2.6454 C   0  0  0  0  0  0  0  0  0  0  0  0
   -4.7958  -43.4596    8.4363 O   0  0  0  0  0  0  0  0  0  0  0  0
   -4.2373  -45.4699   10.6467 O   0  5  0  0  0  0  0  0  0  0  0  0
   -7.1259  -40.5405    3.1082 N   0  0  0  0  0  0  0  0  0  0  0  0
   -6.2230  -43.8848   10.5436 O   0  0  0  0  0  0  0  0  0  0  0  0
   -5.5398  -45.2260   12.5638 O   0  0  0  0  0  0  0  0  0  0  0  0
   -6.6740  -40.6053    4.3962 C   0  0  1  0  0  0  0  0  0  0  0  0
   -6.7205  -41.9043    4.8363 C   0  0  2  0  0  0  0  0  0  0  0  0
   -6.3285  -42.5159    6.1583 C   0  0  0  0  0  0  0  0  0  0  0  0
   -7.3405  -42.1926    7.2633 C   0  0  0  0  0  0  0  0  0  0  0  0
   -7.2990  -42.9573    8.4543 O   0  0  0  0  0  0  0  0  0  0  0  0
  1 11  1  0  0  0  0
  3 13  1  1  0  0  0
  3 17  2  0  0  0  0
  3 20  1  0  0  0  0
  3 26  1  0  0  0  0
  4 14  1  1  0  0  0
  4 18  1  0  0  0  0
  4 21  2  0  0  0  0
  4 20  1  0  0  0  0
  5 19  1  0  0  0  0
  5  7  1  0  0  0  0
  6  7  2  0  0  0  0
  6 12  1  0  0  0  0
  7  8  1  0  0  0  0
  8  9  1  0  0  0  0
  8 10  2  0  0  0  0
 10 11  1  0  0  0  0
 11 12  2  0  0  0  0
 15 23  1  0  0  0  0
 15 16  1  0  0  0  0
 16 19  1  0  0  0  0
 19 22  1  0  0  0  0
 22  2  1  6  0  0  0
 22 23  1  0  0  0  0
 23 24  1  6  0  0  0
 24 25  1  0  0  0  0
 25 26  1  0  0  0  0
M  CHG  2  13  -1  18  -1
M  END
>  <CHROM.1>
-87.52799430,72.09372284,-116.83510879,53.30855428,-106.46641062,164.33597868
56.79026215,70.26442256,-7.18009324,-41.66202093,6.34228826,2.14372096,0.70583919
-1.43668540

>  <Name>
ligand

>  <RI>
0

>  <Rbt.Current_Directory>
/home/itssahil/PROJECTS/Mol_Feturizer/New_Systems/rnas/3D2G

>  <Rbt.Executable>
rbdock ($Id: //depot/dev/client3/rdock/2013.1/src/exe/rbdock.cxx#4 $)

>  <Rbt.Library>
libRbt.so (2013.1, Build901 2013/11/27)

>  <Rbt.Parameter_File>
/export/apps/rDock/src/rDock_2013.1_src/data/scripts/dock_solv.prm

>  <Rbt.Receptor>
prm/pocket_docking_3.prm

>  <SCORE>
-15.1925

>  <SCORE.INTER>
-15.5508

>  <SCORE.INTER.CONST>
1

>  <SCORE.INTER.POLAR>
0

>  <SCORE.INTER.ROT>
8

>  <SCORE.INTER.SOLV>
14.8063

>  <SCORE.INTER.VDW>
-24.236

>  <SCORE.INTER.norm>
-0.598109

>  <SCORE.INTRA>
0.357778

>  <SCORE.INTRA.DIHEDRAL>
-2.74381

>  <SCORE.INTRA.DIHEDRAL.0>
9.09364

>  <SCORE.INTRA.POLAR>
0

>  <SCORE.INTRA.POLAR.0>
0

>  <SCORE.INTRA.REPUL>
0

>  <SCORE.INTRA.REPUL.0>
0

>  <SCORE.INTRA.SOLV>
2.81567

>  <SCORE.INTRA.SOLV.lig_0>
-78.5846

>  <SCORE.INTRA.VDW>
0.321848

>  <SCORE.INTRA.VDW.0>
-2.81163

>  <SCORE.INTRA.norm>
0.0137607

>  <SCORE.RESTR>
0.000594098

>  <SCORE.RESTR.CAVITY>
0.000594098

>  <SCORE.RESTR.norm>
2.28499e-05

>  <SCORE.SYSTEM>
0

>  <SCORE.SYSTEM.CONST>
0

>  <SCORE.SYSTEM.DIHEDRAL>
0

>  <SCORE.SYSTEM.SOLV>
0

>  <SCORE.SYSTEM.norm>
0

>  <SCORE.heavy>
26

>  <SCORE.norm>
-0.584325

>  <RMSD>
2.615

$$$$
ligand
 OpenBabel11021811463D
libRbt.so/2013.1/901 2013/11/27
 26 27  0  0  0  0  0  0  0  0999 V2000
  -13.7522  -37.6979    1.7781 C   0  0  0  0  0  0  0  0  0  0  0  0
   -6.7114  -37.6907    5.3018 C   0  0  0  0  0  0  0  0  0  0  0  0
   -4.3418  -40.9962    8.8992 P   0  0  1  0  0  0  0  0  0  0  0  0
   -1.9485  -42.1814    8.2585 P   0  0  2  0  0  0  0  0  0  0  0  0
   -8.5489  -39.4297    3.4710 C   0  0  0  0  0  0  0  0  0  0  0  0
  -10.8407  -38.5247    3.9824 C   0  0  0  0  0  0  0  0  0  0  0  0
   -9.9222  -38.9867    3.0348 C   0  0  0  0  0  0  0  0  0  0  0  0
  -10.2543  -39.0054    1.6775 C   0  0  0  0  0  0  0  0  0  0  0  0
   -9.3792  -39.4265    0.7887 N   0  0  0  0  0  0  0  0  0  0  0  0
  -11.5077  -38.6105    1.2777 N   0  0  0  0  0  0  0  0  0  0  0  0
  -12.4030  -38.1423    2.2189 C   0  0  0  0  0  0  0  0  0  0  0  0
  -12.0848  -38.1103    3.5636 N   0  0  0  0  0  0  0  0  0  0  0  0
   -5.0603  -42.2948    8.6940 O   0  5  0  0  0  0  0  0  0  0  0  0
   -0.9614  -41.8986    7.1967 O   0  0  0  0  0  0  0  0  0  0  0  0
   -9.0959  -40.1564    7.1865 S   0  0  0  0  0  0  0  0  0  0  0  0
   -9.3297  -40.3032    5.6289 C   0  0  0  0  0  0  0  0  0  0  0  0
   -4.0041  -40.6575   10.3079 O   0  0  0  0  0  0  0  0  0  0  0  0
   -2.4413  -43.5710    8.2079 O   0  5  0  0  0  0  0  0  0  0  0  0
   -8.5125  -39.4794    4.9065 N   0  0  0  0  0  0  0  0  0  0  0  0
   -3.0884  -41.1263    7.9415 O   0  0  0  0  0  0  0  0  0  0  0  0
   -1.4961  -42.0258    9.6742 O   0  0  0  0  0  0  0  0  0  0  0  0
   -7.7218  -38.7156    5.7182 C   0  0  1  0  0  0  0  0  0  0  0  0
   -7.9747  -39.0243    7.0311 C   0  0  2  0  0  0  0  0  0  0  0  0
   -7.3738  -38.4890    8.3071 C   0  0  0  0  0  0  0  0  0  0  0  0
   -6.4270  -39.4997    8.9642 C   0  0  0  0  0  0  0  0  0  0  0  0
   -5.2990  -39.9372    8.2287 O   0  0  0  0  0  0  0  0  0  0  0  0
  1 11  1  0  0  0  0
  3 13  1  1  0  0  0
  3 17  2  0  0  0  0
  3 20  1  0  0  0  0
  3 26  1  0  0  0  0
  4 14  1  6  0  0  0
  4 18  1  0  0  0  0
  4 21  2  0  0  0  0
  4 20  1  0  0  0  0
  5 19  1  0  0  0  0
  5  7  1  0  0  0  0
  6  7  2  0  0  0  0
  6 12  1  0  0  0  0
  7  8  1  0  0  0  0
  8  9  1  0  0  0  0
  8 10  2  0  0  0  0
 10 11  1  0  0  0  0
 11 12  2  0  0  0  0
 15 23  1  0  0  0  0
 15 16  1  0  0  0  0
 16 19  1  0  0  0  0
 19 22  1  0  0  0  0
 22  2  1  6  0  0  0
 22 23  1  0  0  0  0
 23 24  1  6  0  0  0
 24 25  1  0  0  0  0
 25 26  1  0  0  0  0
M  CHG  2  13  -1  18  -1
M  END
>  <CHROM.1>
-67.79468475,61.11627801,9.00273704,-176.10776173,72.94744592,59.96193067
-178.94112128,79.76033027,-6.85790451,-40.07927542,6.27033923,2.58231590
0.41526300,-1.65665838

>  <Name>
ligand

>  <RI>
0

>  <Rbt.Current_Directory>
/home/itssahil/PROJECTS/Mol_Feturizer/New_Systems/rnas/3D2G

>  <Rbt.Executable>
rbdock ($Id: //depot/dev/client3/rdock/2013.1/src/exe/rbdock.cxx#4 $)

>  <Rbt.Library>
libRbt.so (2013.1, Build901 2013/11/27)

>  <Rbt.Parameter_File>
/export/apps/rDock/src/rDock_2013.1_src/data/scripts/dock_solv.prm

>  <Rbt.Receptor>
prm/pocket_docking_5.prm

>  <SCORE>
-23.4288

>  <SCORE.INTER>
-21.3825

>  <SCORE.INTER.CONST>
1

>  <SCORE.INTER.POLAR>
0

>  <SCORE.INTER.ROT>
8

>  <SCORE.INTER.SOLV>
17.4803

>  <SCORE.INTER.VDW>
-29.0151

>  <SCORE.INTER.norm>
-0.822405

>  <SCORE.INTRA>
-2.04629

>  <SCORE.INTRA.DIHEDRAL>
-3.62603

>  <SCORE.INTRA.DIHEDRAL.0>
9.09364

>  <SCORE.INTRA.POLAR>
0

>  <SCORE.INTRA.POLAR.0>
0

>  <SCORE.INTRA.REPUL>
0

>  <SCORE.INTRA.REPUL.0>
0

>  <SCORE.INTRA.SOLV>
-0.394492

>  <SCORE.INTRA.SOLV.lig_0>
-78.5846

>  <SCORE.INTRA.VDW>
-0.0360252

>  <SCORE.INTRA.VDW.0>
-2.81163

>  <SCORE.INTRA.norm>
-0.0787034

>  <SCORE.RESTR>
0

>  <SCORE.RESTR.CAVITY>
0

>  <SCORE.RESTR.norm>
0

>  <SCORE.SYSTEM>
0

>  <SCORE.SYSTEM.CONST>
0

>  <SCORE.SYSTEM.DIHEDRAL>
0

>  <SCORE.SYSTEM.SOLV>
0

>  <SCORE.SYSTEM.norm>
0

>  <SCORE.heavy>
26

>  <SCORE.norm>
-0.901108

>  <RMSD>
2.624

$$$$
ligand
 OpenBabel11021811463D
libRbt.so/2013.1/901 2013/11/27
 26 27  0  0  0  0  0  0  0  0999 V2000
   -8.4407  -39.2796   -0.5526 C   0  0  0  0  0  0  0  0  0  0  0  0
   -7.8518  -38.8966    8.0858 C   0  0  0  0  0  0  0  0  0  0  0  0
   -3.3509  -42.1381    8.6420 P   0  0  1  0  0  0  0  0  0  0  0  0
   -2.3629  -44.2913   10.0316 P   0  0  2  0  0  0  0  0  0  0  0  0
   -8.8234  -38.5970    5.1331 C   0  0  0  0  0  0  0  0  0  0  0  0
   -7.4893  -39.1242    3.0653 C   0  0  0  0  0  0  0  0  0  0  0  0
   -8.7125  -38.7640    3.6389 C   0  0  0  0  0  0  0  0  0  0  0  0
   -9.8464  -38.5943    2.8399 C   0  0  0  0  0  0  0  0  0  0  0  0
  -10.9989  -38.2709    3.3879 N   0  0  0  0  0  0  0  0  0  0  0  0
   -9.7468  -38.7374    1.4774 N   0  0  0  0  0  0  0  0  0  0  0  0
   -8.5382  -39.1072    0.9215 C   0  0  0  0  0  0  0  0  0  0  0  0
   -7.4108  -39.2867    1.7007 N   0  0  0  0  0  0  0  0  0  0  0  0
   -2.8261  -41.0147    9.4828 O   0  5  0  0  0  0  0  0  0  0  0  0
   -1.6872  -43.5891   11.1416 O   0  0  0  0  0  0  0  0  0  0  0  0
   -8.0392  -42.2289    6.0418 S   0  0  0  0  0  0  0  0  0  0  0  0
   -8.5017  -41.0311    5.1178 C   0  0  0  0  0  0  0  0  0  0  0  0
   -2.5192  -42.5115    7.4663 O   0  0  0  0  0  0  0  0  0  0  0  0
   -1.4679  -44.5059    8.8786 O   0  5  0  0  0  0  0  0  0  0  0  0
   -8.4433  -39.8294    5.7663 N   0  0  0  0  0  0  0  0  0  0  0  0
   -3.5562  -43.3045    9.6921 O   0  0  0  0  0  0  0  0  0  0  0  0
   -2.9011  -45.6571   10.3109 O   0  0  0  0  0  0  0  0  0  0  0  0
   -8.0281  -39.9745    7.0602 C   0  0  1  0  0  0  0  0  0  0  0  0
   -7.7716  -41.2980    7.3163 C   0  0  2  0  0  0  0  0  0  0  0  0
   -7.2831  -41.9875    8.5659 C   0  0  0  0  0  0  0  0  0  0  0  0
   -5.8713  -42.5588    8.3921 C   0  0  0  0  0  0  0  0  0  0  0  0
   -4.7956  -41.6509    8.2385 O   0  0  0  0  0  0  0  0  0  0  0  0
  1 11  1  0  0  0  0
  3 13  1  1  0  0  0
  3 17  2  0  0  0  0
  3 20  1  0  0  0  0
  3 26  1  0  0  0  0
  4 14  1  1  0  0  0
  4 18  1  0  0  0  0
  4 21  2  0  0  0  0
  4 20  1  0  0  0  0
  5 19  1  0  0  0  0
  5  7  1  0  0  0  0
  6  7  2  0  0  0  0
  6 12  1  0  0  0  0
  7  8  1  0  0  0  0
  8  9  1  0  0  0  0
  8 10  2  0  0  0  0
 10 11  1  0  0  0  0
 11 12  2  0  0  0  0
 15 23  1  0  0  0  0
 15 16  1  0  0  0  0
 16 19  1  0  0  0  0
 19 22  1  0  0  0  0
 22  2  1  6  0  0  0
 22 23  1  0  0  0  0
 23 24  1  6  0  0  0
 24 25  1  0  0  0  0
 25 26  1  0  0  0  0
M  CHG  2  13  -1  18  -1
M  END
>  <CHROM.1>
-87.91868568,-23.05646332,-58.16626714,88.88821299,67.23310759,67.38083036
155.46751151,-132.19975536,-6.03438164,-41.34705039,6.62545065,-2.31513615
-0.45727720,1.75775027

>  <Name>
ligand

>  <RI>
0

>  <Rbt.Current_Directory>
/home/itssahil/PROJECTS/Mol_Feturizer/New_Systems/rnas/3D2G

>  <Rbt.Executable>
rbdock ($Id: //depot/dev/client3/rdock/2013.1/src/exe/rbdock.cxx#4 $)

>  <Rbt.Library>
libRbt.so (2013.1, Build901 2013/11/27)

>  <Rbt.Parameter_File>
/export/apps/rDock/src/rDock_2013.1_src/data/scripts/dock_solv.prm

>  <Rbt.Receptor>
prm/pocket_docking_2.prm

>  <SCORE>
-4.89679

>  <SCORE.INTER>
-7.94148

>  <SCORE.INTER.CONST>
1

>  <SCORE.INTER.POLAR>
0

>  <SCORE.INTER.ROT>
8

>  <SCORE.INTER.SOLV>
21.1388

>  <SCORE.INTER.VDW>
-21.2739

>  <SCORE.INTER.norm>
-0.305441

>  <SCORE.INTRA>
1.27446

>  <SCORE.INTRA.DIHEDRAL>
2.58603

>  <SCORE.INTRA.DIHEDRAL.0>
9.09364

>  <SCORE.INTRA.POLAR>
0

>  <SCORE.INTRA.POLAR.0>
0

>  <SCORE.INTRA.REPUL>
0

>  <SCORE.INTRA.REPUL.0>
0

>  <SCORE.INTRA.SOLV>
-1.84205

>  <SCORE.INTRA.SOLV.lig_0>
-78.5846

>  <SCORE.INTRA.VDW>
0.902471

>  <SCORE.INTRA.VDW.0>
-2.81163

>  <SCORE.INTRA.norm>
0.0490176

>  <SCORE.RESTR>
1.77023

>  <SCORE.RESTR.CAVITY>
1.77023

>  <SCORE.RESTR.norm>
0.0680857

>  <SCORE.SYSTEM>
0

>  <SCORE.SYSTEM.CONST>
0

>  <SCORE.SYSTEM.DIHEDRAL>
0

>  <SCORE.SYSTEM.SOLV>
0

>  <SCORE.SYSTEM.norm>
0

>  <SCORE.heavy>
26

>  <SCORE.norm>
-0.188338

>  <RMSD>
2.626

$$$$
ligand
 OpenBabel11021811463D
libRbt.so/2013.1/901 2013/11/27
 26 27  0  0  0  0  0  0  0  0999 V2000
  -13.8059  -37.6622    1.6682 C   0  0  0  0  0  0  0  0  0  0  0  0
   -6.2960  -40.6002    4.9088 C   0  0  0  0  0  0  0  0  0  0  0  0
   -5.2343  -42.8740    9.6151 P   0  0  1  0  0  0  0  0  0  0  0  0
   -5.6122  -43.4329   12.2774 P   0  0  2  0  0  0  0  0  0  0  0  0
   -8.5413  -38.8560    3.6170 C   0  0  0  0  0  0  0  0  0  0  0  0
  -10.8137  -37.8162    3.9136 C   0  0  0  0  0  0  0  0  0  0  0  0
   -9.9304  -38.5511    3.1170 C   0  0  0  0  0  0  0  0  0  0  0  0
  -10.3126  -38.9742    1.8411 C   0  0  0  0  0  0  0  0  0  0  0  0
   -9.4705  -39.6519    1.0896 N   0  0  0  0  0  0  0  0  0  0  0  0
  -11.5804  -38.7054    1.3860 N   0  0  0  0  0  0  0  0  0  0  0  0
  -12.4408  -37.9668    2.1739 C   0  0  0  0  0  0  0  0  0  0  0  0
  -12.0730  -37.5347    3.4343 N   0  0  0  0  0  0  0  0  0  0  0  0
   -4.0280  -42.4334    8.8436 O   0  5  0  0  0  0  0  0  0  0  0  0
   -5.9504  -42.0473   12.6614 O   0  0  0  0  0  0  0  0  0  0  0  0
   -9.6101  -40.3441    6.9748 S   0  0  0  0  0  0  0  0  0  0  0  0
   -9.7626  -39.4948    5.6490 C   0  0  0  0  0  0  0  0  0  0  0  0
   -6.0260  -43.9770    9.0068 O   0  0  0  0  0  0  0  0  0  0  0  0
   -4.9617  -44.1741   13.3746 O   0  5  0  0  0  0  0  0  0  0  0  0
   -8.6425  -39.5552    4.8681 N   0  0  0  0  0  0  0  0  0  0  0  0
   -4.6417  -43.2082   11.0443 O   0  0  0  0  0  0  0  0  0  0  0  0
   -6.7397  -44.3277   11.8760 O   0  0  0  0  0  0  0  0  0  0  0  0
   -7.6633  -40.3112    5.4487 C   0  0  1  0  0  0  0  0  0  0  0  0
   -8.1127  -40.8059    6.6473 C   0  0  2  0  0  0  0  0  0  0  0  0
   -7.4423  -41.6955    7.6645 C   0  0  0  0  0  0  0  0  0  0  0  0
   -6.5387  -40.9017    8.6149 C   0  0  0  0  0  0  0  0  0  0  0  0
   -6.0671  -41.5455    9.7846 O   0  0  0  0  0  0  0  0  0  0  0  0
  1 11  1  0  0  0  0
  3 13  1  6  0  0  0
  3 17  2  0  0  0  0
  3 20  1  0  0  0  0
  3 26  1  0  0  0  0
  4 14  1  1  0  0  0
  4 18  1  0  0  0  0
  4 21  2  0  0  0  0
  4 20  1  0  0  0  0
  5 19  1  0  0  0  0
  5  7  1  0  0  0  0
  6  7  2  0  0  0  0
  6 12  1  0  0  0  0
  7  8  1  0  0  0  0
  8  9  1  0  0  0  0
  8 10  2  0  0  0  0
 10 11  1  0  0  0  0
 11 12  2  0  0  0  0
 15 23  1  0  0  0  0
 15 16  1  0  0  0  0
 16 19  1  0  0  0  0
 19 22  1  0  0  0  0
 22  2  1  6  0  0  0
 22 23  1  0  0  0  0
 23 24  1  6  0  0  0
 24 25  1  0  0  0  0
 25 26  1  0  0  0  0
M  CHG  2  13  -1  18  -1
M  END
>  <CHROM.1>
167.41612667,-21.13819295,57.06418141,-79.47046142,-97.44378838,167.00083472
57.84107130,62.19406494,-7.86837604,-40.98325008,7.17708326,2.12809039,0.36501251
-1.29146799

>  <Name>
ligand

>  <RI>
0

>  <Rbt.Current_Directory>
/home/itssahil/PROJECTS/Mol_Feturizer/New_Systems/rnas/3D2G

>  <Rbt.Executable>
rbdock ($Id: //depot/dev/client3/rdock/2013.1/src/exe/rbdock.cxx#4 $)

>  <Rbt.Library>
libRbt.so (2013.1, Build901 2013/11/27)

>  <Rbt.Parameter_File>
/export/apps/rDock/src/rDock_2013.1_src/data/scripts/dock_solv.prm

>  <Rbt.Receptor>
prm/blind_docking_80.prm

>  <SCORE>
-19.4114

>  <SCORE.INTER>
-18.7798

>  <SCORE.INTER.CONST>
1

>  <SCORE.INTER.POLAR>
0

>  <SCORE.INTER.ROT>
8

>  <SCORE.INTER.SOLV>
22.7686

>  <SCORE.INTER.VDW>
-29.0428

>  <SCORE.INTER.norm>
-0.722301

>  <SCORE.INTRA>
-0.631766

>  <SCORE.INTRA.DIHEDRAL>
-3.09092

>  <SCORE.INTRA.DIHEDRAL.0>
9.09364

>  <SCORE.INTRA.POLAR>
0

>  <SCORE.INTRA.POLAR.0>
0

>  <SCORE.INTRA.REPUL>
0

>  <SCORE.INTRA.REPUL.0>
0

>  <SCORE.INTRA.SOLV>
-1.72086

>  <SCORE.INTRA.SOLV.lig_0>
-78.5846

>  <SCORE.INTRA.VDW>
1.77413

>  <SCORE.INTRA.VDW.0>
-2.81163

>  <SCORE.INTRA.norm>
-0.0242987

>  <SCORE.RESTR>
0.000187835

>  <SCORE.RESTR.CAVITY>
0.000187835

>  <SCORE.RESTR.norm>
7.22444e-06

>  <SCORE.SYSTEM>
0

>  <SCORE.SYSTEM.CONST>
0

>  <SCORE.SYSTEM.DIHEDRAL>
0

>  <SCORE.SYSTEM.SOLV>
0

>  <SCORE.SYSTEM.norm>
0

>  <SCORE.heavy>
26

>  <SCORE.norm>
-0.746592

>  <RMSD>
2.632

$$$$
ligand
 OpenBabel11021811463D
libRbt.so/2013.1/901 2013/11/27
 26 27  0  0  0  0  0  0  0  0999 V2000
  -13.5376  -37.7531    1.9547 C   0  0  0  0  0  0  0  0  0  0  0  0
   -8.0370  -38.6345    6.0808 C   0  0  0  0  0  0  0  0  0  0  0  0
   -4.1825  -42.2095    8.1524 P   0  0  1  0  0  0  0  0  0  0  0  0
   -4.3135  -40.5255   10.3180 P   0  0  2  0  0  0  0  0  0  0  0  0
   -8.1100  -39.2803    3.0263 C   0  0  0  0  0  0  0  0  0  0  0  0
  -10.3224  -38.3465    3.7791 C   0  0  0  0  0  0  0  0  0  0  0  0
   -9.5408  -38.8902    2.7552 C   0  0  0  0  0  0  0  0  0  0  0  0
  -10.0647  -39.0403    1.4683 C   0  0  0  0  0  0  0  0  0  0  0  0
   -9.3184  -39.5380    0.5048 N   0  0  0  0  0  0  0  0  0  0  0  0
  -11.3705  -38.6938    1.2202 N   0  0  0  0  0  0  0  0  0  0  0  0
  -12.1301  -38.1443    2.2339 C   0  0  0  0  0  0  0  0  0  0  0  0
  -11.6221  -37.9824    3.5091 N   0  0  0  0  0  0  0  0  0  0  0  0
   -3.2780  -42.2457    6.9586 O   0  5  0  0  0  0  0  0  0  0  0  0
   -5.4243  -39.7878    9.6826 O   0  0  0  0  0  0  0  0  0  0  0  0
   -8.1001  -42.4424    5.1788 S   0  0  0  0  0  0  0  0  0  0  0  0
   -8.1258  -41.5960    3.8426 C   0  0  0  0  0  0  0  0  0  0  0  0
   -4.3993  -43.5102    8.8414 O   0  0  0  0  0  0  0  0  0  0  0  0
   -3.4713  -39.6531   11.1583 O   0  5  0  0  0  0  0  0  0  0  0  0
   -8.0874  -40.2514    4.0851 N   0  0  0  0  0  0  0  0  0  0  0  0
   -3.5291  -41.0909    9.0618 O   0  0  0  0  0  0  0  0  0  0  0  0
   -4.6729  -41.6485   11.2361 O   0  0  0  0  0  0  0  0  0  0  0  0
   -8.0673  -39.9810    5.4244 C   0  0  1  0  0  0  0  0  0  0  0  0
   -8.0709  -41.1567    6.1321 C   0  0  2  0  0  0  0  0  0  0  0  0
   -8.0418  -41.4177    7.6176 C   0  0  0  0  0  0  0  0  0  0  0  0
   -6.7461  -42.1111    8.0537 C   0  0  0  0  0  0  0  0  0  0  0  0
   -5.5165  -41.5896    7.5837 O   0  0  0  0  0  0  0  0  0  0  0  0
  1 11  1  0  0  0  0
  3 13  1  6  0  0  0
  3 17  2  0  0  0  0
  3 20  1  0  0  0  0
  3 26  1  0  0  0  0
  4 14  1  6  0  0  0
  4 18  1  0  0  0  0
  4 21  2  0  0  0  0
  4 20  1  0  0  0  0
  5 19  1  0  0  0  0
  5  7  1  0  0  0  0
  6  7  2  0  0  0  0
  6 12  1  0  0  0  0
  7  8  1  0  0  0  0
  8  9  1  0  0  0  0
  8 10  2  0  0  0  0
 10 11  1  0  0  0  0
 11 12  2  0  0  0  0
 15 23  1  0  0  0  0
 15 16  1  0  0  0  0
 16 19  1  0  0  0  0
 19 22  1  0  0  0  0
 22  2  1  6  0  0  0
 22 23  1  0  0  0  0
 23 24  1  6  0  0  0
 24 25  1  0  0  0  0
 25 26  1  0  0  0  0
M  CHG  2  13  -1  18  -1
M  END
>  <CHROM.1>
168.57090805,91.71730698,58.45806028,-68.48379280,65.30968896,47.57399461
173.73207601,141.36030990,-7.20961516,-40.51844580,6.19709574,2.69599333
0.76718007,-2.19800686

>  <Name>
ligand

>  <RI>
0

>  <Rbt.Current_Directory>
/home/itssahil/PROJECTS/Mol_Feturizer/New_Systems/rnas/3D2G

>  <Rbt.Executable>
rbdock ($Id: //depot/dev/client3/rdock/2013.1/src/exe/rbdock.cxx#4 $)

>  <Rbt.Library>
libRbt.so (2013.1, Build901 2013/11/27)

>  <Rbt.Parameter_File>
/export/apps/rDock/src/rDock_2013.1_src/data/scripts/dock_solv.prm

>  <Rbt.Receptor>
prm/pocket_docking_4.prm

>  <SCORE>
-21.7031

>  <SCORE.INTER>
-18.7694

>  <SCORE.INTER.CONST>
1

>  <SCORE.INTER.POLAR>
0

>  <SCORE.INTER.ROT>
8

>  <SCORE.INTER.SOLV>
17.5659

>  <SCORE.INTER.VDW>
-27.3016

>  <SCORE.INTER.norm>
-0.721898

>  <SCORE.INTRA>
-2.95716

>  <SCORE.INTRA.DIHEDRAL>
-1.10041

>  <SCORE.INTRA.DIHEDRAL.0>
9.09364

>  <SCORE.INTRA.POLAR>
0

>  <SCORE.INTRA.POLAR.0>
0

>  <SCORE.INTRA.REPUL>
0

>  <SCORE.INTRA.REPUL.0>
0

>  <SCORE.INTRA.SOLV>
-2.87664

>  <SCORE.INTRA.SOLV.lig_0>
-78.5846

>  <SCORE.INTRA.VDW>
-0.968635

>  <SCORE.INTRA.VDW.0>
-2.81163

>  <SCORE.INTRA.norm>
-0.113737

>  <SCORE.RESTR>
0.0234181

>  <SCORE.RESTR.CAVITY>
0.0234181

>  <SCORE.RESTR.norm>
0.000900698

>  <SCORE.SYSTEM>
0

>  <SCORE.SYSTEM.CONST>
0

>  <SCORE.SYSTEM.DIHEDRAL>
0

>  <SCORE.SYSTEM.SOLV>
0

>  <SCORE.SYSTEM.norm>
0

>  <SCORE.heavy>
26

>  <SCORE.norm>
-0.834735

>  <RMSD>
2.635

$$$$
ligand
 OpenBabel11021811463D
libRbt.so/2013.1/901 2013/11/27
 26 27  0  0  0  0  0  0  0  0999 V2000
  -13.2771  -37.7331    2.0357 C   0  0  0  0  0  0  0  0  0  0  0  0
   -6.9494  -42.3191    2.3535 C   0  0  0  0  0  0  0  0  0  0  0  0
   -5.1572  -44.4017    7.4270 P   0  0  1  0  0  0  0  0  0  0  0  0
   -6.9328  -44.0271    9.4885 P   0  0  2  0  0  0  0  0  0  0  0  0
   -7.8793  -39.4143    3.0241 C   0  0  0  0  0  0  0  0  0  0  0  0
  -10.0962  -38.5433    3.8367 C   0  0  0  0  0  0  0  0  0  0  0  0
   -9.3025  -38.9847    2.7737 C   0  0  0  0  0  0  0  0  0  0  0  0
   -9.8068  -38.9950    1.4703 C   0  0  0  0  0  0  0  0  0  0  0  0
   -9.0491  -39.3966    0.4716 N   0  0  0  0  0  0  0  0  0  0  0  0
  -11.1058  -38.6124    1.2400 N   0  0  0  0  0  0  0  0  0  0  0  0
  -11.8773  -38.1644    2.2938 C   0  0  0  0  0  0  0  0  0  0  0  0
  -11.3885  -38.1409    3.5865 N   0  0  0  0  0  0  0  0  0  0  0  0
   -3.9759  -43.8582    8.1709 O   0  5  0  0  0  0  0  0  0  0  0  0
   -7.7226  -45.2346    9.1726 O   0  0  0  0  0  0  0  0  0  0  0  0
   -8.1844  -41.7656    6.0258 S   0  0  0  0  0  0  0  0  0  0  0  0
   -8.2852  -40.3982    5.2369 C   0  0  0  0  0  0  0  0  0  0  0  0
   -5.3093  -45.8816    7.4435 O   0  0  0  0  0  0  0  0  0  0  0  0
   -7.7554  -42.9644   10.0971 O   0  5  0  0  0  0  0  0  0  0  0  0
   -7.8844  -40.5245    3.9362 N   0  0  0  0  0  0  0  0  0  0  0  0
   -6.3735  -43.6142    8.0638 O   0  0  0  0  0  0  0  0  0  0  0  0
   -5.7996  -44.1814   10.4504 O   0  0  0  0  0  0  0  0  0  0  0  0
   -7.4692  -41.7963    3.6579 C   0  0  1  0  0  0  0  0  0  0  0  0
   -7.6007  -42.5795    4.7770 C   0  0  2  0  0  0  0  0  0  0  0  0
   -7.3014  -44.0406    5.0032 C   0  0  0  0  0  0  0  0  0  0  0  0
   -5.7983  -44.3352    4.9417 C   0  0  0  0  0  0  0  0  0  0  0  0
   -4.9727  -43.8227    5.9716 O   0  0  0  0  0  0  0  0  0  0  0  0
  1 11  1  0  0  0  0
  3 13  1  1  0  0  0
  3 17  2  0  0  0  0
  3 20  1  0  0  0  0
  3 26  1  0  0  0  0
  4 14  1  6  0  0  0
  4 18  1  0  0  0  0
  4 21  2  0  0  0  0
  4 20  1  0  0  0  0
  5 19  1  0  0  0  0
  5  7  1  0  0  0  0
  6  7  2  0  0  0  0
  6 12  1  0  0  0  0
  7  8  1  0  0  0  0
  8  9  1  0  0  0  0
  8 10  2  0  0  0  0
 10 11  1  0  0  0  0
 11 12  2  0  0  0  0
 15 23  1  0  0  0  0
 15 16  1  0  0  0  0
 16 19  1  0  0  0  0
 19 22  1  0  0  0  0
 22  2  1  6  0  0  0
 22 23  1  0  0  0  0
 23 24  1  6  0  0  0
 24 25  1  0  0  0  0
 25 26  1  0  0  0  0
M  CHG  2  13  -1  18  -1
M  END
>  <CHROM.1>
-77.15738311,-66.66864498,60.66870397,-77.19957147,-112.60783701,68.22560088
67.02245379,169.08378820,-7.72723086,-42.02647099,5.57809820,2.21710033,0.65809516
-1.27535572

>  <Name>
ligand

>  <RI>
0

>  <Rbt.Current_Directory>
/home/itssahil/PROJECTS/Mol_Feturizer/New_Systems/rnas/3D2G

>  <Rbt.Executable>
rbdock ($Id: //depot/dev/client3/rdock/2013.1/src/exe/rbdock.cxx#4 $)

>  <Rbt.Library>
libRbt.so (2013.1, Build901 2013/11/27)

>  <Rbt.Parameter_File>
/export/apps/rDock/src/rDock_2013.1_src/data/scripts/dock_solv.prm

>  <Rbt.Receptor>
prm/pocket_docking_4.prm

>  <SCORE>
-20.2901

>  <SCORE.INTER>
-17.0296

>  <SCORE.INTER.CONST>
1

>  <SCORE.INTER.POLAR>
0

>  <SCORE.INTER.ROT>
8

>  <SCORE.INTER.SOLV>
17.7515

>  <SCORE.INTER.VDW>
-26.2036

>  <SCORE.INTER.norm>
-0.654985

>  <SCORE.INTRA>
-3.26498

>  <SCORE.INTRA.DIHEDRAL>
-2.91034

>  <SCORE.INTRA.DIHEDRAL.0>
9.09364

>  <SCORE.INTRA.POLAR>
0

>  <SCORE.INTRA.POLAR.0>
0

>  <SCORE.INTRA.REPUL>
0

>  <SCORE.INTRA.REPUL.0>
0

>  <SCORE.INTRA.SOLV>
-0.375861

>  <SCORE.INTRA.SOLV.lig_0>
-78.5846

>  <SCORE.INTRA.VDW>
-1.62188

>  <SCORE.INTRA.VDW.0>
-2.81163

>  <SCORE.INTRA.norm>
-0.125576

>  <SCORE.RESTR>
0.0044808

>  <SCORE.RESTR.CAVITY>
0.0044808

>  <SCORE.RESTR.norm>
0.000172339

>  <SCORE.SYSTEM>
0

>  <SCORE.SYSTEM.CONST>
0

>  <SCORE.SYSTEM.DIHEDRAL>
0

>  <SCORE.SYSTEM.SOLV>
0

>  <SCORE.SYSTEM.norm>
0

>  <SCORE.heavy>
26

>  <SCORE.norm>
-0.780389

>  <RMSD>
2.640

$$$$
ligand
 OpenBabel11021811463D
libRbt.so/2013.1/901 2013/11/27
 26 27  0  0  0  0  0  0  0  0999 V2000
  -13.7178  -37.6941    1.7593 C   0  0  0  0  0  0  0  0  0  0  0  0
   -6.2181  -38.2391    5.4103 C   0  0  0  0  0  0  0  0  0  0  0  0
   -5.5849  -41.9627    6.6540 P   0  0  1  0  0  0  0  0  0  0  0  0
   -6.0296  -43.9602    8.4858 P   0  0  2  0  0  0  0  0  0  0  0  0
   -8.4173  -39.1657    3.3960 C   0  0  0  0  0  0  0  0  0  0  0  0
  -10.6709  -38.1581    3.8853 C   0  0  0  0  0  0  0  0  0  0  0  0
   -9.8156  -38.7893    2.9769 C   0  0  0  0  0  0  0  0  0  0  0  0
  -10.2345  -39.0406    1.6676 C   0  0  0  0  0  0  0  0  0  0  0  0
   -9.4187  -39.6207    0.8125 N   0  0  0  0  0  0  0  0  0  0  0  0
  -11.5108  -38.7067    1.2851 N   0  0  0  0  0  0  0  0  0  0  0  0
  -12.3433  -38.0708    2.1846 C   0  0  0  0  0  0  0  0  0  0  0  0
  -11.9391  -37.8085    3.4801 N   0  0  0  0  0  0  0  0  0  0  0  0
   -4.5295  -41.7512    5.6120 O   0  5  0  0  0  0  0  0  0  0  0  0
   -7.4027  -43.5144    8.1732 O   0  0  0  0  0  0  0  0  0  0  0  0
   -9.1785  -40.2604    6.9813 S   0  0  0  0  0  0  0  0  0  0  0  0
   -9.4228  -40.1146    5.4252 C   0  0  0  0  0  0  0  0  0  0  0  0
   -6.9921  -41.8602    6.1821 O   0  0  0  0  0  0  0  0  0  0  0  0
   -5.5566  -43.4448    9.7847 O   0  5  0  0  0  0  0  0  0  0  0  0
   -8.4127  -39.4311    4.8081 N   0  0  0  0  0  0  0  0  0  0  0  0
   -5.2039  -43.3712    7.2675 O   0  0  0  0  0  0  0  0  0  0  0  0
   -5.7940  -45.4321    8.5908 O   0  0  0  0  0  0  0  0  0  0  0  0
   -7.4627  -39.0211    5.7007 C   0  0  1  0  0  0  0  0  0  0  0  0
   -7.8026  -39.4423    6.9617 C   0  0  2  0  0  0  0  0  0  0  0  0
   -7.1004  -39.2697    8.2856 C   0  0  0  0  0  0  0  0  0  0  0  0
   -6.2546  -40.4947    8.6511 C   0  0  0  0  0  0  0  0  0  0  0  0
   -5.2310  -40.8928    7.7574 O   0  0  0  0  0  0  0  0  0  0  0  0
  1 11  1  0  0  0  0
  3 13  1  6  0  0  0
  3 17  2  0  0  0  0
  3 20  1  0  0  0  0
  3 26  1  0  0  0  0
  4 14  1  6  0  0  0
  4 18  1  0  0  0  0
  4 21  2  0  0  0  0
  4 20  1  0  0  0  0
  5 19  1  0  0  0  0
  5  7  1  0  0  0  0
  6  7  2  0  0  0  0
  6 12  1  0  0  0  0
  7  8  1  0  0  0  0
  8  9  1  0  0  0  0
  8 10  2  0  0  0  0
 10 11  1  0  0  0  0
 11 12  2  0  0  0  0
 15 23  1  0  0  0  0
 15 16  1  0  0  0  0
 16 19  1  0  0  0  0
 19 22  1  0  0  0  0
 22  2  1  6  0  0  0
 22 23  1  0  0  0  0
 23 24  1  6  0  0  0
 24 25  1  0  0  0  0
 25 26  1  0  0  0  0
M  CHG  2  13  -1  18  -1
M  END
>  <CHROM.1>
176.57110646,40.67679248,29.44930678,36.45774028,82.73056707,58.49577861
-92.14706286,158.59190880,-7.89574765,-40.69187157,5.81225836,2.76042474
-0.87711931,0.20250259

>  <Name>
ligand

>  <RI>
0

>  <Rbt.Current_Directory>
/home/itssahil/PROJECTS/Mol_Feturizer/New_Systems/rnas/3D2G

>  <Rbt.Executable>
rbdock ($Id: //depot/dev/client3/rdock/2013.1/src/exe/rbdock.cxx#4 $)

>  <Rbt.Library>
libRbt.so (2013.1, Build901 2013/11/27)

>  <Rbt.Parameter_File>
/export/apps/rDock/src/rDock_2013.1_src/data/scripts/dock_solv.prm

>  <Rbt.Receptor>
prm/pocket_docking_3.prm

>  <SCORE>
-19.5006

>  <SCORE.INTER>
-20.2871

>  <SCORE.INTER.CONST>
1

>  <SCORE.INTER.POLAR>
0

>  <SCORE.INTER.ROT>
8

>  <SCORE.INTER.SOLV>
16.176

>  <SCORE.INTER.VDW>
-27.8501

>  <SCORE.INTER.norm>
-0.780274

>  <SCORE.INTRA>
0.786565

>  <SCORE.INTRA.DIHEDRAL>
1.63582

>  <SCORE.INTRA.DIHEDRAL.0>
9.09364

>  <SCORE.INTRA.POLAR>
0

>  <SCORE.INTRA.POLAR.0>
0

>  <SCORE.INTRA.REPUL>
0

>  <SCORE.INTRA.REPUL.0>
0

>  <SCORE.INTRA.SOLV>
1.05618

>  <SCORE.INTRA.SOLV.lig_0>
-78.5846

>  <SCORE.INTRA.VDW>
-0.559432

>  <SCORE.INTRA.VDW.0>
-2.81163

>  <SCORE.INTRA.norm>
0.0302525

>  <SCORE.RESTR>
0

>  <SCORE.RESTR.CAVITY>
0

>  <SCORE.RESTR.norm>
0

>  <SCORE.SYSTEM>
0

>  <SCORE.SYSTEM.CONST>
0

>  <SCORE.SYSTEM.DIHEDRAL>
0

>  <SCORE.SYSTEM.SOLV>
0

>  <SCORE.SYSTEM.norm>
0

>  <SCORE.heavy>
26

>  <SCORE.norm>
-0.750021

>  <RMSD>
2.652

$$$$
ligand
 OpenBabel11021811463D
libRbt.so/2013.1/901 2013/11/27
 26 27  0  0  0  0  0  0  0  0999 V2000
  -13.5647  -37.7180    1.8986 C   0  0  0  0  0  0  0  0  0  0  0  0
   -8.2020  -38.4613    6.0924 C   0  0  0  0  0  0  0  0  0  0  0  0
   -5.8240  -43.3940   10.0470 P   0  0  1  0  0  0  0  0  0  0  0  0
   -3.8089  -41.5281   10.0704 P   0  0  2  0  0  0  0  0  0  0  0  0
   -8.1531  -39.2312    3.0663 C   0  0  0  0  0  0  0  0  0  0  0  0
  -10.4070  -38.3834    3.7972 C   0  0  0  0  0  0  0  0  0  0  0  0
   -9.5798  -38.8456    2.7691 C   0  0  0  0  0  0  0  0  0  0  0  0
  -10.0545  -38.9172    1.4566 C   0  0  0  0  0  0  0  0  0  0  0  0
   -9.2656  -39.3380    0.4904 N   0  0  0  0  0  0  0  0  0  0  0  0
  -11.3565  -38.5746    1.1839 N   0  0  0  0  0  0  0  0  0  0  0  0
  -12.1615  -38.1057    2.2030 C   0  0  0  0  0  0  0  0  0  0  0  0
  -11.7024  -38.0217    3.5041 N   0  0  0  0  0  0  0  0  0  0  0  0
   -6.0594  -44.6301    9.2338 O   0  5  0  0  0  0  0  0  0  0  0  0
   -3.4204  -42.0136   11.4102 O   0  0  0  0  0  0  0  0  0  0  0  0
   -8.1391  -42.3027    5.3461 S   0  0  0  0  0  0  0  0  0  0  0  0
   -8.1396  -41.5118    3.9762 C   0  0  0  0  0  0  0  0  0  0  0  0
   -5.7913  -43.5846   11.5221 O   0  0  0  0  0  0  0  0  0  0  0  0
   -4.7362  -40.3827   10.1381 O   0  5  0  0  0  0  0  0  0  0  0  0
   -8.1430  -40.1580    4.1643 N   0  0  0  0  0  0  0  0  0  0  0  0
   -4.4849  -42.8134    9.4348 O   0  0  0  0  0  0  0  0  0  0  0  0
   -2.7171  -41.0373    9.1759 O   0  0  0  0  0  0  0  0  0  0  0  0
   -8.1761  -39.8334    5.4913 C   0  0  1  0  0  0  0  0  0  0  0  0
   -8.1749  -40.9794    6.2463 C   0  0  2  0  0  0  0  0  0  0  0  0
   -8.1908  -41.1795    7.7414 C   0  0  0  0  0  0  0  0  0  0  0  0
   -7.0214  -42.0490    8.2169 C   0  0  0  0  0  0  0  0  0  0  0  0
   -6.9768  -42.4234    9.5817 O   0  0  0  0  0  0  0  0  0  0  0  0
  1 11  1  0  0  0  0
  3 13  1  6  0  0  0
  3 17  2  0  0  0  0
  3 20  1  0  0  0  0
  3 26  1  0  0  0  0
  4 14  1  1  0  0  0
  4 18  1  0  0  0  0
  4 21  2  0  0  0  0
  4 20  1  0  0  0  0
  5 19  1  0  0  0  0
  5  7  1  0  0  0  0
  6  7  2  0  0  0  0
  6 12  1  0  0  0  0
  7  8  1  0  0  0  0
  8  9  1  0  0  0  0
  8 10  2  0  0  0  0
 10 11  1  0  0  0  0
 11 12  2  0  0  0  0
 15 23  1  0  0  0  0
 15 16  1  0  0  0  0
 16 19  1  0  0  0  0
 19 22  1  0  0  0  0
 22  2  1  1  0  0  0
 22 23  1  0  0  0  0
 23 24  1  1  0  0  0
 24 25  1  0  0  0  0
 25 26  1  0  0  0  0
M  CHG  2  13  -1  18  -1
M  END
>  <CHROM.1>
-176.17352511,94.05814149,51.94179672,65.21644209,54.67224503,-174.30425408
176.12107335,-60.75296119,-7.48134319,-40.90288877,6.57930440,2.29596574
-0.54346517,-0.69597095

>  <Name>
ligand

>  <RI>
0

>  <Rbt.Current_Directory>
/home/itssahil/PROJECTS/Mol_Feturizer/New_Systems/rnas/3D2G

>  <Rbt.Executable>
rbdock ($Id: //depot/dev/client3/rdock/2013.1/src/exe/rbdock.cxx#4 $)

>  <Rbt.Library>
libRbt.so (2013.1, Build901 2013/11/27)

>  <Rbt.Parameter_File>
/export/apps/rDock/src/rDock_2013.1_src/data/scripts/dock_solv.prm

>  <Rbt.Receptor>
prm/pocket_docking_4.prm

>  <SCORE>
-21.5132

>  <SCORE.INTER>
-18.7723

>  <SCORE.INTER.CONST>
1

>  <SCORE.INTER.POLAR>
0

>  <SCORE.INTER.ROT>
8

>  <SCORE.INTER.SOLV>
17.9049

>  <SCORE.INTER.VDW>
-27.4165

>  <SCORE.INTER.norm>
-0.722012

>  <SCORE.INTRA>
-2.74089

>  <SCORE.INTRA.DIHEDRAL>
-3.45815

>  <SCORE.INTRA.DIHEDRAL.0>
9.09364

>  <SCORE.INTRA.POLAR>
0

>  <SCORE.INTRA.POLAR.0>
0

>  <SCORE.INTRA.REPUL>
0

>  <SCORE.INTRA.REPUL.0>
0

>  <SCORE.INTRA.SOLV>
-2.18868

>  <SCORE.INTRA.SOLV.lig_0>
-78.5846

>  <SCORE.INTRA.VDW>
0.0825233

>  <SCORE.INTRA.VDW.0>
-2.81163

>  <SCORE.INTRA.norm>
-0.105419

>  <SCORE.RESTR>
0

>  <SCORE.RESTR.CAVITY>
0

>  <SCORE.RESTR.norm>
0

>  <SCORE.SYSTEM>
0

>  <SCORE.SYSTEM.CONST>
0

>  <SCORE.SYSTEM.DIHEDRAL>
0

>  <SCORE.SYSTEM.SOLV>
0

>  <SCORE.SYSTEM.norm>
0

>  <SCORE.heavy>
26

>  <SCORE.norm>
-0.827431

>  <RMSD>
2.652

$$$$
ligand
 OpenBabel11021811463D
libRbt.so/2013.1/901 2013/11/27
 26 27  0  0  0  0  0  0  0  0999 V2000
  -12.6644  -37.6190    2.3523 C   0  0  0  0  0  0  0  0  0  0  0  0
   -6.2790  -42.0268    4.9046 C   0  0  0  0  0  0  0  0  0  0  0  0
   -6.6929  -43.3639    8.9974 P   0  0  1  0  0  0  0  0  0  0  0  0
   -5.6777  -44.6936   11.1755 P   0  0  2  0  0  0  0  0  0  0  0  0
   -7.5143  -40.1184    2.7635 C   0  0  0  0  0  0  0  0  0  0  0  0
   -9.3009  -38.9697    1.4137 C   0  0  0  0  0  0  0  0  0  0  0  0
   -8.8600  -39.4481    2.6513 C   0  0  0  0  0  0  0  0  0  0  0  0
   -9.6752  -39.3441    3.7816 C   0  0  0  0  0  0  0  0  0  0  0  0
   -9.2607  -39.8110    4.9407 N   0  0  0  0  0  0  0  0  0  0  0  0
  -10.8981  -38.7263    3.6845 N   0  0  0  0  0  0  0  0  0  0  0  0
  -11.3311  -38.2700    2.4554 C   0  0  0  0  0  0  0  0  0  0  0  0
  -10.5388  -38.3739    1.3276 N   0  0  0  0  0  0  0  0  0  0  0  0
   -6.8890  -44.6757    8.3009 O   0  5  0  0  0  0  0  0  0  0  0  0
   -6.8346  -44.1291   11.8999 O   0  0  0  0  0  0  0  0  0  0  0  0
   -6.0276  -38.2083    5.7254 S   0  0  0  0  0  0  0  0  0  0  0  0
   -6.7544  -38.3889    4.3321 C   0  0  0  0  0  0  0  0  0  0  0  0
   -7.8998  -42.7901    9.6515 O   0  0  0  0  0  0  0  0  0  0  0  0
   -4.4767  -44.7876   12.0270 O   0  5  0  0  0  0  0  0  0  0  0  0
   -6.8922  -39.7053    3.9910 N   0  0  0  0  0  0  0  0  0  0  0  0
   -5.4940  -43.6606    9.9872 O   0  0  0  0  0  0  0  0  0  0  0  0
   -5.8213  -46.0756   10.6255 O   0  0  0  0  0  0  0  0  0  0  0  0
   -6.3380  -40.5299    4.9293 C   0  0  1  0  0  0  0  0  0  0  0  0
   -5.8214  -39.7791    5.9553 C   0  0  2  0  0  0  0  0  0  0  0  0
   -5.1228  -40.1898    7.2277 C   0  0  0  0  0  0  0  0  0  0  0  0
   -6.0237  -41.0427    8.1280 C   0  0  0  0  0  0  0  0  0  0  0  0
   -6.1091  -42.4318    7.8671 O   0  0  0  0  0  0  0  0  0  0  0  0
  1 11  1  0  0  0  0
  3 13  1  6  0  0  0
  3 17  2  0  0  0  0
  3 20  1  0  0  0  0
  3 26  1  0  0  0  0
  4 14  1  1  0  0  0
  4 18  1  0  0  0  0
  4 21  2  0  0  0  0
  4 20  1  0  0  0  0
  5 19  1  0  0  0  0
  5  7  1  0  0  0  0
  6  7  2  0  0  0  0
  6 12  1  0  0  0  0
  7  8  1  0  0  0  0
  8  9  1  0  0  0  0
  8 10  2  0  0  0  0
 10 11  1  0  0  0  0
 11 12  2  0  0  0  0
 15 23  1  0  0  0  0
 15 16  1  0  0  0  0
 16 19  1  0  0  0  0
 19 22  1  0  0  0  0
 22  2  1  1  0  0  0
 22 23  1  0  0  0  0
 23 24  1  1  0  0  0
 24 25  1  0  0  0  0
 25 26  1  0  0  0  0
M  CHG  2  13  -1  18  -1
M  END
>  <CHROM.1>
-65.37906073,-52.11144501,140.56585078,-56.72507909,117.81051541,83.42500937
163.34413014,169.19117684,-7.27650960,-41.31943471,6.69247425,1.95110557
-0.27613245,-0.82544622

>  <Name>
ligand

>  <RI>
0

>  <Rbt.Current_Directory>
/home/itssahil/PROJECTS/Mol_Feturizer/New_Systems/rnas/3D2G

>  <Rbt.Executable>
rbdock ($Id: //depot/dev/client3/rdock/2013.1/src/exe/rbdock.cxx#4 $)

>  <Rbt.Library>
libRbt.so (2013.1, Build901 2013/11/27)

>  <Rbt.Parameter_File>
/export/apps/rDock/src/rDock_2013.1_src/data/scripts/dock_solv.prm

>  <Rbt.Receptor>
prm/pocket_docking_6.prm

>  <SCORE>
-21.2858

>  <SCORE.INTER>
-21.7695

>  <SCORE.INTER.CONST>
1

>  <SCORE.INTER.POLAR>
0

>  <SCORE.INTER.ROT>
8

>  <SCORE.INTER.SOLV>
17.1596

>  <SCORE.INTER.VDW>
-29.1662

>  <SCORE.INTER.norm>
-0.837287

>  <SCORE.INTRA>
0.45618

>  <SCORE.INTRA.DIHEDRAL>
-0.977703

>  <SCORE.INTRA.DIHEDRAL.0>
9.09364

>  <SCORE.INTRA.POLAR>
0

>  <SCORE.INTRA.POLAR.0>
0

>  <SCORE.INTRA.REPUL>
0

>  <SCORE.INTRA.REPUL.0>
0

>  <SCORE.INTRA.SOLV>
2.21536

>  <SCORE.INTRA.SOLV.lig_0>
-78.5846

>  <SCORE.INTRA.VDW>
-0.162651

>  <SCORE.INTRA.VDW.0>
-2.81163

>  <SCORE.INTRA.norm>
0.0175454

>  <SCORE.RESTR>
0.0274705

>  <SCORE.RESTR.CAVITY>
0.0274705

>  <SCORE.RESTR.norm>
0.00105656

>  <SCORE.SYSTEM>
0

>  <SCORE.SYSTEM.CONST>
0

>  <SCORE.SYSTEM.DIHEDRAL>
0

>  <SCORE.SYSTEM.SOLV>
0

>  <SCORE.SYSTEM.norm>
0

>  <SCORE.heavy>
26

>  <SCORE.norm>
-0.818685

>  <RMSD>
2.655

$$$$
ligand
 OpenBabel11021811463D
libRbt.so/2013.1/901 2013/11/27
 26 27  0  0  0  0  0  0  0  0999 V2000
  -13.0524  -37.8896    1.8306 C   0  0  0  0  0  0  0  0  0  0  0  0
   -5.7774  -40.2271    5.8818 C   0  0  0  0  0  0  0  0  0  0  0  0
   -4.6102  -43.3620    8.9220 P   0  0  1  0  0  0  0  0  0  0  0  0
   -3.5290  -40.8457    9.1275 P   0  0  2  0  0  0  0  0  0  0  0  0
   -7.7895  -39.0604    3.7979 C   0  0  0  0  0  0  0  0  0  0  0  0
  -10.1230  -38.1839    4.1438 C   0  0  0  0  0  0  0  0  0  0  0  0
   -9.1780  -38.7633    3.2916 C   0  0  0  0  0  0  0  0  0  0  0  0
   -9.4991  -39.0353    1.9589 C   0  0  0  0  0  0  0  0  0  0  0  0
   -8.5997  -39.5661    1.1574 N   0  0  0  0  0  0  0  0  0  0  0  0
  -10.7660  -38.7737    1.4969 N   0  0  0  0  0  0  0  0  0  0  0  0
  -11.6880  -38.1883    2.3417 C   0  0  0  0  0  0  0  0  0  0  0  0
  -11.3813  -37.9062    3.6596 N   0  0  0  0  0  0  0  0  0  0  0  0
   -3.9550  -43.5879    7.5939 O   0  5  0  0  0  0  0  0  0  0  0  0
   -2.9427  -41.0138    7.7823 O   0  0  0  0  0  0  0  0  0  0  0  0
   -8.3507  -42.7916    4.4261 S   0  0  0  0  0  0  0  0  0  0  0  0
   -8.6176  -41.3719    3.7817 C   0  0  0  0  0  0  0  0  0  0  0  0
   -4.9068  -44.5851    9.7154 O   0  0  0  0  0  0  0  0  0  0  0  0
   -2.6850  -40.0125   10.0050 O   0  5  0  0  0  0  0  0  0  0  0  0
   -7.7386  -40.4283    4.2347 N   0  0  0  0  0  0  0  0  0  0  0  0
   -3.6302  -42.3440    9.6352 O   0  0  0  0  0  0  0  0  0  0  0  0
   -4.8699  -40.1916    9.2141 O   0  0  0  0  0  0  0  0  0  0  0  0
   -6.8711  -40.9475    5.1540 C   0  0  1  0  0  0  0  0  0  0  0  0
   -7.1335  -42.2825    5.3328 C   0  0  2  0  0  0  0  0  0  0  0  0
   -6.4695  -43.3125    6.2125 C   0  0  0  0  0  0  0  0  0  0  0  0
   -6.8502  -43.1396    7.6872 C   0  0  0  0  0  0  0  0  0  0  0  0
   -5.9065  -42.5413    8.5570 O   0  0  0  0  0  0  0  0  0  0  0  0
  1 11  1  0  0  0  0
  3 13  1  6  0  0  0
  3 17  2  0  0  0  0
  3 20  1  0  0  0  0
  3 26  1  0  0  0  0
  4 14  1  6  0  0  0
  4 18  1  0  0  0  0
  4 21  2  0  0  0  0
  4 20  1  0  0  0  0
  5 19  1  0  0  0  0
  5  7  1  0  0  0  0
  6  7  2  0  0  0  0
  6 12  1  0  0  0  0
  7  8  1  0  0  0  0
  8  9  1  0  0  0  0
  8 10  2  0  0  0  0
 10 11  1  0  0  0  0
 11 12  2  0  0  0  0
 15 23  1  0  0  0  0
 15 16  1  0  0  0  0
 16 19  1  0  0  0  0
 19 22  1  0  0  0  0
 22  2  1  6  0  0  0
 22 23  1  0  0  0  0
 23 24  1  6  0  0  0
 24 25  1  0  0  0  0
 25 26  1  0  0  0  0
M  CHG  2  13  -1  18  -1
M  END
>  <CHROM.1>
70.37245771,22.49860827,95.04792168,-66.03881896,-105.68377640,-103.14676382
-70.26695093,60.22794098,-6.83408822,-41.04224435,6.03758624,-2.73446927
0.76894519,3.05625292

>  <Name>
ligand

>  <RI>
0

>  <Rbt.Current_Directory>
/home/itssahil/PROJECTS/Mol_Feturizer/New_Systems/rnas/3D2G

>  <Rbt.Executable>
rbdock ($Id: //depot/dev/client3/rdock/2013.1/src/exe/rbdock.cxx#4 $)

>  <Rbt.Library>
libRbt.so (2013.1, Build901 2013/11/27)

>  <Rbt.Parameter_File>
/export/apps/rDock/src/rDock_2013.1_src/data/scripts/dock_solv.prm

>  <Rbt.Receptor>
prm/pocket_docking_2.prm

>  <SCORE>
-10.4263

>  <SCORE.INTER>
-11.9919

>  <SCORE.INTER.CONST>
1

>  <SCORE.INTER.POLAR>
0

>  <SCORE.INTER.ROT>
8

>  <SCORE.INTER.SOLV>
13.9289

>  <SCORE.INTER.VDW>
-21.5709

>  <SCORE.INTER.norm>
-0.461229

>  <SCORE.INTRA>
0.822759

>  <SCORE.INTRA.DIHEDRAL>
1.30499

>  <SCORE.INTRA.DIHEDRAL.0>
9.09364

>  <SCORE.INTRA.POLAR>
0

>  <SCORE.INTRA.POLAR.0>
0

>  <SCORE.INTRA.REPUL>
0

>  <SCORE.INTRA.REPUL.0>
0

>  <SCORE.INTRA.SOLV>
1.13355

>  <SCORE.INTRA.SOLV.lig_0>
-78.5846

>  <SCORE.INTRA.VDW>
-0.396509

>  <SCORE.INTRA.VDW.0>
-2.81163

>  <SCORE.INTRA.norm>
0.0316446

>  <SCORE.RESTR>
0.742896

>  <SCORE.RESTR.CAVITY>
0.742896

>  <SCORE.RESTR.norm>
0.0285729

>  <SCORE.SYSTEM>
0

>  <SCORE.SYSTEM.CONST>
0

>  <SCORE.SYSTEM.DIHEDRAL>
0

>  <SCORE.SYSTEM.SOLV>
0

>  <SCORE.SYSTEM.norm>
0

>  <SCORE.heavy>
26

>  <SCORE.norm>
-0.401011

>  <RMSD>
2.666

$$$$
ligand
 OpenBabel11021811463D
libRbt.so/2013.1/901 2013/11/27
 26 27  0  0  0  0  0  0  0  0999 V2000
  -13.2370  -37.8272    1.8497 C   0  0  0  0  0  0  0  0  0  0  0  0
   -6.8969  -42.2796    2.4150 C   0  0  0  0  0  0  0  0  0  0  0  0
   -4.1507  -44.1561    5.9835 P   0  0  1  0  0  0  0  0  0  0  0  0
   -2.4910  -42.8347    7.7277 P   0  0  2  0  0  0  0  0  0  0  0  0
   -7.8400  -39.3702    3.0462 C   0  0  0  0  0  0  0  0  0  0  0  0
   -9.7960  -39.2527    1.4671 C   0  0  0  0  0  0  0  0  0  0  0  0
   -9.2522  -38.9552    2.7203 C   0  0  0  0  0  0  0  0  0  0  0  0
  -10.0221  -38.3079    3.6905 C   0  0  0  0  0  0  0  0  0  0  0  0
   -9.5093  -38.0450    4.8742 N   0  0  0  0  0  0  0  0  0  0  0  0
  -11.3063  -37.9209    3.3939 N   0  0  0  0  0  0  0  0  0  0  0  0
  -11.8395  -38.2317    2.1588 C   0  0  0  0  0  0  0  0  0  0  0  0
  -11.0921  -38.8790    1.1929 N   0  0  0  0  0  0  0  0  0  0  0  0
   -4.4313  -43.9886    4.5214 O   0  5  0  0  0  0  0  0  0  0  0  0
   -2.0000  -44.1704    8.1235 O   0  0  0  0  0  0  0  0  0  0  0  0
   -8.2619  -41.7144    6.0392 S   0  0  0  0  0  0  0  0  0  0  0  0
   -8.3292  -40.3483    5.2446 C   0  0  0  0  0  0  0  0  0  0  0  0
   -3.8207  -45.5375    6.4264 O   0  0  0  0  0  0  0  0  0  0  0  0
   -3.5611  -42.3461    8.6179 O   0  5  0  0  0  0  0  0  0  0  0  0
   -7.8821  -40.4786    3.9595 N   0  0  0  0  0  0  0  0  0  0  0  0
   -3.0075  -43.0948    6.2517 O   0  0  0  0  0  0  0  0  0  0  0  0
   -1.5028  -41.7137    7.7266 O   0  0  0  0  0  0  0  0  0  0  0  0
   -7.4616  -41.7524    3.6987 C   0  0  1  0  0  0  0  0  0  0  0  0
   -7.6364  -42.5329    4.8138 C   0  0  2  0  0  0  0  0  0  0  0  0
   -7.3506  -43.9946    5.0533 C   0  0  0  0  0  0  0  0  0  0  0  0
   -6.6811  -44.2339    6.4113 C   0  0  0  0  0  0  0  0  0  0  0  0
   -5.4493  -43.5869    6.6741 O   0  0  0  0  0  0  0  0  0  0  0  0
  1 11  1  0  0  0  0
  3 13  1  6  0  0  0
  3 17  2  0  0  0  0
  3 20  1  0  0  0  0
  3 26  1  0  0  0  0
  4 14  1  1  0  0  0
  4 18  1  0  0  0  0
  4 21  2  0  0  0  0
  4 20  1  0  0  0  0
  5 19  1  0  0  0  0
  5  7  1  0  0  0  0
  6  7  2  0  0  0  0
  6 12  1  0  0  0  0
  7  8  1  0  0  0  0
  8  9  1  0  0  0  0
  8 10  2  0  0  0  0
 10 11  1  0  0  0  0
 11 12  2  0  0  0  0
 15 23  1  0  0  0  0
 15 16  1  0  0  0  0
 16 19  1  0  0  0  0
 19 22  1  0  0  0  0
 22  2  1  6  0  0  0
 22 23  1  0  0  0  0
 23 24  1  6  0  0  0
 24 25  1  0  0  0  0
 25 26  1  0  0  0  0
M  CHG  2  13  -1  18  -1
M  END
>  <CHROM.1>
174.32635217,-67.87827487,-106.52685880,59.71533240,-44.08830331,-58.58190718
-75.53255903,62.04669662,-6.67175191,-41.66823055,5.10012189,2.84991483,-0.66732919
0.37923152

>  <Name>
ligand

>  <RI>
0

>  <Rbt.Current_Directory>
/home/itssahil/PROJECTS/Mol_Feturizer/New_Systems/rnas/3D2G

>  <Rbt.Executable>
rbdock ($Id: //depot/dev/client3/rdock/2013.1/src/exe/rbdock.cxx#4 $)

>  <Rbt.Library>
libRbt.so (2013.1, Build901 2013/11/27)

>  <Rbt.Parameter_File>
/export/apps/rDock/src/rDock_2013.1_src/data/scripts/dock_solv.prm

>  <Rbt.Receptor>
prm/pocket_docking_3.prm

>  <SCORE>
-13.9856

>  <SCORE.INTER>
-13.3079

>  <SCORE.INTER.CONST>
1

>  <SCORE.INTER.POLAR>
0

>  <SCORE.INTER.ROT>
8

>  <SCORE.INTER.SOLV>
10.7884

>  <SCORE.INTER.VDW>
-21.4014

>  <SCORE.INTER.norm>
-0.511842

>  <SCORE.INTRA>
-0.677659

>  <SCORE.INTRA.DIHEDRAL>
-2.836

>  <SCORE.INTRA.DIHEDRAL.0>
9.09364

>  <SCORE.INTRA.POLAR>
0

>  <SCORE.INTRA.POLAR.0>
0

>  <SCORE.INTRA.REPUL>
0

>  <SCORE.INTRA.REPUL.0>
0

>  <SCORE.INTRA.SOLV>
0.572502

>  <SCORE.INTRA.SOLV.lig_0>
-78.5846

>  <SCORE.INTRA.VDW>
0.45409

>  <SCORE.INTRA.VDW.0>
-2.81163

>  <SCORE.INTRA.norm>
-0.0260638

>  <SCORE.RESTR>
0

>  <SCORE.RESTR.CAVITY>
0

>  <SCORE.RESTR.norm>
0

>  <SCORE.SYSTEM>
0

>  <SCORE.SYSTEM.CONST>
0

>  <SCORE.SYSTEM.DIHEDRAL>
0

>  <SCORE.SYSTEM.SOLV>
0

>  <SCORE.SYSTEM.norm>
0

>  <SCORE.heavy>
26

>  <SCORE.norm>
-0.537906

>  <RMSD>
2.695

$$$$
ligand
 OpenBabel11021811463D
libRbt.so/2013.1/901 2013/11/27
 26 27  0  0  0  0  0  0  0  0999 V2000
  -12.3408  -38.0311    1.8149 C   0  0  0  0  0  0  0  0  0  0  0  0
   -4.8362  -41.4596    4.7831 C   0  0  0  0  0  0  0  0  0  0  0  0
   -4.2902  -43.3566    8.8688 P   0  0  1  0  0  0  0  0  0  0  0  0
   -5.2142  -45.5312   10.2689 P   0  0  2  0  0  0  0  0  0  0  0  0
   -7.1962  -39.7070    3.7288 C   0  0  0  0  0  0  0  0  0  0  0  0
   -8.8054  -39.2633    1.8455 C   0  0  0  0  0  0  0  0  0  0  0  0
   -8.5405  -39.2546    3.2183 C   0  0  0  0  0  0  0  0  0  0  0  0
   -9.5280  -38.8649    4.1273 C   0  0  0  0  0  0  0  0  0  0  0  0
   -9.2774  -38.8742    5.4197 N   0  0  0  0  0  0  0  0  0  0  0  0
  -10.7510  -38.4440    3.6650 N   0  0  0  0  0  0  0  0  0  0  0  0
  -11.0082  -38.4697    2.3086 C   0  0  0  0  0  0  0  0  0  0  0  0
  -10.0438  -38.8609    1.3990 N   0  0  0  0  0  0  0  0  0  0  0  0
   -5.5555  -42.9305    9.5484 O   0  5  0  0  0  0  0  0  0  0  0  0
   -4.7936  -46.9472   10.2763 O   0  0  0  0  0  0  0  0  0  0  0  0
   -8.3054  -43.2623    4.6014 S   0  0  0  0  0  0  0  0  0  0  0  0
   -8.4740  -41.7695    4.1060 C   0  0  0  0  0  0  0  0  0  0  0  0
   -3.0902  -42.5236    9.1509 O   0  0  0  0  0  0  0  0  0  0  0  0
   -6.5957  -45.3610    9.7801 O   0  5  0  0  0  0  0  0  0  0  0  0
   -7.2915  -41.0843    4.1268 N   0  0  0  0  0  0  0  0  0  0  0  0
   -4.1469  -44.8731    9.2991 O   0  0  0  0  0  0  0  0  0  0  0  0
   -5.2188  -44.8106   11.5780 O   0  0  0  0  0  0  0  0  0  0  0  0
   -6.2691  -41.8575    4.6005 C   0  0  1  0  0  0  0  0  0  0  0  0
   -6.7393  -43.1121    4.8973 C   0  0  2  0  0  0  0  0  0  0  0  0
   -6.0323  -44.3333    5.4304 C   0  0  0  0  0  0  0  0  0  0  0  0
   -5.7368  -44.2170    6.9301 C   0  0  0  0  0  0  0  0  0  0  0  0
   -4.6803  -43.3685    7.3407 O   0  0  0  0  0  0  0  0  0  0  0  0
  1 11  1  0  0  0  0
  3 13  1  1  0  0  0
  3 17  2  0  0  0  0
  3 20  1  0  0  0  0
  3 26  1  0  0  0  0
  4 14  1  1  0  0  0
  4 18  1  0  0  0  0
  4 21  2  0  0  0  0
  4 20  1  0  0  0  0
  5 19  1  0  0  0  0
  5  7  1  0  0  0  0
  6  7  2  0  0  0  0
  6 12  1  0  0  0  0
  7  8  1  0  0  0  0
  8  9  1  0  0  0  0
  8 10  2  0  0  0  0
 10 11  1  0  0  0  0
 11 12  2  0  0  0  0
 15 23  1  0  0  0  0
 15 16  1  0  0  0  0
 16 19  1  0  0  0  0
 19 22  1  0  0  0  0
 22  2  1  6  0  0  0
 22 23  1  0  0  0  0
 23 24  1  6  0  0  0
 24 25  1  0  0  0  0
 25 26  1  0  0  0  0
M  CHG  2  13  -1  18  -1
M  END
>  <CHROM.1>
-1.51376448,-4.32805526,-96.47503309,173.86258458,-104.58094640,-75.08859849
-174.28752417,-59.34966098,-6.85361081,-42.32837570,6.31879452,2.08754944
-0.11240508,-0.82252637

>  <Name>
ligand

>  <RI>
0

>  <Rbt.Current_Directory>
/home/itssahil/PROJECTS/Mol_Feturizer/New_Systems/rnas/3D2G

>  <Rbt.Executable>
rbdock ($Id: //depot/dev/client3/rdock/2013.1/src/exe/rbdock.cxx#4 $)

>  <Rbt.Library>
libRbt.so (2013.1, Build901 2013/11/27)

>  <Rbt.Parameter_File>
/export/apps/rDock/src/rDock_2013.1_src/data/scripts/dock_solv.prm

>  <Rbt.Receptor>
prm/pocket_docking_3.prm

>  <SCORE>
-12.8959

>  <SCORE.INTER>
-14.3028

>  <SCORE.INTER.CONST>
1

>  <SCORE.INTER.POLAR>
0

>  <SCORE.INTER.ROT>
8

>  <SCORE.INTER.SOLV>
8.95918

>  <SCORE.INTER.VDW>
-21.4549

>  <SCORE.INTER.norm>
-0.550108

>  <SCORE.INTRA>
1.40694

>  <SCORE.INTRA.DIHEDRAL>
-1.06762

>  <SCORE.INTRA.DIHEDRAL.0>
9.09364

>  <SCORE.INTRA.POLAR>
0

>  <SCORE.INTRA.POLAR.0>
0

>  <SCORE.INTRA.REPUL>
0

>  <SCORE.INTRA.REPUL.0>
0

>  <SCORE.INTRA.SOLV>
1.85433

>  <SCORE.INTRA.SOLV.lig_0>
-78.5846

>  <SCORE.INTRA.VDW>
1.01358

>  <SCORE.INTRA.VDW.0>
-2.81163

>  <SCORE.INTRA.norm>
0.0541131

>  <SCORE.RESTR>
0

>  <SCORE.RESTR.CAVITY>
0

>  <SCORE.RESTR.norm>
0

>  <SCORE.SYSTEM>
0

>  <SCORE.SYSTEM.CONST>
0

>  <SCORE.SYSTEM.DIHEDRAL>
0

>  <SCORE.SYSTEM.SOLV>
0

>  <SCORE.SYSTEM.norm>
0

>  <SCORE.heavy>
26

>  <SCORE.norm>
-0.495995

>  <RMSD>
2.701

$$$$
ligand
 OpenBabel11021811463D
libRbt.so/2013.1/901 2013/11/27
 26 27  0  0  0  0  0  0  0  0999 V2000
  -11.9165  -38.1897    1.8366 C   0  0  0  0  0  0  0  0  0  0  0  0
   -6.8075  -39.3962    7.4377 C   0  0  0  0  0  0  0  0  0  0  0  0
   -4.1105  -44.5953    8.8264 P   0  0  1  0  0  0  0  0  0  0  0  0
   -2.4504  -42.8410   10.1338 P   0  0  2  0  0  0  0  0  0  0  0  0
   -6.8927  -39.4357    4.3162 C   0  0  0  0  0  0  0  0  0  0  0  0
   -8.3754  -39.3198    2.2861 C   0  0  0  0  0  0  0  0  0  0  0  0
   -8.2050  -39.0974    3.6559 C   0  0  0  0  0  0  0  0  0  0  0  0
   -9.2572  -38.5979    4.4282 C   0  0  0  0  0  0  0  0  0  0  0  0
   -9.0954  -38.4059    5.7205 N   0  0  0  0  0  0  0  0  0  0  0  0
  -10.4513  -38.2806    3.8281 N   0  0  0  0  0  0  0  0  0  0  0  0
  -10.6149  -38.5172    2.4776 C   0  0  0  0  0  0  0  0  0  0  0  0
   -9.5856  -39.0187    1.7034 N   0  0  0  0  0  0  0  0  0  0  0  0
   -3.6670  -45.5616    7.7709 O   0  5  0  0  0  0  0  0  0  0  0  0
   -1.7921  -43.9925   10.7838 O   0  0  0  0  0  0  0  0  0  0  0  0
   -7.5358  -42.8893    5.8298 S   0  0  0  0  0  0  0  0  0  0  0  0
   -7.3603  -41.8188    4.6785 C   0  0  0  0  0  0  0  0  0  0  0  0
   -4.3521  -45.1743   10.1754 O   0  0  0  0  0  0  0  0  0  0  0  0
   -3.5373  -42.2798   10.9585 O   0  5  0  0  0  0  0  0  0  0  0  0
   -7.0846  -40.5741    5.1716 N   0  0  0  0  0  0  0  0  0  0  0  0
   -2.9862  -43.4820    8.7866 O   0  0  0  0  0  0  0  0  0  0  0  0
   -1.6012  -41.6510    9.8240 O   0  0  0  0  0  0  0  0  0  0  0  0
   -7.0613  -40.5669    6.5379 C   0  0  1  0  0  0  0  0  0  0  0  0
   -7.3044  -41.8324    7.0097 C   0  0  2  0  0  0  0  0  0  0  0  0
   -7.3746  -42.3667    8.4187 C   0  0  0  0  0  0  0  0  0  0  0  0
   -6.0137  -42.8741    8.9090 C   0  0  0  0  0  0  0  0  0  0  0  0
   -5.4017  -43.9382    8.2033 O   0  0  0  0  0  0  0  0  0  0  0  0
  1 11  1  0  0  0  0
  3 13  1  6  0  0  0
  3 17  2  0  0  0  0
  3 20  1  0  0  0  0
  3 26  1  0  0  0  0
  4 14  1  1  0  0  0
  4 18  1  0  0  0  0
  4 21  2  0  0  0  0
  4 20  1  0  0  0  0
  5 19  1  0  0  0  0
  5  7  1  0  0  0  0
  6  7  2  0  0  0  0
  6 12  1  0  0  0  0
  7  8  1  0  0  0  0
  8  9  1  0  0  0  0
  8 10  2  0  0  0  0
 10 11  1  0  0  0  0
 11 12  2  0  0  0  0
 15 23  1  0  0  0  0
 15 16  1  0  0  0  0
 16 19  1  0  0  0  0
 19 22  1  0  0  0  0
 22  2  1  6  0  0  0
 22 23  1  0  0  0  0
 23 24  1  6  0  0  0
 24 25  1  0  0  0  0
 25 26  1  0  0  0  0
M  CHG  2  13  -1  18  -1
M  END
>  <CHROM.1>
-140.10664452,67.89846425,-109.95576677,65.66910353,88.46031435,-60.94653245
-171.33272876,-174.47541684,-6.19293745,-41.70804930,6.89644542,2.66477778
-0.78845823,0.00867451

>  <Name>
ligand

>  <RI>
0

>  <Rbt.Current_Directory>
/home/itssahil/PROJECTS/Mol_Feturizer/New_Systems/rnas/3D2G

>  <Rbt.Executable>
rbdock ($Id: //depot/dev/client3/rdock/2013.1/src/exe/rbdock.cxx#4 $)

>  <Rbt.Library>
libRbt.so (2013.1, Build901 2013/11/27)

>  <Rbt.Parameter_File>
/export/apps/rDock/src/rDock_2013.1_src/data/scripts/dock_solv.prm

>  <Rbt.Receptor>
prm/pocket_docking_4.prm

>  <SCORE>
-14.3606

>  <SCORE.INTER>
-12.7595

>  <SCORE.INTER.CONST>
1

>  <SCORE.INTER.POLAR>
0

>  <SCORE.INTER.ROT>
8

>  <SCORE.INTER.SOLV>
7.20861

>  <SCORE.INTER.VDW>
-19.8426

>  <SCORE.INTER.norm>
-0.490751

>  <SCORE.INTRA>
-1.60108

>  <SCORE.INTRA.DIHEDRAL>
-1.74519

>  <SCORE.INTRA.DIHEDRAL.0>
9.09364

>  <SCORE.INTRA.POLAR>
0

>  <SCORE.INTRA.POLAR.0>
0

>  <SCORE.INTRA.REPUL>
0

>  <SCORE.INTRA.REPUL.0>
0

>  <SCORE.INTRA.SOLV>
1.43325

>  <SCORE.INTRA.SOLV.lig_0>
-78.5846

>  <SCORE.INTRA.VDW>
-1.44511

>  <SCORE.INTRA.VDW.0>
-2.81163

>  <SCORE.INTRA.norm>
-0.06158

>  <SCORE.RESTR>
0

>  <SCORE.RESTR.CAVITY>
0

>  <SCORE.RESTR.norm>
0

>  <SCORE.SYSTEM>
0

>  <SCORE.SYSTEM.CONST>
0

>  <SCORE.SYSTEM.DIHEDRAL>
0

>  <SCORE.SYSTEM.SOLV>
0

>  <SCORE.SYSTEM.norm>
0

>  <SCORE.heavy>
26

>  <SCORE.norm>
-0.552331

>  <RMSD>
2.709

$$$$
ligand
 OpenBabel11021811463D
libRbt.so/2013.1/901 2013/11/27
 26 27  0  0  0  0  0  0  0  0999 V2000
   -8.3087  -39.2990   -0.3427 C   0  0  0  0  0  0  0  0  0  0  0  0
   -7.8692  -37.8505    6.4932 C   0  0  0  0  0  0  0  0  0  0  0  0
   -4.2466  -42.3717    9.2397 P   0  0  1  0  0  0  0  0  0  0  0  0
   -2.9615  -44.6578    8.4239 P   0  0  2  0  0  0  0  0  0  0  0  0
  -10.0673  -39.5871    5.1129 C   0  0  0  0  0  0  0  0  0  0  0  0
   -8.4720  -40.2372    3.2783 C   0  0  0  0  0  0  0  0  0  0  0  0
   -9.5916  -39.5049    3.6848 C   0  0  0  0  0  0  0  0  0  0  0  0
  -10.2987  -38.7244    2.7661 C   0  0  0  0  0  0  0  0  0  0  0  0
  -11.3615  -38.0500    3.1517 N   0  0  0  0  0  0  0  0  0  0  0  0
   -9.8629  -38.6406    1.4662 N   0  0  0  0  0  0  0  0  0  0  0  0
   -8.7649  -39.3785    1.0707 C   0  0  0  0  0  0  0  0  0  0  0  0
   -8.0613  -40.1612    1.9667 N   0  0  0  0  0  0  0  0  0  0  0  0
   -5.5488  -42.1288    9.9395 O   0  5  0  0  0  0  0  0  0  0  0  0
   -3.0954  -46.0589    8.8722 O   0  0  0  0  0  0  0  0  0  0  0  0
   -7.6041  -41.7020    7.1357 S   0  0  0  0  0  0  0  0  0  0  0  0
   -8.8550  -41.4192    6.2096 C   0  0  0  0  0  0  0  0  0  0  0  0
   -3.0545  -41.7165    9.8422 O   0  0  0  0  0  0  0  0  0  0  0  0
   -1.6536  -44.0782    8.7841 O   0  5  0  0  0  0  0  0  0  0  0  0
   -8.9968  -40.0890    5.9295 N   0  0  0  0  0  0  0  0  0  0  0  0
   -4.1622  -43.9512    9.1803 O   0  0  0  0  0  0  0  0  0  0  0  0
   -3.0646  -44.3948    6.9565 O   0  0  0  0  0  0  0  0  0  0  0  0
   -8.0368  -39.3384    6.5478 C   0  0  1  0  0  0  0  0  0  0  0  0
   -7.1957  -40.1589    7.2566 C   0  0  2  0  0  0  0  0  0  0  0  0
   -5.9812  -39.8451    8.0946 C   0  0  0  0  0  0  0  0  0  0  0  0
   -4.7142  -40.5055    7.5396 C   0  0  0  0  0  0  0  0  0  0  0  0
   -4.5276  -41.8911    7.7641 O   0  0  0  0  0  0  0  0  0  0  0  0
  1 11  1  0  0  0  0
  3 13  1  1  0  0  0
  3 17  2  0  0  0  0
  3 20  1  0  0  0  0
  3 26  1  0  0  0  0
  4 14  1  1  0  0  0
  4 18  1  0  0  0  0
  4 21  2  0  0  0  0
  4 20  1  0  0  0  0
  5 19  1  0  0  0  0
  5  7  1  0  0  0  0
  6  7  2  0  0  0  0
  6 12  1  0  0  0  0
  7  8  1  0  0  0  0
  8  9  1  0  0  0  0
  8 10  2  0  0  0  0
 10 11  1  0  0  0  0
 11 12  2  0  0  0  0
 15 23  1  0  0  0  0
 15 16  1  0  0  0  0
 16 19  1  0  0  0  0
 19 22  1  0  0  0  0
 22  2  1  6  0  0  0
 22 23  1  0  0  0  0
 23 24  1  6  0  0  0
 24 25  1  0  0  0  0
 25 26  1  0  0  0  0
M  CHG  2  13  -1  18  -1
M  END
>  <CHROM.1>
176.05985971,-93.04319131,19.02316914,167.47061216,61.18564041,-76.79683119
-68.68875383,68.93418623,-6.39476651,-41.33493863,6.42223658,-2.58520532
-0.74431685,1.38668970

>  <Name>
ligand

>  <RI>
0

>  <Rbt.Current_Directory>
/home/itssahil/PROJECTS/Mol_Feturizer/New_Systems/rnas/3D2G

>  <Rbt.Executable>
rbdock ($Id: //depot/dev/client3/rdock/2013.1/src/exe/rbdock.cxx#4 $)

>  <Rbt.Library>
libRbt.so (2013.1, Build901 2013/11/27)

>  <Rbt.Parameter_File>
/export/apps/rDock/src/rDock_2013.1_src/data/scripts/dock_solv.prm

>  <Rbt.Receptor>
prm/pocket_docking_3.prm

>  <SCORE>
-12.6747

>  <SCORE.INTER>
-10.8751

>  <SCORE.INTER.CONST>
1

>  <SCORE.INTER.POLAR>
0

>  <SCORE.INTER.ROT>
8

>  <SCORE.INTER.SOLV>
13.6627

>  <SCORE.INTER.VDW>
-20.7376

>  <SCORE.INTER.norm>
-0.418272

>  <SCORE.INTRA>
-1.80852

>  <SCORE.INTRA.DIHEDRAL>
-2.27189

>  <SCORE.INTRA.DIHEDRAL.0>
9.09364

>  <SCORE.INTRA.POLAR>
0

>  <SCORE.INTRA.POLAR.0>
0

>  <SCORE.INTRA.REPUL>
0

>  <SCORE.INTRA.REPUL.0>
0

>  <SCORE.INTRA.SOLV>
-0.0330096

>  <SCORE.INTRA.SOLV.lig_0>
-78.5846

>  <SCORE.INTRA.VDW>
-0.656069

>  <SCORE.INTRA.VDW.0>
-2.81163

>  <SCORE.INTRA.norm>
-0.0695585

>  <SCORE.RESTR>
0.0088683

>  <SCORE.RESTR.CAVITY>
0.0088683

>  <SCORE.RESTR.norm>
0.000341088

>  <SCORE.SYSTEM>
0

>  <SCORE.SYSTEM.CONST>
0

>  <SCORE.SYSTEM.DIHEDRAL>
0

>  <SCORE.SYSTEM.SOLV>
0

>  <SCORE.SYSTEM.norm>
0

>  <SCORE.heavy>
26

>  <SCORE.norm>
-0.487489

>  <RMSD>
2.716

$$$$
ligand
 OpenBabel11021811463D
libRbt.so/2013.1/901 2013/11/27
 26 27  0  0  0  0  0  0  0  0999 V2000
  -12.2336  -37.9410    2.0877 C   0  0  0  0  0  0  0  0  0  0  0  0
   -6.0935  -40.0259    6.2422 C   0  0  0  0  0  0  0  0  0  0  0  0
   -4.3106  -45.5356    8.8356 P   0  0  1  0  0  0  0  0  0  0  0  0
   -2.8532  -43.4812    9.9304 P   0  0  2  0  0  0  0  0  0  0  0  0
   -7.0310  -40.0598    3.2635 C   0  0  0  0  0  0  0  0  0  0  0  0
   -8.8532  -39.4832    1.6263 C   0  0  0  0  0  0  0  0  0  0  0  0
   -8.3908  -39.4918    2.9458 C   0  0  0  0  0  0  0  0  0  0  0  0
   -9.1968  -39.0114    3.9815 C   0  0  0  0  0  0  0  0  0  0  0  0
   -8.7619  -39.0371    5.2238 N   0  0  0  0  0  0  0  0  0  0  0  0
  -10.4328  -38.4854    3.6943 N   0  0  0  0  0  0  0  0  0  0  0  0
  -10.8867  -38.4943    2.3903 C   0  0  0  0  0  0  0  0  0  0  0  0
  -10.1035  -38.9741    1.3574 N   0  0  0  0  0  0  0  0  0  0  0  0
   -4.2306  -46.2553    7.5241 O   0  5  0  0  0  0  0  0  0  0  0  0
   -1.3843  -43.5096   10.0834 O   0  0  0  0  0  0  0  0  0  0  0  0
   -7.8558  -43.3223    5.0823 S   0  0  0  0  0  0  0  0  0  0  0  0
   -7.8084  -42.3090    3.8685 C   0  0  0  0  0  0  0  0  0  0  0  0
   -4.3321  -46.3975   10.0481 O   0  0  0  0  0  0  0  0  0  0  0  0
   -3.5521  -43.8551   11.1746 O   0  5  0  0  0  0  0  0  0  0  0  0
   -7.1869  -41.1378    4.2006 N   0  0  0  0  0  0  0  0  0  0  0  0
   -3.0863  -44.5346    8.7689 O   0  0  0  0  0  0  0  0  0  0  0  0
   -3.4788  -42.1754    9.5608 O   0  0  0  0  0  0  0  0  0  0  0  0
   -6.7916  -41.1302    5.5087 C   0  0  1  0  0  0  0  0  0  0  0  0
   -7.1234  -42.3245    6.0975 C   0  0  2  0  0  0  0  0  0  0  0  0
   -6.9034  -42.8306    7.5015 C   0  0  0  0  0  0  0  0  0  0  0  0
   -5.6893  -43.7618    7.5927 C   0  0  0  0  0  0  0  0  0  0  0  0
   -5.6089  -44.6520    8.6909 O   0  0  0  0  0  0  0  0  0  0  0  0
  1 11  1  0  0  0  0
  3 13  1  6  0  0  0
  3 17  2  0  0  0  0
  3 20  1  0  0  0  0
  3 26  1  0  0  0  0
  4 14  1  1  0  0  0
  4 18  1  0  0  0  0
  4 21  2  0  0  0  0
  4 20  1  0  0  0  0
  5 19  1  0  0  0  0
  5  7  1  0  0  0  0
  6  7  2  0  0  0  0
  6 12  1  0  0  0  0
  7  8  1  0  0  0  0
  8  9  1  0  0  0  0
  8 10  2  0  0  0  0
 10 11  1  0  0  0  0
 11 12  2  0  0  0  0
 15 23  1  0  0  0  0
 15 16  1  0  0  0  0
 16 19  1  0  0  0  0
 19 22  1  0  0  0  0
 22  2  1  6  0  0  0
 22 23  1  0  0  0  0
 23 24  1  6  0  0  0
 24 25  1  0  0  0  0
 25 26  1  0  0  0  0
M  CHG  2  13  -1  18  -1
M  END
>  <CHROM.1>
175.43194748,67.18265403,-121.06941907,139.99635421,79.83124052,-159.23171309
-175.77248257,-55.72904546,-6.34918048,-42.25800348,6.45676647,-2.57048657
0.79867873,3.08632548

>  <Name>
ligand

>  <RI>
0

>  <Rbt.Current_Directory>
/home/itssahil/PROJECTS/Mol_Feturizer/New_Systems/rnas/3D2G

>  <Rbt.Executable>
rbdock ($Id: //depot/dev/client3/rdock/2013.1/src/exe/rbdock.cxx#4 $)

>  <Rbt.Library>
libRbt.so (2013.1, Build901 2013/11/27)

>  <Rbt.Parameter_File>
/export/apps/rDock/src/rDock_2013.1_src/data/scripts/dock_solv.prm

>  <Rbt.Receptor>
prm/pocket_docking_2.prm

>  <SCORE>
-12.1378

>  <SCORE.INTER>
-13.8947

>  <SCORE.INTER.CONST>
1

>  <SCORE.INTER.POLAR>
0

>  <SCORE.INTER.ROT>
8

>  <SCORE.INTER.SOLV>
8.69828

>  <SCORE.INTER.VDW>
-21.0959

>  <SCORE.INTER.norm>
-0.53441

>  <SCORE.INTRA>
0.667366

>  <SCORE.INTRA.DIHEDRAL>
-0.771219

>  <SCORE.INTRA.DIHEDRAL.0>
9.09364

>  <SCORE.INTRA.POLAR>
0

>  <SCORE.INTRA.POLAR.0>
0

>  <SCORE.INTRA.REPUL>
0

>  <SCORE.INTRA.REPUL.0>
0

>  <SCORE.INTRA.SOLV>
3.46134

>  <SCORE.INTRA.SOLV.lig_0>
-78.5846

>  <SCORE.INTRA.VDW>
-0.677694

>  <SCORE.INTRA.VDW.0>
-2.81163

>  <SCORE.INTRA.norm>
0.0256679

>  <SCORE.RESTR>
1.08945

>  <SCORE.RESTR.CAVITY>
1.08945

>  <SCORE.RESTR.norm>
0.041902

>  <SCORE.SYSTEM>
0

>  <SCORE.SYSTEM.CONST>
0

>  <SCORE.SYSTEM.DIHEDRAL>
0

>  <SCORE.SYSTEM.SOLV>
0

>  <SCORE.SYSTEM.norm>
0

>  <SCORE.heavy>
26

>  <SCORE.norm>
-0.46684

>  <RMSD>
2.719

$$$$
ligand
 OpenBabel11021811463D
libRbt.so/2013.1/901 2013/11/27
 26 27  0  0  0  0  0  0  0  0999 V2000
  -13.5134  -37.8686    1.9261 C   0  0  0  0  0  0  0  0  0  0  0  0
   -7.1070  -38.3959    6.1897 C   0  0  0  0  0  0  0  0  0  0  0  0
   -6.3816  -44.6316    9.3351 P   0  0  1  0  0  0  0  0  0  0  0  0
   -5.4472  -44.3386   11.9010 P   0  0  2  0  0  0  0  0  0  0  0  0
   -8.0444  -38.9774    3.2682 C   0  0  0  0  0  0  0  0  0  0  0  0
  -10.3633  -38.2438    3.9148 C   0  0  0  0  0  0  0  0  0  0  0  0
   -9.4856  -38.6978    2.9256 C   0  0  0  0  0  0  0  0  0  0  0  0
   -9.9253  -38.8587    1.6088 C   0  0  0  0  0  0  0  0  0  0  0  0
   -9.0899  -39.2711    0.6788 N   0  0  0  0  0  0  0  0  0  0  0  0
  -11.2399  -38.6130    1.2952 N   0  0  0  0  0  0  0  0  0  0  0  0
  -12.0956  -38.1513    2.2756 C   0  0  0  0  0  0  0  0  0  0  0  0
  -11.6720  -37.9796    3.5800 N   0  0  0  0  0  0  0  0  0  0  0  0
   -5.7057  -44.9859    8.0459 O   0  5  0  0  0  0  0  0  0  0  0  0
   -6.5754  -45.1879   12.3345 O   0  0  0  0  0  0  0  0  0  0  0  0
   -8.2650  -42.0714    5.5065 S   0  0  0  0  0  0  0  0  0  0  0  0
   -8.4064  -41.2307    4.1740 C   0  0  0  0  0  0  0  0  0  0  0  0
   -7.6278  -45.3841    9.6421 O   0  0  0  0  0  0  0  0  0  0  0  0
   -5.7632  -42.9005   11.9914 O   0  5  0  0  0  0  0  0  0  0  0  0
   -8.0002  -39.9359    4.3376 N   0  0  0  0  0  0  0  0  0  0  0  0
   -5.2293  -44.8145   10.4047 O   0  0  0  0  0  0  0  0  0  0  0  0
   -4.1662  -44.4601   12.6610 O   0  0  0  0  0  0  0  0  0  0  0  0
   -7.6034  -39.6905    5.6220 C   0  0  1  0  0  0  0  0  0  0  0  0
   -7.7140  -40.8383    6.3659 C   0  0  2  0  0  0  0  0  0  0  0  0
   -7.3981  -41.1126    7.8153 C   0  0  0  0  0  0  0  0  0  0  0  0
   -7.4153  -42.6121    8.1330 C   0  0  0  0  0  0  0  0  0  0  0  0
   -6.6214  -43.0779    9.2090 O   0  0  0  0  0  0  0  0  0  0  0  0
  1 11  1  0  0  0  0
  3 13  1  6  0  0  0
  3 17  2  0  0  0  0
  3 20  1  0  0  0  0
  3 26  1  0  0  0  0
  4 14  1  1  0  0  0
  4 18  1  0  0  0  0
  4 21  2  0  0  0  0
  4 20  1  0  0  0  0
  5 19  1  0  0  0  0
  5  7  1  0  0  0  0
  6  7  2  0  0  0  0
  6 12  1  0  0  0  0
  7  8  1  0  0  0  0
  8  9  1  0  0  0  0
  8 10  2  0  0  0  0
 10 11  1  0  0  0  0
 11 12  2  0  0  0  0
 15 23  1  0  0  0  0
 15 16  1  0  0  0  0
 16 19  1  0  0  0  0
 19 22  1  0  0  0  0
 22  2  1  6  0  0  0
 22 23  1  0  0  0  0
 23 24  1  6  0  0  0
 24 25  1  0  0  0  0
 25 26  1  0  0  0  0
M  CHG  2  13  -1  18  -1
M  END
>  <CHROM.1>
171.07328407,67.39877925,56.57866084,62.00590181,10.95965949,153.35271140
-166.51029978,59.74016622,-7.83522508,-41.69418638,6.87599380,2.84374200
-1.12115188,0.27158626

>  <Name>
ligand

>  <RI>
0

>  <Rbt.Current_Directory>
/home/itssahil/PROJECTS/Mol_Feturizer/New_Systems/rnas/3D2G

>  <Rbt.Executable>
rbdock ($Id: //depot/dev/client3/rdock/2013.1/src/exe/rbdock.cxx#4 $)

>  <Rbt.Library>
libRbt.so (2013.1, Build901 2013/11/27)

>  <Rbt.Parameter_File>
/export/apps/rDock/src/rDock_2013.1_src/data/scripts/dock_solv.prm

>  <Rbt.Receptor>
prm/pocket_docking_4.prm

>  <SCORE>
-20.5353

>  <SCORE.INTER>
-20.8479

>  <SCORE.INTER.CONST>
1

>  <SCORE.INTER.POLAR>
0

>  <SCORE.INTER.ROT>
8

>  <SCORE.INTER.SOLV>
23.5018

>  <SCORE.INTER.VDW>
-30.6659

>  <SCORE.INTER.norm>
-0.801842

>  <SCORE.INTRA>
0.312618

>  <SCORE.INTRA.DIHEDRAL>
-1.19452

>  <SCORE.INTRA.DIHEDRAL.0>
9.09364

>  <SCORE.INTRA.POLAR>
0

>  <SCORE.INTRA.POLAR.0>
0

>  <SCORE.INTRA.REPUL>
0

>  <SCORE.INTRA.REPUL.0>
0

>  <SCORE.INTRA.SOLV>
-2.92697

>  <SCORE.INTRA.SOLV.lig_0>
-78.5846

>  <SCORE.INTRA.VDW>
2.37336

>  <SCORE.INTRA.VDW.0>
-2.81163

>  <SCORE.INTRA.norm>
0.0120238

>  <SCORE.RESTR>
0

>  <SCORE.RESTR.CAVITY>
0

>  <SCORE.RESTR.norm>
0

>  <SCORE.SYSTEM>
0

>  <SCORE.SYSTEM.CONST>
0

>  <SCORE.SYSTEM.DIHEDRAL>
0

>  <SCORE.SYSTEM.SOLV>
0

>  <SCORE.SYSTEM.norm>
0

>  <SCORE.heavy>
26

>  <SCORE.norm>
-0.789818

>  <RMSD>
2.719

$$$$
ligand
 OpenBabel11021811463D
libRbt.so/2013.1/901 2013/11/27
 26 27  0  0  0  0  0  0  0  0999 V2000
  -12.6324  -37.9824    1.9618 C   0  0  0  0  0  0  0  0  0  0  0  0
   -8.5296  -41.7814    4.7007 C   0  0  0  0  0  0  0  0  0  0  0  0
   -5.1670  -44.5064    7.4093 P   0  0  1  0  0  0  0  0  0  0  0  0
   -6.8296  -46.6217    7.9609 P   0  0  2  0  0  0  0  0  0  0  0  0
   -7.2176  -39.2972    3.3368 C   0  0  0  0  0  0  0  0  0  0  0  0
   -9.1207  -39.2525    1.6908 C   0  0  0  0  0  0  0  0  0  0  0  0
   -8.6345  -38.9419    2.9643 C   0  0  0  0  0  0  0  0  0  0  0  0
   -9.4656  -38.3369    3.9112 C   0  0  0  0  0  0  0  0  0  0  0  0
   -9.0064  -38.0616    5.1139 N   0  0  0  0  0  0  0  0  0  0  0  0
  -10.7544  -38.0041    3.5722 N   0  0  0  0  0  0  0  0  0  0  0  0
  -11.2301  -38.3278    2.3171 C   0  0  0  0  0  0  0  0  0  0  0  0
  -10.4218  -38.9338    1.3737 N   0  0  0  0  0  0  0  0  0  0  0  0
   -4.1513  -43.7831    8.2397 O   0  5  0  0  0  0  0  0  0  0  0  0
   -7.5181  -47.0093    9.2089 O   0  0  0  0  0  0  0  0  0  0  0  0
   -6.5937  -39.3802    7.1098 S   0  0  0  0  0  0  0  0  0  0  0  0
   -6.4973  -38.8174    5.6346 C   0  0  0  0  0  0  0  0  0  0  0  0
   -4.6423  -45.2020    6.2033 O   0  0  0  0  0  0  0  0  0  0  0  0
   -6.0847  -47.7450    7.3613 O   0  5  0  0  0  0  0  0  0  0  0  0
   -7.1702  -39.6019    4.7402 N   0  0  0  0  0  0  0  0  0  0  0  0
   -5.8714  -45.4605    8.4574 O   0  0  0  0  0  0  0  0  0  0  0  0
   -7.6786  -46.1285    6.8343 O   0  0  0  0  0  0  0  0  0  0  0  0
   -7.7300  -40.6912    5.3463 C   0  0  1  0  0  0  0  0  0  0  0  0
   -7.4621  -40.6584    6.6918 C   0  0  2  0  0  0  0  0  0  0  0  0
   -7.8541  -41.6013    7.8022 C   0  0  0  0  0  0  0  0  0  0  0  0
   -6.7427  -42.6080    8.1200 C   0  0  0  0  0  0  0  0  0  0  0  0
   -6.2198  -43.3857    7.0585 O   0  0  0  0  0  0  0  0  0  0  0  0
  1 11  1  0  0  0  0
  3 13  1  1  0  0  0
  3 17  2  0  0  0  0
  3 20  1  0  0  0  0
  3 26  1  0  0  0  0
  4 14  1  1  0  0  0
  4 18  1  0  0  0  0
  4 21  2  0  0  0  0
  4 20  1  0  0  0  0
  5 19  1  0  0  0  0
  5  7  1  0  0  0  0
  6  7  2  0  0  0  0
  6 12  1  0  0  0  0
  7  8  1  0  0  0  0
  8  9  1  0  0  0  0
  8 10  2  0  0  0  0
 10 11  1  0  0  0  0
 11 12  2  0  0  0  0
 15 23  1  0  0  0  0
 15 16  1  0  0  0  0
 16 19  1  0  0  0  0
 19 22  1  0  0  0  0
 22  2  1  1  0  0  0
 22 23  1  0  0  0  0
 23 24  1  1  0  0  0
 24 25  1  0  0  0  0
 25 26  1  0  0  0  0
M  CHG  2  13  -1  18  -1
M  END
>  <CHROM.1>
-168.00160342,-113.33278845,-147.68111248,-165.96543174,-83.70910694,-53.86207761
-174.79346318,-51.03877591,-7.47696074,-42.04299530,5.92553664,2.11094659
-0.70546353,-0.19997097

>  <Name>
ligand

>  <RI>
0

>  <Rbt.Current_Directory>
/home/itssahil/PROJECTS/Mol_Feturizer/New_Systems/rnas/3D2G

>  <Rbt.Executable>
rbdock ($Id: //depot/dev/client3/rdock/2013.1/src/exe/rbdock.cxx#4 $)

>  <Rbt.Library>
libRbt.so (2013.1, Build901 2013/11/27)

>  <Rbt.Parameter_File>
/export/apps/rDock/src/rDock_2013.1_src/data/scripts/dock_solv.prm

>  <Rbt.Receptor>
prm/pocket_docking_5.prm

>  <SCORE>
-18.5018

>  <SCORE.INTER>
-19.0827

>  <SCORE.INTER.CONST>
1

>  <SCORE.INTER.POLAR>
0

>  <SCORE.INTER.ROT>
8

>  <SCORE.INTER.SOLV>
16.3379

>  <SCORE.INTER.VDW>
-27.1011

>  <SCORE.INTER.norm>
-0.733948

>  <SCORE.INTRA>
0.580818

>  <SCORE.INTRA.DIHEDRAL>
-2.76893

>  <SCORE.INTRA.DIHEDRAL.0>
9.09364

>  <SCORE.INTRA.POLAR>
0

>  <SCORE.INTRA.POLAR.0>
0

>  <SCORE.INTRA.REPUL>
0

>  <SCORE.INTRA.REPUL.0>
0

>  <SCORE.INTRA.SOLV>
3.79558

>  <SCORE.INTRA.SOLV.lig_0>
-78.5846

>  <SCORE.INTRA.VDW>
0.0674918

>  <SCORE.INTRA.VDW.0>
-2.81163

>  <SCORE.INTRA.norm>
0.0223391

>  <SCORE.RESTR>
0

>  <SCORE.RESTR.CAVITY>
0

>  <SCORE.RESTR.norm>
0

>  <SCORE.SYSTEM>
0

>  <SCORE.SYSTEM.CONST>
0

>  <SCORE.SYSTEM.DIHEDRAL>
0

>  <SCORE.SYSTEM.SOLV>
0

>  <SCORE.SYSTEM.norm>
0

>  <SCORE.heavy>
26

>  <SCORE.norm>
-0.711609

>  <RMSD>
2.778

$$$$
ligand
 OpenBabel11021811463D
libRbt.so/2013.1/901 2013/11/27
 26 27  0  0  0  0  0  0  0  0999 V2000
  -12.9986  -37.8906    2.0809 C   0  0  0  0  0  0  0  0  0  0  0  0
   -6.0670  -39.3944    5.6943 C   0  0  0  0  0  0  0  0  0  0  0  0
   -6.1541  -43.0602    9.9152 P   0  0  1  0  0  0  0  0  0  0  0  0
   -6.3725  -45.7795    9.5974 P   0  0  2  0  0  0  0  0  0  0  0  0
   -7.4896  -39.2657    2.9172 C   0  0  0  0  0  0  0  0  0  0  0  0
   -9.4665  -38.9277    1.3971 C   0  0  0  0  0  0  0  0  0  0  0  0
   -8.9320  -38.8920    2.6886 C   0  0  0  0  0  0  0  0  0  0  0  0
   -9.7366  -38.5485    3.7784 C   0  0  0  0  0  0  0  0  0  0  0  0
   -9.2313  -38.5324    4.9939 N   0  0  0  0  0  0  0  0  0  0  0  0
  -11.0490  -38.1992    3.5724 N   0  0  0  0  0  0  0  0  0  0  0  0
  -11.5717  -38.2513    2.2955 C   0  0  0  0  0  0  0  0  0  0  0  0
  -10.7896  -38.5976    1.2097 N   0  0  0  0  0  0  0  0  0  0  0  0
   -6.2034  -42.7835   11.3867 O   0  5  0  0  0  0  0  0  0  0  0  0
   -7.5459  -46.6696    9.4859 O   0  0  0  0  0  0  0  0  0  0  0  0
   -7.8575  -42.6911    4.5794 S   0  0  0  0  0  0  0  0  0  0  0  0
   -8.0579  -41.5921    3.4595 C   0  0  0  0  0  0  0  0  0  0  0  0
   -4.7946  -43.1833    9.3236 O   0  0  0  0  0  0  0  0  0  0  0  0
   -5.5124  -46.1292   10.7439 O   0  5  0  0  0  0  0  0  0  0  0  0
   -7.4398  -40.4153    3.7777 N   0  0  0  0  0  0  0  0  0  0  0  0
   -7.0502  -44.3563    9.7652 O   0  0  0  0  0  0  0  0  0  0  0  0
   -5.4205  -45.7527    8.4459 O   0  0  0  0  0  0  0  0  0  0  0  0
   -6.8309  -40.4799    4.9994 C   0  0  1  0  0  0  0  0  0  0  0  0
   -7.0080  -41.7299    5.5371 C   0  0  2  0  0  0  0  0  0  0  0  0
   -6.5339  -42.3227    6.8408 C   0  0  0  0  0  0  0  0  0  0  0  0
   -7.5130  -42.0462    7.9873 C   0  0  0  0  0  0  0  0  0  0  0  0
   -6.9871  -41.8755    9.2908 O   0  0  0  0  0  0  0  0  0  0  0  0
  1 11  1  0  0  0  0
  3 13  1  1  0  0  0
  3 17  2  0  0  0  0
  3 20  1  0  0  0  0
  3 26  1  0  0  0  0
  4 14  1  6  0  0  0
  4 18  1  0  0  0  0
  4 21  2  0  0  0  0
  4 20  1  0  0  0  0
  5 19  1  0  0  0  0
  5  7  1  0  0  0  0
  6  7  2  0  0  0  0
  6 12  1  0  0  0  0
  7  8  1  0  0  0  0
  8  9  1  0  0  0  0
  8 10  2  0  0  0  0
 10 11  1  0  0  0  0
 11 12  2  0  0  0  0
 15 23  1  0  0  0  0
 15 16  1  0  0  0  0
 16 19  1  0  0  0  0
 19 22  1  0  0  0  0
 22  2  1  6  0  0  0
 22 23  1  0  0  0  0
 23 24  1  6  0  0  0
 24 25  1  0  0  0  0
 25 26  1  0  0  0  0
M  CHG  2  13  -1  18  -1
M  END
>  <CHROM.1>
-101.66890510,57.80082430,-118.00507988,-179.62518024,-93.38674804,-147.33793978
-59.11333532,-159.66676190,-7.66072846,-41.87364276,6.43627939,2.62192090
-1.11048903,0.12182322

>  <Name>
ligand

>  <RI>
0

>  <Rbt.Current_Directory>
/home/itssahil/PROJECTS/Mol_Feturizer/New_Systems/rnas/3D2G

>  <Rbt.Executable>
rbdock ($Id: //depot/dev/client3/rdock/2013.1/src/exe/rbdock.cxx#4 $)

>  <Rbt.Library>
libRbt.so (2013.1, Build901 2013/11/27)

>  <Rbt.Parameter_File>
/export/apps/rDock/src/rDock_2013.1_src/data/scripts/dock_solv.prm

>  <Rbt.Receptor>
prm/pocket_docking_4.prm

>  <SCORE>
-20.3755

>  <SCORE.INTER>
-21.9714

>  <SCORE.INTER.CONST>
1

>  <SCORE.INTER.POLAR>
0

>  <SCORE.INTER.ROT>
8

>  <SCORE.INTER.SOLV>
11.2529

>  <SCORE.INTER.VDW>
-27.3319

>  <SCORE.INTER.norm>
-0.845052

>  <SCORE.INTRA>
1.48045

>  <SCORE.INTRA.DIHEDRAL>
0.79894

>  <SCORE.INTRA.DIHEDRAL.0>
9.09364

>  <SCORE.INTRA.POLAR>
0

>  <SCORE.INTRA.POLAR.0>
0

>  <SCORE.INTRA.REPUL>
0

>  <SCORE.INTRA.REPUL.0>
0

>  <SCORE.INTRA.SOLV>
4.23488

>  <SCORE.INTRA.SOLV.lig_0>
-78.5846

>  <SCORE.INTRA.VDW>
-1.03646

>  <SCORE.INTRA.VDW.0>
-2.81163

>  <SCORE.INTRA.norm>
0.0569404

>  <SCORE.RESTR>
0.115366

>  <SCORE.RESTR.CAVITY>
0.115366

>  <SCORE.RESTR.norm>
0.00443713

>  <SCORE.SYSTEM>
0

>  <SCORE.SYSTEM.CONST>
0

>  <SCORE.SYSTEM.DIHEDRAL>
0

>  <SCORE.SYSTEM.SOLV>
0

>  <SCORE.SYSTEM.norm>
0

>  <SCORE.heavy>
26

>  <SCORE.norm>
-0.783675

>  <RMSD>
2.799

$$$$
ligand
 OpenBabel11021811463D
libRbt.so/2013.1/901 2013/11/27
 26 27  0  0  0  0  0  0  0  0999 V2000
   -8.3663  -39.4694   -0.1511 C   0  0  0  0  0  0  0  0  0  0  0  0
   -8.4212  -41.5284    5.1726 C   0  0  0  0  0  0  0  0  0  0  0  0
   -5.5028  -44.5347    9.4718 P   0  0  1  0  0  0  0  0  0  0  0  0
   -3.0043  -43.4437    9.8043 P   0  0  2  0  0  0  0  0  0  0  0  0
   -8.7631  -38.4396    5.4811 C   0  0  0  0  0  0  0  0  0  0  0  0
   -7.3984  -38.9407    3.4270 C   0  0  0  0  0  0  0  0  0  0  0  0
   -8.6502  -38.6968    4.0000 C   0  0  0  0  0  0  0  0  0  0  0  0
   -9.8061  -38.7272    3.2151 C   0  0  0  0  0  0  0  0  0  0  0  0
  -10.9834  -38.5126    3.7637 N   0  0  0  0  0  0  0  0  0  0  0  0
   -9.7057  -38.9527    1.8639 N   0  0  0  0  0  0  0  0  0  0  0  0
   -8.4670  -39.2068    1.3095 C   0  0  0  0  0  0  0  0  0  0  0  0
   -7.3165  -39.1882    2.0754 N   0  0  0  0  0  0  0  0  0  0  0  0
   -5.3125  -45.9861    9.7908 O   0  5  0  0  0  0  0  0  0  0  0  0
   -3.6188  -42.1365   10.1134 O   0  0  0  0  0  0  0  0  0  0  0  0
   -5.9149  -39.8074    7.6372 S   0  0  0  0  0  0  0  0  0  0  0  0
   -6.8738  -38.7075    7.0264 C   0  0  0  0  0  0  0  0  0  0  0  0
   -5.9717  -43.6798   10.5956 O   0  0  0  0  0  0  0  0  0  0  0  0
   -1.7022  -43.3028    9.1254 O   0  5  0  0  0  0  0  0  0  0  0  0
   -7.7904  -39.2449    6.1665 N   0  0  0  0  0  0  0  0  0  0  0  0
   -4.0992  -44.1134    8.8738 O   0  0  0  0  0  0  0  0  0  0  0  0
   -2.6989  -44.3469   10.9550 O   0  0  0  0  0  0  0  0  0  0  0  0
   -7.6237  -40.5944    6.0308 C   0  0  1  0  0  0  0  0  0  0  0  0
   -6.5857  -41.0128    6.8250 C   0  0  2  0  0  0  0  0  0  0  0  0
   -6.0050  -42.3864    7.0524 C   0  0  0  0  0  0  0  0  0  0  0  0
   -6.9903  -43.3146    7.7717 C   0  0  0  0  0  0  0  0  0  0  0  0
   -6.5094  -44.5545    8.2579 O   0  0  0  0  0  0  0  0  0  0  0  0
  1 11  1  0  0  0  0
  3 13  1  1  0  0  0
  3 17  2  0  0  0  0
  3 20  1  0  0  0  0
  3 26  1  0  0  0  0
  4 14  1  1  0  0  0
  4 18  1  0  0  0  0
  4 21  2  0  0  0  0
  4 20  1  0  0  0  0
  5 19  1  0  0  0  0
  5  7  1  0  0  0  0
  6  7  2  0  0  0  0
  6 12  1  0  0  0  0
  7  8  1  0  0  0  0
  8  9  1  0  0  0  0
  8 10  2  0  0  0  0
 10 11  1  0  0  0  0
 11 12  2  0  0  0  0
 15 23  1  0  0  0  0
 15 16  1  0  0  0  0
 16 19  1  0  0  0  0
 19 22  1  0  0  0  0
 22  2  1  1  0  0  0
 22 23  1  0  0  0  0
 23 24  1  1  0  0  0
 24 25  1  0  0  0  0
 25 26  1  0  0  0  0
M  CHG  2  13  -1  18  -1
M  END
>  <CHROM.1>
-95.65927650,125.32486520,-35.28530845,-67.91496249,112.66562529,-169.26910899
68.96637324,175.01230225,-6.35053165,-41.57097986,6.84315002,2.25271801,-0.68890805
-0.46544091

>  <Name>
ligand

>  <RI>
0

>  <Rbt.Current_Directory>
/home/itssahil/PROJECTS/Mol_Feturizer/New_Systems/rnas/3D2G

>  <Rbt.Executable>
rbdock ($Id: //depot/dev/client3/rdock/2013.1/src/exe/rbdock.cxx#4 $)

>  <Rbt.Library>
libRbt.so (2013.1, Build901 2013/11/27)

>  <Rbt.Parameter_File>
/export/apps/rDock/src/rDock_2013.1_src/data/scripts/dock_solv.prm

>  <Rbt.Receptor>
prm/pocket_docking_3.prm

>  <SCORE>
-8.93943

>  <SCORE.INTER>
-6.69835

>  <SCORE.INTER.CONST>
1

>  <SCORE.INTER.POLAR>
0

>  <SCORE.INTER.ROT>
8

>  <SCORE.INTER.SOLV>
15.7753

>  <SCORE.INTER.VDW>
-18.6573

>  <SCORE.INTER.norm>
-0.257629

>  <SCORE.INTRA>
-2.24108

>  <SCORE.INTRA.DIHEDRAL>
-2.13737

>  <SCORE.INTRA.DIHEDRAL.0>
9.09364

>  <SCORE.INTRA.POLAR>
0

>  <SCORE.INTRA.POLAR.0>
0

>  <SCORE.INTRA.REPUL>
0

>  <SCORE.INTRA.REPUL.0>
0

>  <SCORE.INTRA.SOLV>
-0.959333

>  <SCORE.INTRA.SOLV.lig_0>
-78.5846

>  <SCORE.INTRA.VDW>
-0.692729

>  <SCORE.INTRA.VDW.0>
-2.81163

>  <SCORE.INTRA.norm>
-0.0861954

>  <SCORE.RESTR>
0

>  <SCORE.RESTR.CAVITY>
0

>  <SCORE.RESTR.norm>
0

>  <SCORE.SYSTEM>
0

>  <SCORE.SYSTEM.CONST>
0

>  <SCORE.SYSTEM.DIHEDRAL>
0

>  <SCORE.SYSTEM.SOLV>
0

>  <SCORE.SYSTEM.norm>
0

>  <SCORE.heavy>
26

>  <SCORE.norm>
-0.343824

>  <RMSD>
2.815

$$$$
ligand
 OpenBabel11021811463D
libRbt.so/2013.1/901 2013/11/27
 26 27  0  0  0  0  0  0  0  0999 V2000
  -13.5531  -37.7397    2.0713 C   0  0  0  0  0  0  0  0  0  0  0  0
   -6.7382  -41.9216    1.8728 C   0  0  0  0  0  0  0  0  0  0  0  0
   -5.1308  -44.1633    7.7442 P   0  0  1  0  0  0  0  0  0  0  0  0
   -7.1569  -43.6301    9.5201 P   0  0  2  0  0  0  0  0  0  0  0  0
   -8.0608  -39.2442    2.7863 C   0  0  0  0  0  0  0  0  0  0  0  0
  -10.2375  -38.3660    3.6941 C   0  0  0  0  0  0  0  0  0  0  0  0
   -9.5078  -38.8605    2.6088 C   0  0  0  0  0  0  0  0  0  0  0  0
  -10.0998  -38.9666    1.3472 C   0  0  0  0  0  0  0  0  0  0  0  0
   -9.4025  -39.4179    0.3258 N   0  0  0  0  0  0  0  0  0  0  0  0
  -11.4204  -38.6259    1.1841 N   0  0  0  0  0  0  0  0  0  0  0  0
  -12.1287  -38.1250    2.2582 C   0  0  0  0  0  0  0  0  0  0  0  0
  -11.5534  -38.0068    3.5094 N   0  0  0  0  0  0  0  0  0  0  0  0
   -3.9760  -43.2921    7.3547 O   0  5  0  0  0  0  0  0  0  0  0  0
   -7.8152  -42.6800    8.6004 O   0  0  0  0  0  0  0  0  0  0  0  0
   -8.2844  -41.9628    5.4679 S   0  0  0  0  0  0  0  0  0  0  0  0
   -8.4965  -40.5298    4.8323 C   0  0  0  0  0  0  0  0  0  0  0  0
   -4.8404  -45.6191    7.8435 O   0  0  0  0  0  0  0  0  0  0  0  0
   -7.3717  -43.2771   10.9363 O   0  5  0  0  0  0  0  0  0  0  0  0
   -7.9936  -40.4506    3.5638 N   0  0  0  0  0  0  0  0  0  0  0  0
   -5.6354  -43.5057    9.0926 O   0  0  0  0  0  0  0  0  0  0  0  0
   -7.5856  -45.0600    9.4507 O   0  0  0  0  0  0  0  0  0  0  0  0
   -7.4076  -41.6237    3.1797 C   0  0  1  0  0  0  0  0  0  0  0  0
   -7.5200  -42.5472    4.1885 C   0  0  2  0  0  0  0  0  0  0  0  0
   -7.0607  -43.9816    4.2728 C   0  0  0  0  0  0  0  0  0  0  0  0
   -5.9477  -44.1683    5.3102 C   0  0  0  0  0  0  0  0  0  0  0  0
   -6.2243  -43.8312    6.6573 O   0  0  0  0  0  0  0  0  0  0  0  0
  1 11  1  0  0  0  0
  3 13  1  6  0  0  0
  3 17  2  0  0  0  0
  3 20  1  0  0  0  0
  3 26  1  0  0  0  0
  4 14  1  6  0  0  0
  4 18  1  0  0  0  0
  4 21  2  0  0  0  0
  4 20  1  0  0  0  0
  5 19  1  0  0  0  0
  5  7  1  0  0  0  0
  6  7  2  0  0  0  0
  6 12  1  0  0  0  0
  7  8  1  0  0  0  0
  8  9  1  0  0  0  0
  8 10  2  0  0  0  0
 10 11  1  0  0  0  0
 11 12  2  0  0  0  0
 15 23  1  0  0  0  0
 15 16  1  0  0  0  0
 16 19  1  0  0  0  0
 19 22  1  0  0  0  0
 22  2  1  6  0  0  0
 22 23  1  0  0  0  0
 23 24  1  6  0  0  0
 24 25  1  0  0  0  0
 25 26  1  0  0  0  0
M  CHG  2  13  -1  18  -1
M  END
>  <CHROM.1>
151.80316197,-59.93076935,71.53558041,-74.45622053,-67.47943156,59.87865114
173.79637453,64.54543863,-7.87289850,-41.86100559,5.46924832,2.20538053,0.62699020
-1.29256793

>  <Name>
ligand

>  <RI>
0

>  <Rbt.Current_Directory>
/home/itssahil/PROJECTS/Mol_Feturizer/New_Systems/rnas/3D2G

>  <Rbt.Executable>
rbdock ($Id: //depot/dev/client3/rdock/2013.1/src/exe/rbdock.cxx#4 $)

>  <Rbt.Library>
libRbt.so (2013.1, Build901 2013/11/27)

>  <Rbt.Parameter_File>
/export/apps/rDock/src/rDock_2013.1_src/data/scripts/dock_solv.prm

>  <Rbt.Receptor>
prm/pocket_docking_7.prm

>  <SCORE>
-21.7183

>  <SCORE.INTER>
-18.2311

>  <SCORE.INTER.CONST>
1

>  <SCORE.INTER.POLAR>
0

>  <SCORE.INTER.ROT>
8

>  <SCORE.INTER.SOLV>
21.0919

>  <SCORE.INTER.VDW>
-28.118

>  <SCORE.INTER.norm>
-0.701197

>  <SCORE.INTRA>
-3.48715

>  <SCORE.INTRA.DIHEDRAL>
-2.66954

>  <SCORE.INTRA.DIHEDRAL.0>
9.09364

>  <SCORE.INTRA.POLAR>
0

>  <SCORE.INTRA.POLAR.0>
0

>  <SCORE.INTRA.REPUL>
0

>  <SCORE.INTRA.REPUL.0>
0

>  <SCORE.INTRA.SOLV>
-2.16138

>  <SCORE.INTRA.SOLV.lig_0>
-78.5846

>  <SCORE.INTRA.VDW>
-1.07169

>  <SCORE.INTRA.VDW.0>
-2.81163

>  <SCORE.INTRA.norm>
-0.134121

>  <SCORE.RESTR>
0

>  <SCORE.RESTR.CAVITY>
0

>  <SCORE.RESTR.norm>
0

>  <SCORE.SYSTEM>
0

>  <SCORE.SYSTEM.CONST>
0

>  <SCORE.SYSTEM.DIHEDRAL>
0

>  <SCORE.SYSTEM.SOLV>
0

>  <SCORE.SYSTEM.norm>
0

>  <SCORE.heavy>
26

>  <SCORE.norm>
-0.835318

>  <RMSD>
2.824

$$$$
ligand
 OpenBabel11021811463D
libRbt.so/2013.1/901 2013/11/27
 26 27  0  0  0  0  0  0  0  0999 V2000
  -11.0640  -38.5714    1.7242 C   0  0  0  0  0  0  0  0  0  0  0  0
   -7.2164  -42.1570    5.0795 C   0  0  0  0  0  0  0  0  0  0  0  0
   -4.1144  -43.8996    9.6878 P   0  0  1  0  0  0  0  0  0  0  0  0
   -2.1452  -42.2437    8.7268 P   0  0  2  0  0  0  0  0  0  0  0  0
   -6.1332  -39.2714    4.5768 C   0  0  0  0  0  0  0  0  0  0  0  0
   -7.5261  -39.5235    2.4960 C   0  0  0  0  0  0  0  0  0  0  0  0
   -7.4209  -39.0779    3.8171 C   0  0  0  0  0  0  0  0  0  0  0  0
   -8.5154  -38.4869    4.4541 C   0  0  0  0  0  0  0  0  0  0  0  0
   -8.4148  -38.0841    5.7034 N   0  0  0  0  0  0  0  0  0  0  0  0
   -9.6873  -38.3014    3.7620 N   0  0  0  0  0  0  0  0  0  0  0  0
   -9.7864  -38.7576    2.4626 C   0  0  0  0  0  0  0  0  0  0  0  0
   -8.7146  -39.3515    1.8231 N   0  0  0  0  0  0  0  0  0  0  0  0
   -4.3294  -45.3799    9.6032 O   0  5  0  0  0  0  0  0  0  0  0  0
   -3.1645  -41.6756    7.8213 O   0  0  0  0  0  0  0  0  0  0  0  0
   -6.6408  -40.0040    8.2967 S   0  0  0  0  0  0  0  0  0  0  0  0
   -6.2404  -39.1499    7.0269 C   0  0  0  0  0  0  0  0  0  0  0  0
   -4.2092  -43.3072   11.0492 O   0  0  0  0  0  0  0  0  0  0  0  0
   -0.8026  -42.2625    8.1157 O   0  5  0  0  0  0  0  0  0  0  0  0
   -6.4346  -39.8384    5.8622 N   0  0  0  0  0  0  0  0  0  0  0  0
   -2.7088  -43.7023    8.9874 O   0  0  0  0  0  0  0  0  0  0  0  0
   -1.9225  -41.5482   10.0306 O   0  0  0  0  0  0  0  0  0  0  0  0
   -6.8975  -41.1028    6.0952 C   0  0  1  0  0  0  0  0  0  0  0  0
   -7.0498  -41.2964    7.4452 C   0  0  2  0  0  0  0  0  0  0  0  0
   -7.5361  -42.4929    8.2247 C   0  0  0  0  0  0  0  0  0  0  0  0
   -6.4741  -43.0133    9.2000 C   0  0  0  0  0  0  0  0  0  0  0  0
   -5.1878  -43.3152    8.6910 O   0  0  0  0  0  0  0  0  0  0  0  0
  1 11  1  0  0  0  0
  3 13  1  1  0  0  0
  3 17  2  0  0  0  0
  3 20  1  0  0  0  0
  3 26  1  0  0  0  0
  4 14  1  6  0  0  0
  4 18  1  0  0  0  0
  4 21  2  0  0  0  0
  4 20  1  0  0  0  0
  5 19  1  0  0  0  0
  5  7  1  0  0  0  0
  6  7  2  0  0  0  0
  6 12  1  0  0  0  0
  7  8  1  0  0  0  0
  8  9  1  0  0  0  0
  8 10  2  0  0  0  0
 10 11  1  0  0  0  0
 11 12  2  0  0  0  0
 15 23  1  0  0  0  0
 15 16  1  0  0  0  0
 16 19  1  0  0  0  0
 19 22  1  0  0  0  0
 22  2  1  6  0  0  0
 22 23  1  0  0  0  0
 23 24  1  6  0  0  0
 24 25  1  0  0  0  0
 25 26  1  0  0  0  0
M  CHG  2  13  -1  18  -1
M  END
>  <CHROM.1>
174.00724428,-113.10283885,-131.43938725,-61.83260233,-60.42903648,-53.42214932
-177.82603665,89.40809191,-5.80723613,-41.22929610,6.98653233,2.23520081
-0.11725753,-0.86695911

>  <Name>
ligand

>  <RI>
0

>  <Rbt.Current_Directory>
/home/itssahil/PROJECTS/Mol_Feturizer/New_Systems/rnas/3D2G

>  <Rbt.Executable>
rbdock ($Id: //depot/dev/client3/rdock/2013.1/src/exe/rbdock.cxx#4 $)

>  <Rbt.Library>
libRbt.so (2013.1, Build901 2013/11/27)

>  <Rbt.Parameter_File>
/export/apps/rDock/src/rDock_2013.1_src/data/scripts/dock_solv.prm

>  <Rbt.Receptor>
prm/pocket_docking_3.prm

>  <SCORE>
-13.3642

>  <SCORE.INTER>
-10.7599

>  <SCORE.INTER.CONST>
1

>  <SCORE.INTER.POLAR>
0

>  <SCORE.INTER.ROT>
8

>  <SCORE.INTER.SOLV>
7.55436

>  <SCORE.INTER.VDW>
-18.6247

>  <SCORE.INTER.norm>
-0.413843

>  <SCORE.INTRA>
-2.64466

>  <SCORE.INTRA.DIHEDRAL>
-2.81526

>  <SCORE.INTRA.DIHEDRAL.0>
9.09364

>  <SCORE.INTRA.POLAR>
0

>  <SCORE.INTRA.POLAR.0>
0

>  <SCORE.INTRA.REPUL>
0

>  <SCORE.INTRA.REPUL.0>
0

>  <SCORE.INTRA.SOLV>
-0.138809

>  <SCORE.INTRA.SOLV.lig_0>
-78.5846

>  <SCORE.INTRA.VDW>
-1.16763

>  <SCORE.INTRA.VDW.0>
-2.81163

>  <SCORE.INTRA.norm>
-0.101718

>  <SCORE.RESTR>
0.0403482

>  <SCORE.RESTR.CAVITY>
0.0403482

>  <SCORE.RESTR.norm>
0.00155185

>  <SCORE.SYSTEM>
0

>  <SCORE.SYSTEM.CONST>
0

>  <SCORE.SYSTEM.DIHEDRAL>
0

>  <SCORE.SYSTEM.SOLV>
0

>  <SCORE.SYSTEM.norm>
0

>  <SCORE.heavy>
26

>  <SCORE.norm>
-0.514009

>  <RMSD>
2.828

$$$$
ligand
 OpenBabel11021811463D
libRbt.so/2013.1/901 2013/11/27
 26 27  0  0  0  0  0  0  0  0999 V2000
   -8.8343  -39.7122    0.5527 C   0  0  0  0  0  0  0  0  0  0  0  0
   -9.7571  -40.1660    7.0461 C   0  0  0  0  0  0  0  0  0  0  0  0
   -4.7216  -44.3428    7.6345 P   0  0  1  0  0  0  0  0  0  0  0  0
   -4.1903  -46.8185    8.6982 P   0  0  2  0  0  0  0  0  0  0  0  0
   -8.1637  -37.7372    5.8996 C   0  0  0  0  0  0  0  0  0  0  0  0
   -9.6309  -38.3609    3.9524 C   0  0  0  0  0  0  0  0  0  0  0  0
   -8.3481  -38.2684    4.5008 C   0  0  0  0  0  0  0  0  0  0  0  0
   -7.2282  -38.6297    3.7470 C   0  0  0  0  0  0  0  0  0  0  0  0
   -6.0219  -38.5252    4.2637 N   0  0  0  0  0  0  0  0  0  0  0  0
   -7.3935  -39.1222    2.4754 N   0  0  0  0  0  0  0  0  0  0  0  0
   -8.6628  -39.1963    1.9371 C   0  0  0  0  0  0  0  0  0  0  0  0
   -9.7785  -38.8343    2.6683 N   0  0  0  0  0  0  0  0  0  0  0  0
   -3.2878  -43.9729    7.8625 O   0  5  0  0  0  0  0  0  0  0  0  0
   -4.7726  -47.5461    9.8442 O   0  0  0  0  0  0  0  0  0  0  0  0
   -5.9549  -40.0758    7.9694 S   0  0  0  0  0  0  0  0  0  0  0  0
   -6.2961  -38.8211    7.0685 C   0  0  0  0  0  0  0  0  0  0  0  0
   -5.0709  -44.7626    6.2506 O   0  0  0  0  0  0  0  0  0  0  0  0
   -2.7344  -46.6265    8.8394 O   0  5  0  0  0  0  0  0  0  0  0  0
   -7.6179  -38.7806    6.7230 N   0  0  0  0  0  0  0  0  0  0  0  0
   -4.9851  -45.4475    8.7370 O   0  0  0  0  0  0  0  0  0  0  0  0
   -4.3277  -47.4437    7.3479 O   0  0  0  0  0  0  0  0  0  0  0  0
   -8.3021  -39.8538    7.2204 C   0  0  1  0  0  0  0  0  0  0  0  0
   -7.4494  -40.6490    7.9440 C   0  0  2  0  0  0  0  0  0  0  0  0
   -7.6947  -41.9297    8.7024 C   0  0  0  0  0  0  0  0  0  0  0  0
   -6.9256  -43.1106    8.0994 C   0  0  0  0  0  0  0  0  0  0  0  0
   -5.5105  -43.0594    8.1012 O   0  0  0  0  0  0  0  0  0  0  0  0
  1 11  1  0  0  0  0
  3 13  1  1  0  0  0
  3 17  2  0  0  0  0
  3 20  1  0  0  0  0
  3 26  1  0  0  0  0
  4 14  1  1  0  0  0
  4 18  1  0  0  0  0
  4 21  2  0  0  0  0
  4 20  1  0  0  0  0
  5 19  1  0  0  0  0
  5  7  1  0  0  0  0
  6  7  2  0  0  0  0
  6 12  1  0  0  0  0
  7  8  1  0  0  0  0
  8  9  1  0  0  0  0
  8 10  2  0  0  0  0
 10 11  1  0  0  0  0
 11 12  2  0  0  0  0
 15 23  1  0  0  0  0
 15 16  1  0  0  0  0
 16 19  1  0  0  0  0
 19 22  1  0  0  0  0
 22  2  1  1  0  0  0
 22 23  1  0  0  0  0
 23 24  1  1  0  0  0
 24 25  1  0  0  0  0
 25 26  1  0  0  0  0
M  CHG  2  13  -1  18  -1
M  END
>  <CHROM.1>
-63.46864895,102.28920795,116.37290904,-177.89201395,-64.71064672,63.08300769
173.06652452,-175.82452543,-6.36032795,-42.07029680,6.61920247,-2.89388337
-1.11516209,1.29595322

>  <Name>
ligand

>  <RI>
0

>  <Rbt.Current_Directory>
/home/itssahil/PROJECTS/Mol_Feturizer/New_Systems/rnas/3D2G

>  <Rbt.Executable>
rbdock ($Id: //depot/dev/client3/rdock/2013.1/src/exe/rbdock.cxx#4 $)

>  <Rbt.Library>
libRbt.so (2013.1, Build901 2013/11/27)

>  <Rbt.Parameter_File>
/export/apps/rDock/src/rDock_2013.1_src/data/scripts/dock_solv.prm

>  <Rbt.Receptor>
prm/pocket_docking_4.prm

>  <SCORE>
-13.2966

>  <SCORE.INTER>
-11.0227

>  <SCORE.INTER.CONST>
1

>  <SCORE.INTER.POLAR>
0

>  <SCORE.INTER.ROT>
8

>  <SCORE.INTER.SOLV>
13.729

>  <SCORE.INTER.VDW>
-20.8581

>  <SCORE.INTER.norm>
-0.42395

>  <SCORE.INTRA>
-2.27386

>  <SCORE.INTRA.DIHEDRAL>
-3.57314

>  <SCORE.INTRA.DIHEDRAL.0>
9.09364

>  <SCORE.INTRA.POLAR>
0

>  <SCORE.INTRA.POLAR.0>
0

>  <SCORE.INTRA.REPUL>
0

>  <SCORE.INTRA.REPUL.0>
0

>  <SCORE.INTRA.SOLV>
1.1405

>  <SCORE.INTRA.SOLV.lig_0>
-78.5846

>  <SCORE.INTRA.VDW>
-1.05753

>  <SCORE.INTRA.VDW.0>
-2.81163

>  <SCORE.INTRA.norm>
-0.087456

>  <SCORE.RESTR>
0

>  <SCORE.RESTR.CAVITY>
0

>  <SCORE.RESTR.norm>
0

>  <SCORE.SYSTEM>
0

>  <SCORE.SYSTEM.CONST>
0

>  <SCORE.SYSTEM.DIHEDRAL>
0

>  <SCORE.SYSTEM.SOLV>
0

>  <SCORE.SYSTEM.norm>
0

>  <SCORE.heavy>
26

>  <SCORE.norm>
-0.511406

>  <RMSD>
2.867

$$$$
ligand
 OpenBabel11021811463D
libRbt.so/2013.1/901 2013/11/27
 26 27  0  0  0  0  0  0  0  0999 V2000
  -13.2270  -37.7280    1.9238 C   0  0  0  0  0  0  0  0  0  0  0  0
   -7.0371  -42.4186    2.4221 C   0  0  0  0  0  0  0  0  0  0  0  0
   -5.4187  -45.8708    8.0208 P   0  0  1  0  0  0  0  0  0  0  0  0
   -6.8406  -44.7774   10.1006 P   0  0  2  0  0  0  0  0  0  0  0  0
   -7.8762  -39.4755    3.0438 C   0  0  0  0  0  0  0  0  0  0  0  0
  -10.0889  -38.5425    3.7966 C   0  0  0  0  0  0  0  0  0  0  0  0
   -9.2874  -39.0282    2.7590 C   0  0  0  0  0  0  0  0  0  0  0  0
   -9.7721  -39.0669    1.4488 C   0  0  0  0  0  0  0  0  0  0  0  0
   -9.0068  -39.5104    0.4738 N   0  0  0  0  0  0  0  0  0  0  0  0
  -11.0603  -38.6681    1.1874 N   0  0  0  0  0  0  0  0  0  0  0  0
  -11.8393  -38.1764    2.2159 C   0  0  0  0  0  0  0  0  0  0  0  0
  -11.3698  -38.1246    3.5149 N   0  0  0  0  0  0  0  0  0  0  0  0
   -4.0754  -45.5445    7.4434 O   0  5  0  0  0  0  0  0  0  0  0  0
   -8.0187  -45.0154    9.2419 O   0  0  0  0  0  0  0  0  0  0  0  0
   -8.2551  -41.7661    6.0838 S   0  0  0  0  0  0  0  0  0  0  0  0
   -8.3131  -40.4095    5.2722 C   0  0  0  0  0  0  0  0  0  0  0  0
   -5.5563  -47.2271    8.6166 O   0  0  0  0  0  0  0  0  0  0  0  0
   -6.9717  -43.5447   10.9003 O   0  5  0  0  0  0  0  0  0  0  0  0
   -7.9161  -40.5698    3.9741 N   0  0  0  0  0  0  0  0  0  0  0  0
   -5.6685  -44.6837    9.0375 O   0  0  0  0  0  0  0  0  0  0  0  0
   -6.5145  -45.8192   11.1211 O   0  0  0  0  0  0  0  0  0  0  0  0
   -7.5406  -41.8583    3.7172 C   0  0  1  0  0  0  0  0  0  0  0  0
   -7.6968  -42.6184    4.8490 C   0  0  2  0  0  0  0  0  0  0  0  0
   -7.4431  -44.0841    5.0996 C   0  0  0  0  0  0  0  0  0  0  0  0
   -6.5434  -44.3110    6.3197 C   0  0  0  0  0  0  0  0  0  0  0  0
   -6.4052  -45.6306    6.8140 O   0  0  0  0  0  0  0  0  0  0  0  0
  1 11  1  0  0  0  0
  3 13  1  6  0  0  0
  3 17  2  0  0  0  0
  3 20  1  0  0  0  0
  3 26  1  0  0  0  0
  4 14  1  6  0  0  0
  4 18  1  0  0  0  0
  4 21  2  0  0  0  0
  4 20  1  0  0  0  0
  5 19  1  0  0  0  0
  5  7  1  0  0  0  0
  6  7  2  0  0  0  0
  6 12  1  0  0  0  0
  7  8  1  0  0  0  0
  8  9  1  0  0  0  0
  8 10  2  0  0  0  0
 10 11  1  0  0  0  0
 11 12  2  0  0  0  0
 15 23  1  0  0  0  0
 15 16  1  0  0  0  0
 16 19  1  0  0  0  0
 19 22  1  0  0  0  0
 22  2  1  6  0  0  0
 22 23  1  0  0  0  0
 23 24  1  6  0  0  0
 24 25  1  0  0  0  0
 25 26  1  0  0  0  0
M  CHG  2  13  -1  18  -1
M  END
>  <CHROM.1>
-167.14765942,-68.04418234,61.37538453,-55.90393262,-53.05556648,169.33355671
176.78609884,-65.23960221,-7.82632551,-42.51296657,5.86348759,2.17865302
0.76985466,-1.25688905

>  <Name>
ligand

>  <RI>
0

>  <Rbt.Current_Directory>
/home/itssahil/PROJECTS/Mol_Feturizer/New_Systems/rnas/3D2G

>  <Rbt.Executable>
rbdock ($Id: //depot/dev/client3/rdock/2013.1/src/exe/rbdock.cxx#4 $)

>  <Rbt.Library>
libRbt.so (2013.1, Build901 2013/11/27)

>  <Rbt.Parameter_File>
/export/apps/rDock/src/rDock_2013.1_src/data/scripts/dock_solv.prm

>  <Rbt.Receptor>
prm/pocket_docking_4.prm

>  <SCORE>
-20.9178

>  <SCORE.INTER>
-18.4946

>  <SCORE.INTER.CONST>
1

>  <SCORE.INTER.POLAR>
0

>  <SCORE.INTER.ROT>
8

>  <SCORE.INTER.SOLV>
21.3675

>  <SCORE.INTER.VDW>
-28.3856

>  <SCORE.INTER.norm>
-0.711331

>  <SCORE.INTRA>
-2.42317

>  <SCORE.INTRA.DIHEDRAL>
-2.61409

>  <SCORE.INTRA.DIHEDRAL.0>
9.09364

>  <SCORE.INTRA.POLAR>
0

>  <SCORE.INTRA.POLAR.0>
0

>  <SCORE.INTRA.REPUL>
0

>  <SCORE.INTRA.REPUL.0>
0

>  <SCORE.INTRA.SOLV>
-2.36362

>  <SCORE.INTRA.SOLV.lig_0>
-78.5846

>  <SCORE.INTRA.VDW>
0.06569

>  <SCORE.INTRA.VDW.0>
-2.81163

>  <SCORE.INTRA.norm>
-0.0931987

>  <SCORE.RESTR>
0

>  <SCORE.RESTR.CAVITY>
0

>  <SCORE.RESTR.norm>
0

>  <SCORE.SYSTEM>
0

>  <SCORE.SYSTEM.CONST>
0

>  <SCORE.SYSTEM.DIHEDRAL>
0

>  <SCORE.SYSTEM.SOLV>
0

>  <SCORE.SYSTEM.norm>
0

>  <SCORE.heavy>
26

>  <SCORE.norm>
-0.80453

>  <RMSD>
2.877

$$$$
ligand
 OpenBabel11021811463D
libRbt.so/2013.1/901 2013/11/27
 26 27  0  0  0  0  0  0  0  0999 V2000
  -13.5072  -37.8252    2.0339 C   0  0  0  0  0  0  0  0  0  0  0  0
   -5.7590  -41.3590    2.6910 C   0  0  0  0  0  0  0  0  0  0  0  0
   -5.2518  -45.0706    7.6212 P   0  0  1  0  0  0  0  0  0  0  0  0
   -7.0148  -43.8712    9.3522 P   0  0  2  0  0  0  0  0  0  0  0  0
   -7.9734  -39.1584    2.7686 C   0  0  0  0  0  0  0  0  0  0  0  0
  -10.1564  -38.2649    3.6458 C   0  0  0  0  0  0  0  0  0  0  0  0
   -9.4309  -38.8190    2.5867 C   0  0  0  0  0  0  0  0  0  0  0  0
  -10.0377  -39.0263    1.3449 C   0  0  0  0  0  0  0  0  0  0  0  0
   -9.3447  -39.5334    0.3471 N   0  0  0  0  0  0  0  0  0  0  0  0
  -11.3677  -38.7261    1.1785 N   0  0  0  0  0  0  0  0  0  0  0  0
  -12.0722  -38.1660    2.2256 C   0  0  0  0  0  0  0  0  0  0  0  0
  -11.4825  -37.9477    3.4565 N   0  0  0  0  0  0  0  0  0  0  0  0
   -4.1950  -46.0442    8.0451 O   0  5  0  0  0  0  0  0  0  0  0  0
   -7.3673  -42.8571    8.3377 O   0  0  0  0  0  0  0  0  0  0  0  0
   -8.3923  -41.7384    5.5614 S   0  0  0  0  0  0  0  0  0  0  0  0
   -8.7395  -40.4507    4.7108 C   0  0  0  0  0  0  0  0  0  0  0  0
   -6.4677  -45.6625    7.0009 O   0  0  0  0  0  0  0  0  0  0  0  0
   -7.1010  -43.3408   10.7262 O   0  5  0  0  0  0  0  0  0  0  0  0
   -7.8658  -40.2675    3.6757 N   0  0  0  0  0  0  0  0  0  0  0  0
   -5.5298  -44.2469    8.9439 O   0  0  0  0  0  0  0  0  0  0  0  0
   -7.8521  -45.1078    9.4052 O   0  0  0  0  0  0  0  0  0  0  0  0
   -6.8953  -41.2293    3.6589 C   0  0  1  0  0  0  0  0  0  0  0  0
   -7.1046  -42.1133    4.6874 C   0  0  2  0  0  0  0  0  0  0  0  0
   -6.3424  -43.3473    5.1023 C   0  0  0  0  0  0  0  0  0  0  0  0
   -5.2060  -43.0197    6.0774 C   0  0  0  0  0  0  0  0  0  0  0  0
   -4.4834  -44.0947    6.6494 O   0  0  0  0  0  0  0  0  0  0  0  0
  1 11  1  0  0  0  0
  3 13  1  1  0  0  0
  3 17  2  0  0  0  0
  3 20  1  0  0  0  0
  3 26  1  0  0  0  0
  4 14  1  6  0  0  0
  4 18  1  0  0  0  0
  4 21  2  0  0  0  0
  4 20  1  0  0  0  0
  5 19  1  0  0  0  0
  5  7  1  0  0  0  0
  6  7  2  0  0  0  0
  6 12  1  0  0  0  0
  7  8  1  0  0  0  0
  8  9  1  0  0  0  0
  8 10  2  0  0  0  0
 10 11  1  0  0  0  0
 11 12  2  0  0  0  0
 15 23  1  0  0  0  0
 15 16  1  0  0  0  0
 16 19  1  0  0  0  0
 19 22  1  0  0  0  0
 22  2  1  6  0  0  0
 22 23  1  0  0  0  0
 23 24  1  6  0  0  0
 24 25  1  0  0  0  0
 25 26  1  0  0  0  0
M  CHG  2  13  -1  18  -1
M  END
>  <CHROM.1>
-138.28105332,-33.38285285,68.95827366,-70.63934046,-92.16132410,174.21873137
-65.38949406,-178.97067178,-7.73559953,-41.97730708,5.52832880,2.16290754
0.54172121,-1.14875514

>  <Name>
ligand

>  <RI>
0

>  <Rbt.Current_Directory>
/home/itssahil/PROJECTS/Mol_Feturizer/New_Systems/rnas/3D2G

>  <Rbt.Executable>
rbdock ($Id: //depot/dev/client3/rdock/2013.1/src/exe/rbdock.cxx#4 $)

>  <Rbt.Library>
libRbt.so (2013.1, Build901 2013/11/27)

>  <Rbt.Parameter_File>
/export/apps/rDock/src/rDock_2013.1_src/data/scripts/dock_solv.prm

>  <Rbt.Receptor>
prm/pocket_docking_4.prm

>  <SCORE>
-18.6027

>  <SCORE.INTER>
-16.7536

>  <SCORE.INTER.CONST>
1

>  <SCORE.INTER.POLAR>
0

>  <SCORE.INTER.ROT>
8

>  <SCORE.INTER.SOLV>
20.6922

>  <SCORE.INTER.VDW>
-26.9998

>  <SCORE.INTER.norm>
-0.644368

>  <SCORE.INTRA>
-1.85019

>  <SCORE.INTRA.DIHEDRAL>
-1.64725

>  <SCORE.INTRA.DIHEDRAL.0>
9.09364

>  <SCORE.INTRA.POLAR>
0

>  <SCORE.INTRA.POLAR.0>
0

>  <SCORE.INTRA.REPUL>
0

>  <SCORE.INTRA.REPUL.0>
0

>  <SCORE.INTRA.SOLV>
-1.2536

>  <SCORE.INTRA.SOLV.lig_0>
-78.5846

>  <SCORE.INTRA.VDW>
-0.399759

>  <SCORE.INTRA.VDW.0>
-2.81163

>  <SCORE.INTRA.norm>
-0.071161

>  <SCORE.RESTR>
0.00102621

>  <SCORE.RESTR.CAVITY>
0.00102621

>  <SCORE.RESTR.norm>
3.94696e-05

>  <SCORE.SYSTEM>
0

>  <SCORE.SYSTEM.CONST>
0

>  <SCORE.SYSTEM.DIHEDRAL>
0

>  <SCORE.SYSTEM.SOLV>
0

>  <SCORE.SYSTEM.norm>
0

>  <SCORE.heavy>
26

>  <SCORE.norm>
-0.715489

>  <RMSD>
2.889

$$$$
ligand
 OpenBabel11021811463D
libRbt.so/2013.1/901 2013/11/27
 26 27  0  0  0  0  0  0  0  0999 V2000
  -12.7609  -37.7968    2.2819 C   0  0  0  0  0  0  0  0  0  0  0  0
   -6.0803  -39.7337    6.0079 C   0  0  0  0  0  0  0  0  0  0  0  0
   -6.9915  -43.7978   10.0862 P   0  0  1  0  0  0  0  0  0  0  0  0
   -4.3011  -44.0541    9.5975 P   0  0  2  0  0  0  0  0  0  0  0  0
   -7.3701  -39.5548    3.1695 C   0  0  0  0  0  0  0  0  0  0  0  0
   -9.3146  -39.1096    1.6352 C   0  0  0  0  0  0  0  0  0  0  0  0
   -8.7806  -39.0811    2.9271 C   0  0  0  0  0  0  0  0  0  0  0  0
   -9.5588  -38.6516    4.0055 C   0  0  0  0  0  0  0  0  0  0  0  0
   -9.0552  -38.6424    5.2218 N   0  0  0  0  0  0  0  0  0  0  0  0
  -10.8414  -38.2114    3.7868 N   0  0  0  0  0  0  0  0  0  0  0  0
  -11.3650  -38.2567    2.5100 C   0  0  0  0  0  0  0  0  0  0  0  0
  -10.6094  -38.6871    1.4356 N   0  0  0  0  0  0  0  0  0  0  0  0
   -8.2055  -44.4202    9.4672 O   0  5  0  0  0  0  0  0  0  0  0  0
   -4.2820  -42.6119    9.2791 O   0  0  0  0  0  0  0  0  0  0  0  0
   -7.9605  -42.9543    4.8207 S   0  0  0  0  0  0  0  0  0  0  0  0
   -8.0626  -41.8522    3.6906 C   0  0  0  0  0  0  0  0  0  0  0  0
   -6.8707  -43.9402   11.5622 O   0  0  0  0  0  0  0  0  0  0  0  0
   -3.3321  -44.8180    8.7888 O   0  5  0  0  0  0  0  0  0  0  0  0
   -7.4088  -40.7019    4.0338 N   0  0  0  0  0  0  0  0  0  0  0  0
   -5.8014  -44.4467    9.2691 O   0  0  0  0  0  0  0  0  0  0  0  0
   -3.9707  -44.4510   10.9998 O   0  0  0  0  0  0  0  0  0  0  0  0
   -6.8587  -40.7879    5.2817 C   0  0  1  0  0  0  0  0  0  0  0  0
   -7.1138  -42.0270    5.8136 C   0  0  2  0  0  0  0  0  0  0  0  0
   -6.7247  -42.6345    7.1384 C   0  0  0  0  0  0  0  0  0  0  0  0
   -7.5137  -42.0258    8.3032 C   0  0  0  0  0  0  0  0  0  0  0  0
   -7.0735  -42.2927    9.6223 O   0  0  0  0  0  0  0  0  0  0  0  0
  1 11  1  0  0  0  0
  3 13  1  6  0  0  0
  3 17  2  0  0  0  0
  3 20  1  0  0  0  0
  3 26  1  0  0  0  0
  4 14  1  6  0  0  0
  4 18  1  0  0  0  0
  4 21  2  0  0  0  0
  4 20  1  0  0  0  0
  5 19  1  0  0  0  0
  5  7  1  0  0  0  0
  6  7  2  0  0  0  0
  6 12  1  0  0  0  0
  7  8  1  0  0  0  0
  8  9  1  0  0  0  0
  8 10  2  0  0  0  0
 10 11  1  0  0  0  0
 11 12  2  0  0  0  0
 15 23  1  0  0  0  0
 15 16  1  0  0  0  0
 16 19  1  0  0  0  0
 19 22  1  0  0  0  0
 22  2  1  6  0  0  0
 22 23  1  0  0  0  0
 23 24  1  6  0  0  0
 24 25  1  0  0  0  0
 25 26  1  0  0  0  0
M  CHG  2  13  -1  18  -1
M  END
>  <CHROM.1>
179.70402644,60.39428910,-116.68288808,-62.91864961,-108.37295842,-167.33741208
-58.64580615,-38.91196041,-7.38370672,-41.76006196,6.61588463,2.08990808
0.33118119,-1.12928980

>  <Name>
ligand

>  <RI>
0

>  <Rbt.Current_Directory>
/home/itssahil/PROJECTS/Mol_Feturizer/New_Systems/rnas/3D2G

>  <Rbt.Executable>
rbdock ($Id: //depot/dev/client3/rdock/2013.1/src/exe/rbdock.cxx#4 $)

>  <Rbt.Library>
libRbt.so (2013.1, Build901 2013/11/27)

>  <Rbt.Parameter_File>
/export/apps/rDock/src/rDock_2013.1_src/data/scripts/dock_solv.prm

>  <Rbt.Receptor>
prm/pocket_docking_8.prm

>  <SCORE>
-19.2662

>  <SCORE.INTER>
-17.6753

>  <SCORE.INTER.CONST>
1

>  <SCORE.INTER.POLAR>
0

>  <SCORE.INTER.ROT>
8

>  <SCORE.INTER.SOLV>
15.2027

>  <SCORE.INTER.VDW>
-25.7844

>  <SCORE.INTER.norm>
-0.679819

>  <SCORE.INTRA>
-1.59087

>  <SCORE.INTRA.DIHEDRAL>
-3.39396

>  <SCORE.INTRA.DIHEDRAL.0>
9.09364

>  <SCORE.INTRA.POLAR>
0

>  <SCORE.INTRA.POLAR.0>
0

>  <SCORE.INTRA.REPUL>
0

>  <SCORE.INTRA.REPUL.0>
0

>  <SCORE.INTRA.SOLV>
1.4081

>  <SCORE.INTRA.SOLV.lig_0>
-78.5846

>  <SCORE.INTRA.VDW>
-0.597943

>  <SCORE.INTRA.VDW.0>
-2.81163

>  <SCORE.INTRA.norm>
-0.0611874

>  <SCORE.RESTR>
0

>  <SCORE.RESTR.CAVITY>
0

>  <SCORE.RESTR.norm>
0

>  <SCORE.SYSTEM>
0

>  <SCORE.SYSTEM.CONST>
0

>  <SCORE.SYSTEM.DIHEDRAL>
0

>  <SCORE.SYSTEM.SOLV>
0

>  <SCORE.SYSTEM.norm>
0

>  <SCORE.heavy>
26

>  <SCORE.norm>
-0.741006

>  <RMSD>
2.906

$$$$
ligand
 OpenBabel11021811463D
libRbt.so/2013.1/901 2013/11/27
 26 27  0  0  0  0  0  0  0  0999 V2000
  -12.9476  -37.8825    1.7885 C   0  0  0  0  0  0  0  0  0  0  0  0
   -6.9134  -42.2719    2.4890 C   0  0  0  0  0  0  0  0  0  0  0  0
   -3.9038  -44.0438    6.9792 P   0  0  1  0  0  0  0  0  0  0  0  0
   -4.3594  -41.5798    8.1034 P   0  0  2  0  0  0  0  0  0  0  0  0
   -7.6180  -39.3489    3.3328 C   0  0  0  0  0  0  0  0  0  0  0  0
   -9.4748  -39.2737    1.6358 C   0  0  0  0  0  0  0  0  0  0  0  0
   -9.0118  -38.9541    2.9158 C   0  0  0  0  0  0  0  0  0  0  0  0
   -9.8465  -38.3033    3.8284 C   0  0  0  0  0  0  0  0  0  0  0  0
   -9.4099  -38.0195    5.0375 N   0  0  0  0  0  0  0  0  0  0  0  0
  -11.1141  -37.9346    3.4488 N   0  0  0  0  0  0  0  0  0  0  0  0
  -11.5674  -38.2672    2.1877 C   0  0  0  0  0  0  0  0  0  0  0  0
  -10.7556  -38.9183    1.2780 N   0  0  0  0  0  0  0  0  0  0  0  0
   -3.2205  -43.5518    5.7400 O   0  5  0  0  0  0  0  0  0  0  0  0
   -4.3616  -41.1645    6.6859 O   0  0  0  0  0  0  0  0  0  0  0  0
   -8.0732  -41.8377    6.2017 S   0  0  0  0  0  0  0  0  0  0  0  0
   -8.0780  -40.4240    5.4918 C   0  0  0  0  0  0  0  0  0  0  0  0
   -3.5699  -45.4324    7.3960 O   0  0  0  0  0  0  0  0  0  0  0  0
   -3.7246  -40.5763    8.9788 O   0  5  0  0  0  0  0  0  0  0  0  0
   -7.6985  -40.5056    4.1813 N   0  0  0  0  0  0  0  0  0  0  0  0
   -3.5413  -42.9366    8.0505 O   0  0  0  0  0  0  0  0  0  0  0  0
   -5.6856  -41.8147    8.7509 O   0  0  0  0  0  0  0  0  0  0  0  0
   -7.3818  -41.7869    3.8270 C   0  0  1  0  0  0  0  0  0  0  0  0
   -7.5623  -42.6204    4.9020 C   0  0  2  0  0  0  0  0  0  0  0  0
   -7.3712  -44.1102    5.0423 C   0  0  0  0  0  0  0  0  0  0  0  0
   -5.9474  -44.4675    5.4839 C   0  0  0  0  0  0  0  0  0  0  0  0
   -5.4353  -43.8552    6.6534 O   0  0  0  0  0  0  0  0  0  0  0  0
  1 11  1  0  0  0  0
  3 13  1  6  0  0  0
  3 17  2  0  0  0  0
  3 20  1  0  0  0  0
  3 26  1  0  0  0  0
  4 14  1  6  0  0  0
  4 18  1  0  0  0  0
  4 21  2  0  0  0  0
  4 20  1  0  0  0  0
  5 19  1  0  0  0  0
  5  7  1  0  0  0  0
  6  7  2  0  0  0  0
  6 12  1  0  0  0  0
  7  8  1  0  0  0  0
  8  9  1  0  0  0  0
  8 10  2  0  0  0  0
 10 11  1  0  0  0  0
 11 12  2  0  0  0  0
 15 23  1  0  0  0  0
 15 16  1  0  0  0  0
 16 19  1  0  0  0  0
 19 22  1  0  0  0  0
 22  2  1  6  0  0  0
 22 23  1  0  0  0  0
 23 24  1  6  0  0  0
 24 25  1  0  0  0  0
 25 26  1  0  0  0  0
M  CHG  2  13  -1  18  -1
M  END
>  <CHROM.1>
81.00129639,-77.06711183,-102.46702385,-48.62024791,-90.60125311,53.86157229
-170.50256636,55.54730928,-6.88898377,-41.40276661,5.38860780,3.05664795
-0.79579238,0.64217216

>  <Name>
ligand

>  <RI>
0

>  <Rbt.Current_Directory>
/home/itssahil/PROJECTS/Mol_Feturizer/New_Systems/rnas/3D2G

>  <Rbt.Executable>
rbdock ($Id: //depot/dev/client3/rdock/2013.1/src/exe/rbdock.cxx#4 $)

>  <Rbt.Library>
libRbt.so (2013.1, Build901 2013/11/27)

>  <Rbt.Parameter_File>
/export/apps/rDock/src/rDock_2013.1_src/data/scripts/dock_solv.prm

>  <Rbt.Receptor>
prm/pocket_docking_3.prm

>  <SCORE>
-15.9533

>  <SCORE.INTER>
-12.3538

>  <SCORE.INTER.CONST>
1

>  <SCORE.INTER.POLAR>
0

>  <SCORE.INTER.ROT>
8

>  <SCORE.INTER.SOLV>
11.1421

>  <SCORE.INTER.VDW>
-20.8832

>  <SCORE.INTER.norm>
-0.475145

>  <SCORE.INTRA>
-3.59956

>  <SCORE.INTRA.DIHEDRAL>
-2.14517

>  <SCORE.INTRA.DIHEDRAL.0>
9.09364

>  <SCORE.INTRA.POLAR>
0

>  <SCORE.INTRA.POLAR.0>
0

>  <SCORE.INTRA.REPUL>
0

>  <SCORE.INTRA.REPUL.0>
0

>  <SCORE.INTRA.SOLV>
-1.24803

>  <SCORE.INTRA.SOLV.lig_0>
-78.5846

>  <SCORE.INTRA.VDW>
-1.90296

>  <SCORE.INTRA.VDW.0>
-2.81163

>  <SCORE.INTRA.norm>
-0.138445

>  <SCORE.RESTR>
0

>  <SCORE.RESTR.CAVITY>
0

>  <SCORE.RESTR.norm>
0

>  <SCORE.SYSTEM>
0

>  <SCORE.SYSTEM.CONST>
0

>  <SCORE.SYSTEM.DIHEDRAL>
0

>  <SCORE.SYSTEM.SOLV>
0

>  <SCORE.SYSTEM.norm>
0

>  <SCORE.heavy>
26

>  <SCORE.norm>
-0.61359

>  <RMSD>
2.908

$$$$
ligand
 OpenBabel11021811463D
libRbt.so/2013.1/901 2013/11/27
 26 27  0  0  0  0  0  0  0  0999 V2000
   -8.3499  -39.4025   -0.3769 C   0  0  0  0  0  0  0  0  0  0  0  0
   -7.7666  -38.4502    7.9806 C   0  0  0  0  0  0  0  0  0  0  0  0
   -2.9266  -41.7972    9.4249 P   0  0  1  0  0  0  0  0  0  0  0  0
   -3.6862  -44.3959    9.8860 P   0  0  2  0  0  0  0  0  0  0  0  0
   -9.2543  -38.6812    5.2446 C   0  0  0  0  0  0  0  0  0  0  0  0
  -10.0885  -38.7329    2.8708 C   0  0  0  0  0  0  0  0  0  0  0  0
   -9.0267  -38.8832    3.7681 C   0  0  0  0  0  0  0  0  0  0  0  0
   -7.7435  -39.1826    3.3026 C   0  0  0  0  0  0  0  0  0  0  0  0
   -6.7448  -39.3069    4.1512 N   0  0  0  0  0  0  0  0  0  0  0  0
   -7.5346  -39.3757    1.9587 N   0  0  0  0  0  0  0  0  0  0  0  0
   -8.5860  -39.2111    1.0790 C   0  0  0  0  0  0  0  0  0  0  0  0
   -9.8584  -38.9067    1.5248 N   0  0  0  0  0  0  0  0  0  0  0  0
   -2.3458  -41.7931   10.8059 O   0  5  0  0  0  0  0  0  0  0  0  0
   -2.9590  -45.6446    9.5798 O   0  0  0  0  0  0  0  0  0  0  0  0
   -7.9586  -42.0607    6.4823 S   0  0  0  0  0  0  0  0  0  0  0  0
   -8.6925  -41.0573    5.5040 C   0  0  0  0  0  0  0  0  0  0  0  0
   -2.2707  -40.8923    8.4428 O   0  0  0  0  0  0  0  0  0  0  0  0
   -5.1100  -44.4708    9.5068 O   0  5  0  0  0  0  0  0  0  0  0  0
   -8.6473  -39.7695    5.9598 N   0  0  0  0  0  0  0  0  0  0  0  0
   -2.8895  -43.3285    9.0264 O   0  0  0  0  0  0  0  0  0  0  0  0
   -3.7309  -43.9614   11.3151 O   0  0  0  0  0  0  0  0  0  0  0  0
   -8.0044  -39.6826    7.1626 C   0  0  1  0  0  0  0  0  0  0  0  0
   -7.5738  -40.9279    7.5460 C   0  0  2  0  0  0  0  0  0  0  0  0
   -6.8108  -41.3787    8.7668 C   0  0  0  0  0  0  0  0  0  0  0  0
   -5.2956  -41.3638    8.5350 C   0  0  0  0  0  0  0  0  0  0  0  0
   -4.4445  -41.4421    9.6640 O   0  0  0  0  0  0  0  0  0  0  0  0
  1 11  1  0  0  0  0
  3 13  1  1  0  0  0
  3 17  2  0  0  0  0
  3 20  1  0  0  0  0
  3 26  1  0  0  0  0
  4 14  1  6  0  0  0
  4 18  1  0  0  0  0
  4 21  2  0  0  0  0
  4 20  1  0  0  0  0
  5 19  1  0  0  0  0
  5  7  1  0  0  0  0
  6  7  2  0  0  0  0
  6 12  1  0  0  0  0
  7  8  1  0  0  0  0
  8  9  1  0  0  0  0
  8 10  2  0  0  0  0
 10 11  1  0  0  0  0
 11 12  2  0  0  0  0
 15 23  1  0  0  0  0
 15 16  1  0  0  0  0
 16 19  1  0  0  0  0
 19 22  1  0  0  0  0
 22  2  1  6  0  0  0
 22 23  1  0  0  0  0
 23 24  1  6  0  0  0
 24 25  1  0  0  0  0
 25 26  1  0  0  0  0
M  CHG  2  13  -1  18  -1
M  END
>  <CHROM.1>
60.33186897,-39.25472099,133.12822329,-156.72050026,88.35929054,164.85368492
164.60226032,-179.96420020,-6.11668001,-41.25567936,6.92278249,-2.28831243
-0.57767737,1.64400738

>  <Name>
ligand

>  <RI>
0

>  <Rbt.Current_Directory>
/home/itssahil/PROJECTS/Mol_Feturizer/New_Systems/rnas/3D2G

>  <Rbt.Executable>
rbdock ($Id: //depot/dev/client3/rdock/2013.1/src/exe/rbdock.cxx#4 $)

>  <Rbt.Library>
libRbt.so (2013.1, Build901 2013/11/27)

>  <Rbt.Parameter_File>
/export/apps/rDock/src/rDock_2013.1_src/data/scripts/dock_solv.prm

>  <Rbt.Receptor>
prm/blind_docking_100.prm

>  <SCORE>
-11.6632

>  <SCORE.INTER>
-12.3478

>  <SCORE.INTER.CONST>
1

>  <SCORE.INTER.POLAR>
0

>  <SCORE.INTER.ROT>
8

>  <SCORE.INTER.SOLV>
10.7329

>  <SCORE.INTER.VDW>
-20.7428

>  <SCORE.INTER.norm>
-0.474915

>  <SCORE.INTRA>
0.684594

>  <SCORE.INTRA.DIHEDRAL>
-1.34014

>  <SCORE.INTRA.DIHEDRAL.0>
9.09364

>  <SCORE.INTRA.POLAR>
0

>  <SCORE.INTRA.POLAR.0>
0

>  <SCORE.INTRA.REPUL>
0

>  <SCORE.INTRA.REPUL.0>
0

>  <SCORE.INTRA.SOLV>
3.75403

>  <SCORE.INTRA.SOLV.lig_0>
-78.5846

>  <SCORE.INTRA.VDW>
-0.522349

>  <SCORE.INTRA.VDW.0>
-2.81163

>  <SCORE.INTRA.norm>
0.0263306

>  <SCORE.RESTR>
0

>  <SCORE.RESTR.CAVITY>
0

>  <SCORE.RESTR.norm>
0

>  <SCORE.SYSTEM>
0

>  <SCORE.SYSTEM.CONST>
0

>  <SCORE.SYSTEM.DIHEDRAL>
0

>  <SCORE.SYSTEM.SOLV>
0

>  <SCORE.SYSTEM.norm>
0

>  <SCORE.heavy>
26

>  <SCORE.norm>
-0.448585

>  <RMSD>
2.924

$$$$
ligand
 OpenBabel11021811463D
libRbt.so/2013.1/901 2013/11/27
 26 27  0  0  0  0  0  0  0  0999 V2000
   -8.2985  -39.4331   -0.3569 C   0  0  0  0  0  0  0  0  0  0  0  0
   -6.2690  -38.2747    5.9526 C   0  0  0  0  0  0  0  0  0  0  0  0
   -3.8183  -42.0977   10.2656 P   0  0  1  0  0  0  0  0  0  0  0  0
   -3.8577  -44.5772    9.0851 P   0  0  2  0  0  0  0  0  0  0  0  0
   -9.2909  -38.5965    5.2337 C   0  0  0  0  0  0  0  0  0  0  0  0
   -7.7622  -39.2490    3.3441 C   0  0  0  0  0  0  0  0  0  0  0  0
   -9.0192  -38.8047    3.7656 C   0  0  0  0  0  0  0  0  0  0  0  0
  -10.0411  -38.5876    2.8374 C   0  0  0  0  0  0  0  0  0  0  0  0
  -11.2272  -38.1846    3.2423 N   0  0  0  0  0  0  0  0  0  0  0  0
   -9.7942  -38.7682    1.4983 N   0  0  0  0  0  0  0  0  0  0  0  0
   -8.5544  -39.2209    1.0928 C   0  0  0  0  0  0  0  0  0  0  0  0
   -7.5372  -39.4477    2.0007 N   0  0  0  0  0  0  0  0  0  0  0  0
   -5.0473  -42.4742   11.0351 O   0  5  0  0  0  0  0  0  0  0  0  0
   -2.6265  -44.7802    9.8755 O   0  0  0  0  0  0  0  0  0  0  0  0
   -7.9684  -41.5343    7.2958 S   0  0  0  0  0  0  0  0  0  0  0  0
   -9.0403  -40.6843    6.5015 C   0  0  0  0  0  0  0  0  0  0  0  0
   -2.5300  -42.2234   10.9990 O   0  0  0  0  0  0  0  0  0  0  0  0
   -3.7903  -45.2352    7.7665 O   0  5  0  0  0  0  0  0  0  0  0  0
   -8.5070  -39.5355    5.9875 N   0  0  0  0  0  0  0  0  0  0  0  0
   -3.9200  -42.9976    8.9675 O   0  0  0  0  0  0  0  0  0  0  0  0
   -5.1362  -45.0911    9.6636 O   0  0  0  0  0  0  0  0  0  0  0  0
   -7.1880  -39.4000    6.3181 C   0  0  1  0  0  0  0  0  0  0  0  0
   -6.7850  -40.4825    7.0590 C   0  0  2  0  0  0  0  0  0  0  0  0
   -5.4436  -40.8292    7.6558 C   0  0  0  0  0  0  0  0  0  0  0  0
   -5.3273  -40.3693    9.1134 C   0  0  0  0  0  0  0  0  0  0  0  0
   -4.1147  -40.6202    9.8002 O   0  0  0  0  0  0  0  0  0  0  0  0
  1 11  1  0  0  0  0
  3 13  1  1  0  0  0
  3 17  2  0  0  0  0
  3 20  1  0  0  0  0
  3 26  1  0  0  0  0
  4 14  1  1  0  0  0
  4 18  1  0  0  0  0
  4 21  2  0  0  0  0
  4 20  1  0  0  0  0
  5 19  1  0  0  0  0
  5  7  1  0  0  0  0
  6  7  2  0  0  0  0
  6 12  1  0  0  0  0
  7  8  1  0  0  0  0
  8  9  1  0  0  0  0
  8 10  2  0  0  0  0
 10 11  1  0  0  0  0
 11 12  2  0  0  0  0
 15 23  1  0  0  0  0
 15 16  1  0  0  0  0
 16 19  1  0  0  0  0
 19 22  1  0  0  0  0
 22  2  1  6  0  0  0
 22 23  1  0  0  0  0
 23 24  1  6  0  0  0
 24 25  1  0  0  0  0
 25 26  1  0  0  0  0
M  CHG  2  13  -1  18  -1
M  END
>  <CHROM.1>
-63.93885176,-100.69123122,-31.26055833,-52.05634548,-86.18251143,-179.55061444
-74.43960192,-52.85759618,-6.33282959,-41.17994967,6.85072126,-2.67747442
-0.93318171,1.11358469

>  <Name>
ligand

>  <RI>
0

>  <Rbt.Current_Directory>
/home/itssahil/PROJECTS/Mol_Feturizer/New_Systems/rnas/3D2G

>  <Rbt.Executable>
rbdock ($Id: //depot/dev/client3/rdock/2013.1/src/exe/rbdock.cxx#4 $)

>  <Rbt.Library>
libRbt.so (2013.1, Build901 2013/11/27)

>  <Rbt.Parameter_File>
/export/apps/rDock/src/rDock_2013.1_src/data/scripts/dock_solv.prm

>  <Rbt.Receptor>
prm/pocket_docking_3.prm

>  <SCORE>
-13.1618

>  <SCORE.INTER>
-11.1136

>  <SCORE.INTER.CONST>
1

>  <SCORE.INTER.POLAR>
0

>  <SCORE.INTER.ROT>
8

>  <SCORE.INTER.SOLV>
12.1496

>  <SCORE.INTER.VDW>
-20.3922

>  <SCORE.INTER.norm>
-0.427445

>  <SCORE.INTRA>
-2.04826

>  <SCORE.INTRA.DIHEDRAL>
-2.78451

>  <SCORE.INTRA.DIHEDRAL.0>
9.09364

>  <SCORE.INTRA.POLAR>
0

>  <SCORE.INTRA.POLAR.0>
0

>  <SCORE.INTRA.REPUL>
0

>  <SCORE.INTRA.REPUL.0>
0

>  <SCORE.INTRA.SOLV>
-1.58388

>  <SCORE.INTRA.SOLV.lig_0>
-78.5846

>  <SCORE.INTRA.VDW>
0.135933

>  <SCORE.INTRA.VDW.0>
-2.81163

>  <SCORE.INTRA.norm>
-0.0787793

>  <SCORE.RESTR>
0

>  <SCORE.RESTR.CAVITY>
0

>  <SCORE.RESTR.norm>
0

>  <SCORE.SYSTEM>
0

>  <SCORE.SYSTEM.CONST>
0

>  <SCORE.SYSTEM.DIHEDRAL>
0

>  <SCORE.SYSTEM.SOLV>
0

>  <SCORE.SYSTEM.norm>
0

>  <SCORE.heavy>
26

>  <SCORE.norm>
-0.506225

>  <RMSD>
2.929

$$$$
ligand
 OpenBabel11021811463D
libRbt.so/2013.1/901 2013/11/27
 26 27  0  0  0  0  0  0  0  0999 V2000
  -12.7258  -37.7680    1.9683 C   0  0  0  0  0  0  0  0  0  0  0  0
   -4.8384  -40.8237    3.9038 C   0  0  0  0  0  0  0  0  0  0  0  0
   -5.8652  -43.0249    9.9770 P   0  0  1  0  0  0  0  0  0  0  0  0
   -5.3157  -44.1097   12.4396 P   0  0  2  0  0  0  0  0  0  0  0  0
   -7.3783  -39.8075    2.3976 C   0  0  0  0  0  0  0  0  0  0  0  0
   -9.4467  -39.3235    1.0482 C   0  0  0  0  0  0  0  0  0  0  0  0
   -8.7778  -39.2608    2.2744 C   0  0  0  0  0  0  0  0  0  0  0  0
   -9.4119  -38.7283    3.4002 C   0  0  0  0  0  0  0  0  0  0  0  0
   -8.7823  -38.6868    4.5556 N   0  0  0  0  0  0  0  0  0  0  0  0
  -10.6838  -38.2215    3.2893 N   0  0  0  0  0  0  0  0  0  0  0  0
  -11.3416  -38.3009    2.0779 C   0  0  0  0  0  0  0  0  0  0  0  0
  -10.7296  -38.8328    0.9585 N   0  0  0  0  0  0  0  0  0  0  0  0
   -7.2723  -43.5260   10.0933 O   0  5  0  0  0  0  0  0  0  0  0  0
   -6.5845  -44.8633   12.5028 O   0  0  0  0  0  0  0  0  0  0  0  0
   -8.2100  -42.4739    5.0112 S   0  0  0  0  0  0  0  0  0  0  0  0
   -8.5039  -41.4159    3.8725 C   0  0  0  0  0  0  0  0  0  0  0  0
   -5.6563  -41.5928   10.3219 O   0  0  0  0  0  0  0  0  0  0  0  0
   -5.4292  -42.7717   13.0504 O   0  5  0  0  0  0  0  0  0  0  0  0
   -7.3623  -40.8119    3.4250 N   0  0  0  0  0  0  0  0  0  0  0  0
   -5.0495  -44.0383   10.8785 O   0  0  0  0  0  0  0  0  0  0  0  0
   -4.1299  -44.7048   13.1273 O   0  0  0  0  0  0  0  0  0  0  0  0
   -6.2596  -41.2559    4.0989 C   0  0  1  0  0  0  0  0  0  0  0  0
   -6.6324  -42.2021    5.0202 C   0  0  2  0  0  0  0  0  0  0  0  0
   -5.8139  -43.0065    5.9994 C   0  0  0  0  0  0  0  0  0  0  0  0
   -6.1328  -42.6388    7.4529 C   0  0  0  0  0  0  0  0  0  0  0  0
   -5.4797  -43.3564    8.4841 O   0  0  0  0  0  0  0  0  0  0  0  0
  1 11  1  0  0  0  0
  3 13  1  1  0  0  0
  3 17  2  0  0  0  0
  3 20  1  0  0  0  0
  3 26  1  0  0  0  0
  4 14  1  1  0  0  0
  4 18  1  0  0  0  0
  4 21  2  0  0  0  0
  4 20  1  0  0  0  0
  5 19  1  0  0  0  0
  5  7  1  0  0  0  0
  6  7  2  0  0  0  0
  6 12  1  0  0  0  0
  7  8  1  0  0  0  0
  8  9  1  0  0  0  0
  8 10  2  0  0  0  0
 10 11  1  0  0  0  0
 11 12  2  0  0  0  0
 15 23  1  0  0  0  0
 15 16  1  0  0  0  0
 16 19  1  0  0  0  0
 19 22  1  0  0  0  0
 22  2  1  6  0  0  0
 22 23  1  0  0  0  0
 23 24  1  6  0  0  0
 24 25  1  0  0  0  0
 25 26  1  0  0  0  0
M  CHG  2  13  -1  18  -1
M  END
>  <CHROM.1>
-64.47493766,18.24111801,-122.44926535,76.51860986,-66.78678849,177.32172702
-176.95266404,68.36003977,-7.24310151,-41.69950053,6.82337835,2.01888525
0.50318498,-1.33675258

>  <Name>
ligand

>  <RI>
0

>  <Rbt.Current_Directory>
/home/itssahil/PROJECTS/Mol_Feturizer/New_Systems/rnas/3D2G

>  <Rbt.Executable>
rbdock ($Id: //depot/dev/client3/rdock/2013.1/src/exe/rbdock.cxx#4 $)

>  <Rbt.Library>
libRbt.so (2013.1, Build901 2013/11/27)

>  <Rbt.Parameter_File>
/export/apps/rDock/src/rDock_2013.1_src/data/scripts/dock_solv.prm

>  <Rbt.Receptor>
prm/pocket_docking_7.prm

>  <SCORE>
-19.9496

>  <SCORE.INTER>
-19.5847

>  <SCORE.INTER.CONST>
1

>  <SCORE.INTER.POLAR>
0

>  <SCORE.INTER.ROT>
8

>  <SCORE.INTER.SOLV>
19.628

>  <SCORE.INTER.VDW>
-28.5325

>  <SCORE.INTER.norm>
-0.753258

>  <SCORE.INTRA>
-0.364882

>  <SCORE.INTRA.DIHEDRAL>
-3.20636

>  <SCORE.INTRA.DIHEDRAL.0>
9.09364

>  <SCORE.INTRA.POLAR>
0

>  <SCORE.INTRA.POLAR.0>
0

>  <SCORE.INTRA.REPUL>
0

>  <SCORE.INTRA.REPUL.0>
0

>  <SCORE.INTRA.SOLV>
0.863163

>  <SCORE.INTRA.SOLV.lig_0>
-78.5846

>  <SCORE.INTRA.VDW>
0.806715

>  <SCORE.INTRA.VDW.0>
-2.81163

>  <SCORE.INTRA.norm>
-0.0140339

>  <SCORE.RESTR>
0

>  <SCORE.RESTR.CAVITY>
0

>  <SCORE.RESTR.norm>
0

>  <SCORE.SYSTEM>
0

>  <SCORE.SYSTEM.CONST>
0

>  <SCORE.SYSTEM.DIHEDRAL>
0

>  <SCORE.SYSTEM.SOLV>
0

>  <SCORE.SYSTEM.norm>
0

>  <SCORE.heavy>
26

>  <SCORE.norm>
-0.767292

>  <RMSD>
2.929

$$$$
ligand
 OpenBabel11021811463D
libRbt.so/2013.1/901 2013/11/27
 26 27  0  0  0  0  0  0  0  0999 V2000
  -13.6926  -37.7269    1.8287 C   0  0  0  0  0  0  0  0  0  0  0  0
   -6.5670  -37.6785    5.3887 C   0  0  0  0  0  0  0  0  0  0  0  0
   -4.1704  -41.3659    8.4142 P   0  0  1  0  0  0  0  0  0  0  0  0
   -4.1917  -42.3541    5.8518 P   0  0  2  0  0  0  0  0  0  0  0  0
   -8.3779  -39.2397    3.3798 C   0  0  0  0  0  0  0  0  0  0  0  0
  -10.6559  -38.3258    3.9356 C   0  0  0  0  0  0  0  0  0  0  0  0
   -9.7799  -38.8535    2.9822 C   0  0  0  0  0  0  0  0  0  0  0  0
  -10.1819  -38.9910    1.6508 C   0  0  0  0  0  0  0  0  0  0  0  0
   -9.3468  -39.4736    0.7548 N   0  0  0  0  0  0  0  0  0  0  0  0
  -11.4613  -38.6481    1.2870 N   0  0  0  0  0  0  0  0  0  0  0  0
  -12.3145  -38.1144    2.2323 C   0  0  0  0  0  0  0  0  0  0  0  0
  -11.9274  -37.9650    3.5508 N   0  0  0  0  0  0  0  0  0  0  0  0
   -5.0662  -42.5216    8.7402 O   0  5  0  0  0  0  0  0  0  0  0  0
   -3.1047  -42.6024    4.8830 O   0  0  0  0  0  0  0  0  0  0  0  0
   -8.9094  -40.3713    6.9949 S   0  0  0  0  0  0  0  0  0  0  0  0
   -9.1424  -40.3531    5.4304 C   0  0  0  0  0  0  0  0  0  0  0  0
   -3.2921  -40.8945    9.5187 O   0  0  0  0  0  0  0  0  0  0  0  0
   -5.1483  -41.3394    5.3706 O   0  5  0  0  0  0  0  0  0  0  0  0
   -8.3393  -39.4432    4.8016 N   0  0  0  0  0  0  0  0  0  0  0  0
   -3.3916  -41.8686    7.1312 O   0  0  0  0  0  0  0  0  0  0  0  0
   -5.0662  -43.5110    6.2123 O   0  0  0  0  0  0  0  0  0  0  0  0
   -7.5602  -38.7586    5.6914 C   0  0  1  0  0  0  0  0  0  0  0  0
   -7.8068  -39.2111    6.9633 C   0  0  2  0  0  0  0  0  0  0  0  0
   -7.2133  -38.8068    8.2899 C   0  0  0  0  0  0  0  0  0  0  0  0
   -6.1922  -39.8308    8.7983 C   0  0  0  0  0  0  0  0  0  0  0  0
   -5.1716  -40.2552    7.9132 O   0  0  0  0  0  0  0  0  0  0  0  0
  1 11  1  0  0  0  0
  3 13  1  1  0  0  0
  3 17  2  0  0  0  0
  3 20  1  0  0  0  0
  3 26  1  0  0  0  0
  4 14  1  6  0  0  0
  4 18  1  0  0  0  0
  4 21  2  0  0  0  0
  4 20  1  0  0  0  0
  5 19  1  0  0  0  0
  5  7  1  0  0  0  0
  6  7  2  0  0  0  0
  6 12  1  0  0  0  0
  7  8  1  0  0  0  0
  8  9  1  0  0  0  0
  8 10  2  0  0  0  0
 10 11  1  0  0  0  0
 11 12  2  0  0  0  0
 15 23  1  0  0  0  0
 15 16  1  0  0  0  0
 16 19  1  0  0  0  0
 19 22  1  0  0  0  0
 22  2  1  6  0  0  0
 22 23  1  0  0  0  0
 23 24  1  6  0  0  0
 24 25  1  0  0  0  0
 25 26  1  0  0  0  0
M  CHG  2  13  -1  18  -1
M  END
>  <CHROM.1>
55.56913240,57.80310753,21.03676107,174.95374865,76.05960797,50.12361841
-176.76597624,58.75331313,-7.22994380,-40.20262982,5.61989679,2.67256894
0.55592315,-1.81258819

>  <Name>
ligand

>  <RI>
0

>  <Rbt.Current_Directory>
/home/itssahil/PROJECTS/Mol_Feturizer/New_Systems/rnas/3D2G

>  <Rbt.Executable>
rbdock ($Id: //depot/dev/client3/rdock/2013.1/src/exe/rbdock.cxx#4 $)

>  <Rbt.Library>
libRbt.so (2013.1, Build901 2013/11/27)

>  <Rbt.Parameter_File>
/export/apps/rDock/src/rDock_2013.1_src/data/scripts/dock_solv.prm

>  <Rbt.Receptor>
prm/pocket_docking_3.prm

>  <SCORE>
-23.3917

>  <SCORE.INTER>
-20.8871

>  <SCORE.INTER.CONST>
1

>  <SCORE.INTER.POLAR>
0

>  <SCORE.INTER.ROT>
8

>  <SCORE.INTER.SOLV>
18.1315

>  <SCORE.INTER.VDW>
-28.9019

>  <SCORE.INTER.norm>
-0.803351

>  <SCORE.INTRA>
-2.50461

>  <SCORE.INTRA.DIHEDRAL>
-3.52078

>  <SCORE.INTRA.DIHEDRAL.0>
9.09364

>  <SCORE.INTRA.POLAR>
0

>  <SCORE.INTRA.POLAR.0>
0

>  <SCORE.INTRA.REPUL>
0

>  <SCORE.INTRA.REPUL.0>
0

>  <SCORE.INTRA.SOLV>
0.408404

>  <SCORE.INTRA.SOLV.lig_0>
-78.5846

>  <SCORE.INTRA.VDW>
-0.948421

>  <SCORE.INTRA.VDW.0>
-2.81163

>  <SCORE.INTRA.norm>
-0.0963311

>  <SCORE.RESTR>
0

>  <SCORE.RESTR.CAVITY>
0

>  <SCORE.RESTR.norm>
0

>  <SCORE.SYSTEM>
0

>  <SCORE.SYSTEM.CONST>
0

>  <SCORE.SYSTEM.DIHEDRAL>
0

>  <SCORE.SYSTEM.SOLV>
0

>  <SCORE.SYSTEM.norm>
0

>  <SCORE.heavy>
26

>  <SCORE.norm>
-0.899682

>  <RMSD>
2.970

$$$$
ligand
 OpenBabel11021811463D
libRbt.so/2013.1/901 2013/11/27
 26 27  0  0  0  0  0  0  0  0999 V2000
   -8.2803  -39.3614   -0.2115 C   0  0  0  0  0  0  0  0  0  0  0  0
   -8.2869  -41.4282    7.1028 C   0  0  0  0  0  0  0  0  0  0  0  0
   -3.1642  -41.8359    8.3441 P   0  0  1  0  0  0  0  0  0  0  0  0
   -2.9120  -43.5784    6.2362 P   0  0  2  0  0  0  0  0  0  0  0  0
  -10.0859  -39.6979    5.2260 C   0  0  0  0  0  0  0  0  0  0  0  0
   -8.4720  -40.3279    3.4008 C   0  0  0  0  0  0  0  0  0  0  0  0
   -9.5979  -39.6030    3.8028 C   0  0  0  0  0  0  0  0  0  0  0  0
  -10.2999  -38.8182    2.8839 C   0  0  0  0  0  0  0  0  0  0  0  0
  -11.3687  -38.1508    3.2651 N   0  0  0  0  0  0  0  0  0  0  0  0
   -9.8529  -38.7228    1.5886 N   0  0  0  0  0  0  0  0  0  0  0  0
   -8.7486  -39.4535    1.1972 C   0  0  0  0  0  0  0  0  0  0  0  0
   -8.0499  -40.2403    2.0935 N   0  0  0  0  0  0  0  0  0  0  0  0
   -3.0424  -42.9454    9.3434 O   0  5  0  0  0  0  0  0  0  0  0  0
   -2.6649  -44.6580    7.2136 O   0  0  0  0  0  0  0  0  0  0  0  0
   -7.5891  -37.5785    7.2023 S   0  0  0  0  0  0  0  0  0  0  0  0
   -8.7552  -37.8641    6.1722 C   0  0  0  0  0  0  0  0  0  0  0  0
   -1.9163  -41.0761    8.0635 O   0  0  0  0  0  0  0  0  0  0  0  0
   -1.6603  -42.9712    5.7456 O   0  5  0  0  0  0  0  0  0  0  0  0
   -9.0636  -39.1938    6.1007 N   0  0  0  0  0  0  0  0  0  0  0  0
   -3.7849  -42.5596    7.0807 O   0  0  0  0  0  0  0  0  0  0  0  0
   -3.6355  -43.9429    4.9805 O   0  0  0  0  0  0  0  0  0  0  0  0
   -8.2626  -39.9417    6.9172 C   0  0  1  0  0  0  0  0  0  0  0  0
   -7.3920  -39.1197    7.5875 C   0  0  2  0  0  0  0  0  0  0  0  0
   -6.3218  -39.4303    8.6043 C   0  0  0  0  0  0  0  0  0  0  0  0
   -5.2471  -40.3661    8.0395 C   0  0  0  0  0  0  0  0  0  0  0  0
   -4.3103  -40.9303    8.9388 O   0  0  0  0  0  0  0  0  0  0  0  0
  1 11  1  0  0  0  0
  3 13  1  1  0  0  0
  3 17  2  0  0  0  0
  3 20  1  0  0  0  0
  3 26  1  0  0  0  0
  4 14  1  1  0  0  0
  4 18  1  0  0  0  0
  4 21  2  0  0  0  0
  4 20  1  0  0  0  0
  5 19  1  0  0  0  0
  5  7  1  0  0  0  0
  6  7  2  0  0  0  0
  6 12  1  0  0  0  0
  7  8  1  0  0  0  0
  8  9  1  0  0  0  0
  8 10  2  0  0  0  0
 10 11  1  0  0  0  0
 11 12  2  0  0  0  0
 15 23  1  0  0  0  0
 15 16  1  0  0  0  0
 16 19  1  0  0  0  0
 19 22  1  0  0  0  0
 22  2  1  1  0  0  0
 22 23  1  0  0  0  0
 23 24  1  1  0  0  0
 24 25  1  0  0  0  0
 25 26  1  0  0  0  0
M  CHG  2  13  -1  18  -1
M  END
>  <CHROM.1>
-70.65450617,71.27973075,62.62996501,64.41663349,-120.24639900,-169.17590663
-177.07130793,-140.58209049,-6.20794943,-40.69322587,5.93262776,-2.81935508
-0.64757350,1.23458044

>  <Name>
ligand

>  <RI>
0

>  <Rbt.Current_Directory>
/home/itssahil/PROJECTS/Mol_Feturizer/New_Systems/rnas/3D2G

>  <Rbt.Executable>
rbdock ($Id: //depot/dev/client3/rdock/2013.1/src/exe/rbdock.cxx#4 $)

>  <Rbt.Library>
libRbt.so (2013.1, Build901 2013/11/27)

>  <Rbt.Parameter_File>
/export/apps/rDock/src/rDock_2013.1_src/data/scripts/dock_solv.prm

>  <Rbt.Receptor>
prm/pocket_docking_4.prm

>  <SCORE>
-13.794

>  <SCORE.INTER>
-11.1225

>  <SCORE.INTER.CONST>
1

>  <SCORE.INTER.POLAR>
0

>  <SCORE.INTER.ROT>
8

>  <SCORE.INTER.SOLV>
16.694

>  <SCORE.INTER.VDW>
-21.913

>  <SCORE.INTER.norm>
-0.427789

>  <SCORE.INTRA>
-2.67149

>  <SCORE.INTRA.DIHEDRAL>
-2.54312

>  <SCORE.INTRA.DIHEDRAL.0>
9.09364

>  <SCORE.INTRA.POLAR>
0

>  <SCORE.INTRA.POLAR.0>
0

>  <SCORE.INTRA.REPUL>
0

>  <SCORE.INTRA.REPUL.0>
0

>  <SCORE.INTRA.SOLV>
-2.24357

>  <SCORE.INTRA.SOLV.lig_0>
-78.5846

>  <SCORE.INTRA.VDW>
-0.278149

>  <SCORE.INTRA.VDW.0>
-2.81163

>  <SCORE.INTRA.norm>
-0.10275

>  <SCORE.RESTR>
0

>  <SCORE.RESTR.CAVITY>
0

>  <SCORE.RESTR.norm>
0

>  <SCORE.SYSTEM>
0

>  <SCORE.SYSTEM.CONST>
0

>  <SCORE.SYSTEM.DIHEDRAL>
0

>  <SCORE.SYSTEM.SOLV>
0

>  <SCORE.SYSTEM.norm>
0

>  <SCORE.heavy>
26

>  <SCORE.norm>
-0.530539

>  <RMSD>
3.034

$$$$
ligand
 OpenBabel11021811463D
libRbt.so/2013.1/901 2013/11/27
 26 27  0  0  0  0  0  0  0  0999 V2000
  -13.6949  -37.6952    1.8196 C   0  0  0  0  0  0  0  0  0  0  0  0
   -6.8012  -37.7099    5.4818 C   0  0  0  0  0  0  0  0  0  0  0  0
   -4.4041  -40.2614   10.5214 P   0  0  1  0  0  0  0  0  0  0  0  0
   -1.9614  -40.8874    9.4333 P   0  0  2  0  0  0  0  0  0  0  0  0
   -8.4563  -39.3926    3.4369 C   0  0  0  0  0  0  0  0  0  0  0  0
  -10.7436  -38.4947    3.9805 C   0  0  0  0  0  0  0  0  0  0  0  0
   -9.8387  -38.9586    3.0208 C   0  0  0  0  0  0  0  0  0  0  0  0
  -10.1932  -38.9875    1.6692 C   0  0  0  0  0  0  0  0  0  0  0  0
   -9.3310  -39.4104    0.7688 N   0  0  0  0  0  0  0  0  0  0  0  0
  -11.4548  -38.6008    1.2878 N   0  0  0  0  0  0  0  0  0  0  0  0
  -12.3365  -38.1307    2.2407 C   0  0  0  0  0  0  0  0  0  0  0  0
  -11.9963  -38.0886    3.5797 N   0  0  0  0  0  0  0  0  0  0  0  0
   -4.8419  -41.6755   10.2912 O   0  5  0  0  0  0  0  0  0  0  0  0
   -1.1985  -40.2925    8.3171 O   0  0  0  0  0  0  0  0  0  0  0  0
   -9.0060  -40.5412    7.0439 S   0  0  0  0  0  0  0  0  0  0  0  0
   -9.1997  -40.5445    5.4739 C   0  0  0  0  0  0  0  0  0  0  0  0
   -3.9516  -39.9391   11.9016 O   0  0  0  0  0  0  0  0  0  0  0  0
   -2.2037  -42.3296    9.2387 O   0  5  0  0  0  0  0  0  0  0  0  0
   -8.4410  -39.5874    4.8604 N   0  0  0  0  0  0  0  0  0  0  0  0
   -3.3024  -40.0425    9.4063 O   0  0  0  0  0  0  0  0  0  0  0  0
   -1.3493  -40.8198   10.7949 O   0  0  0  0  0  0  0  0  0  0  0  0
   -7.7305  -38.8504    5.7656 C   0  0  1  0  0  0  0  0  0  0  0  0
   -7.9799  -39.3126    7.0334 C   0  0  2  0  0  0  0  0  0  0  0  0
   -7.4476  -38.8655    8.3723 C   0  0  0  0  0  0  0  0  0  0  0  0
   -6.2353  -39.6932    8.8139 C   0  0  0  0  0  0  0  0  0  0  0  0
   -5.6559  -39.4122   10.0749 O   0  0  0  0  0  0  0  0  0  0  0  0
  1 11  1  0  0  0  0
  3 13  1  6  0  0  0
  3 17  2  0  0  0  0
  3 20  1  0  0  0  0
  3 26  1  0  0  0  0
  4 14  1  6  0  0  0
  4 18  1  0  0  0  0
  4 21  2  0  0  0  0
  4 20  1  0  0  0  0
  5 19  1  0  0  0  0
  5  7  1  0  0  0  0
  6  7  2  0  0  0  0
  6 12  1  0  0  0  0
  7  8  1  0  0  0  0
  8  9  1  0  0  0  0
  8 10  2  0  0  0  0
 10 11  1  0  0  0  0
 11 12  2  0  0  0  0
 15 23  1  0  0  0  0
 15 16  1  0  0  0  0
 16 19  1  0  0  0  0
 19 22  1  0  0  0  0
 22  2  1  6  0  0  0
 22 23  1  0  0  0  0
 23 24  1  6  0  0  0
 24 25  1  0  0  0  0
 25 26  1  0  0  0  0
M  CHG  2  13  -1  18  -1
M  END
>  <CHROM.1>
-64.16725961,63.63149825,15.80132650,-175.33136408,84.65984407,-178.02021562
-179.68041846,-49.87227180,-6.83559123,-39.72781903,6.83997143,2.40243719
0.20067472,-1.52184684

>  <Name>
ligand

>  <RI>
0

>  <Rbt.Current_Directory>
/home/itssahil/PROJECTS/Mol_Feturizer/New_Systems/rnas/3D2G

>  <Rbt.Executable>
rbdock ($Id: //depot/dev/client3/rdock/2013.1/src/exe/rbdock.cxx#4 $)

>  <Rbt.Library>
libRbt.so (2013.1, Build901 2013/11/27)

>  <Rbt.Parameter_File>
/export/apps/rDock/src/rDock_2013.1_src/data/scripts/dock_solv.prm

>  <Rbt.Receptor>
prm/blind_docking_100.prm

>  <SCORE>
-24.9704

>  <SCORE.INTER>
-23.0508

>  <SCORE.INTER.CONST>
1

>  <SCORE.INTER.POLAR>
0

>  <SCORE.INTER.ROT>
8

>  <SCORE.INTER.SOLV>
19.1451

>  <SCORE.INTER.VDW>
-30.6822

>  <SCORE.INTER.norm>
-0.886568

>  <SCORE.INTRA>
-1.91966

>  <SCORE.INTRA.DIHEDRAL>
-4.05768

>  <SCORE.INTRA.DIHEDRAL.0>
9.09364

>  <SCORE.INTRA.POLAR>
0

>  <SCORE.INTRA.POLAR.0>
0

>  <SCORE.INTRA.REPUL>
0

>  <SCORE.INTRA.REPUL.0>
0

>  <SCORE.INTRA.SOLV>
-0.429839

>  <SCORE.INTRA.SOLV.lig_0>
-78.5846

>  <SCORE.INTRA.VDW>
0.324094

>  <SCORE.INTRA.VDW.0>
-2.81163

>  <SCORE.INTRA.norm>
-0.0738332

>  <SCORE.RESTR>
0

>  <SCORE.RESTR.CAVITY>
0

>  <SCORE.RESTR.norm>
0

>  <SCORE.SYSTEM>
0

>  <SCORE.SYSTEM.CONST>
0

>  <SCORE.SYSTEM.DIHEDRAL>
0

>  <SCORE.SYSTEM.SOLV>
0

>  <SCORE.SYSTEM.norm>
0

>  <SCORE.heavy>
26

>  <SCORE.norm>
-0.960401

>  <RMSD>
3.042

$$$$
ligand
 OpenBabel11021811463D
libRbt.so/2013.1/901 2013/11/27
 26 27  0  0  0  0  0  0  0  0999 V2000
   -7.6198  -40.1694    0.5684 C   0  0  0  0  0  0  0  0  0  0  0  0
   -9.1119  -40.7515    5.9257 C   0  0  0  0  0  0  0  0  0  0  0  0
   -4.3728  -43.3778    6.6042 P   0  0  1  0  0  0  0  0  0  0  0  0
   -2.1498  -42.6361    8.0364 P   0  0  2  0  0  0  0  0  0  0  0  0
   -8.5269  -37.6949    5.6668 C   0  0  0  0  0  0  0  0  0  0  0  0
   -6.9766  -38.6480    3.9286 C   0  0  0  0  0  0  0  0  0  0  0  0
   -8.2803  -38.3320    4.3230 C   0  0  0  0  0  0  0  0  0  0  0  0
   -9.3640  -38.6377    3.4952 C   0  0  0  0  0  0  0  0  0  0  0  0
  -10.5903  -38.3521    3.8795 N   0  0  0  0  0  0  0  0  0  0  0  0
   -9.1420  -39.2103    2.2666 N   0  0  0  0  0  0  0  0  0  0  0  0
   -7.8526  -39.5319    1.8919 C   0  0  0  0  0  0  0  0  0  0  0  0
   -6.7722  -39.2430    2.7042 N   0  0  0  0  0  0  0  0  0  0  0  0
   -4.8033  -43.1043    5.1955 O   0  5  0  0  0  0  0  0  0  0  0  0
   -2.9425  -41.5883    8.7112 O   0  0  0  0  0  0  0  0  0  0  0  0
   -6.7371  -39.2671    8.6596 S   0  0  0  0  0  0  0  0  0  0  0  0
   -7.1630  -38.1128    7.6654 C   0  0  0  0  0  0  0  0  0  0  0  0
   -4.4755  -44.7933    7.0505 O   0  0  0  0  0  0  0  0  0  0  0  0
   -0.7376  -42.2453    7.8647 O   0  5  0  0  0  0  0  0  0  0  0  0
   -8.0110  -38.5603    6.6913 N   0  0  0  0  0  0  0  0  0  0  0  0
   -2.9063  -42.7842    6.6512 O   0  0  0  0  0  0  0  0  0  0  0  0
   -2.0612  -43.9681    8.7081 O   0  0  0  0  0  0  0  0  0  0  0  0
   -8.2504  -39.9006    6.8079 C   0  0  1  0  0  0  0  0  0  0  0  0
   -7.5748  -40.3966    7.8946 C   0  0  2  0  0  0  0  0  0  0  0  0
   -7.5094  -41.7906    8.4674 C   0  0  0  0  0  0  0  0  0  0  0  0
   -6.6399  -42.7216    7.6149 C   0  0  0  0  0  0  0  0  0  0  0  0
   -5.2696  -42.4013    7.4583 O   0  0  0  0  0  0  0  0  0  0  0  0
  1 11  1  0  0  0  0
  3 13  1  6  0  0  0
  3 17  2  0  0  0  0
  3 20  1  0  0  0  0
  3 26  1  0  0  0  0
  4 14  1  1  0  0  0
  4 18  1  0  0  0  0
  4 21  2  0  0  0  0
  4 20  1  0  0  0  0
  5 19  1  0  0  0  0
  5  7  1  0  0  0  0
  6  7  2  0  0  0  0
  6 12  1  0  0  0  0
  7  8  1  0  0  0  0
  8  9  1  0  0  0  0
  8 10  2  0  0  0  0
 10 11  1  0  0  0  0
 11 12  2  0  0  0  0
 15 23  1  0  0  0  0
 15 16  1  0  0  0  0
 16 19  1  0  0  0  0
 19 22  1  0  0  0  0
 22  2  1  1  0  0  0
 22 23  1  0  0  0  0
 23 24  1  1  0  0  0
 24 25  1  0  0  0  0
 25 26  1  0  0  0  0
M  CHG  2  13  -1  18  -1
M  END
>  <CHROM.1>
169.62226479,128.66457972,-58.31671672,-67.53259837,-106.08344110,61.77274898
178.79772890,73.60793745,-5.99717661,-40.95506726,6.24058487,-2.71630165
-0.67980011,1.42902239

>  <Name>
ligand

>  <RI>
0

>  <Rbt.Current_Directory>
/home/itssahil/PROJECTS/Mol_Feturizer/New_Systems/rnas/3D2G

>  <Rbt.Executable>
rbdock ($Id: //depot/dev/client3/rdock/2013.1/src/exe/rbdock.cxx#4 $)

>  <Rbt.Library>
libRbt.so (2013.1, Build901 2013/11/27)

>  <Rbt.Parameter_File>
/export/apps/rDock/src/rDock_2013.1_src/data/scripts/dock_solv.prm

>  <Rbt.Receptor>
prm/pocket_docking_4.prm

>  <SCORE>
-12.353

>  <SCORE.INTER>
-8.51245

>  <SCORE.INTER.CONST>
1

>  <SCORE.INTER.POLAR>
0

>  <SCORE.INTER.ROT>
8

>  <SCORE.INTER.SOLV>
12.7956

>  <SCORE.INTER.VDW>
-18.8735

>  <SCORE.INTER.norm>
-0.327402

>  <SCORE.INTRA>
-3.84057

>  <SCORE.INTRA.DIHEDRAL>
-4.11563

>  <SCORE.INTRA.DIHEDRAL.0>
9.09364

>  <SCORE.INTRA.POLAR>
0

>  <SCORE.INTRA.POLAR.0>
0

>  <SCORE.INTRA.REPUL>
0

>  <SCORE.INTRA.REPUL.0>
0

>  <SCORE.INTRA.SOLV>
-1.84981

>  <SCORE.INTRA.SOLV.lig_0>
-78.5846

>  <SCORE.INTRA.VDW>
-0.857853

>  <SCORE.INTRA.VDW.0>
-2.81163

>  <SCORE.INTRA.norm>
-0.147714

>  <SCORE.RESTR>
0

>  <SCORE.RESTR.CAVITY>
0

>  <SCORE.RESTR.norm>
0

>  <SCORE.SYSTEM>
0

>  <SCORE.SYSTEM.CONST>
0

>  <SCORE.SYSTEM.DIHEDRAL>
0

>  <SCORE.SYSTEM.SOLV>
0

>  <SCORE.SYSTEM.norm>
0

>  <SCORE.heavy>
26

>  <SCORE.norm>
-0.475116

>  <RMSD>
3.051

$$$$
ligand
 OpenBabel11021811463D
libRbt.so/2013.1/901 2013/11/27
 26 27  0  0  0  0  0  0  0  0999 V2000
  -11.9126  -38.2459    1.7730 C   0  0  0  0  0  0  0  0  0  0  0  0
   -6.4182  -42.2047    3.5532 C   0  0  0  0  0  0  0  0  0  0  0  0
   -5.7635  -45.8826    9.3639 P   0  0  1  0  0  0  0  0  0  0  0  0
   -5.3703  -44.3169   11.5858 P   0  0  2  0  0  0  0  0  0  0  0  0
   -6.8956  -39.2314    4.3803 C   0  0  0  0  0  0  0  0  0  0  0  0
   -8.3820  -39.3491    2.3529 C   0  0  0  0  0  0  0  0  0  0  0  0
   -8.2060  -38.9627    3.6851 C   0  0  0  0  0  0  0  0  0  0  0  0
   -9.2513  -38.3619    4.3919 C   0  0  0  0  0  0  0  0  0  0  0  0
   -9.0844  -38.0152    5.6508 N   0  0  0  0  0  0  0  0  0  0  0  0
  -10.4436  -38.1080    3.7589 N   0  0  0  0  0  0  0  0  0  0  0  0
  -10.6129  -38.5061    2.4476 C   0  0  0  0  0  0  0  0  0  0  0  0
   -9.5905  -39.1089    1.7393 N   0  0  0  0  0  0  0  0  0  0  0  0
   -4.2990  -46.1293    9.1671 O   0  5  0  0  0  0  0  0  0  0  0  0
   -6.2445  -45.3057   12.2489 O   0  0  0  0  0  0  0  0  0  0  0  0
   -7.5027  -41.6585    7.2738 S   0  0  0  0  0  0  0  0  0  0  0  0
   -7.4106  -40.2536    6.5525 C   0  0  0  0  0  0  0  0  0  0  0  0
   -6.5078  -46.9444   10.0932 O   0  0  0  0  0  0  0  0  0  0  0  0
   -5.5839  -42.9498   12.0974 O   0  5  0  0  0  0  0  0  0  0  0  0
   -7.0523  -40.3727    5.2389 N   0  0  0  0  0  0  0  0  0  0  0  0
   -5.7957  -44.4644   10.0658 O   0  0  0  0  0  0  0  0  0  0  0  0
   -3.8942  -44.5093   11.7178 O   0  0  0  0  0  0  0  0  0  0  0  0
   -6.8351  -41.6765    4.8918 C   0  0  1  0  0  0  0  0  0  0  0  0
   -7.0651  -42.4864    5.9754 C   0  0  2  0  0  0  0  0  0  0  0  0
   -6.9831  -43.9852    6.1259 C   0  0  0  0  0  0  0  0  0  0  0  0
   -6.0801  -44.3966    7.2942 C   0  0  0  0  0  0  0  0  0  0  0  0
   -6.2984  -45.6591    7.8972 O   0  0  0  0  0  0  0  0  0  0  0  0
  1 11  1  0  0  0  0
  3 13  1  6  0  0  0
  3 17  2  0  0  0  0
  3 20  1  0  0  0  0
  3 26  1  0  0  0  0
  4 14  1  1  0  0  0
  4 18  1  0  0  0  0
  4 21  2  0  0  0  0
  4 20  1  0  0  0  0
  5 19  1  0  0  0  0
  5  7  1  0  0  0  0
  6  7  2  0  0  0  0
  6 12  1  0  0  0  0
  7  8  1  0  0  0  0
  8  9  1  0  0  0  0
  8 10  2  0  0  0  0
 10 11  1  0  0  0  0
 11 12  2  0  0  0  0
 15 23  1  0  0  0  0
 15 16  1  0  0  0  0
 16 19  1  0  0  0  0
 19 22  1  0  0  0  0
 22  2  1  6  0  0  0
 22 23  1  0  0  0  0
 23 24  1  6  0  0  0
 24 25  1  0  0  0  0
 25 26  1  0  0  0  0
M  CHG  2  13  -1  18  -1
M  END
>  <CHROM.1>
-73.81692270,-91.98795669,-102.33557827,-54.22420450,-54.09879735,155.38759684
-158.65850131,-78.62781954,-7.07536351,-42.37083298,7.11967057,-2.76338654
-1.15708814,1.11396308

>  <Name>
ligand

>  <RI>
0

>  <Rbt.Current_Directory>
/home/itssahil/PROJECTS/Mol_Feturizer/New_Systems/rnas/3D2G

>  <Rbt.Executable>
rbdock ($Id: //depot/dev/client3/rdock/2013.1/src/exe/rbdock.cxx#4 $)

>  <Rbt.Library>
libRbt.so (2013.1, Build901 2013/11/27)

>  <Rbt.Parameter_File>
/export/apps/rDock/src/rDock_2013.1_src/data/scripts/dock_solv.prm

>  <Rbt.Receptor>
prm/pocket_docking_4.prm

>  <SCORE>
-12.6043

>  <SCORE.INTER>
-12.8696

>  <SCORE.INTER.CONST>
1

>  <SCORE.INTER.POLAR>
0

>  <SCORE.INTER.ROT>
8

>  <SCORE.INTER.SOLV>
16.898

>  <SCORE.INTER.VDW>
-23.1457

>  <SCORE.INTER.norm>
-0.494983

>  <SCORE.INTRA>
0.265234

>  <SCORE.INTRA.DIHEDRAL>
1.1627

>  <SCORE.INTRA.DIHEDRAL.0>
9.09364

>  <SCORE.INTRA.POLAR>
0

>  <SCORE.INTRA.POLAR.0>
0

>  <SCORE.INTRA.REPUL>
0

>  <SCORE.INTRA.REPUL.0>
0

>  <SCORE.INTRA.SOLV>
-0.895883

>  <SCORE.INTRA.SOLV.lig_0>
-78.5846

>  <SCORE.INTRA.VDW>
0.131824

>  <SCORE.INTRA.VDW.0>
-2.81163

>  <SCORE.INTRA.norm>
0.0102013

>  <SCORE.RESTR>
0

>  <SCORE.RESTR.CAVITY>
0

>  <SCORE.RESTR.norm>
0

>  <SCORE.SYSTEM>
0

>  <SCORE.SYSTEM.CONST>
0

>  <SCORE.SYSTEM.DIHEDRAL>
0

>  <SCORE.SYSTEM.SOLV>
0

>  <SCORE.SYSTEM.norm>
0

>  <SCORE.heavy>
26

>  <SCORE.norm>
-0.484781

>  <RMSD>
3.059

$$$$
ligand
 OpenBabel11021811463D
libRbt.so/2013.1/901 2013/11/27
 26 27  0  0  0  0  0  0  0  0999 V2000
  -11.6011  -38.3225    1.8409 C   0  0  0  0  0  0  0  0  0  0  0  0
   -4.8854  -41.1101    6.4535 C   0  0  0  0  0  0  0  0  0  0  0  0
   -7.3094  -45.3453    8.5574 P   0  0  1  0  0  0  0  0  0  0  0  0
   -5.1745  -47.0713    8.4806 P   0  0  2  0  0  0  0  0  0  0  0  0
   -6.8077  -39.2314    4.8636 C   0  0  0  0  0  0  0  0  0  0  0  0
   -9.0924  -38.2054    4.6179 C   0  0  0  0  0  0  0  0  0  0  0  0
   -8.0752  -39.0002    4.0809 C   0  0  0  0  0  0  0  0  0  0  0  0
   -8.2080  -39.5530    2.8042 C   0  0  0  0  0  0  0  0  0  0  0  0
   -7.2397  -40.2872    2.2979 N   0  0  0  0  0  0  0  0  0  0  0  0
   -9.3652  -39.3513    2.0921 N   0  0  0  0  0  0  0  0  0  0  0  0
  -10.3581  -38.5532    2.6245 C   0  0  0  0  0  0  0  0  0  0  0  0
  -10.2365  -37.9933    3.8824 N   0  0  0  0  0  0  0  0  0  0  0  0
   -7.9015  -46.2297    7.5031 O   0  5  0  0  0  0  0  0  0  0  0  0
   -4.5905  -47.9577    9.5078 O   0  0  0  0  0  0  0  0  0  0  0  0
   -8.4469  -40.6574    8.0118 S   0  0  0  0  0  0  0  0  0  0  0  0
   -8.3513  -39.7984    6.6869 C   0  0  0  0  0  0  0  0  0  0  0  0
   -8.2818  -44.6673    9.4564 O   0  0  0  0  0  0  0  0  0  0  0  0
   -4.1761  -46.1518    7.9026 O   0  5  0  0  0  0  0  0  0  0  0  0
   -7.1338  -39.9251    6.0788 N   0  0  0  0  0  0  0  0  0  0  0  0
   -6.2945  -46.3058    9.3008 O   0  0  0  0  0  0  0  0  0  0  0  0
   -5.7829  -47.7209    7.2802 O   0  0  0  0  0  0  0  0  0  0  0  0
   -6.2978  -40.7399    6.7893 C   0  0  1  0  0  0  0  0  0  0  0  0
   -6.9477  -41.2083    7.9034 C   0  0  2  0  0  0  0  0  0  0  0  0
   -6.4889  -42.1384    8.9989 C   0  0  0  0  0  0  0  0  0  0  0  0
   -5.7120  -43.3384    8.4456 C   0  0  0  0  0  0  0  0  0  0  0  0
   -6.4290  -44.3295    7.7326 O   0  0  0  0  0  0  0  0  0  0  0  0
  1 11  1  0  0  0  0
  3 13  1  6  0  0  0
  3 17  2  0  0  0  0
  3 20  1  0  0  0  0
  3 26  1  0  0  0  0
  4 14  1  1  0  0  0
  4 18  1  0  0  0  0
  4 21  2  0  0  0  0
  4 20  1  0  0  0  0
  5 19  1  0  0  0  0
  5  7  1  0  0  0  0
  6  7  2  0  0  0  0
  6 12  1  0  0  0  0
  7  8  1  0  0  0  0
  8  9  1  0  0  0  0
  8 10  2  0  0  0  0
 10 11  1  0  0  0  0
 11 12  2  0  0  0  0
 15 23  1  0  0  0  0
 15 16  1  0  0  0  0
 16 19  1  0  0  0  0
 19 22  1  0  0  0  0
 22  2  1  6  0  0  0
 22 23  1  0  0  0  0
 23 24  1  6  0  0  0
 24 25  1  0  0  0  0
 25 26  1  0  0  0  0
M  CHG  2  13  -1  18  -1
M  END
>  <CHROM.1>
54.95354323,-28.39582206,62.67088451,-173.09709103,136.43605882,-71.03612645
-75.86558650,-179.73436692,-7.24846868,-42.59986956,6.66718461,3.07662045
-1.21918059,0.91790362

>  <Name>
ligand

>  <RI>
0

>  <Rbt.Current_Directory>
/home/itssahil/PROJECTS/Mol_Feturizer/New_Systems/rnas/3D2G

>  <Rbt.Executable>
rbdock ($Id: //depot/dev/client3/rdock/2013.1/src/exe/rbdock.cxx#4 $)

>  <Rbt.Library>
libRbt.so (2013.1, Build901 2013/11/27)

>  <Rbt.Parameter_File>
/export/apps/rDock/src/rDock_2013.1_src/data/scripts/dock_solv.prm

>  <Rbt.Receptor>
prm/pocket_docking_5.prm

>  <SCORE>
-14.9759

>  <SCORE.INTER>
-15.3564

>  <SCORE.INTER.CONST>
1

>  <SCORE.INTER.POLAR>
0

>  <SCORE.INTER.ROT>
8

>  <SCORE.INTER.SOLV>
18.8197

>  <SCORE.INTER.VDW>
-25.4442

>  <SCORE.INTER.norm>
-0.59063

>  <SCORE.INTRA>
0.380489

>  <SCORE.INTRA.DIHEDRAL>
-2.58867

>  <SCORE.INTRA.DIHEDRAL.0>
9.09364

>  <SCORE.INTRA.POLAR>
0

>  <SCORE.INTRA.POLAR.0>
0

>  <SCORE.INTRA.REPUL>
0

>  <SCORE.INTRA.REPUL.0>
0

>  <SCORE.INTRA.SOLV>
0.637217

>  <SCORE.INTRA.SOLV.lig_0>
-78.5846

>  <SCORE.INTRA.VDW>
1.35622

>  <SCORE.INTRA.VDW.0>
-2.81163

>  <SCORE.INTRA.norm>
0.0146342

>  <SCORE.RESTR>
0

>  <SCORE.RESTR.CAVITY>
0

>  <SCORE.RESTR.norm>
0

>  <SCORE.SYSTEM>
0

>  <SCORE.SYSTEM.CONST>
0

>  <SCORE.SYSTEM.DIHEDRAL>
0

>  <SCORE.SYSTEM.SOLV>
0

>  <SCORE.SYSTEM.norm>
0

>  <SCORE.heavy>
26

>  <SCORE.norm>
-0.575996

>  <RMSD>
3.120

$$$$
ligand
 OpenBabel11021811463D
libRbt.so/2013.1/901 2013/11/27
 26 27  0  0  0  0  0  0  0  0999 V2000
   -8.4692  -39.3434   -0.2143 C   0  0  0  0  0  0  0  0  0  0  0  0
   -7.5269  -38.8398    8.1994 C   0  0  0  0  0  0  0  0  0  0  0  0
   -3.4238  -44.2392    8.8090 P   0  0  1  0  0  0  0  0  0  0  0  0
   -1.0193  -42.9626    8.4460 P   0  0  2  0  0  0  0  0  0  0  0  0
   -9.0545  -38.8759    5.4759 C   0  0  0  0  0  0  0  0  0  0  0  0
  -10.0401  -38.9495    3.1615 C   0  0  0  0  0  0  0  0  0  0  0  0
   -8.9094  -39.0122    3.9816 C   0  0  0  0  0  0  0  0  0  0  0  0
   -7.6372  -39.1624    3.4229 C   0  0  0  0  0  0  0  0  0  0  0  0
   -6.5751  -39.2046    4.1996 N   0  0  0  0  0  0  0  0  0  0  0  0
   -7.5024  -39.2955    2.0625 N   0  0  0  0  0  0  0  0  0  0  0  0
   -8.6231  -39.2179    1.2597 C   0  0  0  0  0  0  0  0  0  0  0  0
   -9.8864  -39.0610    1.7981 N   0  0  0  0  0  0  0  0  0  0  0  0
   -4.0662  -45.1229    7.7840 O   0  5  0  0  0  0  0  0  0  0  0  0
   -0.3676  -44.2881    8.4469 O   0  0  0  0  0  0  0  0  0  0  0  0
   -7.7607  -42.3383    6.4606 S   0  0  0  0  0  0  0  0  0  0  0  0
   -8.5026  -41.2668    5.5640 C   0  0  0  0  0  0  0  0  0  0  0  0
   -2.7347  -44.9378    9.9273 O   0  0  0  0  0  0  0  0  0  0  0  0
   -1.0230  -42.3405    9.7836 O   0  5  0  0  0  0  0  0  0  0  0  0
   -8.4436  -40.0135    6.1061 N   0  0  0  0  0  0  0  0  0  0  0  0
   -2.4806  -43.3115    7.9401 O   0  0  0  0  0  0  0  0  0  0  0  0
   -0.4222  -41.9057    7.5743 O   0  0  0  0  0  0  0  0  0  0  0  0
   -7.7833  -40.0122    7.3025 C   0  0  1  0  0  0  0  0  0  0  0  0
   -7.3543  -41.2828    7.5936 C   0  0  2  0  0  0  0  0  0  0  0  0
   -6.5767  -41.8197    8.7695 C   0  0  0  0  0  0  0  0  0  0  0  0
   -5.3146  -42.5700    8.3291 C   0  0  0  0  0  0  0  0  0  0  0  0
   -4.6102  -43.3231    9.2994 O   0  0  0  0  0  0  0  0  0  0  0  0
  1 11  1  0  0  0  0
  3 13  1  6  0  0  0
  3 17  2  0  0  0  0
  3 20  1  0  0  0  0
  3 26  1  0  0  0  0
  4 14  1  6  0  0  0
  4 18  1  0  0  0  0
  4 21  2  0  0  0  0
  4 20  1  0  0  0  0
  5 19  1  0  0  0  0
  5  7  1  0  0  0  0
  6  7  2  0  0  0  0
  6 12  1  0  0  0  0
  7  8  1  0  0  0  0
  8  9  1  0  0  0  0
  8 10  2  0  0  0  0
 10 11  1  0  0  0  0
 11 12  2  0  0  0  0
 15 23  1  0  0  0  0
 15 16  1  0  0  0  0
 16 19  1  0  0  0  0
 19 22  1  0  0  0  0
 22  2  1  6  0  0  0
 22 23  1  0  0  0  0
 23 24  1  6  0  0  0
 24 25  1  0  0  0  0
 25 26  1  0  0  0  0
M  CHG  2  13  -1  18  -1
M  END
>  <CHROM.1>
-138.43863417,-36.45339892,125.44410740,64.12929354,54.20603121,-169.31257073
172.32085478,-56.16628637,-5.57730862,-41.60916751,6.54274065,-2.36214405
-0.26355942,1.96032128

>  <Name>
ligand

>  <RI>
0

>  <Rbt.Current_Directory>
/home/itssahil/PROJECTS/Mol_Feturizer/New_Systems/rnas/3D2G

>  <Rbt.Executable>
rbdock ($Id: //depot/dev/client3/rdock/2013.1/src/exe/rbdock.cxx#4 $)

>  <Rbt.Library>
libRbt.so (2013.1, Build901 2013/11/27)

>  <Rbt.Parameter_File>
/export/apps/rDock/src/rDock_2013.1_src/data/scripts/dock_solv.prm

>  <Rbt.Receptor>
prm/pocket_docking_3.prm

>  <SCORE>
-11.7665

>  <SCORE.INTER>
-11.9024

>  <SCORE.INTER.CONST>
1

>  <SCORE.INTER.POLAR>
0

>  <SCORE.INTER.ROT>
8

>  <SCORE.INTER.SOLV>
11.7672

>  <SCORE.INTER.VDW>
-20.7907

>  <SCORE.INTER.norm>
-0.457785

>  <SCORE.INTRA>
0.13593

>  <SCORE.INTRA.DIHEDRAL>
-1.07641

>  <SCORE.INTRA.DIHEDRAL.0>
9.09364

>  <SCORE.INTRA.POLAR>
0

>  <SCORE.INTRA.POLAR.0>
0

>  <SCORE.INTRA.REPUL>
0

>  <SCORE.INTRA.REPUL.0>
0

>  <SCORE.INTRA.SOLV>
0.141083

>  <SCORE.INTRA.SOLV.lig_0>
-78.5846

>  <SCORE.INTRA.VDW>
0.603592

>  <SCORE.INTRA.VDW.0>
-2.81163

>  <SCORE.INTRA.norm>
0.00522809

>  <SCORE.RESTR>
0

>  <SCORE.RESTR.CAVITY>
0

>  <SCORE.RESTR.norm>
0

>  <SCORE.SYSTEM>
0

>  <SCORE.SYSTEM.CONST>
0

>  <SCORE.SYSTEM.DIHEDRAL>
0

>  <SCORE.SYSTEM.SOLV>
0

>  <SCORE.SYSTEM.norm>
0

>  <SCORE.heavy>
26

>  <SCORE.norm>
-0.452557

>  <RMSD>
3.122

$$$$
ligand
 OpenBabel11021811463D
libRbt.so/2013.1/901 2013/11/27
 26 27  0  0  0  0  0  0  0  0999 V2000
   -9.1941  -39.1313    0.8512 C   0  0  0  0  0  0  0  0  0  0  0  0
   -7.8182  -41.8376    7.9840 C   0  0  0  0  0  0  0  0  0  0  0  0
   -3.6760  -42.7396    7.7491 P   0  0  1  0  0  0  0  0  0  0  0  0
   -0.9358  -42.7211    7.9340 P   0  0  2  0  0  0  0  0  0  0  0  0
   -9.9893  -40.2174    6.4304 C   0  0  0  0  0  0  0  0  0  0  0  0
  -10.7034  -39.1268    4.2777 C   0  0  0  0  0  0  0  0  0  0  0  0
   -9.7942  -39.9397    4.9616 C   0  0  0  0  0  0  0  0  0  0  0  0
   -8.6812  -40.4676    4.3017 C   0  0  0  0  0  0  0  0  0  0  0  0
   -7.8202  -41.2191    4.9552 N   0  0  0  0  0  0  0  0  0  0  0  0
   -8.5051  -40.2235    2.9614 N   0  0  0  0  0  0  0  0  0  0  0  0
   -9.4002  -39.4079    2.2979 C   0  0  0  0  0  0  0  0  0  0  0  0
  -10.5007  -38.8722    2.9402 N   0  0  0  0  0  0  0  0  0  0  0  0
   -3.5976  -42.2108    6.3496 O   0  5  0  0  0  0  0  0  0  0  0  0
   -0.0103  -41.9752    8.8108 O   0  0  0  0  0  0  0  0  0  0  0  0
   -7.3837  -37.9490    8.0726 S   0  0  0  0  0  0  0  0  0  0  0  0
   -8.6655  -38.3047    7.2165 C   0  0  0  0  0  0  0  0  0  0  0  0
   -3.8604  -44.2104    7.8773 O   0  0  0  0  0  0  0  0  0  0  0  0
   -0.6912  -42.4512    6.5044 O   0  5  0  0  0  0  0  0  0  0  0  0
   -8.8874  -39.6522    7.1589 N   0  0  0  0  0  0  0  0  0  0  0  0
   -2.3496  -42.1885    8.4141 O   0  0  0  0  0  0  0  0  0  0  0  0
   -0.9043  -44.2130    8.0151 O   0  0  0  0  0  0  0  0  0  0  0  0
   -7.9252  -40.3509    7.8322 C   0  0  1  0  0  0  0  0  0  0  0  0
   -7.0251  -39.4769    8.3883 C   0  0  2  0  0  0  0  0  0  0  0  0
   -5.7983  -39.7227    9.2311 C   0  0  0  0  0  0  0  0  0  0  0  0
   -4.7265  -40.5103    8.4692 C   0  0  0  0  0  0  0  0  0  0  0  0
   -4.8614  -41.9174    8.3864 O   0  0  0  0  0  0  0  0  0  0  0  0
  1 11  1  0  0  0  0
  3 13  1  6  0  0  0
  3 17  2  0  0  0  0
  3 20  1  0  0  0  0
  3 26  1  0  0  0  0
  4 14  1  1  0  0  0
  4 18  1  0  0  0  0
  4 21  2  0  0  0  0
  4 20  1  0  0  0  0
  5 19  1  0  0  0  0
  5  7  1  0  0  0  0
  6  7  2  0  0  0  0
  6 12  1  0  0  0  0
  7  8  1  0  0  0  0
  8  9  1  0  0  0  0
  8 10  2  0  0  0  0
 10 11  1  0  0  0  0
 11 12  2  0  0  0  0
 15 23  1  0  0  0  0
 15 16  1  0  0  0  0
 16 19  1  0  0  0  0
 19 22  1  0  0  0  0
 22  2  1  1  0  0  0
 22 23  1  0  0  0  0
 23 24  1  1  0  0  0
 24 25  1  0  0  0  0
 25 26  1  0  0  0  0
M  CHG  2  13  -1  18  -1
M  END
>  <CHROM.1>
-67.32930557,65.36766707,-115.80594640,-179.20340059,-117.37744646,-81.16183803
-173.04946945,-61.42581981,-5.81153820,-40.94518182,6.71754203,-2.85905829
-0.49953331,1.30640011

>  <Name>
ligand

>  <RI>
0

>  <Rbt.Current_Directory>
/home/itssahil/PROJECTS/Mol_Feturizer/New_Systems/rnas/3D2G

>  <Rbt.Executable>
rbdock ($Id: //depot/dev/client3/rdock/2013.1/src/exe/rbdock.cxx#4 $)

>  <Rbt.Library>
libRbt.so (2013.1, Build901 2013/11/27)

>  <Rbt.Parameter_File>
/export/apps/rDock/src/rDock_2013.1_src/data/scripts/dock_solv.prm

>  <Rbt.Receptor>
prm/pocket_docking_4.prm

>  <SCORE>
-14.2549

>  <SCORE.INTER>
-13.9925

>  <SCORE.INTER.CONST>
1

>  <SCORE.INTER.POLAR>
0

>  <SCORE.INTER.ROT>
8

>  <SCORE.INTER.SOLV>
11.7582

>  <SCORE.INTER.VDW>
-22.1811

>  <SCORE.INTER.norm>
-0.538174

>  <SCORE.INTRA>
-0.262359

>  <SCORE.INTRA.DIHEDRAL>
-2.61523

>  <SCORE.INTRA.DIHEDRAL.0>
9.09364

>  <SCORE.INTRA.POLAR>
0

>  <SCORE.INTRA.POLAR.0>
0

>  <SCORE.INTRA.REPUL>
0

>  <SCORE.INTRA.REPUL.0>
0

>  <SCORE.INTRA.SOLV>
3.54585

>  <SCORE.INTRA.SOLV.lig_0>
-78.5846

>  <SCORE.INTRA.VDW>
-0.727672

>  <SCORE.INTRA.VDW.0>
-2.81163

>  <SCORE.INTRA.norm>
-0.0100907

>  <SCORE.RESTR>
0

>  <SCORE.RESTR.CAVITY>
0

>  <SCORE.RESTR.norm>
0

>  <SCORE.SYSTEM>
0

>  <SCORE.SYSTEM.CONST>
0

>  <SCORE.SYSTEM.DIHEDRAL>
0

>  <SCORE.SYSTEM.SOLV>
0

>  <SCORE.SYSTEM.norm>
0

>  <SCORE.heavy>
26

>  <SCORE.norm>
-0.548265

>  <RMSD>
3.134

$$$$
ligand
 OpenBabel11021811463D
libRbt.so/2013.1/901 2013/11/27
 26 27  0  0  0  0  0  0  0  0999 V2000
  -13.0630  -37.8240    2.1227 C   0  0  0  0  0  0  0  0  0  0  0  0
   -4.9926  -41.0859    3.1785 C   0  0  0  0  0  0  0  0  0  0  0  0
   -6.7135  -42.2626    8.8117 P   0  0  1  0  0  0  0  0  0  0  0  0
   -4.8143  -41.4876   10.6380 P   0  0  2  0  0  0  0  0  0  0  0  0
   -7.5985  -39.5590    2.3847 C   0  0  0  0  0  0  0  0  0  0  0  0
   -9.7217  -39.1633    1.0928 C   0  0  0  0  0  0  0  0  0  0  0  0
   -9.0296  -39.0917    2.3056 C   0  0  0  0  0  0  0  0  0  0  0  0
   -9.6673  -38.6246    3.4581 C   0  0  0  0  0  0  0  0  0  0  0  0
   -9.0149  -38.5747    4.6004 N   0  0  0  0  0  0  0  0  0  0  0  0
  -10.9685  -38.1900    3.3875 N   0  0  0  0  0  0  0  0  0  0  0  0
  -11.6482  -38.2780    2.1889 C   0  0  0  0  0  0  0  0  0  0  0  0
  -11.0325  -38.7459    1.0433 N   0  0  0  0  0  0  0  0  0  0  0  0
   -7.4832  -43.0718    9.8103 O   0  5  0  0  0  0  0  0  0  0  0  0
   -5.0916  -40.1050   10.1982 O   0  0  0  0  0  0  0  0  0  0  0  0
   -8.2889  -42.4620    4.7780 S   0  0  0  0  0  0  0  0  0  0  0  0
   -8.6396  -41.2197    3.8636 C   0  0  0  0  0  0  0  0  0  0  0  0
   -7.2142  -40.8825    8.5711 O   0  0  0  0  0  0  0  0  0  0  0  0
   -3.3984  -41.6849   11.0022 O   0  5  0  0  0  0  0  0  0  0  0  0
   -7.5311  -40.6987    3.2571 N   0  0  0  0  0  0  0  0  0  0  0  0
   -5.2312  -42.3316    9.3625 O   0  0  0  0  0  0  0  0  0  0  0  0
   -5.5531  -41.9867   11.8372 O   0  0  0  0  0  0  0  0  0  0  0  0
   -6.3961  -41.3673    3.6208 C   0  0  1  0  0  0  0  0  0  0  0  0
   -6.7176  -42.3872    4.4808 C   0  0  2  0  0  0  0  0  0  0  0  0
   -5.8520  -43.4204    5.1583 C   0  0  0  0  0  0  0  0  0  0  0  0
   -5.6286  -43.0998    6.6405 C   0  0  0  0  0  0  0  0  0  0  0  0
   -6.7418  -43.1579    7.5136 O   0  0  0  0  0  0  0  0  0  0  0  0
  1 11  1  0  0  0  0
  3 13  1  1  0  0  0
  3 17  2  0  0  0  0
  3 20  1  0  0  0  0
  3 26  1  0  0  0  0
  4 14  1  6  0  0  0
  4 18  1  0  0  0  0
  4 21  2  0  0  0  0
  4 20  1  0  0  0  0
  5 19  1  0  0  0  0
  5  7  1  0  0  0  0
  6  7  2  0  0  0  0
  6 12  1  0  0  0  0
  7  8  1  0  0  0  0
  8  9  1  0  0  0  0
  8 10  2  0  0  0  0
 10 11  1  0  0  0  0
 11 12  2  0  0  0  0
 15 23  1  0  0  0  0
 15 16  1  0  0  0  0
 16 19  1  0  0  0  0
 19 22  1  0  0  0  0
 22  2  1  6  0  0  0
 22 23  1  0  0  0  0
 23 24  1  6  0  0  0
 24 25  1  0  0  0  0
 25 26  1  0  0  0  0
M  CHG  2  13  -1  18  -1
M  END
>  <CHROM.1>
-74.34978154,0.71864900,-115.13230445,-59.76177920,-76.43327455,66.67716507
-153.32059313,-147.96468081,-7.40145332,-41.01368629,6.10015007,2.28581141
0.69949547,-1.72148142

>  <Name>
ligand

>  <RI>
0

>  <Rbt.Current_Directory>
/home/itssahil/PROJECTS/Mol_Feturizer/New_Systems/rnas/3D2G

>  <Rbt.Executable>
rbdock ($Id: //depot/dev/client3/rdock/2013.1/src/exe/rbdock.cxx#4 $)

>  <Rbt.Library>
libRbt.so (2013.1, Build901 2013/11/27)

>  <Rbt.Parameter_File>
/export/apps/rDock/src/rDock_2013.1_src/data/scripts/dock_solv.prm

>  <Rbt.Receptor>
prm/pocket_docking_4.prm

>  <SCORE>
-18.2756

>  <SCORE.INTER>
-18.7588

>  <SCORE.INTER.CONST>
1

>  <SCORE.INTER.POLAR>
0

>  <SCORE.INTER.ROT>
8

>  <SCORE.INTER.SOLV>
13.813

>  <SCORE.INTER.VDW>
-26.0435

>  <SCORE.INTER.norm>
-0.721493

>  <SCORE.INTRA>
0.483178

>  <SCORE.INTRA.DIHEDRAL>
0.244951

>  <SCORE.INTRA.DIHEDRAL.0>
9.09364

>  <SCORE.INTRA.POLAR>
0

>  <SCORE.INTRA.POLAR.0>
0

>  <SCORE.INTRA.REPUL>
0

>  <SCORE.INTRA.REPUL.0>
0

>  <SCORE.INTRA.SOLV>
-0.45962

>  <SCORE.INTRA.SOLV.lig_0>
-78.5846

>  <SCORE.INTRA.VDW>
0.590512

>  <SCORE.INTRA.VDW.0>
-2.81163

>  <SCORE.INTRA.norm>
0.0185838

>  <SCORE.RESTR>
0

>  <SCORE.RESTR.CAVITY>
0

>  <SCORE.RESTR.norm>
0

>  <SCORE.SYSTEM>
0

>  <SCORE.SYSTEM.CONST>
0

>  <SCORE.SYSTEM.DIHEDRAL>
0

>  <SCORE.SYSTEM.SOLV>
0

>  <SCORE.SYSTEM.norm>
0

>  <SCORE.heavy>
26

>  <SCORE.norm>
-0.702909

>  <RMSD>
3.150

$$$$
ligand
 OpenBabel11021811463D
libRbt.so/2013.1/901 2013/11/27
 26 27  0  0  0  0  0  0  0  0999 V2000
   -9.9964  -38.7995    0.7556 C   0  0  0  0  0  0  0  0  0  0  0  0
   -7.5485  -42.0251    7.3208 C   0  0  0  0  0  0  0  0  0  0  0  0
   -4.8519  -42.9182    9.8802 P   0  0  1  0  0  0  0  0  0  0  0  0
   -6.3842  -44.1982   11.7660 P   0  0  2  0  0  0  0  0  0  0  0  0
   -9.9150  -40.2582    6.3059 C   0  0  0  0  0  0  0  0  0  0  0  0
  -10.9685  -39.0558    4.3623 C   0  0  0  0  0  0  0  0  0  0  0  0
   -9.9503  -39.8827    4.8463 C   0  0  0  0  0  0  0  0  0  0  0  0
   -8.9399  -40.3348    3.9931 C   0  0  0  0  0  0  0  0  0  0  0  0
   -7.9752  -41.1001    4.4586 N   0  0  0  0  0  0  0  0  0  0  0  0
   -8.9739  -40.0016    2.6610 N   0  0  0  0  0  0  0  0  0  0  0  0
   -9.9752  -39.1727    2.1952 C   0  0  0  0  0  0  0  0  0  0  0  0
  -10.9760  -38.7115    3.0295 N   0  0  0  0  0  0  0  0  0  0  0  0
   -3.7340  -42.7346   10.8606 O   0  5  0  0  0  0  0  0  0  0  0  0
   -7.5583  -43.3749   11.4119 O   0  0  0  0  0  0  0  0  0  0  0  0
   -7.0182  -38.1628    7.6659 S   0  0  0  0  0  0  0  0  0  0  0  0
   -8.4344  -38.4322    7.0145 C   0  0  0  0  0  0  0  0  0  0  0  0
   -4.4558  -42.9687    8.4470 O   0  0  0  0  0  0  0  0  0  0  0  0
   -5.6023  -43.6109   12.8706 O   0  5  0  0  0  0  0  0  0  0  0  0
   -8.6930  -39.7676    6.8808 N   0  0  0  0  0  0  0  0  0  0  0  0
   -5.5747  -44.2254   10.4033 O   0  0  0  0  0  0  0  0  0  0  0  0
   -6.6412  -45.5957   12.2286 O   0  0  0  0  0  0  0  0  0  0  0  0
   -7.6463  -40.5300    7.3173 C   0  0  1  0  0  0  0  0  0  0  0  0
   -6.6456  -39.7152    7.7839 C   0  0  2  0  0  0  0  0  0  0  0  0
   -5.2993  -40.0434    8.3802 C   0  0  0  0  0  0  0  0  0  0  0  0
   -5.4029  -40.4106    9.8648 C   0  0  0  0  0  0  0  0  0  0  0  0
   -5.8243  -41.7193   10.2034 O   0  0  0  0  0  0  0  0  0  0  0  0
  1 11  1  0  0  0  0
  3 13  1  1  0  0  0
  3 17  2  0  0  0  0
  3 20  1  0  0  0  0
  3 26  1  0  0  0  0
  4 14  1  6  0  0  0
  4 18  1  0  0  0  0
  4 21  2  0  0  0  0
  4 20  1  0  0  0  0
  5 19  1  0  0  0  0
  5  7  1  0  0  0  0
  6  7  2  0  0  0  0
  6 12  1  0  0  0  0
  7  8  1  0  0  0  0
  8  9  1  0  0  0  0
  8 10  2  0  0  0  0
 10 11  1  0  0  0  0
 11 12  2  0  0  0  0
 15 23  1  0  0  0  0
 15 16  1  0  0  0  0
 16 19  1  0  0  0  0
 19 22  1  0  0  0  0
 22  2  1  1  0  0  0
 22 23  1  0  0  0  0
 23 24  1  1  0  0  0
 24 25  1  0  0  0  0
 25 26  1  0  0  0  0
M  CHG  2  13  -1  18  -1
M  END
>  <CHROM.1>
69.32947937,66.73511200,-118.78738821,70.51191066,98.32924546,79.61518610
68.85976322,70.37684637,-7.22172623,-41.26991179,7.87529008,2.20250036,-0.78801604
-0.57554078

>  <Name>
ligand

>  <RI>
0

>  <Rbt.Current_Directory>
/home/itssahil/PROJECTS/Mol_Feturizer/New_Systems/rnas/3D2G

>  <Rbt.Executable>
rbdock ($Id: //depot/dev/client3/rdock/2013.1/src/exe/rbdock.cxx#4 $)

>  <Rbt.Library>
libRbt.so (2013.1, Build901 2013/11/27)

>  <Rbt.Parameter_File>
/export/apps/rDock/src/rDock_2013.1_src/data/scripts/dock_solv.prm

>  <Rbt.Receptor>
prm/blind_docking_100.prm

>  <SCORE>
-14.6247

>  <SCORE.INTER>
-13.8217

>  <SCORE.INTER.CONST>
1

>  <SCORE.INTER.POLAR>
0

>  <SCORE.INTER.ROT>
8

>  <SCORE.INTER.SOLV>
17.6057

>  <SCORE.INTER.VDW>
-24.0164

>  <SCORE.INTER.norm>
-0.531604

>  <SCORE.INTRA>
-0.802948

>  <SCORE.INTRA.DIHEDRAL>
-2.00059

>  <SCORE.INTRA.DIHEDRAL.0>
9.09364

>  <SCORE.INTRA.POLAR>
0

>  <SCORE.INTRA.POLAR.0>
0

>  <SCORE.INTRA.REPUL>
0

>  <SCORE.INTRA.REPUL.0>
0

>  <SCORE.INTRA.SOLV>
3.31646

>  <SCORE.INTRA.SOLV.lig_0>
-78.5846

>  <SCORE.INTRA.VDW>
-1.46088

>  <SCORE.INTRA.VDW.0>
-2.81163

>  <SCORE.INTRA.norm>
-0.0308826

>  <SCORE.RESTR>
0

>  <SCORE.RESTR.CAVITY>
0

>  <SCORE.RESTR.norm>
0

>  <SCORE.SYSTEM>
0

>  <SCORE.SYSTEM.CONST>
0

>  <SCORE.SYSTEM.DIHEDRAL>
0

>  <SCORE.SYSTEM.SOLV>
0

>  <SCORE.SYSTEM.norm>
0

>  <SCORE.heavy>
26

>  <SCORE.norm>
-0.562487

>  <RMSD>
3.179

$$$$
ligand
 OpenBabel11021811463D
libRbt.so/2013.1/901 2013/11/27
 26 27  0  0  0  0  0  0  0  0999 V2000
  -13.4925  -37.7147    2.0314 C   0  0  0  0  0  0  0  0  0  0  0  0
   -6.4949  -41.8400    1.8417 C   0  0  0  0  0  0  0  0  0  0  0  0
   -6.1768  -44.2582    7.3343 P   0  0  1  0  0  0  0  0  0  0  0  0
   -6.8530  -41.8182    8.3981 P   0  0  2  0  0  0  0  0  0  0  0  0
   -7.9986  -39.2382    2.6914 C   0  0  0  0  0  0  0  0  0  0  0  0
  -10.1840  -38.4219    3.6353 C   0  0  0  0  0  0  0  0  0  0  0  0
   -9.4461  -38.8502    2.5276 C   0  0  0  0  0  0  0  0  0  0  0  0
  -10.0302  -38.8853    1.2585 C   0  0  0  0  0  0  0  0  0  0  0  0
   -9.3253  -39.2742    0.2169 N   0  0  0  0  0  0  0  0  0  0  0  0
  -11.3512  -38.5405    1.1073 N   0  0  0  0  0  0  0  0  0  0  0  0
  -12.0678  -38.1051    2.2043 C   0  0  0  0  0  0  0  0  0  0  0  0
  -11.5002  -38.0573    3.4637 N   0  0  0  0  0  0  0  0  0  0  0  0
   -5.1961  -44.2939    8.4663 O   0  5  0  0  0  0  0  0  0  0  0  0
   -8.1531  -41.1235    8.4930 O   0  0  0  0  0  0  0  0  0  0  0  0
   -8.2766  -42.0007    5.3227 S   0  0  0  0  0  0  0  0  0  0  0  0
   -8.5114  -40.5702    4.6894 C   0  0  0  0  0  0  0  0  0  0  0  0
   -6.7138  -45.5759    6.8997 O   0  0  0  0  0  0  0  0  0  0  0  0
   -5.9135  -41.1253    7.4961 O   0  5  0  0  0  0  0  0  0  0  0  0
   -7.9283  -40.4509    3.4589 N   0  0  0  0  0  0  0  0  0  0  0  0
   -7.2772  -43.2427    7.8469 O   0  0  0  0  0  0  0  0  0  0  0  0
   -6.0677  -41.9783    9.6594 O   0  0  0  0  0  0  0  0  0  0  0  0
   -7.2640  -41.5908    3.1031 C   0  0  1  0  0  0  0  0  0  0  0  0
   -7.4014  -42.5321    4.0921 C   0  0  2  0  0  0  0  0  0  0  0  0
   -6.8829  -43.9452    4.1923 C   0  0  0  0  0  0  0  0  0  0  0  0
   -5.5084  -44.0061    4.8682 C   0  0  0  0  0  0  0  0  0  0  0  0
   -5.3893  -43.5118    6.1897 O   0  0  0  0  0  0  0  0  0  0  0  0
  1 11  1  0  0  0  0
  3 13  1  1  0  0  0
  3 17  2  0  0  0  0
  3 20  1  0  0  0  0
  3 26  1  0  0  0  0
  4 14  1  1  0  0  0
  4 18  1  0  0  0  0
  4 21  2  0  0  0  0
  4 20  1  0  0  0  0
  5 19  1  0  0  0  0
  5  7  1  0  0  0  0
  6  7  2  0  0  0  0
  6 12  1  0  0  0  0
  7  8  1  0  0  0  0
  8  9  1  0  0  0  0
  8 10  2  0  0  0  0
 10 11  1  0  0  0  0
 11 12  2  0  0  0  0
 15 23  1  0  0  0  0
 15 16  1  0  0  0  0
 16 19  1  0  0  0  0
 19 22  1  0  0  0  0
 22  2  1  6  0  0  0
 22 23  1  0  0  0  0
 23 24  1  6  0  0  0
 24 25  1  0  0  0  0
 25 26  1  0  0  0  0
M  CHG  2  13  -1  18  -1
M  END
>  <CHROM.1>
50.97988818,-54.81190459,68.55362472,168.87191407,-89.77205444,59.59829060
64.78300169,138.46397686,-7.91879772,-41.47293845,5.10612516,2.45176025,0.83061006
-1.60370191

>  <Name>
ligand

>  <RI>
0

>  <Rbt.Current_Directory>
/home/itssahil/PROJECTS/Mol_Feturizer/New_Systems/rnas/3D2G

>  <Rbt.Executable>
rbdock ($Id: //depot/dev/client3/rdock/2013.1/src/exe/rbdock.cxx#4 $)

>  <Rbt.Library>
libRbt.so (2013.1, Build901 2013/11/27)

>  <Rbt.Parameter_File>
/export/apps/rDock/src/rDock_2013.1_src/data/scripts/dock_solv.prm

>  <Rbt.Receptor>
prm/pocket_docking_4.prm

>  <SCORE>
-20.9649

>  <SCORE.INTER>
-19.048

>  <SCORE.INTER.CONST>
1

>  <SCORE.INTER.POLAR>
0

>  <SCORE.INTER.ROT>
8

>  <SCORE.INTER.SOLV>
17.3589

>  <SCORE.INTER.VDW>
-27.4183

>  <SCORE.INTER.norm>
-0.732617

>  <SCORE.INTRA>
-1.91688

>  <SCORE.INTRA.DIHEDRAL>
-1.74615

>  <SCORE.INTRA.DIHEDRAL.0>
9.09364

>  <SCORE.INTRA.POLAR>
0

>  <SCORE.INTRA.POLAR.0>
0

>  <SCORE.INTRA.REPUL>
0

>  <SCORE.INTRA.REPUL.0>
0

>  <SCORE.INTRA.SOLV>
1.91866

>  <SCORE.INTRA.SOLV.lig_0>
-78.5846

>  <SCORE.INTRA.VDW>
-2.00314

>  <SCORE.INTRA.VDW.0>
-2.81163

>  <SCORE.INTRA.norm>
-0.0737262

>  <SCORE.RESTR>
0

>  <SCORE.RESTR.CAVITY>
0

>  <SCORE.RESTR.norm>
0

>  <SCORE.SYSTEM>
0

>  <SCORE.SYSTEM.CONST>
0

>  <SCORE.SYSTEM.DIHEDRAL>
0

>  <SCORE.SYSTEM.SOLV>
0

>  <SCORE.SYSTEM.norm>
0

>  <SCORE.heavy>
26

>  <SCORE.norm>
-0.806343

>  <RMSD>
3.184

$$$$
ligand
 OpenBabel11021811463D
libRbt.so/2013.1/901 2013/11/27
 26 27  0  0  0  0  0  0  0  0999 V2000
   -6.8953  -40.2243   -0.2146 C   0  0  0  0  0  0  0  0  0  0  0  0
   -7.8148  -37.2052    5.6557 C   0  0  0  0  0  0  0  0  0  0  0  0
   -4.4197  -41.3704    9.4739 P   0  0  1  0  0  0  0  0  0  0  0  0
   -4.6192  -43.8405   10.6579 P   0  0  2  0  0  0  0  0  0  0  0  0
  -10.2174  -38.4957    4.1345 C   0  0  0  0  0  0  0  0  0  0  0  0
   -8.0050  -39.2921    3.2376 C   0  0  0  0  0  0  0  0  0  0  0  0
   -9.3353  -38.9371    2.9944 C   0  0  0  0  0  0  0  0  0  0  0  0
   -9.8669  -39.0246    1.7049 C   0  0  0  0  0  0  0  0  0  0  0  0
  -11.1248  -38.7042    1.4854 N   0  0  0  0  0  0  0  0  0  0  0  0
   -9.0636  -39.4182    0.6626 N   0  0  0  0  0  0  0  0  0  0  0  0
   -7.7553  -39.7806    0.9148 C   0  0  0  0  0  0  0  0  0  0  0  0
   -7.2189  -39.7069    2.1865 N   0  0  0  0  0  0  0  0  0  0  0  0
   -3.4034  -40.9490   10.4907 O   0  5  0  0  0  0  0  0  0  0  0  0
   -4.1876  -44.3763    9.3508 O   0  0  0  0  0  0  0  0  0  0  0  0
   -9.3650  -40.3698    7.3583 S   0  0  0  0  0  0  0  0  0  0  0  0
  -10.1581  -40.0618    6.0247 C   0  0  0  0  0  0  0  0  0  0  0  0
   -3.8771  -41.8358    8.1690 O   0  0  0  0  0  0  0  0  0  0  0  0
   -5.5767  -44.7324   11.3391 O   0  5  0  0  0  0  0  0  0  0  0  0
   -9.6551  -38.9742    5.3671 N   0  0  0  0  0  0  0  0  0  0  0  0
   -5.2724  -42.4551   10.2495 O   0  0  0  0  0  0  0  0  0  0  0  0
   -3.5616  -43.6154   11.6895 O   0  0  0  0  0  0  0  0  0  0  0  0
   -8.6123  -38.4114    6.0476 C   0  0  1  0  0  0  0  0  0  0  0  0
   -8.3671  -39.1293    7.1912 C   0  0  2  0  0  0  0  0  0  0  0  0
   -7.3321  -38.9443    8.2730 C   0  0  0  0  0  0  0  0  0  0  0  0
   -6.3426  -40.1138    8.3272 C   0  0  0  0  0  0  0  0  0  0  0  0
   -5.3460  -40.1018    9.3329 O   0  0  0  0  0  0  0  0  0  0  0  0
  1 11  1  0  0  0  0
  3 13  1  1  0  0  0
  3 17  2  0  0  0  0
  3 20  1  0  0  0  0
  3 26  1  0  0  0  0
  4 14  1  6  0  0  0
  4 18  1  0  0  0  0
  4 21  2  0  0  0  0
  4 20  1  0  0  0  0
  5 19  1  0  0  0  0
  5  7  1  0  0  0  0
  6  7  2  0  0  0  0
  6 12  1  0  0  0  0
  7  8  1  0  0  0  0
  8  9  1  0  0  0  0
  8 10  2  0  0  0  0
 10 11  1  0  0  0  0
 11 12  2  0  0  0  0
 15 23  1  0  0  0  0
 15 16  1  0  0  0  0
 16 19  1  0  0  0  0
 19 22  1  0  0  0  0
 22  2  1  6  0  0  0
 22 23  1  0  0  0  0
 23 24  1  6  0  0  0
 24 25  1  0  0  0  0
 25 26  1  0  0  0  0
M  CHG  2  13  -1  18  -1
M  END
>  <CHROM.1>
-67.50691310,-102.56430227,-20.70221501,-57.99912615,64.23702131,-177.46514247
174.18488027,173.30384578,-6.93612000,-40.66981380,6.77956963,-2.19529335
-0.64915390,1.60212400

>  <Name>
ligand

>  <RI>
0

>  <Rbt.Current_Directory>
/home/itssahil/PROJECTS/Mol_Feturizer/New_Systems/rnas/3D2G

>  <Rbt.Executable>
rbdock ($Id: //depot/dev/client3/rdock/2013.1/src/exe/rbdock.cxx#4 $)

>  <Rbt.Library>
libRbt.so (2013.1, Build901 2013/11/27)

>  <Rbt.Parameter_File>
/export/apps/rDock/src/rDock_2013.1_src/data/scripts/dock_solv.prm

>  <Rbt.Receptor>
prm/pocket_docking_3.prm

>  <SCORE>
-17.4978

>  <SCORE.INTER>
-14.9227

>  <SCORE.INTER.CONST>
1

>  <SCORE.INTER.POLAR>
0

>  <SCORE.INTER.ROT>
8

>  <SCORE.INTER.SOLV>
20.0878

>  <SCORE.INTER.VDW>
-25.5777

>  <SCORE.INTER.norm>
-0.573949

>  <SCORE.INTRA>
-2.58387

>  <SCORE.INTRA.DIHEDRAL>
-3.27781

>  <SCORE.INTRA.DIHEDRAL.0>
9.09364

>  <SCORE.INTRA.POLAR>
0

>  <SCORE.INTRA.POLAR.0>
0

>  <SCORE.INTRA.REPUL>
0

>  <SCORE.INTRA.REPUL.0>
0

>  <SCORE.INTRA.SOLV>
-2.44097

>  <SCORE.INTRA.SOLV.lig_0>
-78.5846

>  <SCORE.INTRA.VDW>
0.275521

>  <SCORE.INTRA.VDW.0>
-2.81163

>  <SCORE.INTRA.norm>
-0.0993796

>  <SCORE.RESTR>
0.00878619

>  <SCORE.RESTR.CAVITY>
0.00878619

>  <SCORE.RESTR.norm>
0.00033793

>  <SCORE.SYSTEM>
0

>  <SCORE.SYSTEM.CONST>
0

>  <SCORE.SYSTEM.DIHEDRAL>
0

>  <SCORE.SYSTEM.SOLV>
0

>  <SCORE.SYSTEM.norm>
0

>  <SCORE.heavy>
26

>  <SCORE.norm>
-0.672991

>  <RMSD>
3.236

$$$$
ligand
 OpenBabel11021811463D
libRbt.so/2013.1/901 2013/11/27
 26 27  0  0  0  0  0  0  0  0999 V2000
   -8.1853  -39.3338   -0.4924 C   0  0  0  0  0  0  0  0  0  0  0  0
   -8.8397  -40.7951    7.2251 C   0  0  0  0  0  0  0  0  0  0  0  0
   -5.0505  -42.0780    8.9241 P   0  0  1  0  0  0  0  0  0  0  0  0
   -6.8618  -44.0161    9.6353 P   0  0  2  0  0  0  0  0  0  0  0  0
  -10.2996  -39.4000    4.8429 C   0  0  0  0  0  0  0  0  0  0  0  0
   -8.4940  -39.9686    3.1847 C   0  0  0  0  0  0  0  0  0  0  0  0
   -9.7319  -39.3737    3.4466 C   0  0  0  0  0  0  0  0  0  0  0  0
  -10.4677  -38.7864    2.4138 C   0  0  0  0  0  0  0  0  0  0  0  0
  -11.6400  -38.2422    2.6641 N   0  0  0  0  0  0  0  0  0  0  0  0
   -9.9494  -38.7532    1.1421 N   0  0  0  0  0  0  0  0  0  0  0  0
   -8.7329  -39.3558    0.8903 C   0  0  0  0  0  0  0  0  0  0  0  0
   -7.9985  -39.9478    1.9006 N   0  0  0  0  0  0  0  0  0  0  0  0
   -3.8383  -41.5224    9.6070 O   0  5  0  0  0  0  0  0  0  0  0  0
   -7.8582  -43.0021   10.0361 O   0  0  0  0  0  0  0  0  0  0  0  0
   -7.9504  -37.0201    6.7001 S   0  0  0  0  0  0  0  0  0  0  0  0
   -8.9961  -37.4610    5.5981 C   0  0  0  0  0  0  0  0  0  0  0  0
   -4.8667  -42.4828    7.5043 O   0  0  0  0  0  0  0  0  0  0  0  0
   -6.9693  -45.2518   10.4340 O   0  5  0  0  0  0  0  0  0  0  0  0
   -9.3655  -38.7699    5.7345 N   0  0  0  0  0  0  0  0  0  0  0  0
   -5.4941  -43.2546    9.8854 O   0  0  0  0  0  0  0  0  0  0  0  0
   -6.9146  -44.5093    8.2256 O   0  0  0  0  0  0  0  0  0  0  0  0
   -8.7120  -39.3727    6.7723 C   0  0  1  0  0  0  0  0  0  0  0  0
   -7.8860  -38.4650    7.3863 C   0  0  2  0  0  0  0  0  0  0  0  0
   -6.9663  -38.6088    8.5733 C   0  0  0  0  0  0  0  0  0  0  0  0
   -5.9451  -39.7348    8.3756 C   0  0  0  0  0  0  0  0  0  0  0  0
   -6.1259  -40.9378    9.1001 O   0  0  0  0  0  0  0  0  0  0  0  0
  1 11  1  0  0  0  0
  3 13  1  1  0  0  0
  3 17  2  0  0  0  0
  3 20  1  0  0  0  0
  3 26  1  0  0  0  0
  4 14  1  1  0  0  0
  4 18  1  0  0  0  0
  4 21  2  0  0  0  0
  4 20  1  0  0  0  0
  5 19  1  0  0  0  0
  5  7  1  0  0  0  0
  6  7  2  0  0  0  0
  6 12  1  0  0  0  0
  7  8  1  0  0  0  0
  8  9  1  0  0  0  0
  8 10  2  0  0  0  0
 10 11  1  0  0  0  0
 11 12  2  0  0  0  0
 15 23  1  0  0  0  0
 15 16  1  0  0  0  0
 16 19  1  0  0  0  0
 19 22  1  0  0  0  0
 22  2  1  1  0  0  0
 22 23  1  0  0  0  0
 23 24  1  1  0  0  0
 24 25  1  0  0  0  0
 25 26  1  0  0  0  0
M  CHG  2  13  -1  18  -1
M  END
>  <CHROM.1>
172.44457049,61.42588125,58.06445729,-71.95094952,-124.26048825,-106.24389676
-178.31514415,69.92581762,-7.60534347,-40.60285874,6.57511351,3.02553699
-1.17055658,0.42862242

>  <Name>
ligand

>  <RI>
0

>  <Rbt.Current_Directory>
/home/itssahil/PROJECTS/Mol_Feturizer/New_Systems/rnas/3D2G

>  <Rbt.Executable>
rbdock ($Id: //depot/dev/client3/rdock/2013.1/src/exe/rbdock.cxx#4 $)

>  <Rbt.Library>
libRbt.so (2013.1, Build901 2013/11/27)

>  <Rbt.Parameter_File>
/export/apps/rDock/src/rDock_2013.1_src/data/scripts/dock_solv.prm

>  <Rbt.Receptor>
prm/pocket_docking_4.prm

>  <SCORE>
-16.1702

>  <SCORE.INTER>
-14.2405

>  <SCORE.INTER.CONST>
1

>  <SCORE.INTER.POLAR>
0

>  <SCORE.INTER.ROT>
8

>  <SCORE.INTER.SOLV>
17.6607

>  <SCORE.INTER.VDW>
-24.3139

>  <SCORE.INTER.norm>
-0.547713

>  <SCORE.INTRA>
-1.93424

>  <SCORE.INTRA.DIHEDRAL>
0.581623

>  <SCORE.INTRA.DIHEDRAL.0>
9.09364

>  <SCORE.INTRA.POLAR>
0

>  <SCORE.INTRA.POLAR.0>
0

>  <SCORE.INTRA.REPUL>
0

>  <SCORE.INTRA.REPUL.0>
0

>  <SCORE.INTRA.SOLV>
-2.33573

>  <SCORE.INTRA.SOLV.lig_0>
-78.5846

>  <SCORE.INTRA.VDW>
-1.05719

>  <SCORE.INTRA.VDW.0>
-2.81163

>  <SCORE.INTRA.norm>
-0.0743938

>  <SCORE.RESTR>
0.00460005

>  <SCORE.RESTR.CAVITY>
0.00460005

>  <SCORE.RESTR.norm>
0.000176925

>  <SCORE.SYSTEM>
0

>  <SCORE.SYSTEM.CONST>
0

>  <SCORE.SYSTEM.DIHEDRAL>
0

>  <SCORE.SYSTEM.SOLV>
0

>  <SCORE.SYSTEM.norm>
0

>  <SCORE.heavy>
26

>  <SCORE.norm>
-0.62193

>  <RMSD>
3.251

$$$$
ligand
 OpenBabel11021811463D
libRbt.so/2013.1/901 2013/11/27
 26 27  0  0  0  0  0  0  0  0999 V2000
   -6.6539  -40.2631   -0.0387 C   0  0  0  0  0  0  0  0  0  0  0  0
   -8.6276  -41.1872    5.6186 C   0  0  0  0  0  0  0  0  0  0  0  0
   -4.6130  -41.6514   10.2312 P   0  0  1  0  0  0  0  0  0  0  0  0
   -6.5008  -43.5343   10.8900 P   0  0  2  0  0  0  0  0  0  0  0  0
   -9.6456  -38.4504    4.5114 C   0  0  0  0  0  0  0  0  0  0  0  0
   -7.4819  -39.1667    3.4443 C   0  0  0  0  0  0  0  0  0  0  0  0
   -8.8510  -38.9131    3.3168 C   0  0  0  0  0  0  0  0  0  0  0  0
   -9.4990  -39.1223    2.0964 C   0  0  0  0  0  0  0  0  0  0  0  0
  -10.7915  -38.8969    1.9872 N   0  0  0  0  0  0  0  0  0  0  0  0
   -8.7763  -39.5356    1.0039 N   0  0  0  0  0  0  0  0  0  0  0  0
   -7.4278  -39.7973    1.1430 C   0  0  0  0  0  0  0  0  0  0  0  0
   -6.7758  -39.6029    2.3461 N   0  0  0  0  0  0  0  0  0  0  0  0
   -4.4656  -40.2461   10.7288 O   0  5  0  0  0  0  0  0  0  0  0  0
   -7.9251  -43.4161   11.2631 O   0  0  0  0  0  0  0  0  0  0  0  0
   -7.5598  -38.0443    7.6921 S   0  0  0  0  0  0  0  0  0  0  0  0
   -8.4266  -37.5750    6.4549 C   0  0  0  0  0  0  0  0  0  0  0  0
   -3.5864  -42.6183   10.7051 O   0  0  0  0  0  0  0  0  0  0  0  0
   -5.6945  -44.1626   11.9538 O   0  5  0  0  0  0  0  0  0  0  0  0
   -8.8497  -38.6290    5.6943 N   0  0  0  0  0  0  0  0  0  0  0  0
   -6.0961  -42.0219   10.6414 O   0  0  0  0  0  0  0  0  0  0  0  0
   -6.1742  -44.3495    9.6809 O   0  0  0  0  0  0  0  0  0  0  0  0
   -8.3888  -39.8195    6.1817 C   0  0  1  0  0  0  0  0  0  0  0  0
   -7.6472  -39.5976    7.3148 C   0  0  2  0  0  0  0  0  0  0  0  0
   -6.9348  -40.5575    8.2350 C   0  0  0  0  0  0  0  0  0  0  0  0
   -5.4109  -40.4538    8.1050 C   0  0  0  0  0  0  0  0  0  0  0  0
   -4.6192  -41.4868    8.6627 O   0  0  0  0  0  0  0  0  0  0  0  0
  1 11  1  0  0  0  0
  3 13  1  1  0  0  0
  3 17  2  0  0  0  0
  3 20  1  0  0  0  0
  3 26  1  0  0  0  0
  4 14  1  1  0  0  0
  4 18  1  0  0  0  0
  4 21  2  0  0  0  0
  4 20  1  0  0  0  0
  5 19  1  0  0  0  0
  5  7  1  0  0  0  0
  6  7  2  0  0  0  0
  6 12  1  0  0  0  0
  7  8  1  0  0  0  0
  8  9  1  0  0  0  0
  8 10  2  0  0  0  0
 10 11  1  0  0  0  0
 11 12  2  0  0  0  0
 15 23  1  0  0  0  0
 15 16  1  0  0  0  0
 16 19  1  0  0  0  0
 19 22  1  0  0  0  0
 22  2  1  1  0  0  0
 22 23  1  0  0  0  0
 23 24  1  1  0  0  0
 24 25  1  0  0  0  0
 25 26  1  0  0  0  0
M  CHG  2  13  -1  18  -1
M  END
>  <CHROM.1>
-153.65814828,115.32458726,-12.39653653,179.04378954,-71.15474779,-165.62553802
-66.51462671,-44.90819460,-7.00051986,-40.68404050,7.09990211,-2.21176272
-1.01263820,1.40873432

>  <Name>
ligand

>  <RI>
0

>  <Rbt.Current_Directory>
/home/itssahil/PROJECTS/Mol_Feturizer/New_Systems/rnas/3D2G

>  <Rbt.Executable>
rbdock ($Id: //depot/dev/client3/rdock/2013.1/src/exe/rbdock.cxx#4 $)

>  <Rbt.Library>
libRbt.so (2013.1, Build901 2013/11/27)

>  <Rbt.Parameter_File>
/export/apps/rDock/src/rDock_2013.1_src/data/scripts/dock_solv.prm

>  <Rbt.Receptor>
prm/blind_docking_100.prm

>  <SCORE>
-14.2672

>  <SCORE.INTER>
-14.0885

>  <SCORE.INTER.CONST>
1

>  <SCORE.INTER.POLAR>
0

>  <SCORE.INTER.ROT>
8

>  <SCORE.INTER.SOLV>
16.785

>  <SCORE.INTER.VDW>
-23.9207

>  <SCORE.INTER.norm>
-0.541865

>  <SCORE.INTRA>
-0.178724

>  <SCORE.INTRA.DIHEDRAL>
-1.44761

>  <SCORE.INTRA.DIHEDRAL.0>
9.09364

>  <SCORE.INTRA.POLAR>
0

>  <SCORE.INTRA.POLAR.0>
0

>  <SCORE.INTRA.REPUL>
0

>  <SCORE.INTRA.REPUL.0>
0

>  <SCORE.INTRA.SOLV>
-0.0146506

>  <SCORE.INTRA.SOLV.lig_0>
-78.5846

>  <SCORE.INTRA.VDW>
0.552407

>  <SCORE.INTRA.VDW.0>
-2.81163

>  <SCORE.INTRA.norm>
-0.00687401

>  <SCORE.RESTR>
0

>  <SCORE.RESTR.CAVITY>
0

>  <SCORE.RESTR.norm>
0

>  <SCORE.SYSTEM>
0

>  <SCORE.SYSTEM.CONST>
0

>  <SCORE.SYSTEM.DIHEDRAL>
0

>  <SCORE.SYSTEM.SOLV>
0

>  <SCORE.SYSTEM.norm>
0

>  <SCORE.heavy>
26

>  <SCORE.norm>
-0.548739

>  <RMSD>
3.253

$$$$
ligand
 OpenBabel11021811463D
libRbt.so/2013.1/901 2013/11/27
 26 27  0  0  0  0  0  0  0  0999 V2000
   -6.9156  -40.1886   -0.3371 C   0  0  0  0  0  0  0  0  0  0  0  0
   -9.3312  -40.2686    7.0777 C   0  0  0  0  0  0  0  0  0  0  0  0
   -4.7118  -41.6187    9.7340 P   0  0  1  0  0  0  0  0  0  0  0  0
   -3.9772  -43.6520   11.4279 P   0  0  2  0  0  0  0  0  0  0  0  0
   -9.8637  -38.7837    4.3825 C   0  0  0  0  0  0  0  0  0  0  0  0
   -9.5287  -38.6950    1.8899 C   0  0  0  0  0  0  0  0  0  0  0  0
   -9.1021  -39.1607    3.1373 C   0  0  0  0  0  0  0  0  0  0  0  0
   -7.9496  -39.9439    3.2442 C   0  0  0  0  0  0  0  0  0  0  0  0
   -7.5443  -40.3658    4.4235 N   0  0  0  0  0  0  0  0  0  0  0  0
   -7.2584  -40.2962    2.1107 N   0  0  0  0  0  0  0  0  0  0  0  0
   -7.6790  -39.8198    0.8849 C   0  0  0  0  0  0  0  0  0  0  0  0
   -8.8121  -39.0373    0.7656 N   0  0  0  0  0  0  0  0  0  0  0  0
   -3.3654  -40.9726    9.8525 O   0  5  0  0  0  0  0  0  0  0  0  0
   -2.6600  -43.0473   11.7132 O   0  0  0  0  0  0  0  0  0  0  0  0
   -7.1882  -37.0463    6.4932 S   0  0  0  0  0  0  0  0  0  0  0  0
   -8.1342  -37.2692    5.2451 C   0  0  0  0  0  0  0  0  0  0  0  0
   -4.9160  -42.4774    8.5364 O   0  0  0  0  0  0  0  0  0  0  0  0
   -3.9263  -44.5929   10.2928 O   0  5  0  0  0  0  0  0  0  0  0  0
   -8.9270  -38.3729    5.3917 N   0  0  0  0  0  0  0  0  0  0  0  0
   -4.8664  -42.3777   11.1144 O   0  0  0  0  0  0  0  0  0  0  0  0
   -4.6126  -44.4558   12.5157 O   0  0  0  0  0  0  0  0  0  0  0  0
   -8.6771  -39.0205    6.5688 C   0  0  1  0  0  0  0  0  0  0  0  0
   -7.7071  -38.3474    7.2682 C   0  0  2  0  0  0  0  0  0  0  0  0
   -7.0826  -38.6268    8.6127 C   0  0  0  0  0  0  0  0  0  0  0  0
   -6.1256  -39.8233    8.5639 C   0  0  0  0  0  0  0  0  0  0  0  0
   -5.7104  -40.3992    9.7890 O   0  0  0  0  0  0  0  0  0  0  0  0
  1 11  1  0  0  0  0
  3 13  1  6  0  0  0
  3 17  2  0  0  0  0
  3 20  1  0  0  0  0
  3 26  1  0  0  0  0
  4 14  1  1  0  0  0
  4 18  1  0  0  0  0
  4 21  2  0  0  0  0
  4 20  1  0  0  0  0
  5 19  1  0  0  0  0
  5  7  1  0  0  0  0
  6  7  2  0  0  0  0
  6 12  1  0  0  0  0
  7  8  1  0  0  0  0
  8  9  1  0  0  0  0
  8 10  2  0  0  0  0
 10 11  1  0  0  0  0
 11 12  2  0  0  0  0
 15 23  1  0  0  0  0
 15 16  1  0  0  0  0
 16 19  1  0  0  0  0
 19 22  1  0  0  0  0
 22  2  1  1  0  0  0
 22 23  1  0  0  0  0
 23 24  1  1  0  0  0
 24 25  1  0  0  0  0
 25 26  1  0  0  0  0
M  CHG  2  13  -1  18  -1
M  END
>  <CHROM.1>
-70.09435766,63.94215598,-133.96433889,74.88878813,-107.46401458,-165.43123472
-179.26314971,93.14425404,-6.47962093,-40.50156851,7.08968979,-2.45607340
-0.99405321,1.22135458

>  <Name>
ligand

>  <RI>
0

>  <Rbt.Current_Directory>
/home/itssahil/PROJECTS/Mol_Feturizer/New_Systems/rnas/3D2G

>  <Rbt.Executable>
rbdock ($Id: //depot/dev/client3/rdock/2013.1/src/exe/rbdock.cxx#4 $)

>  <Rbt.Library>
libRbt.so (2013.1, Build901 2013/11/27)

>  <Rbt.Parameter_File>
/export/apps/rDock/src/rDock_2013.1_src/data/scripts/dock_solv.prm

>  <Rbt.Receptor>
prm/pocket_docking_3.prm

>  <SCORE>
-13.7387

>  <SCORE.INTER>
-13.8689

>  <SCORE.INTER.CONST>
1

>  <SCORE.INTER.POLAR>
0

>  <SCORE.INTER.ROT>
8

>  <SCORE.INTER.SOLV>
11.1832

>  <SCORE.INTER.VDW>
-21.907

>  <SCORE.INTER.norm>
-0.533421

>  <SCORE.INTRA>
0.0952156

>  <SCORE.INTRA.DIHEDRAL>
-2.12611

>  <SCORE.INTRA.DIHEDRAL.0>
9.09364

>  <SCORE.INTRA.POLAR>
0

>  <SCORE.INTRA.POLAR.0>
0

>  <SCORE.INTRA.REPUL>
0

>  <SCORE.INTRA.REPUL.0>
0

>  <SCORE.INTRA.SOLV>
3.11399

>  <SCORE.INTRA.SOLV.lig_0>
-78.5846

>  <SCORE.INTRA.VDW>
-0.398724

>  <SCORE.INTRA.VDW.0>
-2.81163

>  <SCORE.INTRA.norm>
0.00366214

>  <SCORE.RESTR>
0.0350075

>  <SCORE.RESTR.CAVITY>
0.0350075

>  <SCORE.RESTR.norm>
0.00134644

>  <SCORE.SYSTEM>
0

>  <SCORE.SYSTEM.CONST>
0

>  <SCORE.SYSTEM.DIHEDRAL>
0

>  <SCORE.SYSTEM.SOLV>
0

>  <SCORE.SYSTEM.norm>
0

>  <SCORE.heavy>
26

>  <SCORE.norm>
-0.528412

>  <RMSD>
3.283

$$$$
ligand
 OpenBabel11021811463D
libRbt.so/2013.1/901 2013/11/27
 26 27  0  0  0  0  0  0  0  0999 V2000
  -12.4263  -37.9711    1.9616 C   0  0  0  0  0  0  0  0  0  0  0  0
   -7.1496  -41.1698    6.3986 C   0  0  0  0  0  0  0  0  0  0  0  0
   -7.0215  -45.5559    8.7185 P   0  0  1  0  0  0  0  0  0  0  0  0
   -5.5925  -45.2632   11.0455 P   0  0  2  0  0  0  0  0  0  0  0  0
   -7.2153  -39.6791    3.6553 C   0  0  0  0  0  0  0  0  0  0  0  0
   -8.9147  -39.2650    1.8459 C   0  0  0  0  0  0  0  0  0  0  0  0
   -8.5773  -39.2187    3.2019 C   0  0  0  0  0  0  0  0  0  0  0  0
   -9.5087  -38.7835    4.1486 C   0  0  0  0  0  0  0  0  0  0  0  0
   -9.1902  -38.7575    5.4257 N   0  0  0  0  0  0  0  0  0  0  0  0
  -10.7476  -38.3552    3.7380 N   0  0  0  0  0  0  0  0  0  0  0  0
  -11.0766  -38.4181    2.3985 C   0  0  0  0  0  0  0  0  0  0  0  0
  -10.1682  -38.8544    1.4524 N   0  0  0  0  0  0  0  0  0  0  0  0
   -7.8036  -46.7066    8.1628 O   0  5  0  0  0  0  0  0  0  0  0  0
   -6.6769  -45.0765   12.0309 O   0  0  0  0  0  0  0  0  0  0  0  0
   -7.3569  -43.4797    3.2460 S   0  0  0  0  0  0  0  0  0  0  0  0
   -7.3338  -41.9691    2.7772 C   0  0  0  0  0  0  0  0  0  0  0  0
   -7.8048  -44.3305    9.0321 O   0  0  0  0  0  0  0  0  0  0  0  0
   -5.1323  -43.9844   10.4718 O   0  5  0  0  0  0  0  0  0  0  0  0
   -7.2436  -41.1048    3.8322 N   0  0  0  0  0  0  0  0  0  0  0  0
   -6.2831  -46.1944    9.9644 O   0  0  0  0  0  0  0  0  0  0  0  0
   -4.3299  -45.9005   11.5282 O   0  0  0  0  0  0  0  0  0  0  0  0
   -7.2272  -41.7677    5.0270 C   0  0  1  0  0  0  0  0  0  0  0  0
   -7.2861  -43.1205    4.8045 C   0  0  2  0  0  0  0  0  0  0  0  0
   -7.2838  -44.2827    5.7662 C   0  0  0  0  0  0  0  0  0  0  0  0
   -6.0898  -44.2315    6.7261 C   0  0  0  0  0  0  0  0  0  0  0  0
   -5.9091  -45.3077    7.6284 O   0  0  0  0  0  0  0  0  0  0  0  0
  1 11  1  0  0  0  0
  3 13  1  6  0  0  0
  3 17  2  0  0  0  0
  3 20  1  0  0  0  0
  3 26  1  0  0  0  0
  4 14  1  1  0  0  0
  4 18  1  0  0  0  0
  4 21  2  0  0  0  0
  4 20  1  0  0  0  0
  5 19  1  0  0  0  0
  5  7  1  0  0  0  0
  6  7  2  0  0  0  0
  6 12  1  0  0  0  0
  7  8  1  0  0  0  0
  8  9  1  0  0  0  0
  8 10  2  0  0  0  0
 10 11  1  0  0  0  0
 11 12  2  0  0  0  0
 15 23  1  0  0  0  0
 15 16  1  0  0  0  0
 16 19  1  0  0  0  0
 19 22  1  0  0  0  0
 22  2  1  6  0  0  0
 22 23  1  0  0  0  0
 23 24  1  6  0  0  0
 24 25  1  0  0  0  0
 25 26  1  0  0  0  0
M  CHG  2  13  -1  18  -1
M  END
>  <CHROM.1>
-166.31485883,70.24663945,-84.45864318,91.78468912,125.69625520,-175.89183013
-63.72236746,101.51455765,-7.54460524,-42.72127758,6.36588443,2.40012403
1.07439036,-1.63481745

>  <Name>
ligand

>  <RI>
0

>  <Rbt.Current_Directory>
/home/itssahil/PROJECTS/Mol_Feturizer/New_Systems/rnas/3D2G

>  <Rbt.Executable>
rbdock ($Id: //depot/dev/client3/rdock/2013.1/src/exe/rbdock.cxx#4 $)

>  <Rbt.Library>
libRbt.so (2013.1, Build901 2013/11/27)

>  <Rbt.Parameter_File>
/export/apps/rDock/src/rDock_2013.1_src/data/scripts/dock_solv.prm

>  <Rbt.Receptor>
prm/pocket_docking_5.prm

>  <SCORE>
-17.1645

>  <SCORE.INTER>
-17.0333

>  <SCORE.INTER.CONST>
1

>  <SCORE.INTER.POLAR>
0

>  <SCORE.INTER.ROT>
8

>  <SCORE.INTER.SOLV>
19.6254

>  <SCORE.INTER.VDW>
-26.8307

>  <SCORE.INTER.norm>
-0.655128

>  <SCORE.INTRA>
-0.131142

>  <SCORE.INTRA.DIHEDRAL>
-0.946996

>  <SCORE.INTRA.DIHEDRAL.0>
9.09364

>  <SCORE.INTRA.POLAR>
0

>  <SCORE.INTRA.POLAR.0>
0

>  <SCORE.INTRA.REPUL>
0

>  <SCORE.INTRA.REPUL.0>
0

>  <SCORE.INTRA.SOLV>
1.67186

>  <SCORE.INTRA.SOLV.lig_0>
-78.5846

>  <SCORE.INTRA.VDW>
-0.493576

>  <SCORE.INTRA.VDW.0>
-2.81163

>  <SCORE.INTRA.norm>
-0.00504392

>  <SCORE.RESTR>
0

>  <SCORE.RESTR.CAVITY>
0

>  <SCORE.RESTR.norm>
0

>  <SCORE.SYSTEM>
0

>  <SCORE.SYSTEM.CONST>
0

>  <SCORE.SYSTEM.DIHEDRAL>
0

>  <SCORE.SYSTEM.SOLV>
0

>  <SCORE.SYSTEM.norm>
0

>  <SCORE.heavy>
26

>  <SCORE.norm>
-0.660172

>  <RMSD>
3.293

$$$$
ligand
 OpenBabel11021811463D
libRbt.so/2013.1/901 2013/11/27
 26 27  0  0  0  0  0  0  0  0999 V2000
  -10.3598  -38.7735    1.3103 C   0  0  0  0  0  0  0  0  0  0  0  0
   -7.5686  -42.0685    7.7910 C   0  0  0  0  0  0  0  0  0  0  0  0
   -5.2051  -45.0442   10.4584 P   0  0  1  0  0  0  0  0  0  0  0  0
   -2.8200  -43.7463   10.0465 P   0  0  2  0  0  0  0  0  0  0  0  0
   -6.6494  -40.2310    5.4392 C   0  0  0  0  0  0  0  0  0  0  0  0
   -7.1974  -39.8252    3.0167 C   0  0  0  0  0  0  0  0  0  0  0  0
   -7.6149  -39.8355    4.3511 C   0  0  0  0  0  0  0  0  0  0  0  0
   -8.9350  -39.5179    4.6823 C   0  0  0  0  0  0  0  0  0  0  0  0
   -9.3259  -39.5450    5.9391 N   0  0  0  0  0  0  0  0  0  0  0  0
   -9.8149  -39.1488    3.6942 N   0  0  0  0  0  0  0  0  0  0  0  0
   -9.3975  -39.1555    2.3781 C   0  0  0  0  0  0  0  0  0  0  0  0
   -8.0973  -39.4757    2.0355 N   0  0  0  0  0  0  0  0  0  0  0  0
   -5.5695  -46.4956   10.5311 O   0  5  0  0  0  0  0  0  0  0  0  0
   -2.6336  -43.4985   11.4907 O   0  0  0  0  0  0  0  0  0  0  0  0
   -6.0524  -43.9372    4.7046 S   0  0  0  0  0  0  0  0  0  0  0  0
   -6.0448  -42.3812    4.4194 C   0  0  0  0  0  0  0  0  0  0  0  0
   -5.4926  -44.2415   11.6776 O   0  0  0  0  0  0  0  0  0  0  0  0
   -3.5155  -42.6328    9.3735 O   0  5  0  0  0  0  0  0  0  0  0  0
   -6.5469  -41.6639    5.4689 N   0  0  0  0  0  0  0  0  0  0  0  0
   -3.6773  -45.0797   10.0464 O   0  0  0  0  0  0  0  0  0  0  0  0
   -1.5901  -43.9367    9.2193 O   0  0  0  0  0  0  0  0  0  0  0  0
   -6.9562  -42.4788    6.4867 C   0  0  1  0  0  0  0  0  0  0  0  0
   -6.7178  -43.7883    6.1529 C   0  0  2  0  0  0  0  0  0  0  0  0
   -6.9668  -45.0653    6.9165 C   0  0  0  0  0  0  0  0  0  0  0  0
   -5.9115  -45.2997    8.0032 C   0  0  0  0  0  0  0  0  0  0  0  0
   -5.9902  -44.5317    9.1902 O   0  0  0  0  0  0  0  0  0  0  0  0
  1 11  1  0  0  0  0
  3 13  1  1  0  0  0
  3 17  2  0  0  0  0
  3 20  1  0  0  0  0
  3 26  1  0  0  0  0
  4 14  1  1  0  0  0
  4 18  1  0  0  0  0
  4 21  2  0  0  0  0
  4 20  1  0  0  0  0
  5 19  1  0  0  0  0
  5  7  1  0  0  0  0
  6  7  2  0  0  0  0
  6 12  1  0  0  0  0
  7  8  1  0  0  0  0
  8  9  1  0  0  0  0
  8 10  2  0  0  0  0
 10 11  1  0  0  0  0
 11 12  2  0  0  0  0
 15 23  1  0  0  0  0
 15 16  1  0  0  0  0
 16 19  1  0  0  0  0
 19 22  1  0  0  0  0
 22  2  1  1  0  0  0
 22 23  1  0  0  0  0
 23 24  1  1  0  0  0
 24 25  1  0  0  0  0
 25 26  1  0  0  0  0
M  CHG  2  13  -1  18  -1
M  END
>  <CHROM.1>
-171.58904299,63.81276694,-79.09028934,73.37708518,102.06034605,75.61662672
162.13552159,-47.43033671,-6.09602015,-42.69682825,7.10331226,2.18254629
-0.57039652,-0.60858488

>  <Name>
ligand

>  <RI>
0

>  <Rbt.Current_Directory>
/home/itssahil/PROJECTS/Mol_Feturizer/New_Systems/rnas/3D2G

>  <Rbt.Executable>
rbdock ($Id: //depot/dev/client3/rdock/2013.1/src/exe/rbdock.cxx#4 $)

>  <Rbt.Library>
libRbt.so (2013.1, Build901 2013/11/27)

>  <Rbt.Parameter_File>
/export/apps/rDock/src/rDock_2013.1_src/data/scripts/dock_solv.prm

>  <Rbt.Receptor>
prm/pocket_docking_3.prm

>  <SCORE>
-9.34674

>  <SCORE.INTER>
-7.33234

>  <SCORE.INTER.CONST>
1

>  <SCORE.INTER.POLAR>
0

>  <SCORE.INTER.ROT>
8

>  <SCORE.INTER.SOLV>
12.4233

>  <SCORE.INTER.VDW>
-17.9627

>  <SCORE.INTER.norm>
-0.282013

>  <SCORE.INTRA>
-2.01439

>  <SCORE.INTRA.DIHEDRAL>
-1.36872

>  <SCORE.INTRA.DIHEDRAL.0>
9.09364

>  <SCORE.INTRA.POLAR>
0

>  <SCORE.INTRA.POLAR.0>
0

>  <SCORE.INTRA.REPUL>
0

>  <SCORE.INTRA.REPUL.0>
0

>  <SCORE.INTRA.SOLV>
-0.392215

>  <SCORE.INTRA.SOLV.lig_0>
-78.5846

>  <SCORE.INTRA.VDW>
-1.13393

>  <SCORE.INTRA.VDW.0>
-2.81163

>  <SCORE.INTRA.norm>
-0.0774766

>  <SCORE.RESTR>
0

>  <SCORE.RESTR.CAVITY>
0

>  <SCORE.RESTR.norm>
0

>  <SCORE.SYSTEM>
0

>  <SCORE.SYSTEM.CONST>
0

>  <SCORE.SYSTEM.DIHEDRAL>
0

>  <SCORE.SYSTEM.SOLV>
0

>  <SCORE.SYSTEM.norm>
0

>  <SCORE.heavy>
26

>  <SCORE.norm>
-0.35949

>  <RMSD>
3.315

$$$$
ligand
 OpenBabel11021811463D
libRbt.so/2013.1/901 2013/11/27
 26 27  0  0  0  0  0  0  0  0999 V2000
   -6.8872  -40.2402   -0.2876 C   0  0  0  0  0  0  0  0  0  0  0  0
   -8.0095  -37.1506    5.5704 C   0  0  0  0  0  0  0  0  0  0  0  0
   -6.0412  -42.4950    8.7900 P   0  0  1  0  0  0  0  0  0  0  0  0
   -3.6802  -43.4425    7.7553 P   0  0  2  0  0  0  0  0  0  0  0  0
  -10.3269  -38.4868    3.9590 C   0  0  0  0  0  0  0  0  0  0  0  0
   -8.1473  -39.4487    3.1481 C   0  0  0  0  0  0  0  0  0  0  0  0
   -9.4129  -38.9360    2.8475 C   0  0  0  0  0  0  0  0  0  0  0  0
   -9.8542  -38.8715    1.5231 C   0  0  0  0  0  0  0  0  0  0  0  0
  -11.0532  -38.4025    1.2480 N   0  0  0  0  0  0  0  0  0  0  0  0
   -9.0206  -39.2719    0.5074 N   0  0  0  0  0  0  0  0  0  0  0  0
   -7.7783  -39.7902    0.8149 C   0  0  0  0  0  0  0  0  0  0  0  0
   -7.3324  -39.8677    2.1209 N   0  0  0  0  0  0  0  0  0  0  0  0
   -6.7504  -43.7487    8.3780 O   0  5  0  0  0  0  0  0  0  0  0  0
   -2.7565  -42.8876    6.7450 O   0  0  0  0  0  0  0  0  0  0  0  0
   -9.5536  -40.3526    7.2075 S   0  0  0  0  0  0  0  0  0  0  0  0
  -10.3036  -40.0572    5.8464 C   0  0  0  0  0  0  0  0  0  0  0  0
   -5.6011  -42.4355   10.2099 O   0  0  0  0  0  0  0  0  0  0  0  0
   -4.1356  -44.8024    7.4093 O   0  5  0  0  0  0  0  0  0  0  0  0
   -9.8001  -38.9572    5.2103 N   0  0  0  0  0  0  0  0  0  0  0  0
   -4.8639  -42.3883    7.7375 O   0  0  0  0  0  0  0  0  0  0  0  0
   -3.1610  -43.5952    9.1483 O   0  0  0  0  0  0  0  0  0  0  0  0
   -8.7950  -38.3746    5.9300 C   0  0  1  0  0  0  0  0  0  0  0  0
   -8.5767  -39.0907    7.0801 C   0  0  2  0  0  0  0  0  0  0  0  0
   -7.5863  -38.8873    8.1995 C   0  0  0  0  0  0  0  0  0  0  0  0
   -6.5731  -40.0344    8.2855 C   0  0  0  0  0  0  0  0  0  0  0  0
   -7.0662  -41.3549    8.4197 O   0  0  0  0  0  0  0  0  0  0  0  0
  1 11  1  0  0  0  0
  3 13  1  6  0  0  0
  3 17  2  0  0  0  0
  3 20  1  0  0  0  0
  3 26  1  0  0  0  0
  4 14  1  6  0  0  0
  4 18  1  0  0  0  0
  4 21  2  0  0  0  0
  4 20  1  0  0  0  0
  5 19  1  0  0  0  0
  5  7  1  0  0  0  0
  6  7  2  0  0  0  0
  6 12  1  0  0  0  0
  7  8  1  0  0  0  0
  8  9  1  0  0  0  0
  8 10  2  0  0  0  0
 10 11  1  0  0  0  0
 11 12  2  0  0  0  0
 15 23  1  0  0  0  0
 15 16  1  0  0  0  0
 16 19  1  0  0  0  0
 19 22  1  0  0  0  0
 22  2  1  6  0  0  0
 22 23  1  0  0  0  0
 23 24  1  6  0  0  0
 24 25  1  0  0  0  0
 25 26  1  0  0  0  0
M  CHG  2  13  -1  18  -1
M  END
>  <CHROM.1>
-68.13471772,-101.14032844,-12.65916808,-173.68569384,64.35101846,-55.61379933
-168.23212797,-160.63758275,-7.17357770,-40.82427978,5.95883928,-2.29585788
-0.64785893,1.67263835

>  <Name>
ligand

>  <RI>
0

>  <Rbt.Current_Directory>
/home/itssahil/PROJECTS/Mol_Feturizer/New_Systems/rnas/3D2G

>  <Rbt.Executable>
rbdock ($Id: //depot/dev/client3/rdock/2013.1/src/exe/rbdock.cxx#4 $)

>  <Rbt.Library>
libRbt.so (2013.1, Build901 2013/11/27)

>  <Rbt.Parameter_File>
/export/apps/rDock/src/rDock_2013.1_src/data/scripts/dock_solv.prm

>  <Rbt.Receptor>
prm/pocket_docking_3.prm

>  <SCORE>
-15.9206

>  <SCORE.INTER>
-14.0633

>  <SCORE.INTER.CONST>
1

>  <SCORE.INTER.POLAR>
0

>  <SCORE.INTER.ROT>
8

>  <SCORE.INTER.SOLV>
18.2283

>  <SCORE.INTER.VDW>
-24.385

>  <SCORE.INTER.norm>
-0.540897

>  <SCORE.INTRA>
-1.88873

>  <SCORE.INTRA.DIHEDRAL>
-2.63847

>  <SCORE.INTRA.DIHEDRAL.0>
9.09364

>  <SCORE.INTRA.POLAR>
0

>  <SCORE.INTRA.POLAR.0>
0

>  <SCORE.INTRA.REPUL>
0

>  <SCORE.INTRA.REPUL.0>
0

>  <SCORE.INTRA.SOLV>
-0.737444

>  <SCORE.INTRA.SOLV.lig_0>
-78.5846

>  <SCORE.INTRA.VDW>
-0.200775

>  <SCORE.INTRA.VDW.0>
-2.81163

>  <SCORE.INTRA.norm>
-0.0726435

>  <SCORE.RESTR>
0.0314755

>  <SCORE.RESTR.CAVITY>
0.0314755

>  <SCORE.RESTR.norm>
0.0012106

>  <SCORE.SYSTEM>
0

>  <SCORE.SYSTEM.CONST>
0

>  <SCORE.SYSTEM.DIHEDRAL>
0

>  <SCORE.SYSTEM.SOLV>
0

>  <SCORE.SYSTEM.norm>
0

>  <SCORE.heavy>
26

>  <SCORE.norm>
-0.61233

>  <RMSD>
3.411

$$$$
ligand
 OpenBabel11021811463D
libRbt.so/2013.1/901 2013/11/27
 26 27  0  0  0  0  0  0  0  0999 V2000
   -7.4211  -35.0565    6.5940 C   0  0  0  0  0  0  0  0  0  0  0  0
   -4.3361  -41.2183    3.7352 C   0  0  0  0  0  0  0  0  0  0  0  0
   -3.4325  -41.6192    8.7812 P   0  0  1  0  0  0  0  0  0  0  0  0
   -1.6348  -42.6728   10.5704 P   0  0  2  0  0  0  0  0  0  0  0  0
   -7.0228  -39.7028    3.2484 C   0  0  0  0  0  0  0  0  0  0  0  0
   -5.9898  -37.6894    4.3495 C   0  0  0  0  0  0  0  0  0  0  0  0
   -7.1170  -38.4889    4.1374 C   0  0  0  0  0  0  0  0  0  0  0  0
   -8.3441  -38.1498    4.7140 C   0  0  0  0  0  0  0  0  0  0  0  0
   -9.4054  -38.8979    4.4974 N   0  0  0  0  0  0  0  0  0  0  0  0
   -8.4312  -37.0493    5.5314 N   0  0  0  0  0  0  0  0  0  0  0  0
   -7.3163  -36.2577    5.7233 C   0  0  0  0  0  0  0  0  0  0  0  0
   -6.0986  -36.5766    5.1524 N   0  0  0  0  0  0  0  0  0  0  0  0
   -4.6102  -41.9394    9.6502 O   0  5  0  0  0  0  0  0  0  0  0  0
   -2.6691  -43.1709   11.4998 O   0  0  0  0  0  0  0  0  0  0  0  0
   -7.4464  -42.6894    5.6005 S   0  0  0  0  0  0  0  0  0  0  0  0
   -7.8975  -41.4236    4.7658 C   0  0  0  0  0  0  0  0  0  0  0  0
   -2.9123  -40.2289    8.8805 O   0  0  0  0  0  0  0  0  0  0  0  0
   -1.1928  -41.3060   10.9064 O   0  5  0  0  0  0  0  0  0  0  0  0
   -6.8588  -40.8685    4.0722 N   0  0  0  0  0  0  0  0  0  0  0  0
   -2.3838  -42.7374    9.1747 O   0  0  0  0  0  0  0  0  0  0  0  0
   -0.3554  -43.4412   10.4928 O   0  0  0  0  0  0  0  0  0  0  0  0
   -5.6869  -41.5328    4.3020 C   0  0  1  0  0  0  0  0  0  0  0  0
   -5.9124  -42.5838    5.1550 C   0  0  2  0  0  0  0  0  0  0  0  0
   -4.9742  -43.6260    5.7110 C   0  0  0  0  0  0  0  0  0  0  0  0
   -4.4878  -43.2679    7.1199 C   0  0  0  0  0  0  0  0  0  0  0  0
   -3.9370  -41.9807    7.3314 O   0  0  0  0  0  0  0  0  0  0  0  0
  1 11  1  0  0  0  0
  3 13  1  1  0  0  0
  3 17  2  0  0  0  0
  3 20  1  0  0  0  0
  3 26  1  0  0  0  0
  4 14  1  1  0  0  0
  4 18  1  0  0  0  0
  4 21  2  0  0  0  0
  4 20  1  0  0  0  0
  5 19  1  0  0  0  0
  5  7  1  0  0  0  0
  6  7  2  0  0  0  0
  6 12  1  0  0  0  0
  7  8  1  0  0  0  0
  8  9  1  0  0  0  0
  8 10  2  0  0  0  0
 10 11  1  0  0  0  0
 11 12  2  0  0  0  0
 15 23  1  0  0  0  0
 15 16  1  0  0  0  0
 16 19  1  0  0  0  0
 19 22  1  0  0  0  0
 22  2  1  6  0  0  0
 22 23  1  0  0  0  0
 23 24  1  6  0  0  0
 24 25  1  0  0  0  0
 25 26  1  0  0  0  0
M  CHG  2  13  -1  18  -1
M  END
>  <CHROM.1>
-73.14957479,76.14122878,98.69345088,78.07367508,-82.78695686,-51.51630712
-179.75216309,-52.47050896,-5.02957409,-40.84510045,6.96826582,-2.85501031
0.85852294,-2.87077706

>  <Name>
ligand

>  <RI>
0

>  <Rbt.Current_Directory>
/home/itssahil/PROJECTS/Mol_Feturizer/New_Systems/rnas/3D2G

>  <Rbt.Executable>
rbdock ($Id: //depot/dev/client3/rdock/2013.1/src/exe/rbdock.cxx#4 $)

>  <Rbt.Library>
libRbt.so (2013.1, Build901 2013/11/27)

>  <Rbt.Parameter_File>
/export/apps/rDock/src/rDock_2013.1_src/data/scripts/dock_solv.prm

>  <Rbt.Receptor>
prm/pocket_docking_6.prm

>  <SCORE>
-10.382

>  <SCORE.INTER>
-7.56064

>  <SCORE.INTER.CONST>
1

>  <SCORE.INTER.POLAR>
0

>  <SCORE.INTER.ROT>
8

>  <SCORE.INTER.SOLV>
17.2233

>  <SCORE.INTER.VDW>
-19.7148

>  <SCORE.INTER.norm>
-0.290794

>  <SCORE.INTRA>
-2.82138

>  <SCORE.INTRA.DIHEDRAL>
-3.05898

>  <SCORE.INTRA.DIHEDRAL.0>
9.09364

>  <SCORE.INTRA.POLAR>
0

>  <SCORE.INTRA.POLAR.0>
0

>  <SCORE.INTRA.REPUL>
0

>  <SCORE.INTRA.REPUL.0>
0

>  <SCORE.INTRA.SOLV>
-0.583544

>  <SCORE.INTRA.SOLV.lig_0>
-78.5846

>  <SCORE.INTRA.VDW>
-1.00012

>  <SCORE.INTRA.VDW.0>
-2.81163

>  <SCORE.INTRA.norm>
-0.108515

>  <SCORE.RESTR>
0

>  <SCORE.RESTR.CAVITY>
0

>  <SCORE.RESTR.norm>
0

>  <SCORE.SYSTEM>
0

>  <SCORE.SYSTEM.CONST>
0

>  <SCORE.SYSTEM.DIHEDRAL>
0

>  <SCORE.SYSTEM.SOLV>
0

>  <SCORE.SYSTEM.norm>
0

>  <SCORE.heavy>
26

>  <SCORE.norm>
-0.399309

>  <RMSD>
3.411

$$$$
ligand
 OpenBabel11021811463D
libRbt.so/2013.1/901 2013/11/27
 26 27  0  0  0  0  0  0  0  0999 V2000
   -7.1834  -40.0490   -0.2479 C   0  0  0  0  0  0  0  0  0  0  0  0
   -7.3827  -37.3455    6.9277 C   0  0  0  0  0  0  0  0  0  0  0  0
   -4.1926  -42.8563    8.0293 P   0  0  1  0  0  0  0  0  0  0  0  0
   -5.7174  -44.8513    6.9168 P   0  0  2  0  0  0  0  0  0  0  0  0
   -9.3865  -38.4620    4.8086 C   0  0  0  0  0  0  0  0  0  0  0  0
   -9.6623  -39.0727    2.3829 C   0  0  0  0  0  0  0  0  0  0  0  0
   -8.8161  -38.8925    3.4812 C   0  0  0  0  0  0  0  0  0  0  0  0
   -7.4365  -39.0718    3.3488 C   0  0  0  0  0  0  0  0  0  0  0  0
   -6.6435  -38.8850    4.3829 N   0  0  0  0  0  0  0  0  0  0  0  0
   -6.9146  -39.4724    2.1430 N   0  0  0  0  0  0  0  0  0  0  0  0
   -7.7563  -39.6338    1.0604 C   0  0  0  0  0  0  0  0  0  0  0  0
   -9.1217  -39.4516    1.1750 N   0  0  0  0  0  0  0  0  0  0  0  0
   -3.3764  -42.7839    9.2835 O   0  5  0  0  0  0  0  0  0  0  0  0
   -5.0196  -44.5654    5.6467 O   0  0  0  0  0  0  0  0  0  0  0  0
   -8.2098  -41.1568    7.2551 S   0  0  0  0  0  0  0  0  0  0  0  0
   -9.0181  -40.5573    6.0347 C   0  0  0  0  0  0  0  0  0  0  0  0
   -3.5160  -42.3938    6.7876 O   0  0  0  0  0  0  0  0  0  0  0  0
   -6.9981  -44.1272    7.0264 O   0  5  0  0  0  0  0  0  0  0  0  0
   -8.7611  -39.2274    5.8515 N   0  0  0  0  0  0  0  0  0  0  0  0
   -4.6586  -44.3685    7.9933 O   0  0  0  0  0  0  0  0  0  0  0  0
   -6.0985  -46.2712    7.1850 O   0  0  0  0  0  0  0  0  0  0  0  0
   -7.8925  -38.7477    6.7911 C   0  0  1  0  0  0  0  0  0  0  0  0
   -7.5186  -39.7636    7.6344 C   0  0  2  0  0  0  0  0  0  0  0  0
   -6.5813  -39.7742    8.8164 C   0  0  0  0  0  0  0  0  0  0  0  0
   -5.3259  -40.6114    8.5465 C   0  0  0  0  0  0  0  0  0  0  0  0
   -5.4765  -42.0091    8.3773 O   0  0  0  0  0  0  0  0  0  0  0  0
  1 11  1  0  0  0  0
  3 13  1  1  0  0  0
  3 17  2  0  0  0  0
  3 20  1  0  0  0  0
  3 26  1  0  0  0  0
  4 14  1  6  0  0  0
  4 18  1  0  0  0  0
  4 21  2  0  0  0  0
  4 20  1  0  0  0  0
  5 19  1  0  0  0  0
  5  7  1  0  0  0  0
  6  7  2  0  0  0  0
  6 12  1  0  0  0  0
  7  8  1  0  0  0  0
  8  9  1  0  0  0  0
  8 10  2  0  0  0  0
 10 11  1  0  0  0  0
 11 12  2  0  0  0  0
 15 23  1  0  0  0  0
 15 16  1  0  0  0  0
 16 19  1  0  0  0  0
 19 22  1  0  0  0  0
 22  2  1  6  0  0  0
 22 23  1  0  0  0  0
 23 24  1  6  0  0  0
 24 25  1  0  0  0  0
 25 26  1  0  0  0  0
M  CHG  2  13  -1  18  -1
M  END
>  <CHROM.1>
171.91447525,-70.99305958,137.43233588,60.98769413,66.45388468,-66.17201867
177.03593834,68.46229655,-6.66655790,-41.31999857,5.98363710,-2.80096460
-1.07970955,1.13618650

>  <Name>
ligand

>  <RI>
0

>  <Rbt.Current_Directory>
/home/itssahil/PROJECTS/Mol_Feturizer/New_Systems/rnas/3D2G

>  <Rbt.Executable>
rbdock ($Id: //depot/dev/client3/rdock/2013.1/src/exe/rbdock.cxx#4 $)

>  <Rbt.Library>
libRbt.so (2013.1, Build901 2013/11/27)

>  <Rbt.Parameter_File>
/export/apps/rDock/src/rDock_2013.1_src/data/scripts/dock_solv.prm

>  <Rbt.Receptor>
prm/pocket_docking_4.prm

>  <SCORE>
-12.3679

>  <SCORE.INTER>
-10.6505

>  <SCORE.INTER.CONST>
1

>  <SCORE.INTER.POLAR>
0

>  <SCORE.INTER.ROT>
8

>  <SCORE.INTER.SOLV>
8.86268

>  <SCORE.INTER.VDW>
-18.9879

>  <SCORE.INTER.norm>
-0.409636

>  <SCORE.INTRA>
-1.71739

>  <SCORE.INTRA.DIHEDRAL>
-3.69136

>  <SCORE.INTRA.DIHEDRAL.0>
9.09364

>  <SCORE.INTRA.POLAR>
0

>  <SCORE.INTRA.POLAR.0>
0

>  <SCORE.INTRA.REPUL>
0

>  <SCORE.INTRA.REPUL.0>
0

>  <SCORE.INTRA.SOLV>
2.07633

>  <SCORE.INTRA.SOLV.lig_0>
-78.5846

>  <SCORE.INTRA.VDW>
-0.909875

>  <SCORE.INTRA.VDW.0>
-2.81163

>  <SCORE.INTRA.norm>
-0.0660535

>  <SCORE.RESTR>
0

>  <SCORE.RESTR.CAVITY>
0

>  <SCORE.RESTR.norm>
0

>  <SCORE.SYSTEM>
0

>  <SCORE.SYSTEM.CONST>
0

>  <SCORE.SYSTEM.DIHEDRAL>
0

>  <SCORE.SYSTEM.SOLV>
0

>  <SCORE.SYSTEM.norm>
0

>  <SCORE.heavy>
26

>  <SCORE.norm>
-0.475689

>  <RMSD>
3.524

$$$$
ligand
 OpenBabel11021811463D
libRbt.so/2013.1/901 2013/11/27
 26 27  0  0  0  0  0  0  0  0999 V2000
   -6.5427  -40.2739   -0.1258 C   0  0  0  0  0  0  0  0  0  0  0  0
   -9.2485  -40.5317    6.1445 C   0  0  0  0  0  0  0  0  0  0  0  0
   -5.6617  -42.6220    8.8437 P   0  0  1  0  0  0  0  0  0  0  0  0
   -6.9925  -44.0896   10.7458 P   0  0  2  0  0  0  0  0  0  0  0  0
   -9.9787  -38.3390    4.0442 C   0  0  0  0  0  0  0  0  0  0  0  0
   -7.7550  -39.2130    3.2541 C   0  0  0  0  0  0  0  0  0  0  0  0
   -9.0665  -38.8347    2.9512 C   0  0  0  0  0  0  0  0  0  0  0  0
   -9.5525  -38.9486    1.6459 C   0  0  0  0  0  0  0  0  0  0  0  0
  -10.7934  -38.6057    1.3704 N   0  0  0  0  0  0  0  0  0  0  0  0
   -8.7214  -39.3917    0.6461 N   0  0  0  0  0  0  0  0  0  0  0  0
   -7.4324  -39.7767    0.9574 C   0  0  0  0  0  0  0  0  0  0  0  0
   -6.9413  -39.6773    2.2456 N   0  0  0  0  0  0  0  0  0  0  0  0
   -4.2352  -42.1860    8.7042 O   0  5  0  0  0  0  0  0  0  0  0  0
   -7.4308  -44.9284    9.6117 O   0  0  0  0  0  0  0  0  0  0  0  0
   -7.8544  -36.9553    6.9086 S   0  0  0  0  0  0  0  0  0  0  0  0
   -8.6706  -36.9115    5.5542 C   0  0  0  0  0  0  0  0  0  0  0  0
   -6.2348  -43.3484    7.6787 O   0  0  0  0  0  0  0  0  0  0  0  0
   -7.9921  -43.0648   11.1021 O   0  5  0  0  0  0  0  0  0  0  0  0
   -9.2029  -38.1294    5.2353 N   0  0  0  0  0  0  0  0  0  0  0  0
   -5.6507  -43.4545   10.1899 O   0  0  0  0  0  0  0  0  0  0  0  0
   -6.7248  -44.7785   12.0446 O   0  0  0  0  0  0  0  0  0  0  0  0
   -8.8673  -39.0828    6.1550 C   0  0  1  0  0  0  0  0  0  0  0  0
   -8.1039  -38.5187    7.1460 C   0  0  2  0  0  0  0  0  0  0  0  0
   -7.4930  -39.1194    8.3876 C   0  0  0  0  0  0  0  0  0  0  0  0
   -6.7335  -40.4159    8.0845 C   0  0  0  0  0  0  0  0  0  0  0  0
   -6.4262  -41.2801    9.1633 O   0  0  0  0  0  0  0  0  0  0  0  0
  1 11  1  0  0  0  0
  3 13  1  6  0  0  0
  3 17  2  0  0  0  0
  3 20  1  0  0  0  0
  3 26  1  0  0  0  0
  4 14  1  6  0  0  0
  4 18  1  0  0  0  0
  4 21  2  0  0  0  0
  4 20  1  0  0  0  0
  5 19  1  0  0  0  0
  5  7  1  0  0  0  0
  6  7  2  0  0  0  0
  6 12  1  0  0  0  0
  7  8  1  0  0  0  0
  8  9  1  0  0  0  0
  8 10  2  0  0  0  0
 10 11  1  0  0  0  0
 11 12  2  0  0  0  0
 15 23  1  0  0  0  0
 15 16  1  0  0  0  0
 16 19  1  0  0  0  0
 19 22  1  0  0  0  0
 22  2  1  1  0  0  0
 22 23  1  0  0  0  0
 23 24  1  1  0  0  0
 24 25  1  0  0  0  0
 25 26  1  0  0  0  0
M  CHG  2  13  -1  18  -1
M  END
>  <CHROM.1>
178.66275131,93.90046167,10.02693524,56.87796551,-131.71627884,-162.89542527
179.19419949,79.84188660,-7.52952332,-40.71195085,6.61720581,-2.21941298
-1.18047906,1.50667193

>  <Name>
ligand

>  <RI>
0

>  <Rbt.Current_Directory>
/home/itssahil/PROJECTS/Mol_Feturizer/New_Systems/rnas/3D2G

>  <Rbt.Executable>
rbdock ($Id: //depot/dev/client3/rdock/2013.1/src/exe/rbdock.cxx#4 $)

>  <Rbt.Library>
libRbt.so (2013.1, Build901 2013/11/27)

>  <Rbt.Parameter_File>
/export/apps/rDock/src/rDock_2013.1_src/data/scripts/dock_solv.prm

>  <Rbt.Receptor>
prm/pocket_docking_8.prm

>  <SCORE>
-18.3475

>  <SCORE.INTER>
-15.46

>  <SCORE.INTER.CONST>
1

>  <SCORE.INTER.POLAR>
0

>  <SCORE.INTER.ROT>
8

>  <SCORE.INTER.SOLV>
27.3662

>  <SCORE.INTER.VDW>
-28.3621

>  <SCORE.INTER.norm>
-0.594616

>  <SCORE.INTRA>
-2.88746

>  <SCORE.INTRA.DIHEDRAL>
-3.14004

>  <SCORE.INTRA.DIHEDRAL.0>
9.09364

>  <SCORE.INTRA.POLAR>
0

>  <SCORE.INTRA.POLAR.0>
0

>  <SCORE.INTRA.REPUL>
0

>  <SCORE.INTRA.REPUL.0>
0

>  <SCORE.INTRA.SOLV>
-2.94186

>  <SCORE.INTRA.SOLV.lig_0>
-78.5846

>  <SCORE.INTRA.VDW>
0.153488

>  <SCORE.INTRA.VDW.0>
-2.81163

>  <SCORE.INTRA.norm>
-0.111056

>  <SCORE.RESTR>
0

>  <SCORE.RESTR.CAVITY>
0

>  <SCORE.RESTR.norm>
0

>  <SCORE.SYSTEM>
0

>  <SCORE.SYSTEM.CONST>
0

>  <SCORE.SYSTEM.DIHEDRAL>
0

>  <SCORE.SYSTEM.SOLV>
0

>  <SCORE.SYSTEM.norm>
0

>  <SCORE.heavy>
26

>  <SCORE.norm>
-0.705673

>  <RMSD>
3.525

$$$$
ligand
 OpenBabel11021811463D
libRbt.so/2013.1/901 2013/11/27
 26 27  0  0  0  0  0  0  0  0999 V2000
   -6.4170  -40.3210   -0.0669 C   0  0  0  0  0  0  0  0  0  0  0  0
   -7.9326  -36.9385    5.6328 C   0  0  0  0  0  0  0  0  0  0  0  0
   -4.5827  -41.2243    7.8667 P   0  0  1  0  0  0  0  0  0  0  0  0
   -2.1438  -41.2020    9.1294 P   0  0  2  0  0  0  0  0  0  0  0  0
  -10.0622  -38.5181    3.9830 C   0  0  0  0  0  0  0  0  0  0  0  0
   -7.7780  -39.2942    3.2666 C   0  0  0  0  0  0  0  0  0  0  0  0
   -9.0957  -38.9786    2.9217 C   0  0  0  0  0  0  0  0  0  0  0  0
   -9.5365  -39.1235    1.6034 C   0  0  0  0  0  0  0  0  0  0  0  0
  -10.7828  -38.8400    1.2883 N   0  0  0  0  0  0  0  0  0  0  0  0
   -8.6561  -39.5347    0.6325 N   0  0  0  0  0  0  0  0  0  0  0  0
   -7.3609  -39.8579    0.9852 C   0  0  0  0  0  0  0  0  0  0  0  0
   -6.9139  -39.7274    2.2866 N   0  0  0  0  0  0  0  0  0  0  0  0
   -4.0641  -41.6029    6.5132 O   0  5  0  0  0  0  0  0  0  0  0  0
   -2.7849  -41.9657   10.2192 O   0  0  0  0  0  0  0  0  0  0  0  0
   -9.2768  -40.2002    7.3275 S   0  0  0  0  0  0  0  0  0  0  0  0
   -9.9902  -40.0153    5.9277 C   0  0  0  0  0  0  0  0  0  0  0  0
   -5.0832  -42.3459    8.7065 O   0  0  0  0  0  0  0  0  0  0  0  0
   -1.0977  -40.2886    9.6272 O   0  5  0  0  0  0  0  0  0  0  0  0
   -9.5521  -38.8996    5.2709 N   0  0  0  0  0  0  0  0  0  0  0  0
   -3.3738  -40.4237    8.5014 O   0  0  0  0  0  0  0  0  0  0  0  0
   -1.4438  -41.9829    8.0649 O   0  0  0  0  0  0  0  0  0  0  0  0
   -8.6296  -38.2108    6.0071 C   0  0  1  0  0  0  0  0  0  0  0  0
   -8.4022  -38.8663    7.1910 C   0  0  2  0  0  0  0  0  0  0  0  0
   -7.4801  -38.5426    8.3402 C   0  0  0  0  0  0  0  0  0  0  0  0
   -6.4897  -39.6788    8.6194 C   0  0  0  0  0  0  0  0  0  0  0  0
   -5.6977  -40.1557    7.5470 O   0  0  0  0  0  0  0  0  0  0  0  0
  1 11  1  0  0  0  0
  3 13  1  6  0  0  0
  3 17  2  0  0  0  0
  3 20  1  0  0  0  0
  3 26  1  0  0  0  0
  4 14  1  1  0  0  0
  4 18  1  0  0  0  0
  4 21  2  0  0  0  0
  4 20  1  0  0  0  0
  5 19  1  0  0  0  0
  5  7  1  0  0  0  0
  6  7  2  0  0  0  0
  6 12  1  0  0  0  0
  7  8  1  0  0  0  0
  8  9  1  0  0  0  0
  8 10  2  0  0  0  0
 10 11  1  0  0  0  0
 11 12  2  0  0  0  0
 15 23  1  0  0  0  0
 15 16  1  0  0  0  0
 16 19  1  0  0  0  0
 19 22  1  0  0  0  0
 22  2  1  6  0  0  0
 22 23  1  0  0  0  0
 23 24  1  6  0  0  0
 24 25  1  0  0  0  0
 25 26  1  0  0  0  0
M  CHG  2  13  -1  18  -1
M  END
>  <CHROM.1>
-79.85587380,-98.79233072,-18.73181674,-61.55683424,57.29176766,53.61234559
174.12571442,173.98898065,-6.37978254,-40.05971569,6.10517228,-2.37293497
-0.34177428,1.55510160

>  <Name>
ligand

>  <RI>
0

>  <Rbt.Current_Directory>
/home/itssahil/PROJECTS/Mol_Feturizer/New_Systems/rnas/3D2G

>  <Rbt.Executable>
rbdock ($Id: //depot/dev/client3/rdock/2013.1/src/exe/rbdock.cxx#4 $)

>  <Rbt.Library>
libRbt.so (2013.1, Build901 2013/11/27)

>  <Rbt.Parameter_File>
/export/apps/rDock/src/rDock_2013.1_src/data/scripts/dock_solv.prm

>  <Rbt.Receptor>
prm/pocket_docking_5.prm

>  <SCORE>
-19.1429

>  <SCORE.INTER>
-16.2935

>  <SCORE.INTER.CONST>
1

>  <SCORE.INTER.POLAR>
0

>  <SCORE.INTER.ROT>
8

>  <SCORE.INTER.SOLV>
22.8283

>  <SCORE.INTER.VDW>
-27.4051

>  <SCORE.INTER.norm>
-0.626671

>  <SCORE.INTRA>
-2.84947

>  <SCORE.INTRA.DIHEDRAL>
-2.88553

>  <SCORE.INTRA.DIHEDRAL.0>
9.09364

>  <SCORE.INTRA.POLAR>
0

>  <SCORE.INTRA.POLAR.0>
0

>  <SCORE.INTRA.REPUL>
0

>  <SCORE.INTRA.REPUL.0>
0

>  <SCORE.INTRA.SOLV>
-2.48666

>  <SCORE.INTRA.SOLV.lig_0>
-78.5846

>  <SCORE.INTRA.VDW>
-0.163378

>  <SCORE.INTRA.VDW.0>
-2.81163

>  <SCORE.INTRA.norm>
-0.109595

>  <SCORE.RESTR>
0

>  <SCORE.RESTR.CAVITY>
0

>  <SCORE.RESTR.norm>
0

>  <SCORE.SYSTEM>
0

>  <SCORE.SYSTEM.CONST>
0

>  <SCORE.SYSTEM.DIHEDRAL>
0

>  <SCORE.SYSTEM.SOLV>
0

>  <SCORE.SYSTEM.norm>
0

>  <SCORE.heavy>
26

>  <SCORE.norm>
-0.736266

>  <RMSD>
3.527

$$$$
ligand
 OpenBabel11021811463D
libRbt.so/2013.1/901 2013/11/27
 26 27  0  0  0  0  0  0  0  0999 V2000
  -12.6540  -37.7787    1.9431 C   0  0  0  0  0  0  0  0  0  0  0  0
   -6.5483  -42.6641    1.1589 C   0  0  0  0  0  0  0  0  0  0  0  0
   -5.5414  -46.5940    6.4121 P   0  0  1  0  0  0  0  0  0  0  0  0
   -6.9021  -46.1616    8.7583 P   0  0  2  0  0  0  0  0  0  0  0  0
   -7.4258  -40.0474    2.6202 C   0  0  0  0  0  0  0  0  0  0  0  0
   -9.5054  -38.9919    3.5659 C   0  0  0  0  0  0  0  0  0  0  0  0
   -8.8053  -39.4633    2.4512 C   0  0  0  0  0  0  0  0  0  0  0  0
   -9.3597  -39.3624    1.1723 C   0  0  0  0  0  0  0  0  0  0  0  0
   -8.6885  -39.7935    0.1251 N   0  0  0  0  0  0  0  0  0  0  0  0
  -10.6198  -38.8386    1.0160 N   0  0  0  0  0  0  0  0  0  0  0  0
  -11.2976  -38.3625    2.1207 C   0  0  0  0  0  0  0  0  0  0  0  0
  -10.7578  -38.4482    3.3902 N   0  0  0  0  0  0  0  0  0  0  0  0
   -4.7682  -45.4732    7.0369 O   0  5  0  0  0  0  0  0  0  0  0  0
   -8.0833  -46.8722    9.2889 O   0  0  0  0  0  0  0  0  0  0  0  0
   -8.0677  -43.1731    4.7296 S   0  0  0  0  0  0  0  0  0  0  0  0
   -8.0521  -41.6278    4.3919 C   0  0  0  0  0  0  0  0  0  0  0  0
   -4.7327  -47.6306    5.7157 O   0  0  0  0  0  0  0  0  0  0  0  0
   -7.2417  -44.8234    8.2382 O   0  5  0  0  0  0  0  0  0  0  0  0
   -7.5479  -41.3789    3.1461 N   0  0  0  0  0  0  0  0  0  0  0  0
   -6.4090  -47.1442    7.6162 O   0  0  0  0  0  0  0  0  0  0  0  0
   -5.7816  -45.8895    9.7088 O   0  0  0  0  0  0  0  0  0  0  0  0
   -7.1570  -42.5297    2.5214 C   0  0  1  0  0  0  0  0  0  0  0  0
   -7.4106  -43.6051    3.3352 C   0  0  2  0  0  0  0  0  0  0  0  0
   -7.1844  -45.0814    3.1236 C   0  0  0  0  0  0  0  0  0  0  0  0
   -6.1525  -45.6507    4.1038 C   0  0  0  0  0  0  0  0  0  0  0  0
   -6.5468  -45.8539    5.4484 O   0  0  0  0  0  0  0  0  0  0  0  0
  1 11  1  0  0  0  0
  3 13  1  1  0  0  0
  3 17  2  0  0  0  0
  3 20  1  0  0  0  0
  3 26  1  0  0  0  0
  4 14  1  1  0  0  0
  4 18  1  0  0  0  0
  4 21  2  0  0  0  0
  4 20  1  0  0  0  0
  5 19  1  0  0  0  0
  5  7  1  0  0  0  0
  6  7  2  0  0  0  0
  6 12  1  0  0  0  0
  7  8  1  0  0  0  0
  8  9  1  0  0  0  0
  8 10  2  0  0  0  0
 10 11  1  0  0  0  0
 11 12  2  0  0  0  0
 15 23  1  0  0  0  0
 15 16  1  0  0  0  0
 16 19  1  0  0  0  0
 19 22  1  0  0  0  0
 22  2  1  6  0  0  0
 22 23  1  0  0  0  0
 23 24  1  6  0  0  0
 24 25  1  0  0  0  0
 25 26  1  0  0  0  0
M  CHG  2  13  -1  18  -1
M  END
>  <CHROM.1>
31.58972177,-65.11422655,77.11084922,156.25014031,-65.15992483,74.97395419
172.98247748,92.36977376,-7.62108673,-43.29803643,4.77592208,2.15321076,0.82591363
-1.12036962

>  <Name>
ligand

>  <RI>
0

>  <Rbt.Current_Directory>
/home/itssahil/PROJECTS/Mol_Feturizer/New_Systems/rnas/3D2G

>  <Rbt.Executable>
rbdock ($Id: //depot/dev/client3/rdock/2013.1/src/exe/rbdock.cxx#4 $)

>  <Rbt.Library>
libRbt.so (2013.1, Build901 2013/11/27)

>  <Rbt.Parameter_File>
/export/apps/rDock/src/rDock_2013.1_src/data/scripts/dock_solv.prm

>  <Rbt.Receptor>
prm/pocket_docking_5.prm

>  <SCORE>
-21.6154

>  <SCORE.INTER>
-21.4038

>  <SCORE.INTER.CONST>
1

>  <SCORE.INTER.POLAR>
0

>  <SCORE.INTER.ROT>
8

>  <SCORE.INTER.SOLV>
16.755

>  <SCORE.INTER.VDW>
-28.7875

>  <SCORE.INTER.norm>
-0.823222

>  <SCORE.INTRA>
-0.212103

>  <SCORE.INTRA.DIHEDRAL>
-0.357719

>  <SCORE.INTRA.DIHEDRAL.0>
9.09364

>  <SCORE.INTRA.POLAR>
0

>  <SCORE.INTRA.POLAR.0>
0

>  <SCORE.INTRA.REPUL>
0

>  <SCORE.INTRA.REPUL.0>
0

>  <SCORE.INTRA.SOLV>
0.836952

>  <SCORE.INTRA.SOLV.lig_0>
-78.5846

>  <SCORE.INTRA.VDW>
-0.45172

>  <SCORE.INTRA.VDW.0>
-2.81163

>  <SCORE.INTRA.norm>
-0.00815782

>  <SCORE.RESTR>
0.000448142

>  <SCORE.RESTR.CAVITY>
0.000448142

>  <SCORE.RESTR.norm>
1.72362e-05

>  <SCORE.SYSTEM>
0

>  <SCORE.SYSTEM.CONST>
0

>  <SCORE.SYSTEM.DIHEDRAL>
0

>  <SCORE.SYSTEM.SOLV>
0

>  <SCORE.SYSTEM.norm>
0

>  <SCORE.heavy>
26

>  <SCORE.norm>
-0.831363

>  <RMSD>
3.543

$$$$
ligand
 OpenBabel11021811463D
libRbt.so/2013.1/901 2013/11/27
 26 27  0  0  0  0  0  0  0  0999 V2000
  -11.0191  -38.4263    1.3944 C   0  0  0  0  0  0  0  0  0  0  0  0
   -7.1576  -43.1367    4.2964 C   0  0  0  0  0  0  0  0  0  0  0  0
   -2.9853  -45.6588    5.9194 P   0  0  1  0  0  0  0  0  0  0  0  0
   -0.7257  -44.8348    7.2454 P   0  0  2  0  0  0  0  0  0  0  0  0
   -6.9529  -40.1191    5.0740 C   0  0  0  0  0  0  0  0  0  0  0  0
   -7.7427  -39.6499    2.7311 C   0  0  0  0  0  0  0  0  0  0  0  0
   -8.0117  -39.6621    4.1031 C   0  0  0  0  0  0  0  0  0  0  0  0
   -9.2709  -39.2893    4.5809 C   0  0  0  0  0  0  0  0  0  0  0  0
   -9.5229  -39.3183    5.8727 N   0  0  0  0  0  0  0  0  0  0  0  0
  -10.2350  -38.8642    3.6997 N   0  0  0  0  0  0  0  0  0  0  0  0
   -9.9650  -38.8693    2.3456 C   0  0  0  0  0  0  0  0  0  0  0  0
   -8.7268  -39.2436    1.8586 N   0  0  0  0  0  0  0  0  0  0  0  0
   -2.4268  -46.7856    5.1053 O   0  5  0  0  0  0  0  0  0  0  0  0
    0.3512  -43.9024    6.8547 O   0  0  0  0  0  0  0  0  0  0  0  0
   -3.8835  -41.3312    3.1396 S   0  0  0  0  0  0  0  0  0  0  0  0
   -4.7999  -40.2947    3.9066 C   0  0  0  0  0  0  0  0  0  0  0  0
   -3.6067  -46.0413    7.2160 O   0  0  0  0  0  0  0  0  0  0  0  0
   -0.2422  -46.2219    7.3813 O   0  5  0  0  0  0  0  0  0  0  0  0
   -5.9574  -40.8661    4.3559 N   0  0  0  0  0  0  0  0  0  0  0  0
   -1.7561  -44.6705    6.0520 O   0  0  0  0  0  0  0  0  0  0  0  0
   -1.4151  -44.5794    8.5464 O   0  0  0  0  0  0  0  0  0  0  0  0
   -6.0410  -42.1828    3.9999 C   0  0  1  0  0  0  0  0  0  0  0  0
   -4.9133  -42.5455    3.3072 C   0  0  2  0  0  0  0  0  0  0  0  0
   -4.5018  -43.8677    2.7088 C   0  0  0  0  0  0  0  0  0  0  0  0
   -3.5556  -44.6456    3.6303 C   0  0  0  0  0  0  0  0  0  0  0  0
   -4.0033  -44.9643    4.9353 O   0  0  0  0  0  0  0  0  0  0  0  0
  1 11  1  0  0  0  0
  3 13  1  6  0  0  0
  3 17  2  0  0  0  0
  3 20  1  0  0  0  0
  3 26  1  0  0  0  0
  4 14  1  6  0  0  0
  4 18  1  0  0  0  0
  4 21  2  0  0  0  0
  4 20  1  0  0  0  0
  5 19  1  0  0  0  0
  5  7  1  0  0  0  0
  6  7  2  0  0  0  0
  6 12  1  0  0  0  0
  7  8  1  0  0  0  0
  8  9  1  0  0  0  0
  8 10  2  0  0  0  0
 10 11  1  0  0  0  0
 11 12  2  0  0  0  0
 15 23  1  0  0  0  0
 15 16  1  0  0  0  0
 16 19  1  0  0  0  0
 19 22  1  0  0  0  0
 22  2  1  1  0  0  0
 22 23  1  0  0  0  0
 23 24  1  1  0  0  0
 24 25  1  0  0  0  0
 25 26  1  0  0  0  0
M  CHG  2  13  -1  18  -1
M  END
>  <CHROM.1>
-88.31613740,96.05232476,-17.94962020,170.25458332,81.88742533,58.08488756
-175.04683628,-49.37865971,-4.84094159,-42.66092616,4.81185091,-2.91007272
-0.71391838,1.39240017

>  <Name>
ligand

>  <RI>
0

>  <Rbt.Current_Directory>
/home/itssahil/PROJECTS/Mol_Feturizer/New_Systems/rnas/3D2G

>  <Rbt.Executable>
rbdock ($Id: //depot/dev/client3/rdock/2013.1/src/exe/rbdock.cxx#4 $)

>  <Rbt.Library>
libRbt.so (2013.1, Build901 2013/11/27)

>  <Rbt.Parameter_File>
/export/apps/rDock/src/rDock_2013.1_src/data/scripts/dock_solv.prm

>  <Rbt.Receptor>
prm/pocket_docking_7.prm

>  <SCORE>
-13.0692

>  <SCORE.INTER>
-10.519

>  <SCORE.INTER.CONST>
1

>  <SCORE.INTER.POLAR>
0

>  <SCORE.INTER.ROT>
8

>  <SCORE.INTER.SOLV>
10.4714

>  <SCORE.INTER.VDW>
-19.4365

>  <SCORE.INTER.norm>
-0.404578

>  <SCORE.INTRA>
-2.55017

>  <SCORE.INTRA.DIHEDRAL>
-3.06711

>  <SCORE.INTRA.DIHEDRAL.0>
9.09364

>  <SCORE.INTRA.POLAR>
0

>  <SCORE.INTRA.POLAR.0>
0

>  <SCORE.INTRA.REPUL>
0

>  <SCORE.INTRA.REPUL.0>
0

>  <SCORE.INTRA.SOLV>
-0.790311

>  <SCORE.INTRA.SOLV.lig_0>
-78.5846

>  <SCORE.INTRA.VDW>
-0.621463

>  <SCORE.INTRA.VDW.0>
-2.81163

>  <SCORE.INTRA.norm>
-0.0980836

>  <SCORE.RESTR>
0

>  <SCORE.RESTR.CAVITY>
0

>  <SCORE.RESTR.norm>
0

>  <SCORE.SYSTEM>
0

>  <SCORE.SYSTEM.CONST>
0

>  <SCORE.SYSTEM.DIHEDRAL>
0

>  <SCORE.SYSTEM.SOLV>
0

>  <SCORE.SYSTEM.norm>
0

>  <SCORE.heavy>
26

>  <SCORE.norm>
-0.502662

>  <RMSD>
3.595

$$$$
ligand
 OpenBabel11021811463D
libRbt.so/2013.1/901 2013/11/27
 26 27  0  0  0  0  0  0  0  0999 V2000
  -13.4437  -37.7752    2.2846 C   0  0  0  0  0  0  0  0  0  0  0  0
   -5.7913  -41.5291    1.8556 C   0  0  0  0  0  0  0  0  0  0  0  0
   -6.7877  -45.3975    6.7260 P   0  0  1  0  0  0  0  0  0  0  0  0
   -6.9881  -43.7730    8.9314 P   0  0  2  0  0  0  0  0  0  0  0  0
   -7.9245  -39.3366    2.4842 C   0  0  0  0  0  0  0  0  0  0  0  0
  -10.0650  -38.9787    1.2100 C   0  0  0  0  0  0  0  0  0  0  0  0
   -9.3704  -38.9145    2.4218 C   0  0  0  0  0  0  0  0  0  0  0  0
  -10.0180  -38.4972    3.5877 C   0  0  0  0  0  0  0  0  0  0  0  0
   -9.3626  -38.4544    4.7287 N   0  0  0  0  0  0  0  0  0  0  0  0
  -11.3329  -38.1038    3.5326 N   0  0  0  0  0  0  0  0  0  0  0  0
  -12.0146  -38.1842    2.3346 C   0  0  0  0  0  0  0  0  0  0  0  0
  -11.3889  -38.6032    1.1755 N   0  0  0  0  0  0  0  0  0  0  0  0
   -5.6511  -46.3157    7.0568 O   0  5  0  0  0  0  0  0  0  0  0  0
   -7.5861  -42.7050    8.1046 O   0  0  0  0  0  0  0  0  0  0  0  0
   -8.4017  -42.4788    4.6127 S   0  0  0  0  0  0  0  0  0  0  0  0
   -8.7128  -41.0186    4.0899 C   0  0  0  0  0  0  0  0  0  0  0  0
   -7.7626  -45.9069    5.7242 O   0  0  0  0  0  0  0  0  0  0  0  0
   -5.5231  -43.6396    9.0430 O   0  5  0  0  0  0  0  0  0  0  0  0
   -7.8457  -40.6286    3.1079 N   0  0  0  0  0  0  0  0  0  0  0  0
   -7.4154  -45.0809    8.1441 O   0  0  0  0  0  0  0  0  0  0  0  0
   -7.4362  -43.8709   10.3537 O   0  0  0  0  0  0  0  0  0  0  0  0
   -6.9105  -41.5909    2.8498 C   0  0  1  0  0  0  0  0  0  0  0  0
   -7.1388  -42.6820    3.6501 C   0  0  2  0  0  0  0  0  0  0  0  0
   -6.4164  -44.0023    3.7531 C   0  0  0  0  0  0  0  0  0  0  0  0
   -5.4843  -44.0537    4.9690 C   0  0  0  0  0  0  0  0  0  0  0  0
   -6.0670  -44.0746    6.2593 O   0  0  0  0  0  0  0  0  0  0  0  0
  1 11  1  0  0  0  0
  3 13  1  1  0  0  0
  3 17  2  0  0  0  0
  3 20  1  0  0  0  0
  3 26  1  0  0  0  0
  4 14  1  6  0  0  0
  4 18  1  0  0  0  0
  4 21  2  0  0  0  0
  4 20  1  0  0  0  0
  5 19  1  0  0  0  0
  5  7  1  0  0  0  0
  6  7  2  0  0  0  0
  6 12  1  0  0  0  0
  7  8  1  0  0  0  0
  8  9  1  0  0  0  0
  8 10  2  0  0  0  0
 10 11  1  0  0  0  0
 11 12  2  0  0  0  0
 15 23  1  0  0  0  0
 15 16  1  0  0  0  0
 16 19  1  0  0  0  0
 19 22  1  0  0  0  0
 22  2  1  6  0  0  0
 22 23  1  0  0  0  0
 23 24  1  6  0  0  0
 24 25  1  0  0  0  0
 25 26  1  0  0  0  0
M  CHG  2  13  -1  18  -1
M  END
>  <CHROM.1>
95.31511861,-33.07323760,-104.20575181,69.08412638,-78.81677701,68.51396852
72.22179052,75.74153707,-8.01686725,-42.15576085,5.12816805,2.25239928,0.79391353
-1.25435071

>  <Name>
ligand

>  <RI>
0

>  <Rbt.Current_Directory>
/home/itssahil/PROJECTS/Mol_Feturizer/New_Systems/rnas/3D2G

>  <Rbt.Executable>
rbdock ($Id: //depot/dev/client3/rdock/2013.1/src/exe/rbdock.cxx#4 $)

>  <Rbt.Library>
libRbt.so (2013.1, Build901 2013/11/27)

>  <Rbt.Parameter_File>
/export/apps/rDock/src/rDock_2013.1_src/data/scripts/dock_solv.prm

>  <Rbt.Receptor>
prm/pocket_docking_7.prm

>  <SCORE>
-22.4562

>  <SCORE.INTER>
-21.7057

>  <SCORE.INTER.CONST>
1

>  <SCORE.INTER.POLAR>
0

>  <SCORE.INTER.ROT>
8

>  <SCORE.INTER.SOLV>
14.5229

>  <SCORE.INTER.VDW>
-28.2448

>  <SCORE.INTER.norm>
-0.834836

>  <SCORE.INTRA>
-0.750498

>  <SCORE.INTRA.DIHEDRAL>
-0.949627

>  <SCORE.INTRA.DIHEDRAL.0>
9.09364

>  <SCORE.INTRA.POLAR>
0

>  <SCORE.INTRA.POLAR.0>
0

>  <SCORE.INTRA.REPUL>
0

>  <SCORE.INTRA.REPUL.0>
0

>  <SCORE.INTRA.SOLV>
0.247772

>  <SCORE.INTRA.SOLV.lig_0>
-78.5846

>  <SCORE.INTRA.VDW>
-0.399571

>  <SCORE.INTRA.VDW.0>
-2.81163

>  <SCORE.INTRA.norm>
-0.0288653

>  <SCORE.RESTR>
0

>  <SCORE.RESTR.CAVITY>
0

>  <SCORE.RESTR.norm>
0

>  <SCORE.SYSTEM>
0

>  <SCORE.SYSTEM.CONST>
0

>  <SCORE.SYSTEM.DIHEDRAL>
0

>  <SCORE.SYSTEM.SOLV>
0

>  <SCORE.SYSTEM.norm>
0

>  <SCORE.heavy>
26

>  <SCORE.norm>
-0.863701

>  <RMSD>
3.596

$$$$
ligand
 OpenBabel11021811463D
libRbt.so/2013.1/901 2013/11/27
 26 27  0  0  0  0  0  0  0  0999 V2000
  -13.3492  -37.8284    2.1916 C   0  0  0  0  0  0  0  0  0  0  0  0
   -6.1253  -41.6562    1.3081 C   0  0  0  0  0  0  0  0  0  0  0  0
   -3.1000  -44.0402    4.5518 P   0  0  1  0  0  0  0  0  0  0  0  0
   -1.6612  -46.2560    5.3023 P   0  0  2  0  0  0  0  0  0  0  0  0
   -7.8566  -39.4294    2.6483 C   0  0  0  0  0  0  0  0  0  0  0  0
   -9.9264  -39.0356    1.2719 C   0  0  0  0  0  0  0  0  0  0  0  0
   -9.2949  -38.9968    2.5188 C   0  0  0  0  0  0  0  0  0  0  0  0
   -9.9996  -38.5952    3.6569 C   0  0  0  0  0  0  0  0  0  0  0  0
   -9.4038  -38.5762    4.8307 N   0  0  0  0  0  0  0  0  0  0  0  0
  -11.3076  -38.1922    3.5409 N   0  0  0  0  0  0  0  0  0  0  0  0
  -11.9269  -38.2477    2.3081 C   0  0  0  0  0  0  0  0  0  0  0  0
  -11.2445  -38.6509    1.1757 N   0  0  0  0  0  0  0  0  0  0  0  0
   -3.6672  -43.9964    5.9377 O   0  5  0  0  0  0  0  0  0  0  0  0
   -1.6659  -47.6491    4.8113 O   0  0  0  0  0  0  0  0  0  0  0  0
   -8.3245  -42.8367    4.3226 S   0  0  0  0  0  0  0  0  0  0  0  0
   -8.5501  -41.2875    4.0959 C   0  0  0  0  0  0  0  0  0  0  0  0
   -1.9744  -43.1054    4.2819 O   0  0  0  0  0  0  0  0  0  0  0  0
   -2.0241  -46.1650    6.7294 O   0  5  0  0  0  0  0  0  0  0  0  0
   -7.8222  -40.8109    3.0418 N   0  0  0  0  0  0  0  0  0  0  0  0
   -2.7373  -45.5692    4.3624 O   0  0  0  0  0  0  0  0  0  0  0  0
   -0.3710  -45.5061    5.2247 O   0  0  0  0  0  0  0  0  0  0  0  0
   -7.0603  -41.7912    2.4709 C   0  0  1  0  0  0  0  0  0  0  0  0
   -7.2737  -42.9795    3.1233 C   0  0  2  0  0  0  0  0  0  0  0  0
   -6.7002  -44.3547    2.8878 C   0  0  0  0  0  0  0  0  0  0  0  0
   -5.4738  -44.6239    3.7671 C   0  0  0  0  0  0  0  0  0  0  0  0
   -4.3531  -43.7689    3.6335 O   0  0  0  0  0  0  0  0  0  0  0  0
  1 11  1  0  0  0  0
  3 13  1  1  0  0  0
  3 17  2  0  0  0  0
  3 20  1  0  0  0  0
  3 26  1  0  0  0  0
  4 14  1  6  0  0  0
  4 18  1  0  0  0  0
  4 21  2  0  0  0  0
  4 20  1  0  0  0  0
  5 19  1  0  0  0  0
  5  7  1  0  0  0  0
  6  7  2  0  0  0  0
  6 12  1  0  0  0  0
  7  8  1  0  0  0  0
  8  9  1  0  0  0  0
  8 10  2  0  0  0  0
 10 11  1  0  0  0  0
 11 12  2  0  0  0  0
 15 23  1  0  0  0  0
 15 16  1  0  0  0  0
 16 19  1  0  0  0  0
 19 22  1  0  0  0  0
 22  2  1  6  0  0  0
 22 23  1  0  0  0  0
 23 24  1  6  0  0  0
 24 25  1  0  0  0  0
 25 26  1  0  0  0  0
M  CHG  2  13  -1  18  -1
M  END
>  <CHROM.1>
-62.22456020,-50.07479351,-94.71141712,178.52696539,-86.07448836,-59.70338279
179.32842012,-56.09619993,-6.17570095,-42.51184090,3.81699959,2.50282895
0.29558873,-0.72195556

>  <Name>
ligand

>  <RI>
0

>  <Rbt.Current_Directory>
/home/itssahil/PROJECTS/Mol_Feturizer/New_Systems/rnas/3D2G

>  <Rbt.Executable>
rbdock ($Id: //depot/dev/client3/rdock/2013.1/src/exe/rbdock.cxx#4 $)

>  <Rbt.Library>
libRbt.so (2013.1, Build901 2013/11/27)

>  <Rbt.Parameter_File>
/export/apps/rDock/src/rDock_2013.1_src/data/scripts/dock_solv.prm

>  <Rbt.Receptor>
prm/pocket_docking_8.prm

>  <SCORE>
-20.1568

>  <SCORE.INTER>
-17.9186

>  <SCORE.INTER.CONST>
1

>  <SCORE.INTER.POLAR>
0

>  <SCORE.INTER.ROT>
8

>  <SCORE.INTER.SOLV>
11.4692

>  <SCORE.INTER.VDW>
-24.7021

>  <SCORE.INTER.norm>
-0.689175

>  <SCORE.INTRA>
-2.23828

>  <SCORE.INTRA.DIHEDRAL>
-4.13488

>  <SCORE.INTRA.DIHEDRAL.0>
9.09364

>  <SCORE.INTRA.POLAR>
0

>  <SCORE.INTRA.POLAR.0>
0

>  <SCORE.INTRA.REPUL>
0

>  <SCORE.INTRA.REPUL.0>
0

>  <SCORE.INTRA.SOLV>
0.969052

>  <SCORE.INTRA.SOLV.lig_0>
-78.5846

>  <SCORE.INTRA.VDW>
-0.655367

>  <SCORE.INTRA.VDW.0>
-2.81163

>  <SCORE.INTRA.norm>
-0.0860877

>  <SCORE.RESTR>
0

>  <SCORE.RESTR.CAVITY>
0

>  <SCORE.RESTR.norm>
0

>  <SCORE.SYSTEM>
0

>  <SCORE.SYSTEM.CONST>
0

>  <SCORE.SYSTEM.DIHEDRAL>
0

>  <SCORE.SYSTEM.SOLV>
0

>  <SCORE.SYSTEM.norm>
0

>  <SCORE.heavy>
26

>  <SCORE.norm>
-0.775263

>  <RMSD>
3.612

$$$$
ligand
 OpenBabel11021811463D
libRbt.so/2013.1/901 2013/11/27
 26 27  0  0  0  0  0  0  0  0999 V2000
   -7.4429  -40.0984    0.6311 C   0  0  0  0  0  0  0  0  0  0  0  0
   -8.6656  -40.9747    5.9304 C   0  0  0  0  0  0  0  0  0  0  0  0
   -5.1721  -44.3934    8.4196 P   0  0  1  0  0  0  0  0  0  0  0  0
   -6.8652  -46.5436    8.6492 P   0  0  2  0  0  0  0  0  0  0  0  0
   -8.8093  -37.8611    5.7367 C   0  0  0  0  0  0  0  0  0  0  0  0
   -9.4716  -38.8693    3.5281 C   0  0  0  0  0  0  0  0  0  0  0  0
   -8.4571  -38.4627    4.4000 C   0  0  0  0  0  0  0  0  0  0  0  0
   -7.1152  -38.5743    4.0259 C   0  0  0  0  0  0  0  0  0  0  0  0
   -6.1653  -38.1747    4.8451 N   0  0  0  0  0  0  0  0  0  0  0  0
   -6.7907  -39.1298    2.8123 N   0  0  0  0  0  0  0  0  0  0  0  0
   -7.7996  -39.5152    1.9520 C   0  0  0  0  0  0  0  0  0  0  0  0
   -9.1311  -39.4026    2.3056 N   0  0  0  0  0  0  0  0  0  0  0  0
   -4.0011  -45.2342    8.8274 O   0  5  0  0  0  0  0  0  0  0  0  0
   -5.6928  -47.3818    8.9729 O   0  0  0  0  0  0  0  0  0  0  0  0
   -6.8079  -39.0357    8.7776 S   0  0  0  0  0  0  0  0  0  0  0  0
   -7.4581  -37.9917    7.7828 C   0  0  0  0  0  0  0  0  0  0  0  0
   -5.3481  -44.1931    6.9559 O   0  0  0  0  0  0  0  0  0  0  0  0
   -7.1925  -46.5718    7.2110 O   0  5  0  0  0  0  0  0  0  0  0  0
   -8.1410  -38.6039    6.7693 N   0  0  0  0  0  0  0  0  0  0  0  0
   -6.3911  -45.1097    9.1309 O   0  0  0  0  0  0  0  0  0  0  0  0
   -8.1608  -46.8941    9.3061 O   0  0  0  0  0  0  0  0  0  0  0  0
   -8.0614  -39.9652    6.8581 C   0  0  1  0  0  0  0  0  0  0  0  0
   -7.3275  -40.3129    7.9642 C   0  0  2  0  0  0  0  0  0  0  0  0
   -6.9557  -41.6650    8.5202 C   0  0  0  0  0  0  0  0  0  0  0  0
   -5.4369  -41.8475    8.6193 C   0  0  0  0  0  0  0  0  0  0  0  0
   -4.9420  -43.0412    9.1980 O   0  0  0  0  0  0  0  0  0  0  0  0
  1 11  1  0  0  0  0
  3 13  1  1  0  0  0
  3 17  2  0  0  0  0
  3 20  1  0  0  0  0
  3 26  1  0  0  0  0
  4 14  1  1  0  0  0
  4 18  1  0  0  0  0
  4 21  2  0  0  0  0
  4 20  1  0  0  0  0
  5 19  1  0  0  0  0
  5  7  1  0  0  0  0
  6  7  2  0  0  0  0
  6 12  1  0  0  0  0
  7  8  1  0  0  0  0
  8  9  1  0  0  0  0
  8 10  2  0  0  0  0
 10 11  1  0  0  0  0
 11 12  2  0  0  0  0
 15 23  1  0  0  0  0
 15 16  1  0  0  0  0
 16 19  1  0  0  0  0
 19 22  1  0  0  0  0
 22  2  1  1  0  0  0
 22 23  1  0  0  0  0
 23 24  1  1  0  0  0
 24 25  1  0  0  0  0
 25 26  1  0  0  0  0
M  CHG  2  13  -1  18  -1
M  END
>  <CHROM.1>
-68.77919463,133.14429064,125.33574975,64.68360490,-58.97980905,176.37692702
67.56577147,150.65029654,-6.91107122,-41.95238089,6.82863933,2.55738793,-1.30837573
0.39050858

>  <Name>
ligand

>  <RI>
0

>  <Rbt.Current_Directory>
/home/itssahil/PROJECTS/Mol_Feturizer/New_Systems/rnas/3D2G

>  <Rbt.Executable>
rbdock ($Id: //depot/dev/client3/rdock/2013.1/src/exe/rbdock.cxx#4 $)

>  <Rbt.Library>
libRbt.so (2013.1, Build901 2013/11/27)

>  <Rbt.Parameter_File>
/export/apps/rDock/src/rDock_2013.1_src/data/scripts/dock_solv.prm

>  <Rbt.Receptor>
prm/pocket_docking_7.prm

>  <SCORE>
-12.8976

>  <SCORE.INTER>
-13.1419

>  <SCORE.INTER.CONST>
1

>  <SCORE.INTER.POLAR>
0

>  <SCORE.INTER.ROT>
8

>  <SCORE.INTER.SOLV>
20.0849

>  <SCORE.INTER.VDW>
-24.3896

>  <SCORE.INTER.norm>
-0.505457

>  <SCORE.INTRA>
0.24426

>  <SCORE.INTRA.DIHEDRAL>
-1.94284

>  <SCORE.INTRA.DIHEDRAL.0>
9.09364

>  <SCORE.INTRA.POLAR>
0

>  <SCORE.INTRA.POLAR.0>
0

>  <SCORE.INTRA.REPUL>
0

>  <SCORE.INTRA.REPUL.0>
0

>  <SCORE.INTRA.SOLV>
1.50417

>  <SCORE.INTRA.SOLV.lig_0>
-78.5846

>  <SCORE.INTRA.VDW>
0.463596

>  <SCORE.INTRA.VDW.0>
-2.81163

>  <SCORE.INTRA.norm>
0.00939461

>  <SCORE.RESTR>
0

>  <SCORE.RESTR.CAVITY>
0

>  <SCORE.RESTR.norm>
0

>  <SCORE.SYSTEM>
0

>  <SCORE.SYSTEM.CONST>
0

>  <SCORE.SYSTEM.DIHEDRAL>
0

>  <SCORE.SYSTEM.SOLV>
0

>  <SCORE.SYSTEM.norm>
0

>  <SCORE.heavy>
26

>  <SCORE.norm>
-0.496063

>  <RMSD>
3.617

$$$$
ligand
 OpenBabel11021811463D
libRbt.so/2013.1/901 2013/11/27
 26 27  0  0  0  0  0  0  0  0999 V2000
   -6.5588  -40.5874    0.3932 C   0  0  0  0  0  0  0  0  0  0  0  0
   -6.1922  -38.7563    6.0610 C   0  0  0  0  0  0  0  0  0  0  0  0
   -3.6849  -43.9698    9.6709 P   0  0  1  0  0  0  0  0  0  0  0  0
   -5.5458  -45.6845   10.7384 P   0  0  2  0  0  0  0  0  0  0  0  0
   -9.0217  -39.9710    5.5404 C   0  0  0  0  0  0  0  0  0  0  0  0
   -8.3027  -39.0324    3.3188 C   0  0  0  0  0  0  0  0  0  0  0  0
   -8.3887  -40.1294    4.1814 C   0  0  0  0  0  0  0  0  0  0  0  0
   -7.8568  -41.3667    3.8082 C   0  0  0  0  0  0  0  0  0  0  0  0
   -7.9268  -42.3916    4.6315 N   0  0  0  0  0  0  0  0  0  0  0  0
   -7.2872  -41.5166    2.5673 N   0  0  0  0  0  0  0  0  0  0  0  0
   -7.1939  -40.4241    1.7281 C   0  0  0  0  0  0  0  0  0  0  0  0
   -7.7081  -39.1925    2.0877 N   0  0  0  0  0  0  0  0  0  0  0  0
   -2.3952  -43.4224   10.2017 O   0  5  0  0  0  0  0  0  0  0  0  0
   -4.9161  -46.9804   10.4132 O   0  0  0  0  0  0  0  0  0  0  0  0
   -7.1944  -41.7241    8.4073 S   0  0  0  0  0  0  0  0  0  0  0  0
   -8.3829  -41.4369    7.4038 C   0  0  0  0  0  0  0  0  0  0  0  0
   -3.5809  -44.7918    8.4353 O   0  0  0  0  0  0  0  0  0  0  0  0
   -6.4496  -45.2183    9.6697 O   0  5  0  0  0  0  0  0  0  0  0  0
   -8.0913  -40.4188    6.5396 N   0  0  0  0  0  0  0  0  0  0  0  0
   -4.2862  -44.7387   10.9169 O   0  0  0  0  0  0  0  0  0  0  0  0
   -6.3991  -45.6253   11.9638 O   0  0  0  0  0  0  0  0  0  0  0  0
   -6.8562  -39.8880    6.7843 C   0  0  1  0  0  0  0  0  0  0  0  0
   -6.2638  -40.5591    7.8244 C   0  0  2  0  0  0  0  0  0  0  0  0
   -4.9142  -40.3833    8.4750 C   0  0  0  0  0  0  0  0  0  0  0  0
   -4.1383  -41.7030    8.5538 C   0  0  0  0  0  0  0  0  0  0  0  0
   -4.5769  -42.6838    9.4760 O   0  0  0  0  0  0  0  0  0  0  0  0
  1 11  1  0  0  0  0
  3 13  1  1  0  0  0
  3 17  2  0  0  0  0
  3 20  1  0  0  0  0
  3 26  1  0  0  0  0
  4 14  1  6  0  0  0
  4 18  1  0  0  0  0
  4 21  2  0  0  0  0
  4 20  1  0  0  0  0
  5 19  1  0  0  0  0
  5  7  1  0  0  0  0
  6  7  2  0  0  0  0
  6 12  1  0  0  0  0
  7  8  1  0  0  0  0
  8  9  1  0  0  0  0
  8 10  2  0  0  0  0
 10 11  1  0  0  0  0
 11 12  2  0  0  0  0
 15 23  1  0  0  0  0
 15 16  1  0  0  0  0
 16 19  1  0  0  0  0
 19 22  1  0  0  0  0
 22  2  1  6  0  0  0
 22 23  1  0  0  0  0
 23 24  1  6  0  0  0
 24 25  1  0  0  0  0
 25 26  1  0  0  0  0
M  CHG  2  13  -1  18  -1
M  END
>  <CHROM.1>
-169.68918399,-120.74525439,-125.20226868,89.02577534,51.25742985,-71.86759542
-173.24210823,62.34597046,-6.11430507,-42.37178797,7.40008488,-3.07548079
-1.23943555,0.66353009

>  <Name>
ligand

>  <RI>
0

>  <Rbt.Current_Directory>
/home/itssahil/PROJECTS/Mol_Feturizer/New_Systems/rnas/3D2G

>  <Rbt.Executable>
rbdock ($Id: //depot/dev/client3/rdock/2013.1/src/exe/rbdock.cxx#4 $)

>  <Rbt.Library>
libRbt.so (2013.1, Build901 2013/11/27)

>  <Rbt.Parameter_File>
/export/apps/rDock/src/rDock_2013.1_src/data/scripts/dock_solv.prm

>  <Rbt.Receptor>
prm/pocket_docking_4.prm

>  <SCORE>
-11.6742

>  <SCORE.INTER>
-10.4868

>  <SCORE.INTER.CONST>
1

>  <SCORE.INTER.POLAR>
0

>  <SCORE.INTER.ROT>
8

>  <SCORE.INTER.SOLV>
14.9016

>  <SCORE.INTER.VDW>
-20.8917

>  <SCORE.INTER.norm>
-0.403339

>  <SCORE.INTRA>
-1.18738

>  <SCORE.INTRA.DIHEDRAL>
-1.4522

>  <SCORE.INTRA.DIHEDRAL.0>
9.09364

>  <SCORE.INTRA.POLAR>
0

>  <SCORE.INTRA.POLAR.0>
0

>  <SCORE.INTRA.REPUL>
0

>  <SCORE.INTRA.REPUL.0>
0

>  <SCORE.INTRA.SOLV>
0.438357

>  <SCORE.INTRA.SOLV.lig_0>
-78.5846

>  <SCORE.INTRA.VDW>
-0.680459

>  <SCORE.INTRA.VDW.0>
-2.81163

>  <SCORE.INTRA.norm>
-0.0456686

>  <SCORE.RESTR>
0

>  <SCORE.RESTR.CAVITY>
0

>  <SCORE.RESTR.norm>
0

>  <SCORE.SYSTEM>
0

>  <SCORE.SYSTEM.CONST>
0

>  <SCORE.SYSTEM.DIHEDRAL>
0

>  <SCORE.SYSTEM.SOLV>
0

>  <SCORE.SYSTEM.norm>
0

>  <SCORE.heavy>
26

>  <SCORE.norm>
-0.449008

>  <RMSD>
3.654

$$$$
ligand
 OpenBabel11021811463D
libRbt.so/2013.1/901 2013/11/27
 26 27  0  0  0  0  0  0  0  0999 V2000
  -13.1763  -37.8243    2.0941 C   0  0  0  0  0  0  0  0  0  0  0  0
   -6.0703  -41.6023    1.4436 C   0  0  0  0  0  0  0  0  0  0  0  0
   -3.5394  -44.3019    5.0295 P   0  0  1  0  0  0  0  0  0  0  0  0
   -4.3963  -42.1230    6.4651 P   0  0  2  0  0  0  0  0  0  0  0  0
   -7.7714  -39.5151    3.0254 C   0  0  0  0  0  0  0  0  0  0  0  0
   -9.7058  -39.0851    1.4741 C   0  0  0  0  0  0  0  0  0  0  0  0
   -9.1856  -39.0589    2.7717 C   0  0  0  0  0  0  0  0  0  0  0  0
   -9.9809  -38.6481    3.8449 C   0  0  0  0  0  0  0  0  0  0  0  0
   -9.4902  -38.6410    5.0665 N   0  0  0  0  0  0  0  0  0  0  0  0
  -11.2671  -38.2238    3.6160 N   0  0  0  0  0  0  0  0  0  0  0  0
  -11.7767  -38.2668    2.3334 C   0  0  0  0  0  0  0  0  0  0  0  0
  -11.0041  -38.6789    1.2639 N   0  0  0  0  0  0  0  0  0  0  0  0
   -2.2995  -44.5069    4.2139 O   0  5  0  0  0  0  0  0  0  0  0  0
   -3.6839  -41.3005    7.4639 O   0  0  0  0  0  0  0  0  0  0  0  0
   -8.3448  -43.0899    4.2598 S   0  0  0  0  0  0  0  0  0  0  0  0
   -8.5310  -41.5194    4.2231 C   0  0  0  0  0  0  0  0  0  0  0  0
   -3.9585  -45.4536    5.8730 O   0  0  0  0  0  0  0  0  0  0  0  0
   -5.4409  -42.9658    7.0774 O   0  5  0  0  0  0  0  0  0  0  0  0
   -7.7752  -40.9349    3.2457 N   0  0  0  0  0  0  0  0  0  0  0  0
   -3.2187  -42.9817    5.8414 O   0  0  0  0  0  0  0  0  0  0  0  0
   -5.1259  -41.4022    5.3782 O   0  0  0  0  0  0  0  0  0  0  0  0
   -7.0270  -41.8562    2.5683 C   0  0  1  0  0  0  0  0  0  0  0  0
   -7.2783  -43.1100    3.0661 C   0  0  2  0  0  0  0  0  0  0  0  0
   -6.7329  -44.4596    2.6702 C   0  0  0  0  0  0  0  0  0  0  0  0
   -5.5615  -44.8894    3.5605 C   0  0  0  0  0  0  0  0  0  0  0  0
   -4.6238  -43.9047    3.9554 O   0  0  0  0  0  0  0  0  0  0  0  0
  1 11  1  0  0  0  0
  3 13  1  6  0  0  0
  3 17  2  0  0  0  0
  3 20  1  0  0  0  0
  3 26  1  0  0  0  0
  4 14  1  1  0  0  0
  4 18  1  0  0  0  0
  4 21  2  0  0  0  0
  4 20  1  0  0  0  0
  5 19  1  0  0  0  0
  5  7  1  0  0  0  0
  6  7  2  0  0  0  0
  6 12  1  0  0  0  0
  7  8  1  0  0  0  0
  8  9  1  0  0  0  0
  8 10  2  0  0  0  0
 10 11  1  0  0  0  0
 11 12  2  0  0  0  0
 15 23  1  0  0  0  0
 15 16  1  0  0  0  0
 16 19  1  0  0  0  0
 19 22  1  0  0  0  0
 22  2  1  6  0  0  0
 22 23  1  0  0  0  0
 23 24  1  6  0  0  0
 24 25  1  0  0  0  0
 25 26  1  0  0  0  0
M  CHG  2  13  -1  18  -1
M  END
>  <CHROM.1>
159.67784223,-56.57526410,-87.32995141,162.01461910,-83.88966289,-39.17597253
171.59415753,102.90322816,-6.82368025,-41.77699651,4.16211728,2.98165619
-0.67662115,0.81058962

>  <Name>
ligand

>  <RI>
0

>  <Rbt.Current_Directory>
/home/itssahil/PROJECTS/Mol_Feturizer/New_Systems/rnas/3D2G

>  <Rbt.Executable>
rbdock ($Id: //depot/dev/client3/rdock/2013.1/src/exe/rbdock.cxx#4 $)

>  <Rbt.Library>
libRbt.so (2013.1, Build901 2013/11/27)

>  <Rbt.Parameter_File>
/export/apps/rDock/src/rDock_2013.1_src/data/scripts/dock_solv.prm

>  <Rbt.Receptor>
prm/pocket_docking_8.prm

>  <SCORE>
-18.3391

>  <SCORE.INTER>
-16.5749

>  <SCORE.INTER.CONST>
1

>  <SCORE.INTER.POLAR>
0

>  <SCORE.INTER.ROT>
8

>  <SCORE.INTER.SOLV>
9.62442

>  <SCORE.INTER.VDW>
-23.1914

>  <SCORE.INTER.norm>
-0.637495

>  <SCORE.INTRA>
-1.76426

>  <SCORE.INTRA.DIHEDRAL>
0.0092066

>  <SCORE.INTRA.DIHEDRAL.0>
9.09364

>  <SCORE.INTRA.POLAR>
0

>  <SCORE.INTRA.POLAR.0>
0

>  <SCORE.INTRA.REPUL>
0

>  <SCORE.INTRA.REPUL.0>
0

>  <SCORE.INTRA.SOLV>
1.58281

>  <SCORE.INTRA.SOLV.lig_0>
-78.5846

>  <SCORE.INTRA.VDW>
-2.56027

>  <SCORE.INTRA.VDW.0>
-2.81163

>  <SCORE.INTRA.norm>
-0.0678561

>  <SCORE.RESTR>
0

>  <SCORE.RESTR.CAVITY>
0

>  <SCORE.RESTR.norm>
0

>  <SCORE.SYSTEM>
0

>  <SCORE.SYSTEM.CONST>
0

>  <SCORE.SYSTEM.DIHEDRAL>
0

>  <SCORE.SYSTEM.SOLV>
0

>  <SCORE.SYSTEM.norm>
0

>  <SCORE.heavy>
26

>  <SCORE.norm>
-0.705351

>  <RMSD>
3.659

$$$$
ligand
 OpenBabel11021811463D
libRbt.so/2013.1/901 2013/11/27
 26 27  0  0  0  0  0  0  0  0999 V2000
   -5.2922  -35.5594    4.6044 C   0  0  0  0  0  0  0  0  0  0  0  0
   -7.6624  -42.8525    4.8044 C   0  0  0  0  0  0  0  0  0  0  0  0
   -4.1832  -43.1614   10.5948 P   0  0  1  0  0  0  0  0  0  0  0  0
   -1.5443  -42.4771   10.2615 P   0  0  2  0  0  0  0  0  0  0  0  0
   -8.8625  -40.0052    5.2577 C   0  0  0  0  0  0  0  0  0  0  0  0
   -8.1721  -37.6425    5.7814 C   0  0  0  0  0  0  0  0  0  0  0  0
   -7.9367  -38.8289    5.0799 C   0  0  0  0  0  0  0  0  0  0  0  0
   -6.8248  -38.9467    4.2414 C   0  0  0  0  0  0  0  0  0  0  0  0
   -6.6000  -40.0719    3.5961 N   0  0  0  0  0  0  0  0  0  0  0  0
   -5.9842  -37.8739    4.0706 N   0  0  0  0  0  0  0  0  0  0  0  0
   -6.2166  -36.7115    4.7786 C   0  0  0  0  0  0  0  0  0  0  0  0
   -7.3075  -36.5840    5.6177 N   0  0  0  0  0  0  0  0  0  0  0  0
   -3.9532  -44.6244   10.8212 O   0  5  0  0  0  0  0  0  0  0  0  0
   -1.2509  -43.7514   10.9485 O   0  0  0  0  0  0  0  0  0  0  0  0
   -7.6408  -41.6008    8.5125 S   0  0  0  0  0  0  0  0  0  0  0  0
   -8.2771  -40.4806    7.5944 C   0  0  0  0  0  0  0  0  0  0  0  0
   -4.3104  -42.3277   11.8205 O   0  0  0  0  0  0  0  0  0  0  0  0
   -1.5403  -41.3288   11.1877 O   0  5  0  0  0  0  0  0  0  0  0  0
   -8.3322  -40.8611    6.2828 N   0  0  0  0  0  0  0  0  0  0  0  0
   -2.9808  -42.7527    9.6502 O   0  0  0  0  0  0  0  0  0  0  0  0
   -0.6077  -42.0511    9.1778 O   0  0  0  0  0  0  0  0  0  0  0  0
   -7.7941  -42.1031    6.0951 C   0  0  1  0  0  0  0  0  0  0  0  0
   -7.3735  -42.6100    7.2989 C   0  0  2  0  0  0  0  0  0  0  0  0
   -6.7303  -43.9295    7.6468 C   0  0  0  0  0  0  0  0  0  0  0  0
   -5.4211  -43.7435    8.4222 C   0  0  0  0  0  0  0  0  0  0  0  0
   -5.4788  -43.1282    9.6961 O   0  0  0  0  0  0  0  0  0  0  0  0
  1 11  1  0  0  0  0
  3 13  1  1  0  0  0
  3 17  2  0  0  0  0
  3 20  1  0  0  0  0
  3 26  1  0  0  0  0
  4 14  1  1  0  0  0
  4 18  1  0  0  0  0
  4 21  2  0  0  0  0
  4 20  1  0  0  0  0
  5 19  1  0  0  0  0
  5  7  1  0  0  0  0
  6  7  2  0  0  0  0
  6 12  1  0  0  0  0
  7  8  1  0  0  0  0
  8  9  1  0  0  0  0
  8 10  2  0  0  0  0
 10 11  1  0  0  0  0
 11 12  2  0  0  0  0
 15 23  1  0  0  0  0
 15 16  1  0  0  0  0
 16 19  1  0  0  0  0
 19 22  1  0  0  0  0
 22  2  1  1  0  0  0
 22 23  1  0  0  0  0
 23 24  1  1  0  0  0
 24 25  1  0  0  0  0
 25 26  1  0  0  0  0
M  CHG  2  13  -1  18  -1
M  END
>  <CHROM.1>
-80.34866107,67.93083512,-93.39654022,57.44068126,-54.18154349,63.28218261
169.62854500,-61.91484894,-5.40544739,-41.27315888,7.88334917,-2.22296695
0.43819993,2.55383381

>  <Name>
ligand

>  <RI>
0

>  <Rbt.Current_Directory>
/home/itssahil/PROJECTS/Mol_Feturizer/New_Systems/rnas/3D2G

>  <Rbt.Executable>
rbdock ($Id: //depot/dev/client3/rdock/2013.1/src/exe/rbdock.cxx#4 $)

>  <Rbt.Library>
libRbt.so (2013.1, Build901 2013/11/27)

>  <Rbt.Parameter_File>
/export/apps/rDock/src/rDock_2013.1_src/data/scripts/dock_solv.prm

>  <Rbt.Receptor>
prm/pocket_docking_4.prm

>  <SCORE>
-14.4439

>  <SCORE.INTER>
-12.9833

>  <SCORE.INTER.CONST>
1

>  <SCORE.INTER.POLAR>
0

>  <SCORE.INTER.ROT>
8

>  <SCORE.INTER.SOLV>
10.9289

>  <SCORE.INTER.VDW>
-21.2318

>  <SCORE.INTER.norm>
-0.499358

>  <SCORE.INTRA>
-1.46055

>  <SCORE.INTRA.DIHEDRAL>
-3.01224

>  <SCORE.INTRA.DIHEDRAL.0>
9.09364

>  <SCORE.INTRA.POLAR>
0

>  <SCORE.INTRA.POLAR.0>
0

>  <SCORE.INTRA.REPUL>
0

>  <SCORE.INTRA.REPUL.0>
0

>  <SCORE.INTRA.SOLV>
0.223237

>  <SCORE.INTRA.SOLV.lig_0>
-78.5846

>  <SCORE.INTRA.VDW>
-0.0660429

>  <SCORE.INTRA.VDW.0>
-2.81163

>  <SCORE.INTRA.norm>
-0.0561749

>  <SCORE.RESTR>
0

>  <SCORE.RESTR.CAVITY>
0

>  <SCORE.RESTR.norm>
0

>  <SCORE.SYSTEM>
0

>  <SCORE.SYSTEM.CONST>
0

>  <SCORE.SYSTEM.DIHEDRAL>
0

>  <SCORE.SYSTEM.SOLV>
0

>  <SCORE.SYSTEM.norm>
0

>  <SCORE.heavy>
26

>  <SCORE.norm>
-0.555533

>  <RMSD>
3.672

$$$$
ligand
 OpenBabel11021811463D
libRbt.so/2013.1/901 2013/11/27
 26 27  0  0  0  0  0  0  0  0999 V2000
   -6.3476  -40.4410   -0.1954 C   0  0  0  0  0  0  0  0  0  0  0  0
   -7.9203  -37.1157    5.4883 C   0  0  0  0  0  0  0  0  0  0  0  0
   -5.4367  -41.4404    9.6816 P   0  0  1  0  0  0  0  0  0  0  0  0
   -6.6515  -43.8865    9.3923 P   0  0  2  0  0  0  0  0  0  0  0  0
  -10.0902  -38.4094    3.6524 C   0  0  0  0  0  0  0  0  0  0  0  0
   -7.7940  -39.2395    3.0423 C   0  0  0  0  0  0  0  0  0  0  0  0
   -9.0980  -38.9300    2.6438 C   0  0  0  0  0  0  0  0  0  0  0  0
   -9.5019  -39.1360    1.3218 C   0  0  0  0  0  0  0  0  0  0  0  0
  -10.7357  -38.8577    0.9567 N   0  0  0  0  0  0  0  0  0  0  0  0
   -8.5980  -39.6021    0.3985 N   0  0  0  0  0  0  0  0  0  0  0  0
   -7.3167  -39.9185    0.8045 C   0  0  0  0  0  0  0  0  0  0  0  0
   -6.9063  -39.7278    2.1105 N   0  0  0  0  0  0  0  0  0  0  0  0
   -5.0621  -41.3743   11.1306 O   0  5  0  0  0  0  0  0  0  0  0  0
   -6.1960  -43.9048    7.9873 O   0  0  0  0  0  0  0  0  0  0  0  0
   -9.7197  -40.2534    6.9832 S   0  0  0  0  0  0  0  0  0  0  0  0
  -10.3121  -39.9554    5.5470 C   0  0  0  0  0  0  0  0  0  0  0  0
   -4.3737  -41.9207    8.7581 O   0  0  0  0  0  0  0  0  0  0  0  0
   -7.9473  -44.5692    9.5688 O   0  5  0  0  0  0  0  0  0  0  0  0
   -9.7129  -38.8777    4.9573 N   0  0  0  0  0  0  0  0  0  0  0  0
   -6.7441  -42.3324    9.6909 O   0  0  0  0  0  0  0  0  0  0  0  0
   -5.7727  -44.5439   10.4065 O   0  0  0  0  0  0  0  0  0  0  0  0
   -8.7740  -38.3133    5.7742 C   0  0  1  0  0  0  0  0  0  0  0  0
   -8.6995  -39.0202    6.9481 C   0  0  2  0  0  0  0  0  0  0  0  0
   -7.8284  -38.8292    8.1647 C   0  0  0  0  0  0  0  0  0  0  0  0
   -6.6011  -39.7473    8.1422 C   0  0  0  0  0  0  0  0  0  0  0  0
   -5.9095  -39.9711    9.3573 O   0  0  0  0  0  0  0  0  0  0  0  0
  1 11  1  0  0  0  0
  3 13  1  1  0  0  0
  3 17  2  0  0  0  0
  3 20  1  0  0  0  0
  3 26  1  0  0  0  0
  4 14  1  6  0  0  0
  4 18  1  0  0  0  0
  4 21  2  0  0  0  0
  4 20  1  0  0  0  0
  5 19  1  0  0  0  0
  5  7  1  0  0  0  0
  6  7  2  0  0  0  0
  6 12  1  0  0  0  0
  7  8  1  0  0  0  0
  8  9  1  0  0  0  0
  8 10  2  0  0  0  0
 10 11  1  0  0  0  0
 11 12  2  0  0  0  0
 15 23  1  0  0  0  0
 15 16  1  0  0  0  0
 16 19  1  0  0  0  0
 19 22  1  0  0  0  0
 22  2  1  6  0  0  0
 22 23  1  0  0  0  0
 23 24  1  6  0  0  0
 24 25  1  0  0  0  0
 25 26  1  0  0  0  0
M  CHG  2  13  -1  18  -1
M  END
>  <CHROM.1>
-96.63341420,-99.55197630,-26.03532390,-64.88307488,81.76866616,-162.01444821
137.42538509,-166.83385829,-7.55216142,-40.68127226,6.39755465,-2.12135574
-0.94977906,1.53583479

>  <Name>
ligand

>  <RI>
0

>  <Rbt.Current_Directory>
/home/itssahil/PROJECTS/Mol_Feturizer/New_Systems/rnas/3D2G

>  <Rbt.Executable>
rbdock ($Id: //depot/dev/client3/rdock/2013.1/src/exe/rbdock.cxx#4 $)

>  <Rbt.Library>
libRbt.so (2013.1, Build901 2013/11/27)

>  <Rbt.Parameter_File>
/export/apps/rDock/src/rDock_2013.1_src/data/scripts/dock_solv.prm

>  <Rbt.Receptor>
prm/pocket_docking_8.prm

>  <SCORE>
-16.9927

>  <SCORE.INTER>
-17.3326

>  <SCORE.INTER.CONST>
1

>  <SCORE.INTER.POLAR>
0

>  <SCORE.INTER.ROT>
8

>  <SCORE.INTER.SOLV>
22.7985

>  <SCORE.INTER.VDW>
-28.0879

>  <SCORE.INTER.norm>
-0.666638

>  <SCORE.INTRA>
0.339929

>  <SCORE.INTRA.DIHEDRAL>
4.32316

>  <SCORE.INTRA.DIHEDRAL.0>
9.09364

>  <SCORE.INTRA.POLAR>
0

>  <SCORE.INTRA.POLAR.0>
0

>  <SCORE.INTRA.REPUL>
0

>  <SCORE.INTRA.REPUL.0>
0

>  <SCORE.INTRA.SOLV>
-2.5045

>  <SCORE.INTRA.SOLV.lig_0>
-78.5846

>  <SCORE.INTRA.VDW>
-0.569402

>  <SCORE.INTRA.VDW.0>
-2.81163

>  <SCORE.INTRA.norm>
0.0130742

>  <SCORE.RESTR>
0

>  <SCORE.RESTR.CAVITY>
0

>  <SCORE.RESTR.norm>
0

>  <SCORE.SYSTEM>
0

>  <SCORE.SYSTEM.CONST>
0

>  <SCORE.SYSTEM.DIHEDRAL>
0

>  <SCORE.SYSTEM.SOLV>
0

>  <SCORE.SYSTEM.norm>
0

>  <SCORE.heavy>
26

>  <SCORE.norm>
-0.653564

>  <RMSD>
3.689

$$$$
ligand
 OpenBabel11021811463D
libRbt.so/2013.1/901 2013/11/27
 26 27  0  0  0  0  0  0  0  0999 V2000
  -13.1137  -37.6844    2.2557 C   0  0  0  0  0  0  0  0  0  0  0  0
   -6.4138  -42.0416    1.2157 C   0  0  0  0  0  0  0  0  0  0  0  0
   -5.8354  -45.9196    6.4009 P   0  0  1  0  0  0  0  0  0  0  0  0
   -7.0549  -45.6296    8.8446 P   0  0  2  0  0  0  0  0  0  0  0  0
   -7.7517  -39.6712    2.7466 C   0  0  0  0  0  0  0  0  0  0  0  0
   -9.7720  -39.1124    1.3541 C   0  0  0  0  0  0  0  0  0  0  0  0
   -9.1548  -39.1374    2.6084 C   0  0  0  0  0  0  0  0  0  0  0  0
   -9.8437  -38.7058    3.7451 C   0  0  0  0  0  0  0  0  0  0  0  0
   -9.2624  -38.7469    4.9256 N   0  0  0  0  0  0  0  0  0  0  0  0
  -11.1190  -38.2109    3.6213 N   0  0  0  0  0  0  0  0  0  0  0  0
  -11.7256  -38.2035    2.3809 C   0  0  0  0  0  0  0  0  0  0  0  0
  -11.0590  -38.6353    1.2496 N   0  0  0  0  0  0  0  0  0  0  0  0
   -4.5086  -45.5094    6.9628 O   0  5  0  0  0  0  0  0  0  0  0  0
   -5.6582  -45.7218    9.3161 O   0  0  0  0  0  0  0  0  0  0  0  0
   -8.3865  -43.0392    4.4453 S   0  0  0  0  0  0  0  0  0  0  0  0
   -8.4739  -41.4716    4.2520 C   0  0  0  0  0  0  0  0  0  0  0  0
   -6.0651  -47.3849    6.2838 O   0  0  0  0  0  0  0  0  0  0  0  0
   -7.7679  -46.9165    8.9537 O   0  5  0  0  0  0  0  0  0  0  0  0
   -7.8181  -41.0551    3.1274 N   0  0  0  0  0  0  0  0  0  0  0  0
   -6.8673  -45.1708    7.3388 O   0  0  0  0  0  0  0  0  0  0  0  0
   -7.9566  -44.6729    9.5552 O   0  0  0  0  0  0  0  0  0  0  0  0
   -7.2274  -42.0989    2.4725 C   0  0  1  0  0  0  0  0  0  0  0  0
   -7.4911  -43.2694    3.1384 C   0  0  2  0  0  0  0  0  0  0  0  0
   -7.0914  -44.6921    2.8354 C   0  0  0  0  0  0  0  0  0  0  0  0
   -6.9272  -45.5266    4.1106 C   0  0  0  0  0  0  0  0  0  0  0  0
   -5.8894  -45.1795    5.0093 O   0  0  0  0  0  0  0  0  0  0  0  0
  1 11  1  0  0  0  0
  3 13  1  1  0  0  0
  3 17  2  0  0  0  0
  3 20  1  0  0  0  0
  3 26  1  0  0  0  0
  4 14  1  1  0  0  0
  4 18  1  0  0  0  0
  4 21  2  0  0  0  0
  4 20  1  0  0  0  0
  5 19  1  0  0  0  0
  5  7  1  0  0  0  0
  6  7  2  0  0  0  0
  6 12  1  0  0  0  0
  7  8  1  0  0  0  0
  8  9  1  0  0  0  0
  8 10  2  0  0  0  0
 10 11  1  0  0  0  0
 11 12  2  0  0  0  0
 15 23  1  0  0  0  0
 15 16  1  0  0  0  0
 16 19  1  0  0  0  0
 19 22  1  0  0  0  0
 22  2  1  6  0  0  0
 22 23  1  0  0  0  0
 23 24  1  6  0  0  0
 24 25  1  0  0  0  0
 25 26  1  0  0  0  0
M  CHG  2  13  -1  18  -1
M  END
>  <CHROM.1>
-70.16226849,-57.07186023,-95.14548777,48.29299665,-31.24172197,-65.26728991
172.44688864,169.79291043,-7.88346232,-42.90659266,4.96877228,2.22548830
0.83811016,-1.15333603

>  <Name>
ligand

>  <RI>
0

>  <Rbt.Current_Directory>
/home/itssahil/PROJECTS/Mol_Feturizer/New_Systems/rnas/3D2G

>  <Rbt.Executable>
rbdock ($Id: //depot/dev/client3/rdock/2013.1/src/exe/rbdock.cxx#4 $)

>  <Rbt.Library>
libRbt.so (2013.1, Build901 2013/11/27)

>  <Rbt.Parameter_File>
/export/apps/rDock/src/rDock_2013.1_src/data/scripts/dock_solv.prm

>  <Rbt.Receptor>
prm/pocket_docking_6.prm

>  <SCORE>
-21.1709

>  <SCORE.INTER>
-20.0156

>  <SCORE.INTER.CONST>
1

>  <SCORE.INTER.POLAR>
0

>  <SCORE.INTER.ROT>
8

>  <SCORE.INTER.SOLV>
18.628

>  <SCORE.INTER.VDW>
-28.4864

>  <SCORE.INTER.norm>
-0.76983

>  <SCORE.INTRA>
-1.15528

>  <SCORE.INTRA.DIHEDRAL>
-3.28688

>  <SCORE.INTRA.DIHEDRAL.0>
9.09364

>  <SCORE.INTRA.POLAR>
0

>  <SCORE.INTRA.POLAR.0>
0

>  <SCORE.INTRA.REPUL>
0

>  <SCORE.INTRA.REPUL.0>
0

>  <SCORE.INTRA.SOLV>
-1.1438

>  <SCORE.INTRA.SOLV.lig_0>
-78.5846

>  <SCORE.INTRA.VDW>
1.06006

>  <SCORE.INTRA.VDW.0>
-2.81163

>  <SCORE.INTRA.norm>
-0.0444337

>  <SCORE.RESTR>
0

>  <SCORE.RESTR.CAVITY>
0

>  <SCORE.RESTR.norm>
0

>  <SCORE.SYSTEM>
0

>  <SCORE.SYSTEM.CONST>
0

>  <SCORE.SYSTEM.DIHEDRAL>
0

>  <SCORE.SYSTEM.SOLV>
0

>  <SCORE.SYSTEM.norm>
0

>  <SCORE.heavy>
26

>  <SCORE.norm>
-0.814264

>  <RMSD>
3.714

$$$$
ligand
 OpenBabel11021811463D
libRbt.so/2013.1/901 2013/11/27
 26 27  0  0  0  0  0  0  0  0999 V2000
   -5.9351  -40.7714   -0.5403 C   0  0  0  0  0  0  0  0  0  0  0  0
   -9.4122  -40.1586    6.8056 C   0  0  0  0  0  0  0  0  0  0  0  0
   -4.4952  -41.1751   10.2373 P   0  0  1  0  0  0  0  0  0  0  0  0
   -5.8218  -43.3850   11.1857 P   0  0  2  0  0  0  0  0  0  0  0  0
   -9.2230  -39.1230    3.8655 C   0  0  0  0  0  0  0  0  0  0  0  0
   -8.6739  -39.1236    1.4096 C   0  0  0  0  0  0  0  0  0  0  0  0
   -8.3719  -39.5637    2.7019 C   0  0  0  0  0  0  0  0  0  0  0  0
   -7.2613  -40.3807    2.9300 C   0  0  0  0  0  0  0  0  0  0  0  0
   -6.9732  -40.7785    4.1514 N   0  0  0  0  0  0  0  0  0  0  0  0
   -6.4888  -40.7909    1.8709 N   0  0  0  0  0  0  0  0  0  0  0  0
   -6.7863  -40.3396    0.6003 C   0  0  0  0  0  0  0  0  0  0  0  0
   -7.8766  -39.5243    0.3615 N   0  0  0  0  0  0  0  0  0  0  0  0
   -3.4464  -40.2929   10.8422 O   0  5  0  0  0  0  0  0  0  0  0  0
   -6.0510  -43.8834   12.5571 O   0  0  0  0  0  0  0  0  0  0  0  0
   -6.5303  -37.6017    6.1165 S   0  0  0  0  0  0  0  0  0  0  0  0
   -7.3253  -37.8563    4.7728 C   0  0  0  0  0  0  0  0  0  0  0  0
   -4.0965  -41.9044    9.0033 O   0  0  0  0  0  0  0  0  0  0  0  0
   -5.1562  -44.3864   10.3309 O   0  5  0  0  0  0  0  0  0  0  0  0
   -8.3619  -38.7301    4.9465 N   0  0  0  0  0  0  0  0  0  0  0  0
   -4.9121  -42.1125   11.4426 O   0  0  0  0  0  0  0  0  0  0  0  0
   -7.0239  -42.9938   10.3887 O   0  0  0  0  0  0  0  0  0  0  0  0
   -8.4275  -39.1850    6.2334 C   0  0  1  0  0  0  0  0  0  0  0  0
   -7.4326  -38.6041    6.9790 C   0  0  2  0  0  0  0  0  0  0  0  0
   -7.0754  -38.7497    8.4374 C   0  0  0  0  0  0  0  0  0  0  0  0
   -6.0480  -39.8635    8.6686 C   0  0  0  0  0  0  0  0  0  0  0  0
   -5.7086  -40.1953   10.0027 O   0  0  0  0  0  0  0  0  0  0  0  0
  1 11  1  0  0  0  0
  3 13  1  1  0  0  0
  3 17  2  0  0  0  0
  3 20  1  0  0  0  0
  3 26  1  0  0  0  0
  4 14  1  1  0  0  0
  4 18  1  0  0  0  0
  4 21  2  0  0  0  0
  4 20  1  0  0  0  0
  5 19  1  0  0  0  0
  5  7  1  0  0  0  0
  6  7  2  0  0  0  0
  6 12  1  0  0  0  0
  7  8  1  0  0  0  0
  8  9  1  0  0  0  0
  8 10  2  0  0  0  0
 10 11  1  0  0  0  0
 11 12  2  0  0  0  0
 15 23  1  0  0  0  0
 15 16  1  0  0  0  0
 16 19  1  0  0  0  0
 19 22  1  0  0  0  0
 22  2  1  1  0  0  0
 22 23  1  0  0  0  0
 23 24  1  1  0  0  0
 24 25  1  0  0  0  0
 25 26  1  0  0  0  0
M  CHG  2  13  -1  18  -1
M  END
>  <CHROM.1>
-168.98632761,50.30017173,-134.79063515,-175.44678838,-89.35750207,-174.40041989
-170.59574027,110.51534579,-6.51118097,-40.56662364,6.95160106,-2.33473810
-1.21436958,1.15107893

>  <Name>
ligand

>  <RI>
0

>  <Rbt.Current_Directory>
/home/itssahil/PROJECTS/Mol_Feturizer/New_Systems/rnas/3D2G

>  <Rbt.Executable>
rbdock ($Id: //depot/dev/client3/rdock/2013.1/src/exe/rbdock.cxx#4 $)

>  <Rbt.Library>
libRbt.so (2013.1, Build901 2013/11/27)

>  <Rbt.Parameter_File>
/export/apps/rDock/src/rDock_2013.1_src/data/scripts/dock_solv.prm

>  <Rbt.Receptor>
prm/pocket_docking_4.prm

>  <SCORE>
-15.5483

>  <SCORE.INTER>
-16.1874

>  <SCORE.INTER.CONST>
1

>  <SCORE.INTER.POLAR>
0

>  <SCORE.INTER.ROT>
8

>  <SCORE.INTER.SOLV>
8.03906

>  <SCORE.INTER.VDW>
-22.4046

>  <SCORE.INTER.norm>
-0.622591

>  <SCORE.INTRA>
0.634384

>  <SCORE.INTRA.DIHEDRAL>
-1.01289

>  <SCORE.INTRA.DIHEDRAL.0>
9.09364

>  <SCORE.INTRA.POLAR>
0

>  <SCORE.INTRA.POLAR.0>
0

>  <SCORE.INTRA.REPUL>
0

>  <SCORE.INTRA.REPUL.0>
0

>  <SCORE.INTRA.SOLV>
3.33133

>  <SCORE.INTRA.SOLV.lig_0>
-78.5846

>  <SCORE.INTRA.VDW>
-0.524838

>  <SCORE.INTRA.VDW.0>
-2.81163

>  <SCORE.INTRA.norm>
0.0243994

>  <SCORE.RESTR>
0.00470208

>  <SCORE.RESTR.CAVITY>
0.00470208

>  <SCORE.RESTR.norm>
0.000180849

>  <SCORE.SYSTEM>
0

>  <SCORE.SYSTEM.CONST>
0

>  <SCORE.SYSTEM.DIHEDRAL>
0

>  <SCORE.SYSTEM.SOLV>
0

>  <SCORE.SYSTEM.norm>
0

>  <SCORE.heavy>
26

>  <SCORE.norm>
-0.598011

>  <RMSD>
3.718

$$$$
ligand
 OpenBabel11021811463D
libRbt.so/2013.1/901 2013/11/27
 26 27  0  0  0  0  0  0  0  0999 V2000
   -5.6832  -35.3321    4.9866 C   0  0  0  0  0  0  0  0  0  0  0  0
   -6.5997  -43.5695    5.3644 C   0  0  0  0  0  0  0  0  0  0  0  0
   -4.2985  -42.0343    9.2756 P   0  0  1  0  0  0  0  0  0  0  0  0
   -1.5679  -42.1301    9.5544 P   0  0  2  0  0  0  0  0  0  0  0  0
   -7.6805  -40.7070    4.7396 C   0  0  0  0  0  0  0  0  0  0  0  0
   -5.8020  -39.0459    4.5262 C   0  0  0  0  0  0  0  0  0  0  0  0
   -7.1460  -39.2995    4.8164 C   0  0  0  0  0  0  0  0  0  0  0  0
   -8.0102  -38.2502    5.1410 C   0  0  0  0  0  0  0  0  0  0  0  0
   -9.2783  -38.4937    5.3975 N   0  0  0  0  0  0  0  0  0  0  0  0
   -7.5245  -36.9678    5.2202 N   0  0  0  0  0  0  0  0  0  0  0  0
   -6.1993  -36.7253    4.9180 C   0  0  0  0  0  0  0  0  0  0  0  0
   -5.3354  -37.7523    4.5871 N   0  0  0  0  0  0  0  0  0  0  0  0
   -5.3952  -41.5271   10.1612 O   0  5  0  0  0  0  0  0  0  0  0  0
   -1.4630  -41.4132    8.2672 O   0  0  0  0  0  0  0  0  0  0  0  0
   -7.7855  -41.5144    8.4770 S   0  0  0  0  0  0  0  0  0  0  0  0
   -7.9816  -40.6371    7.1754 C   0  0  0  0  0  0  0  0  0  0  0  0
   -4.3173  -41.5403    7.8724 O   0  0  0  0  0  0  0  0  0  0  0  0
   -1.4875  -43.5937    9.3873 O   0  5  0  0  0  0  0  0  0  0  0  0
   -7.6022  -41.3039    6.0442 N   0  0  0  0  0  0  0  0  0  0  0  0
   -2.9879  -41.6612   10.0807 O   0  0  0  0  0  0  0  0  0  0  0  0
   -0.5265  -41.8417   10.5866 O   0  0  0  0  0  0  0  0  0  0  0  0
   -7.1206  -42.5501    6.3311 C   0  0  1  0  0  0  0  0  0  0  0  0
   -7.1829  -42.7680    7.6845 C   0  0  2  0  0  0  0  0  0  0  0  0
   -6.7952  -43.9679    8.5126 C   0  0  0  0  0  0  0  0  0  0  0  0
   -5.2904  -44.2515    8.4436 C   0  0  0  0  0  0  0  0  0  0  0  0
   -4.4430  -43.6018    9.3734 O   0  0  0  0  0  0  0  0  0  0  0  0
  1 11  1  0  0  0  0
  3 13  1  1  0  0  0
  3 17  2  0  0  0  0
  3 20  1  0  0  0  0
  3 26  1  0  0  0  0
  4 14  1  6  0  0  0
  4 18  1  0  0  0  0
  4 21  2  0  0  0  0
  4 20  1  0  0  0  0
  5 19  1  0  0  0  0
  5  7  1  0  0  0  0
  6  7  2  0  0  0  0
  6 12  1  0  0  0  0
  7  8  1  0  0  0  0
  8  9  1  0  0  0  0
  8 10  2  0  0  0  0
 10 11  1  0  0  0  0
 11 12  2  0  0  0  0
 15 23  1  0  0  0  0
 15 16  1  0  0  0  0
 16 19  1  0  0  0  0
 19 22  1  0  0  0  0
 22  2  1  6  0  0  0
 22 23  1  0  0  0  0
 23 24  1  6  0  0  0
 24 25  1  0  0  0  0
 25 26  1  0  0  0  0
M  CHG  2  13  -1  18  -1
M  END
>  <CHROM.1>
174.88275696,44.47661697,93.52241735,63.62613900,-116.42365772,88.04022789
-66.22091790,89.73659144,-5.34015866,-41.06061383,7.53547856,-2.29128317
0.37207670,2.63636534

>  <Name>
ligand

>  <RI>
0

>  <Rbt.Current_Directory>
/home/itssahil/PROJECTS/Mol_Feturizer/New_Systems/rnas/3D2G

>  <Rbt.Executable>
rbdock ($Id: //depot/dev/client3/rdock/2013.1/src/exe/rbdock.cxx#4 $)

>  <Rbt.Library>
libRbt.so (2013.1, Build901 2013/11/27)

>  <Rbt.Parameter_File>
/export/apps/rDock/src/rDock_2013.1_src/data/scripts/dock_solv.prm

>  <Rbt.Receptor>
prm/pocket_docking_5.prm

>  <SCORE>
-10.2067

>  <SCORE.INTER>
-8.73909

>  <SCORE.INTER.CONST>
1

>  <SCORE.INTER.POLAR>
0

>  <SCORE.INTER.ROT>
8

>  <SCORE.INTER.SOLV>
10.9533

>  <SCORE.INTER.VDW>
-18.4105

>  <SCORE.INTER.norm>
-0.336119

>  <SCORE.INTRA>
-1.46756

>  <SCORE.INTRA.DIHEDRAL>
-0.809177

>  <SCORE.INTRA.DIHEDRAL.0>
9.09364

>  <SCORE.INTRA.POLAR>
0

>  <SCORE.INTRA.POLAR.0>
0

>  <SCORE.INTRA.REPUL>
0

>  <SCORE.INTRA.REPUL.0>
0

>  <SCORE.INTRA.SOLV>
1.89934

>  <SCORE.INTRA.SOLV.lig_0>
-78.5846

>  <SCORE.INTRA.VDW>
-2.01265

>  <SCORE.INTRA.VDW.0>
-2.81163

>  <SCORE.INTRA.norm>
-0.0564448

>  <SCORE.RESTR>
0

>  <SCORE.RESTR.CAVITY>
0

>  <SCORE.RESTR.norm>
0

>  <SCORE.SYSTEM>
0

>  <SCORE.SYSTEM.CONST>
0

>  <SCORE.SYSTEM.DIHEDRAL>
0

>  <SCORE.SYSTEM.SOLV>
0

>  <SCORE.SYSTEM.norm>
0

>  <SCORE.heavy>
26

>  <SCORE.norm>
-0.392564

>  <RMSD>
3.725

$$$$
ligand
 OpenBabel11021811463D
libRbt.so/2013.1/901 2013/11/27
 26 27  0  0  0  0  0  0  0  0999 V2000
   -5.9086  -40.6697   -0.5286 C   0  0  0  0  0  0  0  0  0  0  0  0
   -9.4933  -40.0227    6.9604 C   0  0  0  0  0  0  0  0  0  0  0  0
   -4.8017  -40.8720   10.5788 P   0  0  1  0  0  0  0  0  0  0  0  0
   -5.2347  -43.5042   11.2325 P   0  0  2  0  0  0  0  0  0  0  0  0
   -9.2418  -39.2899    3.9352 C   0  0  0  0  0  0  0  0  0  0  0  0
   -8.6913  -39.1757    1.4822 C   0  0  0  0  0  0  0  0  0  0  0  0
   -8.3786  -39.6601    2.7560 C   0  0  0  0  0  0  0  0  0  0  0  0
   -7.2469  -40.4561    2.9525 C   0  0  0  0  0  0  0  0  0  0  0  0
   -6.9491  -40.8957    4.1571 N   0  0  0  0  0  0  0  0  0  0  0  0
   -6.4632  -40.8022    1.8788 N   0  0  0  0  0  0  0  0  0  0  0  0
   -6.7716  -40.3074    0.6272 C   0  0  0  0  0  0  0  0  0  0  0  0
   -7.8830  -39.5122    0.4200 N   0  0  0  0  0  0  0  0  0  0  0  0
   -4.3904  -40.5517   11.9833 O   0  5  0  0  0  0  0  0  0  0  0  0
   -4.8013  -43.2234   12.6163 O   0  0  0  0  0  0  0  0  0  0  0  0
   -6.5845  -37.5589    6.0739 S   0  0  0  0  0  0  0  0  0  0  0  0
   -7.3549  -37.9449    4.7473 C   0  0  0  0  0  0  0  0  0  0  0  0
   -3.6926  -41.1218    9.6192 O   0  0  0  0  0  0  0  0  0  0  0  0
   -4.1246  -43.9781   10.3842 O   0  5  0  0  0  0  0  0  0  0  0  0
   -8.3995  -38.7930    4.9878 N   0  0  0  0  0  0  0  0  0  0  0  0
   -5.7896  -42.0944   10.7659 O   0  0  0  0  0  0  0  0  0  0  0  0
   -6.2862  -44.5488   11.0421 O   0  0  0  0  0  0  0  0  0  0  0  0
   -8.4924  -39.1154    6.3125 C   0  0  1  0  0  0  0  0  0  0  0  0
   -7.5088  -38.4658    7.0151 C   0  0  2  0  0  0  0  0  0  0  0  0
   -7.1806  -38.4647    8.4875 C   0  0  0  0  0  0  0  0  0  0  0  0
   -6.2714  -39.6367    8.8742 C   0  0  0  0  0  0  0  0  0  0  0  0
   -5.6986  -39.6411   10.1691 O   0  0  0  0  0  0  0  0  0  0  0  0
  1 11  1  0  0  0  0
  3 13  1  1  0  0  0
  3 17  2  0  0  0  0
  3 20  1  0  0  0  0
  3 26  1  0  0  0  0
  4 14  1  1  0  0  0
  4 18  1  0  0  0  0
  4 21  2  0  0  0  0
  4 20  1  0  0  0  0
  5 19  1  0  0  0  0
  5  7  1  0  0  0  0
  6  7  2  0  0  0  0
  6 12  1  0  0  0  0
  7  8  1  0  0  0  0
  8  9  1  0  0  0  0
  8 10  2  0  0  0  0
 10 11  1  0  0  0  0
 11 12  2  0  0  0  0
 15 23  1  0  0  0  0
 15 16  1  0  0  0  0
 16 19  1  0  0  0  0
 19 22  1  0  0  0  0
 22  2  1  1  0  0  0
 22 23  1  0  0  0  0
 23 24  1  1  0  0  0
 24 25  1  0  0  0  0
 25 26  1  0  0  0  0
M  CHG  2  13  -1  18  -1
M  END
>  <CHROM.1>
-69.46121785,42.00797221,-129.15006331,67.41222055,-94.92499658,169.57513792
178.05065348,-179.34063997,-6.45109610,-40.51437566,7.08242062,-2.29094432
-1.15856750,1.19433348

>  <Name>
ligand

>  <RI>
0

>  <Rbt.Current_Directory>
/home/itssahil/PROJECTS/Mol_Feturizer/New_Systems/rnas/3D2G

>  <Rbt.Executable>
rbdock ($Id: //depot/dev/client3/rdock/2013.1/src/exe/rbdock.cxx#4 $)

>  <Rbt.Library>
libRbt.so (2013.1, Build901 2013/11/27)

>  <Rbt.Parameter_File>
/export/apps/rDock/src/rDock_2013.1_src/data/scripts/dock_solv.prm

>  <Rbt.Receptor>
prm/pocket_docking_4.prm

>  <SCORE>
-17.5265

>  <SCORE.INTER>
-15.9425

>  <SCORE.INTER.CONST>
1

>  <SCORE.INTER.POLAR>
0

>  <SCORE.INTER.ROT>
8

>  <SCORE.INTER.SOLV>
8.43494

>  <SCORE.INTER.VDW>
-22.3733

>  <SCORE.INTER.norm>
-0.613172

>  <SCORE.INTRA>
-1.58406

>  <SCORE.INTRA.DIHEDRAL>
-3.49087

>  <SCORE.INTRA.DIHEDRAL.0>
9.09364

>  <SCORE.INTRA.POLAR>
0

>  <SCORE.INTRA.POLAR.0>
0

>  <SCORE.INTRA.REPUL>
0

>  <SCORE.INTRA.REPUL.0>
0

>  <SCORE.INTRA.SOLV>
1.30713

>  <SCORE.INTRA.SOLV.lig_0>
-78.5846

>  <SCORE.INTRA.VDW>
-0.492191

>  <SCORE.INTRA.VDW.0>
-2.81163

>  <SCORE.INTRA.norm>
-0.0609254

>  <SCORE.RESTR>
0

>  <SCORE.RESTR.CAVITY>
0

>  <SCORE.RESTR.norm>
0

>  <SCORE.SYSTEM>
0

>  <SCORE.SYSTEM.CONST>
0

>  <SCORE.SYSTEM.DIHEDRAL>
0

>  <SCORE.SYSTEM.SOLV>
0

>  <SCORE.SYSTEM.norm>
0

>  <SCORE.heavy>
26

>  <SCORE.norm>
-0.674098

>  <RMSD>
3.731

$$$$
ligand
 OpenBabel11021811463D
libRbt.so/2013.1/901 2013/11/27
 26 27  0  0  0  0  0  0  0  0999 V2000
  -10.9957  -38.6790    1.6085 C   0  0  0  0  0  0  0  0  0  0  0  0
   -5.2103  -41.2582    6.5243 C   0  0  0  0  0  0  0  0  0  0  0  0
   -0.8406  -44.5332    7.1248 P   0  0  1  0  0  0  0  0  0  0  0  0
    0.0697  -47.0945    6.7319 P   0  0  2  0  0  0  0  0  0  0  0  0
   -5.9971  -39.1136    4.3950 C   0  0  0  0  0  0  0  0  0  0  0  0
   -7.3443  -39.1772    2.2703 C   0  0  0  0  0  0  0  0  0  0  0  0
   -7.3043  -38.9869    3.6549 C   0  0  0  0  0  0  0  0  0  0  0  0
   -8.4764  -38.7169    4.3665 C   0  0  0  0  0  0  0  0  0  0  0  0
   -8.4343  -38.5546    5.6723 N   0  0  0  0  0  0  0  0  0  0  0  0
   -9.6677  -38.5923    3.6941 N   0  0  0  0  0  0  0  0  0  0  0  0
   -9.6997  -38.7962    2.3289 C   0  0  0  0  0  0  0  0  0  0  0  0
   -8.5496  -39.0722    1.6137 N   0  0  0  0  0  0  0  0  0  0  0  0
   -1.2942  -43.7862    8.3416 O   0  5  0  0  0  0  0  0  0  0  0  0
   -0.8306  -46.9578    5.5689 O   0  0  0  0  0  0  0  0  0  0  0  0
   -4.5753  -42.2873    2.8021 S   0  0  0  0  0  0  0  0  0  0  0  0
   -5.1964  -40.8329    2.8356 C   0  0  0  0  0  0  0  0  0  0  0  0
    0.2405  -43.8873    6.3327 O   0  0  0  0  0  0  0  0  0  0  0  0
   -0.0071  -48.4347    7.3438 O   0  5  0  0  0  0  0  0  0  0  0  0
   -5.4276  -40.4020    4.1119 N   0  0  0  0  0  0  0  0  0  0  0  0
   -0.4643  -45.9588    7.7004 O   0  0  0  0  0  0  0  0  0  0  0  0
    1.5327  -46.9067    6.4920 O   0  0  0  0  0  0  0  0  0  0  0  0
   -5.0905  -41.3527    5.0338 C   0  0  1  0  0  0  0  0  0  0  0  0
   -4.5953  -42.4607    4.3934 C   0  0  2  0  0  0  0  0  0  0  0  0
   -4.0746  -43.7680    4.9371 C   0  0  0  0  0  0  0  0  0  0  0  0
   -2.7792  -43.5827    5.7355 C   0  0  0  0  0  0  0  0  0  0  0  0
   -2.1694  -44.7300    6.2983 O   0  0  0  0  0  0  0  0  0  0  0  0
  1 11  1  0  0  0  0
  3 13  1  1  0  0  0
  3 17  2  0  0  0  0
  3 20  1  0  0  0  0
  3 26  1  0  0  0  0
  4 14  1  6  0  0  0
  4 18  1  0  0  0  0
  4 21  2  0  0  0  0
  4 20  1  0  0  0  0
  5 19  1  0  0  0  0
  5  7  1  0  0  0  0
  6  7  2  0  0  0  0
  6 12  1  0  0  0  0
  7  8  1  0  0  0  0
  8  9  1  0  0  0  0
  8 10  2  0  0  0  0
 10 11  1  0  0  0  0
 11 12  2  0  0  0  0
 15 23  1  0  0  0  0
 15 16  1  0  0  0  0
 16 19  1  0  0  0  0
 19 22  1  0  0  0  0
 22  2  1  1  0  0  0
 22 23  1  0  0  0  0
 23 24  1  1  0  0  0
 24 25  1  0  0  0  0
 25 26  1  0  0  0  0
M  CHG  2  13  -1  18  -1
M  END
>  <CHROM.1>
179.73872354,55.17002853,-55.30383191,-42.80768956,113.17618714,-179.53733034
-179.70390334,68.04178832,-3.98000961,-42.70249902,5.09767825,-3.13704200
-0.77588647,1.09181803

>  <Name>
ligand

>  <RI>
0

>  <Rbt.Current_Directory>
/home/itssahil/PROJECTS/Mol_Feturizer/New_Systems/rnas/3D2G

>  <Rbt.Executable>
rbdock ($Id: //depot/dev/client3/rdock/2013.1/src/exe/rbdock.cxx#4 $)

>  <Rbt.Library>
libRbt.so (2013.1, Build901 2013/11/27)

>  <Rbt.Parameter_File>
/export/apps/rDock/src/rDock_2013.1_src/data/scripts/dock_solv.prm

>  <Rbt.Receptor>
prm/pocket_docking_6.prm

>  <SCORE>
-15.4229

>  <SCORE.INTER>
-12.3963

>  <SCORE.INTER.CONST>
1

>  <SCORE.INTER.POLAR>
0

>  <SCORE.INTER.ROT>
8

>  <SCORE.INTER.SOLV>
16.7834

>  <SCORE.INTER.VDW>
-22.792

>  <SCORE.INTER.norm>
-0.476781

>  <SCORE.INTRA>
-3.02659

>  <SCORE.INTRA.DIHEDRAL>
-3.82169

>  <SCORE.INTRA.DIHEDRAL.0>
9.09364

>  <SCORE.INTRA.POLAR>
0

>  <SCORE.INTRA.POLAR.0>
0

>  <SCORE.INTRA.REPUL>
0

>  <SCORE.INTRA.REPUL.0>
0

>  <SCORE.INTRA.SOLV>
-3.0947

>  <SCORE.INTRA.SOLV.lig_0>
-78.5846

>  <SCORE.INTRA.VDW>
0.431606

>  <SCORE.INTRA.VDW.0>
-2.81163

>  <SCORE.INTRA.norm>
-0.116407

>  <SCORE.RESTR>
0

>  <SCORE.RESTR.CAVITY>
0

>  <SCORE.RESTR.norm>
0

>  <SCORE.SYSTEM>
0

>  <SCORE.SYSTEM.CONST>
0

>  <SCORE.SYSTEM.DIHEDRAL>
0

>  <SCORE.SYSTEM.SOLV>
0

>  <SCORE.SYSTEM.norm>
0

>  <SCORE.heavy>
26

>  <SCORE.norm>
-0.593188

>  <RMSD>
3.738

$$$$
ligand
 OpenBabel11021811463D
libRbt.so/2013.1/901 2013/11/27
 26 27  0  0  0  0  0  0  0  0999 V2000
   -6.4612  -40.3623   -0.0819 C   0  0  0  0  0  0  0  0  0  0  0  0
   -7.8122  -37.1396    5.6126 C   0  0  0  0  0  0  0  0  0  0  0  0
   -4.6883  -41.4094    7.2856 P   0  0  1  0  0  0  0  0  0  0  0  0
   -3.4154  -42.9931    5.4379 P   0  0  2  0  0  0  0  0  0  0  0  0
  -10.0845  -38.5081    3.9645 C   0  0  0  0  0  0  0  0  0  0  0  0
   -7.8055  -39.2980    3.2466 C   0  0  0  0  0  0  0  0  0  0  0  0
   -9.1237  -38.9821    2.9039 C   0  0  0  0  0  0  0  0  0  0  0  0
   -9.5703  -39.1391    1.5890 C   0  0  0  0  0  0  0  0  0  0  0  0
  -10.8172  -38.8552    1.2762 N   0  0  0  0  0  0  0  0  0  0  0  0
   -8.6952  -39.5626    0.6187 N   0  0  0  0  0  0  0  0  0  0  0  0
   -7.3994  -39.8858    0.9693 C   0  0  0  0  0  0  0  0  0  0  0  0
   -6.9466  -39.7434    2.2675 N   0  0  0  0  0  0  0  0  0  0  0  0
   -5.5691  -42.5741    7.6205 O   0  5  0  0  0  0  0  0  0  0  0  0
   -2.1811  -42.7742    6.2192 O   0  0  0  0  0  0  0  0  0  0  0  0
   -9.4458  -40.2712    7.2985 S   0  0  0  0  0  0  0  0  0  0  0  0
  -10.1440  -40.0147    5.9024 C   0  0  0  0  0  0  0  0  0  0  0  0
   -3.5477  -41.1718    8.2108 O   0  0  0  0  0  0  0  0  0  0  0  0
   -3.1479  -43.1121    3.9920 O   0  5  0  0  0  0  0  0  0  0  0  0
   -9.6072  -38.9411    5.2487 N   0  0  0  0  0  0  0  0  0  0  0  0
   -4.2640  -41.7010    5.7889 O   0  0  0  0  0  0  0  0  0  0  0  0
   -4.2125  -44.2194    5.7446 O   0  0  0  0  0  0  0  0  0  0  0  0
   -8.6224  -38.3439    5.9842 C   0  0  1  0  0  0  0  0  0  0  0  0
   -8.4523  -39.0231    7.1643 C   0  0  2  0  0  0  0  0  0  0  0  0
   -7.5001  -38.7913    8.3112 C   0  0  0  0  0  0  0  0  0  0  0  0
   -6.4285  -39.8840    8.3978 C   0  0  0  0  0  0  0  0  0  0  0  0
   -5.6922  -40.1943    7.2288 O   0  0  0  0  0  0  0  0  0  0  0  0
  1 11  1  0  0  0  0
  3 13  1  1  0  0  0
  3 17  2  0  0  0  0
  3 20  1  0  0  0  0
  3 26  1  0  0  0  0
  4 14  1  1  0  0  0
  4 18  1  0  0  0  0
  4 21  2  0  0  0  0
  4 20  1  0  0  0  0
  5 19  1  0  0  0  0
  5  7  1  0  0  0  0
  6  7  2  0  0  0  0
  6 12  1  0  0  0  0
  7  8  1  0  0  0  0
  8  9  1  0  0  0  0
  8 10  2  0  0  0  0
 10 11  1  0  0  0  0
 11 12  2  0  0  0  0
 15 23  1  0  0  0  0
 15 16  1  0  0  0  0
 16 19  1  0  0  0  0
 19 22  1  0  0  0  0
 22  2  1  6  0  0  0
 22 23  1  0  0  0  0
 23 24  1  6  0  0  0
 24 25  1  0  0  0  0
 25 26  1  0  0  0  0
M  CHG  2  13  -1  18  -1
M  END
>  <CHROM.1>
-62.94082779,-102.09963046,-21.82252657,-61.06236005,69.19542876,51.33178458
-174.32160637,59.99660548,-6.69997961,-40.51531699,5.22002250,-2.65213427
-0.57691987,1.52000717

>  <Name>
ligand

>  <RI>
0

>  <Rbt.Current_Directory>
/home/itssahil/PROJECTS/Mol_Feturizer/New_Systems/rnas/3D2G

>  <Rbt.Executable>
rbdock ($Id: //depot/dev/client3/rdock/2013.1/src/exe/rbdock.cxx#4 $)

>  <Rbt.Library>
libRbt.so (2013.1, Build901 2013/11/27)

>  <Rbt.Parameter_File>
/export/apps/rDock/src/rDock_2013.1_src/data/scripts/dock_solv.prm

>  <Rbt.Receptor>
prm/pocket_docking_5.prm

>  <SCORE>
-18.6453

>  <SCORE.INTER>
-15.6731

>  <SCORE.INTER.CONST>
1

>  <SCORE.INTER.POLAR>
0

>  <SCORE.INTER.ROT>
8

>  <SCORE.INTER.SOLV>
21.74

>  <SCORE.INTER.VDW>
-26.6287

>  <SCORE.INTER.norm>
-0.602811

>  <SCORE.INTRA>
-2.97217

>  <SCORE.INTRA.DIHEDRAL>
-3.25942

>  <SCORE.INTRA.DIHEDRAL.0>
9.09364

>  <SCORE.INTRA.POLAR>
0

>  <SCORE.INTRA.POLAR.0>
0

>  <SCORE.INTRA.REPUL>
0

>  <SCORE.INTRA.REPUL.0>
0

>  <SCORE.INTRA.SOLV>
-2.07358

>  <SCORE.INTRA.SOLV.lig_0>
-78.5846

>  <SCORE.INTRA.VDW>
-0.305666

>  <SCORE.INTRA.VDW.0>
-2.81163

>  <SCORE.INTRA.norm>
-0.114314

>  <SCORE.RESTR>
0

>  <SCORE.RESTR.CAVITY>
0

>  <SCORE.RESTR.norm>
0

>  <SCORE.SYSTEM>
0

>  <SCORE.SYSTEM.CONST>
0

>  <SCORE.SYSTEM.DIHEDRAL>
0

>  <SCORE.SYSTEM.SOLV>
0

>  <SCORE.SYSTEM.norm>
0

>  <SCORE.heavy>
26

>  <SCORE.norm>
-0.717126

>  <RMSD>
3.741

$$$$
ligand
 OpenBabel11021811463D
libRbt.so/2013.1/901 2013/11/27
 26 27  0  0  0  0  0  0  0  0999 V2000
  -13.5274  -37.6835    2.0744 C   0  0  0  0  0  0  0  0  0  0  0  0
   -6.1711  -38.2584    4.9499 C   0  0  0  0  0  0  0  0  0  0  0  0
   -5.3438  -42.8576    5.9831 P   0  0  1  0  0  0  0  0  0  0  0  0
   -6.8628  -44.5363    4.4282 P   0  0  2  0  0  0  0  0  0  0  0  0
   -8.0900  -39.3874    2.7600 C   0  0  0  0  0  0  0  0  0  0  0  0
  -10.1594  -39.1490    1.3480 C   0  0  0  0  0  0  0  0  0  0  0  0
   -9.5135  -38.9297    2.5685 C   0  0  0  0  0  0  0  0  0  0  0  0
  -10.1911  -38.3217    3.6288 C   0  0  0  0  0  0  0  0  0  0  0  0
   -9.5822  -38.1326    4.7806 N   0  0  0  0  0  0  0  0  0  0  0  0
  -11.4853  -37.8958    3.4548 N   0  0  0  0  0  0  0  0  0  0  0  0
  -12.1196  -38.1296    2.2509 C   0  0  0  0  0  0  0  0  0  0  0  0
  -11.4642  -38.7374    1.1966 N   0  0  0  0  0  0  0  0  0  0  0  0
   -4.1848  -43.8050    6.0431 O   0  5  0  0  0  0  0  0  0  0  0  0
   -5.6286  -45.3243    4.2341 O   0  0  0  0  0  0  0  0  0  0  0  0
   -8.3387  -41.3266    6.0478 S   0  0  0  0  0  0  0  0  0  0  0  0
   -8.6834  -40.9629    4.5474 C   0  0  0  0  0  0  0  0  0  0  0  0
   -5.2556  -41.7895    4.9512 O   0  0  0  0  0  0  0  0  0  0  0  0
   -7.0861  -43.5693    3.3367 O   0  5  0  0  0  0  0  0  0  0  0  0
   -7.9456  -39.9062    4.0921 N   0  0  0  0  0  0  0  0  0  0  0  0
   -6.5865  -43.8236    5.8170 O   0  0  0  0  0  0  0  0  0  0  0  0
   -8.1527  -45.2879    4.4942 O   0  0  0  0  0  0  0  0  0  0  0  0
   -7.1185  -39.4137    5.0620 C   0  0  1  0  0  0  0  0  0  0  0  0
   -7.2644  -40.1509    6.2102 C   0  0  2  0  0  0  0  0  0  0  0  0
   -6.5856  -40.0367    7.5525 C   0  0  0  0  0  0  0  0  0  0  0  0
   -5.3103  -40.8842    7.6251 C   0  0  0  0  0  0  0  0  0  0  0  0
   -5.4258  -42.2845    7.4501 O   0  0  0  0  0  0  0  0  0  0  0  0
  1 11  1  0  0  0  0
  3 13  1  6  0  0  0
  3 17  2  0  0  0  0
  3 20  1  0  0  0  0
  3 26  1  0  0  0  0
  4 14  1  6  0  0  0
  4 18  1  0  0  0  0
  4 21  2  0  0  0  0
  4 20  1  0  0  0  0
  5 19  1  0  0  0  0
  5  7  1  0  0  0  0
  6  7  2  0  0  0  0
  6 12  1  0  0  0  0
  7  8  1  0  0  0  0
  8  9  1  0  0  0  0
  8 10  2  0  0  0  0
 10 11  1  0  0  0  0
 11 12  2  0  0  0  0
 15 23  1  0  0  0  0
 15 16  1  0  0  0  0
 16 19  1  0  0  0  0
 19 22  1  0  0  0  0
 22  2  1  6  0  0  0
 22 23  1  0  0  0  0
 23 24  1  6  0  0  0
 24 25  1  0  0  0  0
 25 26  1  0  0  0  0
M  CHG  2  13  -1  18  -1
M  END
>  <CHROM.1>
-74.28828444,59.63572898,-141.08330217,60.03770132,89.25756477,-60.78035456
88.35661853,121.45898432,-7.76383420,-41.18349418,4.66672088,2.65429305,-0.72488416
0.36862590

>  <Name>
ligand

>  <RI>
0

>  <Rbt.Current_Directory>
/home/itssahil/PROJECTS/Mol_Feturizer/New_Systems/rnas/3D2G

>  <Rbt.Executable>
rbdock ($Id: //depot/dev/client3/rdock/2013.1/src/exe/rbdock.cxx#4 $)

>  <Rbt.Library>
libRbt.so (2013.1, Build901 2013/11/27)

>  <Rbt.Parameter_File>
/export/apps/rDock/src/rDock_2013.1_src/data/scripts/dock_solv.prm

>  <Rbt.Receptor>
prm/pocket_docking_6.prm

>  <SCORE>
-17.3533

>  <SCORE.INTER>
-18.5751

>  <SCORE.INTER.CONST>
1

>  <SCORE.INTER.POLAR>
0

>  <SCORE.INTER.ROT>
8

>  <SCORE.INTER.SOLV>
10.8547

>  <SCORE.INTER.VDW>
-24.935

>  <SCORE.INTER.norm>
-0.714426

>  <SCORE.INTRA>
1.22177

>  <SCORE.INTRA.DIHEDRAL>
1.59673

>  <SCORE.INTRA.DIHEDRAL.0>
9.09364

>  <SCORE.INTRA.POLAR>
0

>  <SCORE.INTRA.POLAR.0>
0

>  <SCORE.INTRA.REPUL>
0

>  <SCORE.INTRA.REPUL.0>
0

>  <SCORE.INTRA.SOLV>
6.44257

>  <SCORE.INTRA.SOLV.lig_0>
-78.5846

>  <SCORE.INTRA.VDW>
-2.79788

>  <SCORE.INTRA.VDW.0>
-2.81163

>  <SCORE.INTRA.norm>
0.046991

>  <SCORE.RESTR>
0

>  <SCORE.RESTR.CAVITY>
0

>  <SCORE.RESTR.norm>
0

>  <SCORE.SYSTEM>
0

>  <SCORE.SYSTEM.CONST>
0

>  <SCORE.SYSTEM.DIHEDRAL>
0

>  <SCORE.SYSTEM.SOLV>
0

>  <SCORE.SYSTEM.norm>
0

>  <SCORE.heavy>
26

>  <SCORE.norm>
-0.667435

>  <RMSD>
3.743

$$$$
ligand
 OpenBabel11021811463D
libRbt.so/2013.1/901 2013/11/27
 26 27  0  0  0  0  0  0  0  0999 V2000
   -6.3867  -40.7259    0.3857 C   0  0  0  0  0  0  0  0  0  0  0  0
   -7.6482  -37.8445    5.2439 C   0  0  0  0  0  0  0  0  0  0  0  0
   -5.3374  -42.2153    8.5735 P   0  0  1  0  0  0  0  0  0  0  0  0
   -7.0451  -44.0586    9.6819 P   0  0  2  0  0  0  0  0  0  0  0  0
  -10.3177  -39.1231    4.2481 C   0  0  0  0  0  0  0  0  0  0  0  0
   -9.2074  -38.8701    2.0038 C   0  0  0  0  0  0  0  0  0  0  0  0
   -9.2969  -39.5481    3.2234 C   0  0  0  0  0  0  0  0  0  0  0  0
   -8.4195  -40.5955    3.5171 C   0  0  0  0  0  0  0  0  0  0  0  0
   -8.4985  -41.2192    4.6737 N   0  0  0  0  0  0  0  0  0  0  0  0
   -7.4939  -40.9907    2.5823 N   0  0  0  0  0  0  0  0  0  0  0  0
   -7.4035  -40.3060    1.3866 C   0  0  0  0  0  0  0  0  0  0  0  0
   -8.2592  -39.2628    1.0865 N   0  0  0  0  0  0  0  0  0  0  0  0
   -4.7735  -42.1860    9.9611 O   0  5  0  0  0  0  0  0  0  0  0  0
   -7.7944  -45.1673    9.0565 O   0  0  0  0  0  0  0  0  0  0  0  0
   -9.5441  -40.0245    7.8841 S   0  0  0  0  0  0  0  0  0  0  0  0
  -10.3697  -40.0159    6.5348 C   0  0  0  0  0  0  0  0  0  0  0  0
   -4.3636  -41.9842    7.4726 O   0  0  0  0  0  0  0  0  0  0  0  0
   -7.9299  -42.9608   10.1160 O   0  5  0  0  0  0  0  0  0  0  0  0
   -9.7525  -39.2841    5.5592 N   0  0  0  0  0  0  0  0  0  0  0  0
   -6.0677  -43.6182    8.5142 O   0  0  0  0  0  0  0  0  0  0  0  0
   -6.2546  -44.3727   10.9105 O   0  0  0  0  0  0  0  0  0  0  0  0
   -8.5920  -38.7204    6.0098 C   0  0  1  0  0  0  0  0  0  0  0  0
   -8.3821  -39.0804    7.3173 C   0  0  2  0  0  0  0  0  0  0  0  0
   -7.2598  -38.7453    8.2680 C   0  0  0  0  0  0  0  0  0  0  0  0
   -6.1502  -39.8025    8.2421 C   0  0  0  0  0  0  0  0  0  0  0  0
   -6.4786  -41.1276    8.6180 O   0  0  0  0  0  0  0  0  0  0  0  0
  1 11  1  0  0  0  0
  3 13  1  1  0  0  0
  3 17  2  0  0  0  0
  3 20  1  0  0  0  0
  3 26  1  0  0  0  0
  4 14  1  6  0  0  0
  4 18  1  0  0  0  0
  4 21  2  0  0  0  0
  4 20  1  0  0  0  0
  5 19  1  0  0  0  0
  5  7  1  0  0  0  0
  6  7  2  0  0  0  0
  6 12  1  0  0  0  0
  7  8  1  0  0  0  0
  8  9  1  0  0  0  0
  8 10  2  0  0  0  0
 10 11  1  0  0  0  0
 11 12  2  0  0  0  0
 15 23  1  0  0  0  0
 15 16  1  0  0  0  0
 16 19  1  0  0  0  0
 19 22  1  0  0  0  0
 22  2  1  6  0  0  0
 22 23  1  0  0  0  0
 23 24  1  6  0  0  0
 24 25  1  0  0  0  0
 25 26  1  0  0  0  0
M  CHG  2  13  -1  18  -1
M  END
>  <CHROM.1>
48.45984088,-125.77176470,-144.07958070,163.41470308,87.01767620,-61.45113624
179.29677639,92.06022791,-7.52869608,-41.09935503,6.65457735,-1.95046661
-0.78732411,1.78696539

>  <Name>
ligand

>  <RI>
0

>  <Rbt.Current_Directory>
/home/itssahil/PROJECTS/Mol_Feturizer/New_Systems/rnas/3D2G

>  <Rbt.Executable>
rbdock ($Id: //depot/dev/client3/rdock/2013.1/src/exe/rbdock.cxx#4 $)

>  <Rbt.Library>
libRbt.so (2013.1, Build901 2013/11/27)

>  <Rbt.Parameter_File>
/export/apps/rDock/src/rDock_2013.1_src/data/scripts/dock_solv.prm

>  <Rbt.Receptor>
prm/pocket_docking_4.prm

>  <SCORE>
-17.333

>  <SCORE.INTER>
-17.9575

>  <SCORE.INTER.CONST>
1

>  <SCORE.INTER.POLAR>
0

>  <SCORE.INTER.ROT>
8

>  <SCORE.INTER.SOLV>
15.0779

>  <SCORE.INTER.VDW>
-25.931

>  <SCORE.INTER.norm>
-0.690675

>  <SCORE.INTRA>
0.60856

>  <SCORE.INTRA.DIHEDRAL>
-2.73688

>  <SCORE.INTRA.DIHEDRAL.0>
9.09364

>  <SCORE.INTRA.POLAR>
0

>  <SCORE.INTRA.POLAR.0>
0

>  <SCORE.INTRA.REPUL>
0

>  <SCORE.INTRA.REPUL.0>
0

>  <SCORE.INTRA.SOLV>
4.48639

>  <SCORE.INTRA.SOLV.lig_0>
-78.5846

>  <SCORE.INTRA.VDW>
-0.266194

>  <SCORE.INTRA.VDW.0>
-2.81163

>  <SCORE.INTRA.norm>
0.0234062

>  <SCORE.RESTR>
0.0160297

>  <SCORE.RESTR.CAVITY>
0.0160297

>  <SCORE.RESTR.norm>
0.000616525

>  <SCORE.SYSTEM>
0

>  <SCORE.SYSTEM.CONST>
0

>  <SCORE.SYSTEM.DIHEDRAL>
0

>  <SCORE.SYSTEM.SOLV>
0

>  <SCORE.SYSTEM.norm>
0

>  <SCORE.heavy>
26

>  <SCORE.norm>
-0.666652

>  <RMSD>
3.804

$$$$
ligand
 OpenBabel11021811463D
libRbt.so/2013.1/901 2013/11/27
 26 27  0  0  0  0  0  0  0  0999 V2000
   -6.1662  -40.5583   -0.1241 C   0  0  0  0  0  0  0  0  0  0  0  0
   -7.7278  -37.3796    5.4110 C   0  0  0  0  0  0  0  0  0  0  0  0
   -6.6720  -42.8022    8.6384 P   0  0  1  0  0  0  0  0  0  0  0  0
   -7.1194  -45.5099    8.7437 P   0  0  2  0  0  0  0  0  0  0  0  0
  -10.0154  -38.4502    3.5744 C   0  0  0  0  0  0  0  0  0  0  0  0
   -7.7378  -39.3935    3.0684 C   0  0  0  0  0  0  0  0  0  0  0  0
   -8.9947  -38.9915    2.6061 C   0  0  0  0  0  0  0  0  0  0  0  0
   -9.3275  -39.1234    1.2552 C   0  0  0  0  0  0  0  0  0  0  0  0
  -10.5183  -38.7580    0.8291 N   0  0  0  0  0  0  0  0  0  0  0  0
   -8.3968  -39.6083    0.3689 N   0  0  0  0  0  0  0  0  0  0  0  0
   -7.1634  -40.0161    0.8370 C   0  0  0  0  0  0  0  0  0  0  0  0
   -6.8240  -39.8992    2.1718 N   0  0  0  0  0  0  0  0  0  0  0  0
   -5.9725  -42.6420    9.9535 O   0  5  0  0  0  0  0  0  0  0  0  0
   -6.8801  -45.6038    7.2891 O   0  0  0  0  0  0  0  0  0  0  0  0
   -9.8895  -40.2610    6.9415 S   0  0  0  0  0  0  0  0  0  0  0  0
  -10.4307  -39.9242    5.4937 C   0  0  0  0  0  0  0  0  0  0  0  0
   -5.7909  -42.9633    7.4505 O   0  0  0  0  0  0  0  0  0  0  0  0
   -8.1027  -46.5041    9.2138 O   0  5  0  0  0  0  0  0  0  0  0  0
   -9.7063  -38.9338    4.8916 N   0  0  0  0  0  0  0  0  0  0  0  0
   -7.6458  -44.0226    8.8982 O   0  0  0  0  0  0  0  0  0  0  0  0
   -5.9485  -45.7273    9.6464 O   0  0  0  0  0  0  0  0  0  0  0  0
   -8.7160  -38.4656    5.7087 C   0  0  1  0  0  0  0  0  0  0  0  0
   -8.7339  -39.1540    6.8957 C   0  0  2  0  0  0  0  0  0  0  0  0
   -7.8575  -39.0413    8.1184 C   0  0  0  0  0  0  0  0  0  0  0  0
   -6.9648  -40.2739    8.3007 C   0  0  0  0  0  0  0  0  0  0  0  0
   -7.5873  -41.5208    8.5510 O   0  0  0  0  0  0  0  0  0  0  0  0
  1 11  1  0  0  0  0
  3 13  1  1  0  0  0
  3 17  2  0  0  0  0
  3 20  1  0  0  0  0
  3 26  1  0  0  0  0
  4 14  1  6  0  0  0
  4 18  1  0  0  0  0
  4 21  2  0  0  0  0
  4 20  1  0  0  0  0
  5 19  1  0  0  0  0
  5  7  1  0  0  0  0
  6  7  2  0  0  0  0
  6 12  1  0  0  0  0
  7  8  1  0  0  0  0
  8  9  1  0  0  0  0
  8 10  2  0  0  0  0
 10 11  1  0  0  0  0
 11 12  2  0  0  0  0
 15 23  1  0  0  0  0
 15 16  1  0  0  0  0
 16 19  1  0  0  0  0
 19 22  1  0  0  0  0
 22  2  1  6  0  0  0
 22 23  1  0  0  0  0
 23 24  1  6  0  0  0
 24 25  1  0  0  0  0
 25 26  1  0  0  0  0
M  CHG  2  13  -1  18  -1
M  END
>  <CHROM.1>
-84.36118049,-105.17849021,-23.11190837,-67.92484167,68.27332590,-64.22576662
175.84245557,72.80781414,-7.88681990,-41.35979733,6.03278050,-2.08228788
-1.15583257,1.76543188

>  <Name>
ligand

>  <RI>
0

>  <Rbt.Current_Directory>
/home/itssahil/PROJECTS/Mol_Feturizer/New_Systems/rnas/3D2G

>  <Rbt.Executable>
rbdock ($Id: //depot/dev/client3/rdock/2013.1/src/exe/rbdock.cxx#4 $)

>  <Rbt.Library>
libRbt.so (2013.1, Build901 2013/11/27)

>  <Rbt.Parameter_File>
/export/apps/rDock/src/rDock_2013.1_src/data/scripts/dock_solv.prm

>  <Rbt.Receptor>
prm/pocket_docking_5.prm

>  <SCORE>
-23.5388

>  <SCORE.INTER>
-20.9812

>  <SCORE.INTER.CONST>
1

>  <SCORE.INTER.POLAR>
0

>  <SCORE.INTER.ROT>
8

>  <SCORE.INTER.SOLV>
25.5809

>  <SCORE.INTER.VDW>
-31.4477

>  <SCORE.INTER.norm>
-0.806967

>  <SCORE.INTRA>
-2.55765

>  <SCORE.INTRA.DIHEDRAL>
-2.97832

>  <SCORE.INTRA.DIHEDRAL.0>
9.09364

>  <SCORE.INTRA.POLAR>
0

>  <SCORE.INTRA.POLAR.0>
0

>  <SCORE.INTRA.REPUL>
0

>  <SCORE.INTRA.REPUL.0>
0

>  <SCORE.INTRA.SOLV>
-2.07337

>  <SCORE.INTRA.SOLV.lig_0>
-78.5846

>  <SCORE.INTRA.VDW>
-0.0318086

>  <SCORE.INTRA.VDW.0>
-2.81163

>  <SCORE.INTRA.norm>
-0.0983712

>  <SCORE.RESTR>
0

>  <SCORE.RESTR.CAVITY>
0

>  <SCORE.RESTR.norm>
0

>  <SCORE.SYSTEM>
0

>  <SCORE.SYSTEM.CONST>
0

>  <SCORE.SYSTEM.DIHEDRAL>
0

>  <SCORE.SYSTEM.SOLV>
0

>  <SCORE.SYSTEM.norm>
0

>  <SCORE.heavy>
26

>  <SCORE.norm>
-0.905339

>  <RMSD>
3.811

$$$$
ligand
 OpenBabel11021811463D
libRbt.so/2013.1/901 2013/11/27
 26 27  0  0  0  0  0  0  0  0999 V2000
   -5.0040  -41.5937   -0.4150 C   0  0  0  0  0  0  0  0  0  0  0  0
   -9.2861  -39.9950    6.2719 C   0  0  0  0  0  0  0  0  0  0  0  0
   -6.6019  -42.4797    9.0846 P   0  0  1  0  0  0  0  0  0  0  0  0
   -5.7700  -43.2618   11.5825 P   0  0  2  0  0  0  0  0  0  0  0  0
   -8.6092  -39.1714    3.3366 C   0  0  0  0  0  0  0  0  0  0  0  0
   -6.5112  -40.4617    2.8200 C   0  0  0  0  0  0  0  0  0  0  0  0
   -7.6507  -39.7976    2.3559 C   0  0  0  0  0  0  0  0  0  0  0  0
   -7.9296  -39.7422    0.9876 C   0  0  0  0  0  0  0  0  0  0  0  0
   -9.0126  -39.1292    0.5581 N   0  0  0  0  0  0  0  0  0  0  0  0
   -7.0539  -40.3043    0.0909 N   0  0  0  0  0  0  0  0  0  0  0  0
   -5.9389  -40.9703    0.5594 C   0  0  0  0  0  0  0  0  0  0  0  0
   -5.6552  -41.0402    1.9104 N   0  0  0  0  0  0  0  0  0  0  0  0
   -5.2835  -42.6318    8.3896 O   0  5  0  0  0  0  0  0  0  0  0  0
   -5.5905  -42.5095   12.8409 O   0  0  0  0  0  0  0  0  0  0  0  0
   -6.1433  -37.6986    5.8629 S   0  0  0  0  0  0  0  0  0  0  0  0
   -6.7617  -37.9845    4.4352 C   0  0  0  0  0  0  0  0  0  0  0  0
   -7.5300  -43.6373    8.9754 O   0  0  0  0  0  0  0  0  0  0  0  0
   -4.5381  -43.9596   11.1678 O   0  5  0  0  0  0  0  0  0  0  0  0
   -7.8782  -38.7698    4.5065 N   0  0  0  0  0  0  0  0  0  0  0  0
   -6.1841  -42.1167   10.5675 O   0  0  0  0  0  0  0  0  0  0  0  0
   -6.8011  -44.3434   11.5714 O   0  0  0  0  0  0  0  0  0  0  0  0
   -8.1576  -39.1331    5.7939 C   0  0  1  0  0  0  0  0  0  0  0  0
   -7.2330  -38.5759    6.6411 C   0  0  2  0  0  0  0  0  0  0  0  0
   -7.0945  -38.6498    8.1415 C   0  0  0  0  0  0  0  0  0  0  0  0
   -6.4486  -39.9641    8.5945 C   0  0  0  0  0  0  0  0  0  0  0  0
   -7.1961  -41.1591    8.4598 O   0  0  0  0  0  0  0  0  0  0  0  0
  1 11  1  0  0  0  0
  3 13  1  6  0  0  0
  3 17  2  0  0  0  0
  3 20  1  0  0  0  0
  3 26  1  0  0  0  0
  4 14  1  1  0  0  0
  4 18  1  0  0  0  0
  4 21  2  0  0  0  0
  4 20  1  0  0  0  0
  5 19  1  0  0  0  0
  5  7  1  0  0  0  0
  6  7  2  0  0  0  0
  6 12  1  0  0  0  0
  7  8  1  0  0  0  0
  8  9  1  0  0  0  0
  8 10  2  0  0  0  0
 10 11  1  0  0  0  0
 11 12  2  0  0  0  0
 15 23  1  0  0  0  0
 15 16  1  0  0  0  0
 16 19  1  0  0  0  0
 19 22  1  0  0  0  0
 22  2  1  1  0  0  0
 22 23  1  0  0  0  0
 23 24  1  1  0  0  0
 24 25  1  0  0  0  0
 25 26  1  0  0  0  0
M  CHG  2  13  -1  18  -1
M  END
>  <CHROM.1>
-81.82344951,52.56315630,29.57705423,-174.92000925,-101.05370489,-70.02841937
-172.73136698,-58.83914289,-6.72557556,-40.88926410,6.53088082,-1.88726990
-1.21321465,1.60803760

>  <Name>
ligand

>  <RI>
0

>  <Rbt.Current_Directory>
/home/itssahil/PROJECTS/Mol_Feturizer/New_Systems/rnas/3D2G

>  <Rbt.Executable>
rbdock ($Id: //depot/dev/client3/rdock/2013.1/src/exe/rbdock.cxx#4 $)

>  <Rbt.Library>
libRbt.so (2013.1, Build901 2013/11/27)

>  <Rbt.Parameter_File>
/export/apps/rDock/src/rDock_2013.1_src/data/scripts/dock_solv.prm

>  <Rbt.Receptor>
prm/blind_docking_100.prm

>  <SCORE>
-18.3634

>  <SCORE.INTER>
-16.2964

>  <SCORE.INTER.CONST>
1

>  <SCORE.INTER.POLAR>
0

>  <SCORE.INTER.ROT>
8

>  <SCORE.INTER.SOLV>
21.2843

>  <SCORE.INTER.VDW>
-26.8924

>  <SCORE.INTER.norm>
-0.626785

>  <SCORE.INTRA>
-2.07741

>  <SCORE.INTRA.DIHEDRAL>
-3.23218

>  <SCORE.INTRA.DIHEDRAL.0>
9.09364

>  <SCORE.INTRA.POLAR>
0

>  <SCORE.INTRA.POLAR.0>
0

>  <SCORE.INTRA.REPUL>
0

>  <SCORE.INTRA.REPUL.0>
0

>  <SCORE.INTRA.SOLV>
-0.604834

>  <SCORE.INTRA.SOLV.lig_0>
-78.5846

>  <SCORE.INTRA.VDW>
-0.158902

>  <SCORE.INTRA.VDW.0>
-2.81163

>  <SCORE.INTRA.norm>
-0.0799004

>  <SCORE.RESTR>
0.0104337

>  <SCORE.RESTR.CAVITY>
0.0104337

>  <SCORE.RESTR.norm>
0.000401297

>  <SCORE.SYSTEM>
0

>  <SCORE.SYSTEM.CONST>
0

>  <SCORE.SYSTEM.DIHEDRAL>
0

>  <SCORE.SYSTEM.SOLV>
0

>  <SCORE.SYSTEM.norm>
0

>  <SCORE.heavy>
26

>  <SCORE.norm>
-0.706284

>  <RMSD>
3.888

$$$$
ligand
 OpenBabel11021811463D
libRbt.so/2013.1/901 2013/11/27
 26 27  0  0  0  0  0  0  0  0999 V2000
  -12.2480  -37.8835    2.0349 C   0  0  0  0  0  0  0  0  0  0  0  0
   -8.1094  -42.3831    4.4344 C   0  0  0  0  0  0  0  0  0  0  0  0
   -6.5564  -45.6629    6.5468 P   0  0  1  0  0  0  0  0  0  0  0  0
   -6.9665  -45.6469    9.2624 P   0  0  2  0  0  0  0  0  0  0  0  0
   -7.0002  -40.1479    2.5566 C   0  0  0  0  0  0  0  0  0  0  0  0
   -8.9603  -39.4392    1.1463 C   0  0  0  0  0  0  0  0  0  0  0  0
   -8.3725  -39.5412    2.4108 C   0  0  0  0  0  0  0  0  0  0  0  0
   -9.0644  -39.1189    3.5493 C   0  0  0  0  0  0  0  0  0  0  0  0
   -8.5117  -39.2325    4.7387 N   0  0  0  0  0  0  0  0  0  0  0  0
  -10.3113  -38.5577    3.4190 N   0  0  0  0  0  0  0  0  0  0  0  0
  -10.8896  -38.4744    2.1679 C   0  0  0  0  0  0  0  0  0  0  0  0
  -10.2201  -38.8960    1.0345 N   0  0  0  0  0  0  0  0  0  0  0  0
   -5.2373  -44.9643    6.4189 O   0  5  0  0  0  0  0  0  0  0  0  0
   -7.5183  -44.6144   10.1631 O   0  0  0  0  0  0  0  0  0  0  0  0
   -6.8772  -43.6064    0.9269 S   0  0  0  0  0  0  0  0  0  0  0  0
   -6.6804  -42.0398    1.0244 C   0  0  0  0  0  0  0  0  0  0  0  0
   -6.5016  -47.1490    6.5903 O   0  0  0  0  0  0  0  0  0  0  0  0
   -5.5433  -45.9238    9.5350 O   0  5  0  0  0  0  0  0  0  0  0  0
   -7.0758  -41.5466    2.2363 N   0  0  0  0  0  0  0  0  0  0  0  0
   -7.1905  -44.9959    7.8345 O   0  0  0  0  0  0  0  0  0  0  0  0
   -7.5969  -47.0011    9.3043 O   0  0  0  0  0  0  0  0  0  0  0  0
   -7.5697  -42.5315    3.0446 C   0  0  1  0  0  0  0  0  0  0  0  0
   -7.5001  -43.7386    2.3957 C   0  0  2  0  0  0  0  0  0  0  0  0
   -7.8956  -45.1250    2.8395 C   0  0  0  0  0  0  0  0  0  0  0  0
   -7.0586  -45.6078    4.0295 C   0  0  0  0  0  0  0  0  0  0  0  0
   -7.3812  -45.1176    5.3181 O   0  0  0  0  0  0  0  0  0  0  0  0
  1 11  1  0  0  0  0
  3 13  1  6  0  0  0
  3 17  2  0  0  0  0
  3 20  1  0  0  0  0
  3 26  1  0  0  0  0
  4 14  1  1  0  0  0
  4 18  1  0  0  0  0
  4 21  2  0  0  0  0
  4 20  1  0  0  0  0
  5 19  1  0  0  0  0
  5  7  1  0  0  0  0
  6  7  2  0  0  0  0
  6 12  1  0  0  0  0
  7  8  1  0  0  0  0
  8  9  1  0  0  0  0
  8 10  2  0  0  0  0
 10 11  1  0  0  0  0
 11 12  2  0  0  0  0
 15 23  1  0  0  0  0
 15 16  1  0  0  0  0
 16 19  1  0  0  0  0
 19 22  1  0  0  0  0
 22  2  1  1  0  0  0
 22 23  1  0  0  0  0
 23 24  1  1  0  0  0
 24 25  1  0  0  0  0
 25 26  1  0  0  0  0
M  CHG  2  13  -1  18  -1
M  END
>  <CHROM.1>
-92.07160401,100.86060409,-67.50716129,171.15096802,115.58743005,78.13677181
177.50248897,74.71138709,-7.69821650,-43.09068042,4.73533740,2.15346463,1.03499016
-1.30027771

>  <Name>
ligand

>  <RI>
0

>  <Rbt.Current_Directory>
/home/itssahil/PROJECTS/Mol_Feturizer/New_Systems/rnas/3D2G

>  <Rbt.Executable>
rbdock ($Id: //depot/dev/client3/rdock/2013.1/src/exe/rbdock.cxx#4 $)

>  <Rbt.Library>
libRbt.so (2013.1, Build901 2013/11/27)

>  <Rbt.Parameter_File>
/export/apps/rDock/src/rDock_2013.1_src/data/scripts/dock_solv.prm

>  <Rbt.Receptor>
prm/pocket_docking_5.prm

>  <SCORE>
-21.2129

>  <SCORE.INTER>
-20.0681

>  <SCORE.INTER.CONST>
1

>  <SCORE.INTER.POLAR>
0

>  <SCORE.INTER.ROT>
8

>  <SCORE.INTER.SOLV>
14.7617

>  <SCORE.INTER.VDW>
-27.2327

>  <SCORE.INTER.norm>
-0.771852

>  <SCORE.INTRA>
-1.1448

>  <SCORE.INTRA.DIHEDRAL>
-2.22154

>  <SCORE.INTRA.DIHEDRAL.0>
9.09364

>  <SCORE.INTRA.POLAR>
0

>  <SCORE.INTRA.POLAR.0>
0

>  <SCORE.INTRA.REPUL>
0

>  <SCORE.INTRA.REPUL.0>
0

>  <SCORE.INTRA.SOLV>
1.90328

>  <SCORE.INTRA.SOLV.lig_0>
-78.5846

>  <SCORE.INTRA.VDW>
-0.985668

>  <SCORE.INTRA.VDW.0>
-2.81163

>  <SCORE.INTRA.norm>
-0.0440307

>  <SCORE.RESTR>
0

>  <SCORE.RESTR.CAVITY>
0

>  <SCORE.RESTR.norm>
0

>  <SCORE.SYSTEM>
0

>  <SCORE.SYSTEM.CONST>
0

>  <SCORE.SYSTEM.DIHEDRAL>
0

>  <SCORE.SYSTEM.SOLV>
0

>  <SCORE.SYSTEM.norm>
0

>  <SCORE.heavy>
26

>  <SCORE.norm>
-0.815883

>  <RMSD>
3.919

$$$$
ligand
 OpenBabel11021811463D
libRbt.so/2013.1/901 2013/11/27
 26 27  0  0  0  0  0  0  0  0999 V2000
   -5.8652  -40.5335   -0.4947 C   0  0  0  0  0  0  0  0  0  0  0  0
   -8.6325  -37.0223    5.7630 C   0  0  0  0  0  0  0  0  0  0  0  0
   -5.7411  -41.0450    8.8418 P   0  0  1  0  0  0  0  0  0  0  0  0
   -5.0388  -41.4050   11.4724 P   0  0  2  0  0  0  0  0  0  0  0  0
   -9.7107  -38.6562    3.3299 C   0  0  0  0  0  0  0  0  0  0  0  0
   -7.4099  -39.4985    2.7551 C   0  0  0  0  0  0  0  0  0  0  0  0
   -8.6913  -39.1366    2.3285 C   0  0  0  0  0  0  0  0  0  0  0  0
   -9.0485  -39.2531    0.9824 C   0  0  0  0  0  0  0  0  0  0  0  0
  -10.2617  -38.9259    0.5898 N   0  0  0  0  0  0  0  0  0  0  0  0
   -8.1195  -39.6824    0.0663 N   0  0  0  0  0  0  0  0  0  0  0  0
   -6.8612  -40.0512    0.4990 C   0  0  0  0  0  0  0  0  0  0  0  0
   -6.4972  -39.9491    1.8285 N   0  0  0  0  0  0  0  0  0  0  0  0
   -4.4527  -41.7013    8.4497 O   0  5  0  0  0  0  0  0  0  0  0  0
   -5.1153  -40.4935   12.6322 O   0  0  0  0  0  0  0  0  0  0  0  0
   -9.1221  -40.8516    6.4065 S   0  0  0  0  0  0  0  0  0  0  0  0
   -9.5467  -40.5208    4.9190 C   0  0  0  0  0  0  0  0  0  0  0  0
   -6.9490  -41.9127    8.8030 O   0  0  0  0  0  0  0  0  0  0  0  0
   -3.6976  -41.9993   11.3159 O   0  5  0  0  0  0  0  0  0  0  0  0
   -9.3831  -39.1971    4.6201 N   0  0  0  0  0  0  0  0  0  0  0  0
   -5.4158  -40.4440   10.2694 O   0  0  0  0  0  0  0  0  0  0  0  0
   -5.9458  -42.5927   11.4731 O   0  0  0  0  0  0  0  0  0  0  0  0
   -8.9221  -38.4907    5.6952 C   0  0  1  0  0  0  0  0  0  0  0  0
   -8.7400  -39.3376    6.7595 C   0  0  2  0  0  0  0  0  0  0  0  0
   -8.2427  -39.0751    8.1593 C   0  0  0  0  0  0  0  0  0  0  0  0
   -6.7402  -38.7722    8.1877 C   0  0  0  0  0  0  0  0  0  0  0  0
   -5.8404  -39.8151    7.8596 O   0  0  0  0  0  0  0  0  0  0  0  0
  1 11  1  0  0  0  0
  3 13  1  6  0  0  0
  3 17  2  0  0  0  0
  3 20  1  0  0  0  0
  3 26  1  0  0  0  0
  4 14  1  1  0  0  0
  4 18  1  0  0  0  0
  4 21  2  0  0  0  0
  4 20  1  0  0  0  0
  5 19  1  0  0  0  0
  5  7  1  0  0  0  0
  6  7  2  0  0  0  0
  6 12  1  0  0  0  0
  7  8  1  0  0  0  0
  8  9  1  0  0  0  0
  8 10  2  0  0  0  0
 10 11  1  0  0  0  0
 11 12  2  0  0  0  0
 15 23  1  0  0  0  0
 15 16  1  0  0  0  0
 16 19  1  0  0  0  0
 19 22  1  0  0  0  0
 22  2  1  6  0  0  0
 22 23  1  0  0  0  0
 23 24  1  6  0  0  0
 24 25  1  0  0  0  0
 25 26  1  0  0  0  0
M  CHG  2  13  -1  18  -1
M  END
>  <CHROM.1>
-62.78778311,-71.46972609,-25.31006787,-167.98966425,108.06429480,-67.62846287
-67.05257784,-162.89072356,-7.12600520,-40.20250180,6.47847678,-1.93463086
-0.48950220,1.59138041

>  <Name>
ligand

>  <RI>
0

>  <Rbt.Current_Directory>
/home/itssahil/PROJECTS/Mol_Feturizer/New_Systems/rnas/3D2G

>  <Rbt.Executable>
rbdock ($Id: //depot/dev/client3/rdock/2013.1/src/exe/rbdock.cxx#4 $)

>  <Rbt.Library>
libRbt.so (2013.1, Build901 2013/11/27)

>  <Rbt.Parameter_File>
/export/apps/rDock/src/rDock_2013.1_src/data/scripts/dock_solv.prm

>  <Rbt.Receptor>
prm/blind_docking_100.prm

>  <SCORE>
-17.4553

>  <SCORE.INTER>
-14.9397

>  <SCORE.INTER.CONST>
1

>  <SCORE.INTER.POLAR>
0

>  <SCORE.INTER.ROT>
8

>  <SCORE.INTER.SOLV>
21.4903

>  <SCORE.INTER.VDW>
-26.0565

>  <SCORE.INTER.norm>
-0.574602

>  <SCORE.INTRA>
-2.51561

>  <SCORE.INTRA.DIHEDRAL>
-3.33984

>  <SCORE.INTRA.DIHEDRAL.0>
9.09364

>  <SCORE.INTRA.POLAR>
0

>  <SCORE.INTRA.POLAR.0>
0

>  <SCORE.INTRA.REPUL>
0

>  <SCORE.INTRA.REPUL.0>
0

>  <SCORE.INTRA.SOLV>
0.481952

>  <SCORE.INTRA.SOLV.lig_0>
-78.5846

>  <SCORE.INTRA.VDW>
-1.08667

>  <SCORE.INTRA.VDW.0>
-2.81163

>  <SCORE.INTRA.norm>
-0.0967544

>  <SCORE.RESTR>
0

>  <SCORE.RESTR.CAVITY>
0

>  <SCORE.RESTR.norm>
0

>  <SCORE.SYSTEM>
0

>  <SCORE.SYSTEM.CONST>
0

>  <SCORE.SYSTEM.DIHEDRAL>
0

>  <SCORE.SYSTEM.SOLV>
0

>  <SCORE.SYSTEM.norm>
0

>  <SCORE.heavy>
26

>  <SCORE.norm>
-0.671357

>  <RMSD>
3.925

$$$$
ligand
 OpenBabel11021811463D
libRbt.so/2013.1/901 2013/11/27
 26 27  0  0  0  0  0  0  0  0999 V2000
  -11.1589  -38.4289    1.7841 C   0  0  0  0  0  0  0  0  0  0  0  0
   -5.1712  -42.9574    6.2863 C   0  0  0  0  0  0  0  0  0  0  0  0
   -5.7023  -46.1388    9.1048 P   0  0  1  0  0  0  0  0  0  0  0  0
   -6.9140  -43.7803    9.8205 P   0  0  2  0  0  0  0  0  0  0  0  0
   -6.8048  -40.9237    4.5693 C   0  0  0  0  0  0  0  0  0  0  0  0
   -7.9674  -40.2760    2.4334 C   0  0  0  0  0  0  0  0  0  0  0  0
   -7.9382  -40.2579    3.8312 C   0  0  0  0  0  0  0  0  0  0  0  0
   -8.9740  -39.6590    4.5533 C   0  0  0  0  0  0  0  0  0  0  0  0
   -8.9485  -39.6595    5.8695 N   0  0  0  0  0  0  0  0  0  0  0  0
  -10.0038  -39.0441    3.8837 N   0  0  0  0  0  0  0  0  0  0  0  0
  -10.0315  -39.0796    2.5037 C   0  0  0  0  0  0  0  0  0  0  0  0
   -9.0180  -39.6758    1.7771 N   0  0  0  0  0  0  0  0  0  0  0  0
   -4.5244  -46.4513    8.2334 O   0  5  0  0  0  0  0  0  0  0  0  0
   -8.1692  -44.5132    9.5573 O   0  0  0  0  0  0  0  0  0  0  0  0
   -8.3168  -44.4363    4.4877 S   0  0  0  0  0  0  0  0  0  0  0  0
   -8.2041  -42.8961    4.1450 C   0  0  0  0  0  0  0  0  0  0  0  0
   -5.5999  -46.5882   10.5194 O   0  0  0  0  0  0  0  0  0  0  0  0
   -7.0071  -42.3579    9.4404 O   0  5  0  0  0  0  0  0  0  0  0  0
   -7.1120  -42.3181    4.7292 N   0  0  0  0  0  0  0  0  0  0  0  0
   -5.8722  -44.5751    8.9283 O   0  0  0  0  0  0  0  0  0  0  0  0
   -6.4331  -43.7301   11.2344 O   0  0  0  0  0  0  0  0  0  0  0  0
   -6.4119  -43.2145    5.4867 C   0  0  1  0  0  0  0  0  0  0  0  0
   -7.0123  -44.4464    5.4154 C   0  0  2  0  0  0  0  0  0  0  0  0
   -6.6411  -45.7661    6.0450 C   0  0  0  0  0  0  0  0  0  0  0  0
   -7.5017  -46.0781    7.2745 C   0  0  0  0  0  0  0  0  0  0  0  0
   -6.9114  -46.8013    8.3392 O   0  0  0  0  0  0  0  0  0  0  0  0
  1 11  1  0  0  0  0
  3 13  1  6  0  0  0
  3 17  2  0  0  0  0
  3 20  1  0  0  0  0
  3 26  1  0  0  0  0
  4 14  1  6  0  0  0
  4 18  1  0  0  0  0
  4 21  2  0  0  0  0
  4 20  1  0  0  0  0
  5 19  1  0  0  0  0
  5  7  1  0  0  0  0
  6  7  2  0  0  0  0
  6 12  1  0  0  0  0
  7  8  1  0  0  0  0
  8  9  1  0  0  0  0
  8 10  2  0  0  0  0
 10 11  1  0  0  0  0
 11 12  2  0  0  0  0
 15 23  1  0  0  0  0
 15 16  1  0  0  0  0
 16 19  1  0  0  0  0
 19 22  1  0  0  0  0
 22  2  1  6  0  0  0
 22 23  1  0  0  0  0
 23 24  1  6  0  0  0
 24 25  1  0  0  0  0
 25 26  1  0  0  0  0
M  CHG  2  13  -1  18  -1
M  END
>  <CHROM.1>
-172.70687328,6.55704849,-85.32885768,-55.02273607,-78.93028531,-147.10616161
63.33872585,-82.47134356,-7.36266601,-43.19775226,6.52901777,2.69301144,1.18162352
-1.92576137

>  <Name>
ligand

>  <RI>
0

>  <Rbt.Current_Directory>
/home/itssahil/PROJECTS/Mol_Feturizer/New_Systems/rnas/3D2G

>  <Rbt.Executable>
rbdock ($Id: //depot/dev/client3/rdock/2013.1/src/exe/rbdock.cxx#4 $)

>  <Rbt.Library>
libRbt.so (2013.1, Build901 2013/11/27)

>  <Rbt.Parameter_File>
/export/apps/rDock/src/rDock_2013.1_src/data/scripts/dock_solv.prm

>  <Rbt.Receptor>
prm/pocket_docking_4.prm

>  <SCORE>
-15.4129

>  <SCORE.INTER>
-15.7355

>  <SCORE.INTER.CONST>
1

>  <SCORE.INTER.POLAR>
0

>  <SCORE.INTER.ROT>
8

>  <SCORE.INTER.SOLV>
12.8472

>  <SCORE.INTER.VDW>
-23.706

>  <SCORE.INTER.norm>
-0.60521

>  <SCORE.INTRA>
0.252081

>  <SCORE.INTRA.DIHEDRAL>
0.628024

>  <SCORE.INTRA.DIHEDRAL.0>
9.09364

>  <SCORE.INTRA.POLAR>
0

>  <SCORE.INTRA.POLAR.0>
0

>  <SCORE.INTRA.REPUL>
0

>  <SCORE.INTRA.REPUL.0>
0

>  <SCORE.INTRA.SOLV>
-0.0591062

>  <SCORE.INTRA.SOLV.lig_0>
-78.5846

>  <SCORE.INTRA.VDW>
-0.0323782

>  <SCORE.INTRA.VDW.0>
-2.81163

>  <SCORE.INTRA.norm>
0.00969541

>  <SCORE.RESTR>
0.0704394

>  <SCORE.RESTR.CAVITY>
0.0704394

>  <SCORE.RESTR.norm>
0.00270921

>  <SCORE.SYSTEM>
0

>  <SCORE.SYSTEM.CONST>
0

>  <SCORE.SYSTEM.DIHEDRAL>
0

>  <SCORE.SYSTEM.SOLV>
0

>  <SCORE.SYSTEM.norm>
0

>  <SCORE.heavy>
26

>  <SCORE.norm>
-0.592805

>  <RMSD>
3.955

$$$$
ligand
 OpenBabel11021811463D
libRbt.so/2013.1/901 2013/11/27
 26 27  0  0  0  0  0  0  0  0999 V2000
   -5.7481  -43.4043   -0.0650 C   0  0  0  0  0  0  0  0  0  0  0  0
   -5.7793  -39.9859    5.7314 C   0  0  0  0  0  0  0  0  0  0  0  0
   -6.7266  -43.1754   10.1683 P   0  0  1  0  0  0  0  0  0  0  0  0
   -5.0326  -45.0367   11.2678 P   0  0  2  0  0  0  0  0  0  0  0  0
   -7.4027  -39.0177    3.2455 C   0  0  0  0  0  0  0  0  0  0  0  0
   -5.8675  -40.9523    2.7620 C   0  0  0  0  0  0  0  0  0  0  0  0
   -6.9540  -40.1627    2.3736 C   0  0  0  0  0  0  0  0  0  0  0  0
   -7.6540  -40.4504    1.1987 C   0  0  0  0  0  0  0  0  0  0  0  0
   -8.6861  -39.7129    0.8468 N   0  0  0  0  0  0  0  0  0  0  0  0
   -7.2424  -41.4876    0.3976 N   0  0  0  0  0  0  0  0  0  0  0  0
   -6.1775  -42.2706    0.7967 C   0  0  0  0  0  0  0  0  0  0  0  0
   -5.4815  -42.0027    1.9604 N   0  0  0  0  0  0  0  0  0  0  0  0
   -7.5149  -43.3190   11.4342 O   0  5  0  0  0  0  0  0  0  0  0  0
   -3.9805  -44.0001   11.2877 O   0  0  0  0  0  0  0  0  0  0  0  0
   -9.6690  -40.2647    6.0635 S   0  0  0  0  0  0  0  0  0  0  0  0
   -9.3151  -39.6587    4.6458 C   0  0  0  0  0  0  0  0  0  0  0  0
   -5.8530  -41.9742   10.0811 O   0  0  0  0  0  0  0  0  0  0  0  0
   -4.4829  -46.3869   11.0413 O   0  5  0  0  0  0  0  0  0  0  0  0
   -7.9660  -39.5501    4.4554 N   0  0  0  0  0  0  0  0  0  0  0  0
   -5.9528  -44.5527   10.0712 O   0  0  0  0  0  0  0  0  0  0  0  0
   -5.8565  -45.2011   12.5036 O   0  0  0  0  0  0  0  0  0  0  0  0
   -7.2668  -39.9657    5.5535 C   0  0  1  0  0  0  0  0  0  0  0  0
   -8.1405  -40.3920    6.5220 C   0  0  2  0  0  0  0  0  0  0  0  0
   -7.8932  -40.9528    7.9004 C   0  0  0  0  0  0  0  0  0  0  0  0
   -7.6047  -42.4579    7.8649 C   0  0  0  0  0  0  0  0  0  0  0  0
   -7.8303  -43.2112    9.0424 O   0  0  0  0  0  0  0  0  0  0  0  0
  1 11  1  0  0  0  0
  3 13  1  1  0  0  0
  3 17  2  0  0  0  0
  3 20  1  0  0  0  0
  3 26  1  0  0  0  0
  4 14  1  1  0  0  0
  4 18  1  0  0  0  0
  4 21  2  0  0  0  0
  4 20  1  0  0  0  0
  5 19  1  0  0  0  0
  5  7  1  0  0  0  0
  6  7  2  0  0  0  0
  6 12  1  0  0  0  0
  7  8  1  0  0  0  0
  8  9  1  0  0  0  0
  8 10  2  0  0  0  0
 10 11  1  0  0  0  0
 11 12  2  0  0  0  0
 15 23  1  0  0  0  0
 15 16  1  0  0  0  0
 16 19  1  0  0  0  0
 19 22  1  0  0  0  0
 22  2  1  6  0  0  0
 22 23  1  0  0  0  0
 23 24  1  6  0  0  0
 24 25  1  0  0  0  0
 25 26  1  0  0  0  0
M  CHG  2  13  -1  18  -1
M  END
>  <CHROM.1>
-55.63998504,-100.21929366,-68.57711951,-64.13373896,95.76829562,-157.42859892
-80.41253699,148.02104782,-6.83976972,-42.13033950,6.72155485,-1.81161363
-0.82228779,1.77971225

>  <Name>
ligand

>  <RI>
0

>  <Rbt.Current_Directory>
/home/itssahil/PROJECTS/Mol_Feturizer/New_Systems/rnas/3D2G

>  <Rbt.Executable>
rbdock ($Id: //depot/dev/client3/rdock/2013.1/src/exe/rbdock.cxx#4 $)

>  <Rbt.Library>
libRbt.so (2013.1, Build901 2013/11/27)

>  <Rbt.Parameter_File>
/export/apps/rDock/src/rDock_2013.1_src/data/scripts/dock_solv.prm

>  <Rbt.Receptor>
prm/pocket_docking_6.prm

>  <SCORE>
-10.8525

>  <SCORE.INTER>
-10.783

>  <SCORE.INTER.CONST>
1

>  <SCORE.INTER.POLAR>
0

>  <SCORE.INTER.ROT>
8

>  <SCORE.INTER.SOLV>
26.6656

>  <SCORE.INTER.VDW>
-25.0105

>  <SCORE.INTER.norm>
-0.41473

>  <SCORE.INTRA>
-0.0695563

>  <SCORE.INTRA.DIHEDRAL>
1.14173

>  <SCORE.INTRA.DIHEDRAL.0>
9.09364

>  <SCORE.INTRA.POLAR>
0

>  <SCORE.INTRA.POLAR.0>
0

>  <SCORE.INTRA.REPUL>
0

>  <SCORE.INTRA.REPUL.0>
0

>  <SCORE.INTRA.SOLV>
-0.814014

>  <SCORE.INTRA.SOLV.lig_0>
-78.5846

>  <SCORE.INTRA.VDW>
-0.233412

>  <SCORE.INTRA.VDW.0>
-2.81163

>  <SCORE.INTRA.norm>
-0.00267524

>  <SCORE.RESTR>
0

>  <SCORE.RESTR.CAVITY>
0

>  <SCORE.RESTR.norm>
0

>  <SCORE.SYSTEM>
0

>  <SCORE.SYSTEM.CONST>
0

>  <SCORE.SYSTEM.DIHEDRAL>
0

>  <SCORE.SYSTEM.SOLV>
0

>  <SCORE.SYSTEM.norm>
0

>  <SCORE.heavy>
26

>  <SCORE.norm>
-0.417405

>  <RMSD>
3.976

$$$$
ligand
 OpenBabel11021811463D
libRbt.so/2013.1/901 2013/11/27
 26 27  0  0  0  0  0  0  0  0999 V2000
   -6.1402  -40.2595    0.0984 C   0  0  0  0  0  0  0  0  0  0  0  0
   -5.2661  -42.1785    5.6350 C   0  0  0  0  0  0  0  0  0  0  0  0
   -5.0797  -41.8698   11.8535 P   0  0  1  0  0  0  0  0  0  0  0  0
   -5.3906  -44.5818   12.1555 P   0  0  2  0  0  0  0  0  0  0  0  0
   -8.3341  -42.1510    5.0530 C   0  0  0  0  0  0  0  0  0  0  0  0
   -7.8749  -40.2954    3.4162 C   0  0  0  0  0  0  0  0  0  0  0  0
   -7.7726  -41.6501    3.7467 C   0  0  0  0  0  0  0  0  0  0  0  0
   -7.1180  -42.5401    2.8908 C   0  0  0  0  0  0  0  0  0  0  0  0
   -7.0110  -43.8114    3.2153 N   0  0  0  0  0  0  0  0  0  0  0  0
   -6.6128  -42.0885    1.6959 N   0  0  0  0  0  0  0  0  0  0  0  0
   -6.7060  -40.7465    1.3848 C   0  0  0  0  0  0  0  0  0  0  0  0
   -7.3431  -39.8537    2.2259 N   0  0  0  0  0  0  0  0  0  0  0  0
   -5.8611  -41.1826   12.9313 O   0  5  0  0  0  0  0  0  0  0  0  0
   -6.6326  -45.3796   12.2054 O   0  0  0  0  0  0  0  0  0  0  0  0
   -7.4153  -40.0276    8.0991 S   0  0  0  0  0  0  0  0  0  0  0  0
   -8.3688  -40.6789    7.0178 C   0  0  0  0  0  0  0  0  0  0  0  0
   -3.6383  -42.0982   12.1427 O   0  0  0  0  0  0  0  0  0  0  0  0
   -4.7563  -44.4513   13.4810 O   0  5  0  0  0  0  0  0  0  0  0  0
   -7.6824  -41.4615    6.1320 N   0  0  0  0  0  0  0  0  0  0  0  0
   -5.9108  -43.1922   11.5975 O   0  0  0  0  0  0  0  0  0  0  0  0
   -4.2833  -45.0905   11.2904 O   0  0  0  0  0  0  0  0  0  0  0  0
   -6.3404  -41.4566    6.3896 C   0  0  1  0  0  0  0  0  0  0  0  0
   -6.0845  -40.6736    7.4871 C   0  0  2  0  0  0  0  0  0  0  0  0
   -4.7901  -40.3464    8.1894 C   0  0  0  0  0  0  0  0  0  0  0  0
   -4.5650  -41.2315    9.4205 C   0  0  0  0  0  0  0  0  0  0  0  0
   -5.3119  -40.9536   10.5909 O   0  0  0  0  0  0  0  0  0  0  0  0
  1 11  1  0  0  0  0
  3 13  1  1  0  0  0
  3 17  2  0  0  0  0
  3 20  1  0  0  0  0
  3 26  1  0  0  0  0
  4 14  1  1  0  0  0
  4 18  1  0  0  0  0
  4 21  2  0  0  0  0
  4 20  1  0  0  0  0
  5 19  1  0  0  0  0
  5  7  1  0  0  0  0
  6  7  2  0  0  0  0
  6 12  1  0  0  0  0
  7  8  1  0  0  0  0
  8  9  1  0  0  0  0
  8 10  2  0  0  0  0
 10 11  1  0  0  0  0
 11 12  2  0  0  0  0
 15 23  1  0  0  0  0
 15 16  1  0  0  0  0
 16 19  1  0  0  0  0
 19 22  1  0  0  0  0
 22  2  1  1  0  0  0
 22 23  1  0  0  0  0
 23 24  1  1  0  0  0
 24 25  1  0  0  0  0
 25 26  1  0  0  0  0
M  CHG  2  13  -1  18  -1
M  END
>  <CHROM.1>
-104.19369058,118.85527042,-59.58074382,157.73364549,81.69533302,-75.64649834
179.82413979,172.18347029,-6.14204715,-42.01999189,7.96014551,-2.95871723
-1.37354004,0.40485403

>  <Name>
ligand

>  <RI>
0

>  <Rbt.Current_Directory>
/home/itssahil/PROJECTS/Mol_Feturizer/New_Systems/rnas/3D2G

>  <Rbt.Executable>
rbdock ($Id: //depot/dev/client3/rdock/2013.1/src/exe/rbdock.cxx#4 $)

>  <Rbt.Library>
libRbt.so (2013.1, Build901 2013/11/27)

>  <Rbt.Parameter_File>
/export/apps/rDock/src/rDock_2013.1_src/data/scripts/dock_solv.prm

>  <Rbt.Receptor>
prm/pocket_docking_6.prm

>  <SCORE>
-11.2273

>  <SCORE.INTER>
-10.1808

>  <SCORE.INTER.CONST>
1

>  <SCORE.INTER.POLAR>
0

>  <SCORE.INTER.ROT>
8

>  <SCORE.INTER.SOLV>
17.511

>  <SCORE.INTER.VDW>
-21.5575

>  <SCORE.INTER.norm>
-0.391568

>  <SCORE.INTRA>
-1.04654

>  <SCORE.INTRA.DIHEDRAL>
-0.612041

>  <SCORE.INTRA.DIHEDRAL.0>
9.09364

>  <SCORE.INTRA.POLAR>
0

>  <SCORE.INTRA.POLAR.0>
0

>  <SCORE.INTRA.REPUL>
0

>  <SCORE.INTRA.REPUL.0>
0

>  <SCORE.INTRA.SOLV>
0.783891

>  <SCORE.INTRA.SOLV.lig_0>
-78.5846

>  <SCORE.INTRA.VDW>
-1.13246

>  <SCORE.INTRA.VDW.0>
-2.81163

>  <SCORE.INTRA.norm>
-0.0402515

>  <SCORE.RESTR>
0

>  <SCORE.RESTR.CAVITY>
0

>  <SCORE.RESTR.norm>
0

>  <SCORE.SYSTEM>
0

>  <SCORE.SYSTEM.CONST>
0

>  <SCORE.SYSTEM.DIHEDRAL>
0

>  <SCORE.SYSTEM.SOLV>
0

>  <SCORE.SYSTEM.norm>
0

>  <SCORE.heavy>
26

>  <SCORE.norm>
-0.431819

>  <RMSD>
4.028

$$$$
ligand
 OpenBabel11021811463D
libRbt.so/2013.1/901 2013/11/27
 26 27  0  0  0  0  0  0  0  0999 V2000
   -7.8542  -35.4533    9.0530 C   0  0  0  0  0  0  0  0  0  0  0  0
   -7.6004  -41.1636    6.9510 C   0  0  0  0  0  0  0  0  0  0  0  0
   -4.5346  -43.5242    9.6094 P   0  0  1  0  0  0  0  0  0  0  0  0
   -6.9750  -44.7830    9.6607 P   0  0  2  0  0  0  0  0  0  0  0  0
   -7.9289  -39.1049    4.6259 C   0  0  0  0  0  0  0  0  0  0  0  0
   -8.8346  -38.3046    6.8333 C   0  0  0  0  0  0  0  0  0  0  0  0
   -7.9241  -38.1409    5.7849 C   0  0  0  0  0  0  0  0  0  0  0  0
   -6.9810  -37.1102    5.8209 C   0  0  0  0  0  0  0  0  0  0  0  0
   -6.1160  -36.9713    4.8382 N   0  0  0  0  0  0  0  0  0  0  0  0
   -6.9795  -36.2251    6.8713 N   0  0  0  0  0  0  0  0  0  0  0  0
   -7.8729  -36.4033    7.9088 C   0  0  0  0  0  0  0  0  0  0  0  0
   -8.8054  -37.4234    7.8903 N   0  0  0  0  0  0  0  0  0  0  0  0
   -5.1598  -42.2311   10.0352 O   0  5  0  0  0  0  0  0  0  0  0  0
   -7.7727  -45.4331    8.6011 O   0  0  0  0  0  0  0  0  0  0  0  0
   -4.7428  -41.1927    4.2770 S   0  0  0  0  0  0  0  0  0  0  0  0
   -5.8120  -40.0978    3.8764 C   0  0  0  0  0  0  0  0  0  0  0  0
   -3.9050  -44.3276   10.6919 O   0  0  0  0  0  0  0  0  0  0  0  0
   -7.7106  -43.6887   10.3224 O   0  5  0  0  0  0  0  0  0  0  0  0
   -6.8335  -40.0216    4.7814 N   0  0  0  0  0  0  0  0  0  0  0  0
   -5.7148  -44.2599    8.8538 O   0  0  0  0  0  0  0  0  0  0  0  0
   -6.5250  -45.6370   10.8015 O   0  0  0  0  0  0  0  0  0  0  0  0
   -6.6849  -40.9344    5.7874 C   0  0  1  0  0  0  0  0  0  0  0  0
   -5.5289  -41.6483    5.5950 C   0  0  2  0  0  0  0  0  0  0  0  0
   -4.8993  -42.7506    6.4100 C   0  0  0  0  0  0  0  0  0  0  0  0
   -3.9555  -42.2020    7.4861 C   0  0  0  0  0  0  0  0  0  0  0  0
   -3.5062  -43.0861    8.4968 O   0  0  0  0  0  0  0  0  0  0  0  0
  1 11  1  0  0  0  0
  3 13  1  1  0  0  0
  3 17  2  0  0  0  0
  3 20  1  0  0  0  0
  3 26  1  0  0  0  0
  4 14  1  6  0  0  0
  4 18  1  0  0  0  0
  4 21  2  0  0  0  0
  4 20  1  0  0  0  0
  5 19  1  0  0  0  0
  5  7  1  0  0  0  0
  6  7  2  0  0  0  0
  6 12  1  0  0  0  0
  7  8  1  0  0  0  0
  8  9  1  0  0  0  0
  8 10  2  0  0  0  0
 10 11  1  0  0  0  0
 11 12  2  0  0  0  0
 15 23  1  0  0  0  0
 15 16  1  0  0  0  0
 16 19  1  0  0  0  0
 19 22  1  0  0  0  0
 22  2  1  1  0  0  0
 22 23  1  0  0  0  0
 23 24  1  1  0  0  0
 24 25  1  0  0  0  0
 25 26  1  0  0  0  0
M  CHG  2  13  -1  18  -1
M  END
>  <CHROM.1>
-68.75271100,-117.55148560,-102.65346689,-177.78139202,90.41623201,167.34938914
-72.94968397,-47.68111191,-6.26333818,-41.29276189,7.55626335,1.95120865
1.00233375,-0.81064202

>  <Name>
ligand

>  <RI>
0

>  <Rbt.Current_Directory>
/home/itssahil/PROJECTS/Mol_Feturizer/New_Systems/rnas/3D2G

>  <Rbt.Executable>
rbdock ($Id: //depot/dev/client3/rdock/2013.1/src/exe/rbdock.cxx#4 $)

>  <Rbt.Library>
libRbt.so (2013.1, Build901 2013/11/27)

>  <Rbt.Parameter_File>
/export/apps/rDock/src/rDock_2013.1_src/data/scripts/dock_solv.prm

>  <Rbt.Receptor>
prm/pocket_docking_6.prm

>  <SCORE>
-7.5348

>  <SCORE.INTER>
-6.4029

>  <SCORE.INTER.CONST>
1

>  <SCORE.INTER.POLAR>
0

>  <SCORE.INTER.ROT>
8

>  <SCORE.INTER.SOLV>
16.5752

>  <SCORE.INTER.VDW>
-18.727

>  <SCORE.INTER.norm>
-0.246266

>  <SCORE.INTRA>
-1.1319

>  <SCORE.INTRA.DIHEDRAL>
-2.7572

>  <SCORE.INTRA.DIHEDRAL.0>
9.09364

>  <SCORE.INTRA.POLAR>
0

>  <SCORE.INTRA.POLAR.0>
0

>  <SCORE.INTRA.REPUL>
0

>  <SCORE.INTRA.REPUL.0>
0

>  <SCORE.INTRA.SOLV>
2.3633

>  <SCORE.INTRA.SOLV.lig_0>
-78.5846

>  <SCORE.INTRA.VDW>
-0.934948

>  <SCORE.INTRA.VDW.0>
-2.81163

>  <SCORE.INTRA.norm>
-0.0435345

>  <SCORE.RESTR>
0

>  <SCORE.RESTR.CAVITY>
0

>  <SCORE.RESTR.norm>
0

>  <SCORE.SYSTEM>
0

>  <SCORE.SYSTEM.CONST>
0

>  <SCORE.SYSTEM.DIHEDRAL>
0

>  <SCORE.SYSTEM.SOLV>
0

>  <SCORE.SYSTEM.norm>
0

>  <SCORE.heavy>
26

>  <SCORE.norm>
-0.2898

>  <RMSD>
4.050

$$$$
ligand
 OpenBabel11021811463D
libRbt.so/2013.1/901 2013/11/27
 26 27  0  0  0  0  0  0  0  0999 V2000
   -5.2483  -41.9012   -0.0528 C   0  0  0  0  0  0  0  0  0  0  0  0
   -9.3512  -40.4622    6.1530 C   0  0  0  0  0  0  0  0  0  0  0  0
   -6.9659  -45.2748    9.4393 P   0  0  1  0  0  0  0  0  0  0  0  0
   -5.3020  -46.7413    7.8194 P   0  0  2  0  0  0  0  0  0  0  0  0
   -7.4613  -38.8405    4.2686 C   0  0  0  0  0  0  0  0  0  0  0  0
   -5.6780  -40.3451    3.3255 C   0  0  0  0  0  0  0  0  0  0  0  0
   -6.8671  -39.6350    3.1336 C   0  0  0  0  0  0  0  0  0  0  0  0
   -7.5319  -39.6864    1.9054 C   0  0  0  0  0  0  0  0  0  0  0  0
   -8.6595  -39.0284    1.7362 N   0  0  0  0  0  0  0  0  0  0  0  0
   -6.9888  -40.4024    0.8666 N   0  0  0  0  0  0  0  0  0  0  0  0
   -5.8219  -41.1121    1.0699 C   0  0  0  0  0  0  0  0  0  0  0  0
   -5.1583  -41.0770    2.2819 N   0  0  0  0  0  0  0  0  0  0  0  0
   -8.1782  -45.8624    8.7839 O   0  5  0  0  0  0  0  0  0  0  0  0
   -6.5248  -47.4392    7.3729 O   0  0  0  0  0  0  0  0  0  0  0  0
   -5.6423  -40.1578    7.3651 S   0  0  0  0  0  0  0  0  0  0  0  0
   -5.7973  -39.3995    5.9855 C   0  0  0  0  0  0  0  0  0  0  0  0
   -6.5507  -45.9069   10.7205 O   0  0  0  0  0  0  0  0  0  0  0  0
   -4.6112  -47.4629    8.9050 O   0  5  0  0  0  0  0  0  0  0  0  0
   -7.0783  -39.4512    5.5116 N   0  0  0  0  0  0  0  0  0  0  0  0
   -5.8738  -45.3415    8.2955 O   0  0  0  0  0  0  0  0  0  0  0  0
   -4.2252  -46.5282    6.8053 O   0  0  0  0  0  0  0  0  0  0  0  0
   -7.8929  -40.1726    6.3382 C   0  0  1  0  0  0  0  0  0  0  0  0
   -7.1750  -40.6167    7.4201 C   0  0  2  0  0  0  0  0  0  0  0  0
   -7.5933  -41.4329    8.6178 C   0  0  0  0  0  0  0  0  0  0  0  0
   -7.2001  -42.9075    8.4736 C   0  0  0  0  0  0  0  0  0  0  0  0
   -7.3388  -43.7511    9.6023 O   0  0  0  0  0  0  0  0  0  0  0  0
  1 11  1  0  0  0  0
  3 13  1  6  0  0  0
  3 17  2  0  0  0  0
  3 20  1  0  0  0  0
  3 26  1  0  0  0  0
  4 14  1  6  0  0  0
  4 18  1  0  0  0  0
  4 21  2  0  0  0  0
  4 20  1  0  0  0  0
  5 19  1  0  0  0  0
  5  7  1  0  0  0  0
  6  7  2  0  0  0  0
  6 12  1  0  0  0  0
  7  8  1  0  0  0  0
  8  9  1  0  0  0  0
  8 10  2  0  0  0  0
 10 11  1  0  0  0  0
 11 12  2  0  0  0  0
 15 23  1  0  0  0  0
 15 16  1  0  0  0  0
 16 19  1  0  0  0  0
 19 22  1  0  0  0  0
 22  2  1  1  0  0  0
 22 23  1  0  0  0  0
 23 24  1  1  0  0  0
 24 25  1  0  0  0  0
 25 26  1  0  0  0  0
M  CHG  2  13  -1  18  -1
M  END
>  <CHROM.1>
-69.17462855,71.01184261,-28.26970517,58.76613382,-80.21656744,170.30034426
178.55543376,-80.26173024,-6.54528579,-42.73778951,6.27803542,-1.75901911
-1.17187530,2.18107412

>  <Name>
ligand

>  <RI>
0

>  <Rbt.Current_Directory>
/home/itssahil/PROJECTS/Mol_Feturizer/New_Systems/rnas/3D2G

>  <Rbt.Executable>
rbdock ($Id: //depot/dev/client3/rdock/2013.1/src/exe/rbdock.cxx#4 $)

>  <Rbt.Library>
libRbt.so (2013.1, Build901 2013/11/27)

>  <Rbt.Parameter_File>
/export/apps/rDock/src/rDock_2013.1_src/data/scripts/dock_solv.prm

>  <Rbt.Receptor>
prm/pocket_docking_5.prm

>  <SCORE>
-12.5243

>  <SCORE.INTER>
-10.8189

>  <SCORE.INTER.CONST>
1

>  <SCORE.INTER.POLAR>
0

>  <SCORE.INTER.ROT>
8

>  <SCORE.INTER.SOLV>
22.3803

>  <SCORE.INTER.VDW>
-23.6061

>  <SCORE.INTER.norm>
-0.416113

>  <SCORE.INTRA>
-1.7054

>  <SCORE.INTRA.DIHEDRAL>
-2.62527

>  <SCORE.INTRA.DIHEDRAL.0>
9.09364

>  <SCORE.INTRA.POLAR>
0

>  <SCORE.INTRA.POLAR.0>
0

>  <SCORE.INTRA.REPUL>
0

>  <SCORE.INTRA.REPUL.0>
0

>  <SCORE.INTRA.SOLV>
-2.28988

>  <SCORE.INTRA.SOLV.lig_0>
-78.5846

>  <SCORE.INTRA.VDW>
0.752182

>  <SCORE.INTRA.VDW.0>
-2.81163

>  <SCORE.INTRA.norm>
-0.0655922

>  <SCORE.RESTR>
0

>  <SCORE.RESTR.CAVITY>
0

>  <SCORE.RESTR.norm>
0

>  <SCORE.SYSTEM>
0

>  <SCORE.SYSTEM.CONST>
0

>  <SCORE.SYSTEM.DIHEDRAL>
0

>  <SCORE.SYSTEM.SOLV>
0

>  <SCORE.SYSTEM.norm>
0

>  <SCORE.heavy>
26

>  <SCORE.norm>
-0.481705

>  <RMSD>
4.051

$$$$
ligand
 OpenBabel11021811463D
libRbt.so/2013.1/901 2013/11/27
 26 27  0  0  0  0  0  0  0  0999 V2000
   -5.0008  -41.6878   -0.4473 C   0  0  0  0  0  0  0  0  0  0  0  0
   -9.4727  -39.5963    6.2473 C   0  0  0  0  0  0  0  0  0  0  0  0
   -5.6224  -41.6207    8.9353 P   0  0  1  0  0  0  0  0  0  0  0  0
   -5.7121  -42.6867   11.4648 P   0  0  2  0  0  0  0  0  0  0  0  0
   -8.7083  -39.3108    3.2329 C   0  0  0  0  0  0  0  0  0  0  0  0
   -7.6866  -39.4780    0.9391 C   0  0  0  0  0  0  0  0  0  0  0  0
   -7.7468  -39.9403    2.2573 C   0  0  0  0  0  0  0  0  0  0  0  0
   -6.8933  -40.9589    2.6899 C   0  0  0  0  0  0  0  0  0  0  0  0
   -6.9439  -41.3786    3.9366 N   0  0  0  0  0  0  0  0  0  0  0  0
   -6.0220  -41.5403    1.8013 N   0  0  0  0  0  0  0  0  0  0  0  0
   -5.9596  -41.0674    0.5056 C   0  0  0  0  0  0  0  0  0  0  0  0
   -6.7918  -40.0550    0.0665 N   0  0  0  0  0  0  0  0  0  0  0  0
   -4.2054  -41.9763    8.6036 O   0  5  0  0  0  0  0  0  0  0  0  0
   -7.0726  -43.1733   11.1578 O   0  0  0  0  0  0  0  0  0  0  0  0
   -6.1695  -37.6198    5.5408 S   0  0  0  0  0  0  0  0  0  0  0  0
   -6.7920  -38.0911    4.1650 C   0  0  0  0  0  0  0  0  0  0  0  0
   -6.6593  -42.5750    8.4581 O   0  0  0  0  0  0  0  0  0  0  0  0
   -5.5554  -42.3249   12.8864 O   0  5  0  0  0  0  0  0  0  0  0  0
   -7.9625  -38.7754    4.3381 N   0  0  0  0  0  0  0  0  0  0  0  0
   -5.5847  -41.4306   10.5061 O   0  0  0  0  0  0  0  0  0  0  0  0
   -4.5763  -43.6263   11.2194 O   0  0  0  0  0  0  0  0  0  0  0  0
   -8.2805  -38.9039    5.6609 C   0  0  1  0  0  0  0  0  0  0  0  0
   -7.3272  -38.2812    6.4267 C   0  0  2  0  0  0  0  0  0  0  0  0
   -7.2098  -38.1190    7.9219 C   0  0  0  0  0  0  0  0  0  0  0  0
   -6.9728  -39.4588    8.6281 C   0  0  0  0  0  0  0  0  0  0  0  0
   -5.7919  -40.1775    8.3221 O   0  0  0  0  0  0  0  0  0  0  0  0
  1 11  1  0  0  0  0
  3 13  1  6  0  0  0
  3 17  2  0  0  0  0
  3 20  1  0  0  0  0
  3 26  1  0  0  0  0
  4 14  1  6  0  0  0
  4 18  1  0  0  0  0
  4 21  2  0  0  0  0
  4 20  1  0  0  0  0
  5 19  1  0  0  0  0
  5  7  1  0  0  0  0
  6  7  2  0  0  0  0
  6 12  1  0  0  0  0
  7  8  1  0  0  0  0
  8  9  1  0  0  0  0
  8 10  2  0  0  0  0
 10 11  1  0  0  0  0
 11 12  2  0  0  0  0
 15 23  1  0  0  0  0
 15 16  1  0  0  0  0
 16 19  1  0  0  0  0
 19 22  1  0  0  0  0
 22  2  1  6  0  0  0
 22 23  1  0  0  0  0
 23 24  1  6  0  0  0
 24 25  1  0  0  0  0
 25 26  1  0  0  0  0
M  CHG  2  13  -1  18  -1
M  END
>  <CHROM.1>
-83.74446279,42.40181608,-120.69524478,-63.79803005,-113.94442349,62.18980642
-173.80992737,-170.99450435,-6.49295132,-40.62742907,6.51911592,-1.85871746
-1.10382824,1.56299825

>  <Name>
ligand

>  <RI>
0

>  <Rbt.Current_Directory>
/home/itssahil/PROJECTS/Mol_Feturizer/New_Systems/rnas/3D2G

>  <Rbt.Executable>
rbdock ($Id: //depot/dev/client3/rdock/2013.1/src/exe/rbdock.cxx#4 $)

>  <Rbt.Library>
libRbt.so (2013.1, Build901 2013/11/27)

>  <Rbt.Parameter_File>
/export/apps/rDock/src/rDock_2013.1_src/data/scripts/dock_solv.prm

>  <Rbt.Receptor>
prm/blind_docking_100.prm

>  <SCORE>
-18.1786

>  <SCORE.INTER>
-15.5826

>  <SCORE.INTER.CONST>
1

>  <SCORE.INTER.POLAR>
0

>  <SCORE.INTER.ROT>
8

>  <SCORE.INTER.SOLV>
9.93376

>  <SCORE.INTER.VDW>
-22.633

>  <SCORE.INTER.norm>
-0.59933

>  <SCORE.INTRA>
-2.59604

>  <SCORE.INTRA.DIHEDRAL>
-3.6728

>  <SCORE.INTRA.DIHEDRAL.0>
9.09364

>  <SCORE.INTRA.POLAR>
0

>  <SCORE.INTRA.POLAR.0>
0

>  <SCORE.INTRA.REPUL>
0

>  <SCORE.INTRA.REPUL.0>
0

>  <SCORE.INTRA.SOLV>
0.681378

>  <SCORE.INTRA.SOLV.lig_0>
-78.5846

>  <SCORE.INTRA.VDW>
-1.10033

>  <SCORE.INTRA.VDW.0>
-2.81163

>  <SCORE.INTRA.norm>
-0.0998477

>  <SCORE.RESTR>
0

>  <SCORE.RESTR.CAVITY>
0

>  <SCORE.RESTR.norm>
0

>  <SCORE.SYSTEM>
0

>  <SCORE.SYSTEM.CONST>
0

>  <SCORE.SYSTEM.DIHEDRAL>
0

>  <SCORE.SYSTEM.SOLV>
0

>  <SCORE.SYSTEM.norm>
0

>  <SCORE.heavy>
26

>  <SCORE.norm>
-0.699177

>  <RMSD>
4.056

$$$$
ligand
 OpenBabel11021811463D
libRbt.so/2013.1/901 2013/11/27
 26 27  0  0  0  0  0  0  0  0999 V2000
   -7.7539  -35.5778    7.5879 C   0  0  0  0  0  0  0  0  0  0  0  0
   -4.6790  -41.2742    3.9341 C   0  0  0  0  0  0  0  0  0  0  0  0
   -6.6284  -44.1432    8.9325 P   0  0  1  0  0  0  0  0  0  0  0  0
   -6.5181  -43.1843   11.5038 P   0  0  2  0  0  0  0  0  0  0  0  0
   -7.0189  -39.3089    3.2894 C   0  0  0  0  0  0  0  0  0  0  0  0
   -6.0950  -37.6839    4.9743 C   0  0  0  0  0  0  0  0  0  0  0  0
   -7.2033  -38.3383    4.4281 C   0  0  0  0  0  0  0  0  0  0  0  0
   -8.4894  -38.0708    4.9049 C   0  0  0  0  0  0  0  0  0  0  0  0
   -9.5303  -38.6785    4.3755 N   0  0  0  0  0  0  0  0  0  0  0  0
   -8.6599  -37.1935    5.9480 N   0  0  0  0  0  0  0  0  0  0  0  0
   -7.5613  -36.5412    6.4713 C   0  0  0  0  0  0  0  0  0  0  0  0
   -6.2846  -36.7898    6.0036 N   0  0  0  0  0  0  0  0  0  0  0  0
   -5.5235  -45.1364    9.1256 O   0  5  0  0  0  0  0  0  0  0  0  0
   -7.9935  -43.1694   11.5721 O   0  0  0  0  0  0  0  0  0  0  0  0
   -8.2706  -42.6690    4.6218 S   0  0  0  0  0  0  0  0  0  0  0  0
   -8.3887  -41.1904    4.0720 C   0  0  0  0  0  0  0  0  0  0  0  0
   -8.0103  -44.6728    9.0846 O   0  0  0  0  0  0  0  0  0  0  0  0
   -5.9101  -42.1106   12.3126 O   0  5  0  0  0  0  0  0  0  0  0  0
   -7.1662  -40.6466    3.7927 N   0  0  0  0  0  0  0  0  0  0  0  0
   -6.2557  -42.9915    9.9523 O   0  0  0  0  0  0  0  0  0  0  0  0
   -5.8220  -44.4162   11.9843 O   0  0  0  0  0  0  0  0  0  0  0  0
   -6.1503  -41.5110    4.0894 C   0  0  1  0  0  0  0  0  0  0  0  0
   -6.6708  -42.6881    4.5655 C   0  0  2  0  0  0  0  0  0  0  0  0
   -5.9940  -43.9580    5.0184 C   0  0  0  0  0  0  0  0  0  0  0  0
   -6.5089  -44.4277    6.3837 C   0  0  0  0  0  0  0  0  0  0  0  0
   -6.3519  -43.5616    7.4929 O   0  0  0  0  0  0  0  0  0  0  0  0
  1 11  1  0  0  0  0
  3 13  1  1  0  0  0
  3 17  2  0  0  0  0
  3 20  1  0  0  0  0
  3 26  1  0  0  0  0
  4 14  1  1  0  0  0
  4 18  1  0  0  0  0
  4 21  2  0  0  0  0
  4 20  1  0  0  0  0
  5 19  1  0  0  0  0
  5  7  1  0  0  0  0
  6  7  2  0  0  0  0
  6 12  1  0  0  0  0
  7  8  1  0  0  0  0
  8  9  1  0  0  0  0
  8 10  2  0  0  0  0
 10 11  1  0  0  0  0
 11 12  2  0  0  0  0
 15 23  1  0  0  0  0
 15 16  1  0  0  0  0
 16 19  1  0  0  0  0
 19 22  1  0  0  0  0
 22  2  1  6  0  0  0
 22 23  1  0  0  0  0
 23 24  1  6  0  0  0
 24 25  1  0  0  0  0
 25 26  1  0  0  0  0
M  CHG  2  13  -1  18  -1
M  END
>  <CHROM.1>
-76.38682995,77.03222977,105.50775713,-68.95824058,-50.16050663,-60.10229377
-168.70262308,67.23280944,-6.97511265,-41.55064362,7.14649273,2.65817621
1.42706351,-1.90689538

>  <Name>
ligand

>  <RI>
0

>  <Rbt.Current_Directory>
/home/itssahil/PROJECTS/Mol_Feturizer/New_Systems/rnas/3D2G

>  <Rbt.Executable>
rbdock ($Id: //depot/dev/client3/rdock/2013.1/src/exe/rbdock.cxx#4 $)

>  <Rbt.Library>
libRbt.so (2013.1, Build901 2013/11/27)

>  <Rbt.Parameter_File>
/export/apps/rDock/src/rDock_2013.1_src/data/scripts/dock_solv.prm

>  <Rbt.Receptor>
prm/pocket_docking_5.prm

>  <SCORE>
-14.5846

>  <SCORE.INTER>
-12.7861

>  <SCORE.INTER.CONST>
1

>  <SCORE.INTER.POLAR>
0

>  <SCORE.INTER.ROT>
8

>  <SCORE.INTER.SOLV>
16.5585

>  <SCORE.INTER.VDW>
-22.9769

>  <SCORE.INTER.norm>
-0.491772

>  <SCORE.INTRA>
-1.79852

>  <SCORE.INTRA.DIHEDRAL>
-3.03005

>  <SCORE.INTRA.DIHEDRAL.0>
9.09364

>  <SCORE.INTRA.POLAR>
0

>  <SCORE.INTRA.POLAR.0>
0

>  <SCORE.INTRA.REPUL>
0

>  <SCORE.INTRA.REPUL.0>
0

>  <SCORE.INTRA.SOLV>
-0.19984

>  <SCORE.INTRA.SOLV.lig_0>
-78.5846

>  <SCORE.INTRA.VDW>
-0.183569

>  <SCORE.INTRA.VDW.0>
-2.81163

>  <SCORE.INTRA.norm>
-0.0691737

>  <SCORE.RESTR>
0

>  <SCORE.RESTR.CAVITY>
0

>  <SCORE.RESTR.norm>
0

>  <SCORE.SYSTEM>
0

>  <SCORE.SYSTEM.CONST>
0

>  <SCORE.SYSTEM.DIHEDRAL>
0

>  <SCORE.SYSTEM.SOLV>
0

>  <SCORE.SYSTEM.norm>
0

>  <SCORE.heavy>
26

>  <SCORE.norm>
-0.560945

>  <RMSD>
4.062

$$$$
ligand
 OpenBabel11021811463D
libRbt.so/2013.1/901 2013/11/27
 26 27  0  0  0  0  0  0  0  0999 V2000
   -8.3567  -39.7712    0.8461 C   0  0  0  0  0  0  0  0  0  0  0  0
   -4.3594  -40.5991    7.8157 C   0  0  0  0  0  0  0  0  0  0  0  0
   -6.0885  -45.5788   10.1328 P   0  0  1  0  0  0  0  0  0  0  0  0
   -6.4504  -46.3605    7.5249 P   0  0  2  0  0  0  0  0  0  0  0  0
   -6.1211  -38.7386    6.0302 C   0  0  0  0  0  0  0  0  0  0  0  0
   -5.9695  -39.7493    3.7304 C   0  0  0  0  0  0  0  0  0  0  0  0
   -6.6964  -39.0015    4.6618 C   0  0  0  0  0  0  0  0  0  0  0  0
   -7.9725  -38.5264    4.3471 C   0  0  0  0  0  0  0  0  0  0  0  0
   -8.6582  -37.8366    5.2343 N   0  0  0  0  0  0  0  0  0  0  0  0
   -8.4960  -38.7568    3.0983 N   0  0  0  0  0  0  0  0  0  0  0  0
   -7.7769  -39.5084    2.1903 C   0  0  0  0  0  0  0  0  0  0  0  0
   -6.5174  -39.9917    2.4911 N   0  0  0  0  0  0  0  0  0  0  0  0
   -6.9570  -44.8439   11.1075 O   0  5  0  0  0  0  0  0  0  0  0  0
   -6.1951  -47.7478    7.9630 O   0  0  0  0  0  0  0  0  0  0  0  0
   -8.2237  -41.0925    8.1913 S   0  0  0  0  0  0  0  0  0  0  0  0
   -7.9509  -39.9485    7.1333 C   0  0  0  0  0  0  0  0  0  0  0  0
   -5.5359  -46.8763   10.6066 O   0  0  0  0  0  0  0  0  0  0  0  0
   -5.2286  -45.6958    7.0329 O   0  5  0  0  0  0  0  0  0  0  0  0
   -6.6148  -39.7357    6.9394 N   0  0  0  0  0  0  0  0  0  0  0  0
   -7.0081  -45.6915    8.8494 O   0  0  0  0  0  0  0  0  0  0  0  0
   -7.4254  -46.1620    6.4099 O   0  0  0  0  0  0  0  0  0  0  0  0
   -5.8545  -40.5469    7.7340 C   0  0  1  0  0  0  0  0  0  0  0  0
   -6.6718  -41.3563    8.4823 C   0  0  2  0  0  0  0  0  0  0  0  0
   -6.3467  -42.4270    9.4940 C   0  0  0  0  0  0  0  0  0  0  0  0
   -5.3177  -43.4294    8.9590 C   0  0  0  0  0  0  0  0  0  0  0  0
   -4.9658  -44.5296    9.7780 O   0  0  0  0  0  0  0  0  0  0  0  0
  1 11  1  0  0  0  0
  3 13  1  1  0  0  0
  3 17  2  0  0  0  0
  3 20  1  0  0  0  0
  3 26  1  0  0  0  0
  4 14  1  1  0  0  0
  4 18  1  0  0  0  0
  4 21  2  0  0  0  0
  4 20  1  0  0  0  0
  5 19  1  0  0  0  0
  5  7  1  0  0  0  0
  6  7  2  0  0  0  0
  6 12  1  0  0  0  0
  7  8  1  0  0  0  0
  8  9  1  0  0  0  0
  8 10  2  0  0  0  0
 10 11  1  0  0  0  0
 11 12  2  0  0  0  0
 15 23  1  0  0  0  0
 15 16  1  0  0  0  0
 16 19  1  0  0  0  0
 19 22  1  0  0  0  0
 22  2  1  6  0  0  0
 22 23  1  0  0  0  0
 23 24  1  6  0  0  0
 24 25  1  0  0  0  0
 25 26  1  0  0  0  0
M  CHG  2  13  -1  18  -1
M  END
>  <CHROM.1>
177.39075475,-56.36039913,-94.76014101,63.32828609,129.50108695,-176.93776737
63.76077201,-72.48525028,-6.68768773,-42.56225386,7.12405342,2.68855189,-1.39266591
0.44820020

>  <Name>
ligand

>  <RI>
0

>  <Rbt.Current_Directory>
/home/itssahil/PROJECTS/Mol_Feturizer/New_Systems/rnas/3D2G

>  <Rbt.Executable>
rbdock ($Id: //depot/dev/client3/rdock/2013.1/src/exe/rbdock.cxx#4 $)

>  <Rbt.Library>
libRbt.so (2013.1, Build901 2013/11/27)

>  <Rbt.Parameter_File>
/export/apps/rDock/src/rDock_2013.1_src/data/scripts/dock_solv.prm

>  <Rbt.Receptor>
prm/pocket_docking_6.prm

>  <SCORE>
-12.9627

>  <SCORE.INTER>
-11.5392

>  <SCORE.INTER.CONST>
1

>  <SCORE.INTER.POLAR>
0

>  <SCORE.INTER.ROT>
8

>  <SCORE.INTER.SOLV>
17.731

>  <SCORE.INTER.VDW>
-22.5364

>  <SCORE.INTER.norm>
-0.443814

>  <SCORE.INTRA>
-1.42356

>  <SCORE.INTRA.DIHEDRAL>
-3.82614

>  <SCORE.INTRA.DIHEDRAL.0>
9.09364

>  <SCORE.INTRA.POLAR>
0

>  <SCORE.INTRA.POLAR.0>
0

>  <SCORE.INTRA.REPUL>
0

>  <SCORE.INTRA.REPUL.0>
0

>  <SCORE.INTRA.SOLV>
0.602305

>  <SCORE.INTRA.SOLV.lig_0>
-78.5846

>  <SCORE.INTRA.VDW>
0.188359

>  <SCORE.INTRA.VDW.0>
-2.81163

>  <SCORE.INTRA.norm>
-0.0547523

>  <SCORE.RESTR>
0

>  <SCORE.RESTR.CAVITY>
0

>  <SCORE.RESTR.norm>
0

>  <SCORE.SYSTEM>
0

>  <SCORE.SYSTEM.CONST>
0

>  <SCORE.SYSTEM.DIHEDRAL>
0

>  <SCORE.SYSTEM.SOLV>
0

>  <SCORE.SYSTEM.norm>
0

>  <SCORE.heavy>
26

>  <SCORE.norm>
-0.498566

>  <RMSD>
4.078

$$$$
ligand
 OpenBabel11021811463D
libRbt.so/2013.1/901 2013/11/27
 26 27  0  0  0  0  0  0  0  0999 V2000
  -10.3450  -38.7859    3.5912 C   0  0  0  0  0  0  0  0  0  0  0  0
   -7.4124  -43.5331   10.0706 C   0  0  0  0  0  0  0  0  0  0  0  0
   -2.9097  -46.3583    8.6453 P   0  0  1  0  0  0  0  0  0  0  0  0
   -2.9875  -44.1926   10.3326 P   0  0  2  0  0  0  0  0  0  0  0  0
   -7.5552  -41.2214    7.9758 C   0  0  0  0  0  0  0  0  0  0  0  0
   -9.6890  -40.4900    6.8599 C   0  0  0  0  0  0  0  0  0  0  0  0
   -8.2953  -40.5956    6.8212 C   0  0  0  0  0  0  0  0  0  0  0  0
   -7.5770  -40.0898    5.7343 C   0  0  0  0  0  0  0  0  0  0  0  0
   -6.2637  -40.1781    5.7114 N   0  0  0  0  0  0  0  0  0  0  0  0
   -8.2489  -39.5268    4.6769 N   0  0  0  0  0  0  0  0  0  0  0  0
   -9.6240  -39.4138    4.7305 C   0  0  0  0  0  0  0  0  0  0  0  0
  -10.3464  -39.9021    5.8030 N   0  0  0  0  0  0  0  0  0  0  0  0
   -2.0839  -45.3909    7.8538 O   0  5  0  0  0  0  0  0  0  0  0  0
   -4.2343  -43.8768    9.6063 O   0  0  0  0  0  0  0  0  0  0  0  0
   -6.9132  -44.6212    6.3444 S   0  0  0  0  0  0  0  0  0  0  0  0
   -7.1513  -43.0582    6.3972 C   0  0  0  0  0  0  0  0  0  0  0  0
   -2.5003  -47.7858    8.5553 O   0  0  0  0  0  0  0  0  0  0  0  0
   -1.8274  -43.4537    9.7993 O   0  5  0  0  0  0  0  0  0  0  0  0
   -7.3160  -42.6063    7.6766 N   0  0  0  0  0  0  0  0  0  0  0  0
   -2.8600  -45.7568   10.1085 O   0  0  0  0  0  0  0  0  0  0  0  0
   -2.9500  -43.8875   11.7950 O   0  0  0  0  0  0  0  0  0  0  0  0
   -7.2631  -43.6277    8.5828 C   0  0  1  0  0  0  0  0  0  0  0  0
   -7.0369  -44.8128    7.9290 C   0  0  2  0  0  0  0  0  0  0  0  0
   -6.8812  -46.2185    8.4537 C   0  0  0  0  0  0  0  0  0  0  0  0
   -5.4559  -46.4930    8.9465 C   0  0  0  0  0  0  0  0  0  0  0  0
   -4.3746  -46.1083    8.1172 O   0  0  0  0  0  0  0  0  0  0  0  0
  1 11  1  0  0  0  0
  3 13  1  6  0  0  0
  3 17  2  0  0  0  0
  3 20  1  0  0  0  0
  3 26  1  0  0  0  0
  4 14  1  6  0  0  0
  4 18  1  0  0  0  0
  4 21  2  0  0  0  0
  4 20  1  0  0  0  0
  5 19  1  0  0  0  0
  5  7  1  0  0  0  0
  6  7  2  0  0  0  0
  6 12  1  0  0  0  0
  7  8  1  0  0  0  0
  8  9  1  0  0  0  0
  8 10  2  0  0  0  0
 10 11  1  0  0  0  0
 11 12  2  0  0  0  0
 15 23  1  0  0  0  0
 15 16  1  0  0  0  0
 16 19  1  0  0  0  0
 19 22  1  0  0  0  0
 22  2  1  1  0  0  0
 22 23  1  0  0  0  0
 23 24  1  1  0  0  0
 24 25  1  0  0  0  0
 25 26  1  0  0  0  0
M  CHG  2  13  -1  18  -1
M  END
>  <CHROM.1>
41.38902522,30.11345769,95.84706144,53.28562722,96.93010999,-47.16891190
178.41821740,-158.09757529,-5.77275588,-43.49445813,7.90275554,2.57200788
-0.66543373,0.13901983

>  <Name>
ligand

>  <RI>
0

>  <Rbt.Current_Directory>
/home/itssahil/PROJECTS/Mol_Feturizer/New_Systems/rnas/3D2G

>  <Rbt.Executable>
rbdock ($Id: //depot/dev/client3/rdock/2013.1/src/exe/rbdock.cxx#4 $)

>  <Rbt.Library>
libRbt.so (2013.1, Build901 2013/11/27)

>  <Rbt.Parameter_File>
/export/apps/rDock/src/rDock_2013.1_src/data/scripts/dock_solv.prm

>  <Rbt.Receptor>
prm/pocket_docking_4.prm

>  <SCORE>
-14.2899

>  <SCORE.INTER>
-11.0418

>  <SCORE.INTER.CONST>
1

>  <SCORE.INTER.POLAR>
0

>  <SCORE.INTER.ROT>
8

>  <SCORE.INTER.SOLV>
14.5441

>  <SCORE.INTER.VDW>
-21.1426

>  <SCORE.INTER.norm>
-0.424686

>  <SCORE.INTRA>
-3.24801

>  <SCORE.INTRA.DIHEDRAL>
-2.86133

>  <SCORE.INTRA.DIHEDRAL.0>
9.09364

>  <SCORE.INTRA.POLAR>
0

>  <SCORE.INTRA.POLAR.0>
0

>  <SCORE.INTRA.REPUL>
0

>  <SCORE.INTRA.REPUL.0>
0

>  <SCORE.INTRA.SOLV>
-1.59232

>  <SCORE.INTRA.SOLV.lig_0>
-78.5846

>  <SCORE.INTRA.VDW>
-1.02118

>  <SCORE.INTRA.VDW.0>
-2.81163

>  <SCORE.INTRA.norm>
-0.124923

>  <SCORE.RESTR>
0

>  <SCORE.RESTR.CAVITY>
0

>  <SCORE.RESTR.norm>
0

>  <SCORE.SYSTEM>
0

>  <SCORE.SYSTEM.CONST>
0

>  <SCORE.SYSTEM.DIHEDRAL>
0

>  <SCORE.SYSTEM.SOLV>
0

>  <SCORE.SYSTEM.norm>
0

>  <SCORE.heavy>
26

>  <SCORE.norm>
-0.54961

>  <RMSD>
4.124

$$$$
ligand
 OpenBabel11021811463D
libRbt.so/2013.1/901 2013/11/27
 26 27  0  0  0  0  0  0  0  0999 V2000
   -7.4928  -35.4297    6.8437 C   0  0  0  0  0  0  0  0  0  0  0  0
   -4.4583  -41.3856    3.6621 C   0  0  0  0  0  0  0  0  0  0  0  0
   -6.8979  -45.1511    8.7706 P   0  0  1  0  0  0  0  0  0  0  0  0
   -6.7408  -43.7120   11.1045 P   0  0  2  0  0  0  0  0  0  0  0  0
   -7.0541  -39.7472    3.0879 C   0  0  0  0  0  0  0  0  0  0  0  0
   -6.0229  -37.8821    4.4263 C   0  0  0  0  0  0  0  0  0  0  0  0
   -7.1596  -38.6210    4.0845 C   0  0  0  0  0  0  0  0  0  0  0  0
   -8.4045  -38.2987    4.6319 C   0  0  0  0  0  0  0  0  0  0  0  0
   -9.4737  -38.9882    4.2936 N   0  0  0  0  0  0  0  0  0  0  0  0
   -8.5025  -37.2787    5.5466 N   0  0  0  0  0  0  0  0  0  0  0  0
   -7.3772  -36.5455    5.8671 C   0  0  0  0  0  0  0  0  0  0  0  0
   -6.1414  -36.8478    5.3268 N   0  0  0  0  0  0  0  0  0  0  0  0
   -5.8502  -46.2039    8.9666 O   0  5  0  0  0  0  0  0  0  0  0  0
   -6.5330  -45.0599   11.6718 O   0  0  0  0  0  0  0  0  0  0  0  0
   -7.7608  -42.9362    5.0786 S   0  0  0  0  0  0  0  0  0  0  0  0
   -8.1042  -41.5811    4.3382 C   0  0  0  0  0  0  0  0  0  0  0  0
   -8.2857  -45.5409    9.1388 O   0  0  0  0  0  0  0  0  0  0  0  0
   -8.1362  -43.2549   11.2462 O   0  5  0  0  0  0  0  0  0  0  0  0
   -6.9933  -40.9928    3.8015 N   0  0  0  0  0  0  0  0  0  0  0  0
   -6.3270  -43.9224    9.5888 O   0  0  0  0  0  0  0  0  0  0  0  0
   -5.9476  -42.5907   11.6934 O   0  0  0  0  0  0  0  0  0  0  0  0
   -5.8627  -41.7124    4.0689 C   0  0  1  0  0  0  0  0  0  0  0  0
   -6.1899  -42.8347    4.7876 C   0  0  2  0  0  0  0  0  0  0  0  0
   -5.3306  -43.9550    5.3188 C   0  0  0  0  0  0  0  0  0  0  0  0
   -5.5407  -44.1773    6.8209 C   0  0  0  0  0  0  0  0  0  0  0  0
   -6.7542  -44.7694    7.2472 O   0  0  0  0  0  0  0  0  0  0  0  0
  1 11  1  0  0  0  0
  3 13  1  1  0  0  0
  3 17  2  0  0  0  0
  3 20  1  0  0  0  0
  3 26  1  0  0  0  0
  4 14  1  1  0  0  0
  4 18  1  0  0  0  0
  4 21  2  0  0  0  0
  4 20  1  0  0  0  0
  5 19  1  0  0  0  0
  5  7  1  0  0  0  0
  6  7  2  0  0  0  0
  6 12  1  0  0  0  0
  7  8  1  0  0  0  0
  8  9  1  0  0  0  0
  8 10  2  0  0  0  0
 10 11  1  0  0  0  0
 11 12  2  0  0  0  0
 15 23  1  0  0  0  0
 15 16  1  0  0  0  0
 16 19  1  0  0  0  0
 19 22  1  0  0  0  0
 22  2  1  6  0  0  0
 22 23  1  0  0  0  0
 23 24  1  6  0  0  0
 24 25  1  0  0  0  0
 25 26  1  0  0  0  0
M  CHG  2  13  -1  18  -1
M  END
>  <CHROM.1>
-92.53000114,77.96527343,99.92030288,48.08285534,-53.80257206,72.26501142
172.96232056,-64.05546074,-6.91783915,-41.96029293,6.97007894,1.95560725
1.39822726,-1.08628827

>  <Name>
ligand

>  <RI>
0

>  <Rbt.Current_Directory>
/home/itssahil/PROJECTS/Mol_Feturizer/New_Systems/rnas/3D2G

>  <Rbt.Executable>
rbdock ($Id: //depot/dev/client3/rdock/2013.1/src/exe/rbdock.cxx#4 $)

>  <Rbt.Library>
libRbt.so (2013.1, Build901 2013/11/27)

>  <Rbt.Parameter_File>
/export/apps/rDock/src/rDock_2013.1_src/data/scripts/dock_solv.prm

>  <Rbt.Receptor>
prm/pocket_docking_8.prm

>  <SCORE>
-14.3947

>  <SCORE.INTER>
-12.7524

>  <SCORE.INTER.CONST>
1

>  <SCORE.INTER.POLAR>
0

>  <SCORE.INTER.ROT>
8

>  <SCORE.INTER.SOLV>
20.6416

>  <SCORE.INTER.VDW>
-24.3155

>  <SCORE.INTER.norm>
-0.490479

>  <SCORE.INTRA>
-1.64223

>  <SCORE.INTRA.DIHEDRAL>
-1.7907

>  <SCORE.INTRA.DIHEDRAL.0>
9.09364

>  <SCORE.INTRA.POLAR>
0

>  <SCORE.INTRA.POLAR.0>
0

>  <SCORE.INTRA.REPUL>
0

>  <SCORE.INTRA.REPUL.0>
0

>  <SCORE.INTRA.SOLV>
-1.28528

>  <SCORE.INTRA.SOLV.lig_0>
-78.5846

>  <SCORE.INTRA.VDW>
-0.104237

>  <SCORE.INTRA.VDW.0>
-2.81163

>  <SCORE.INTRA.norm>
-0.0631626

>  <SCORE.RESTR>
0

>  <SCORE.RESTR.CAVITY>
0

>  <SCORE.RESTR.norm>
0

>  <SCORE.SYSTEM>
0

>  <SCORE.SYSTEM.CONST>
0

>  <SCORE.SYSTEM.DIHEDRAL>
0

>  <SCORE.SYSTEM.SOLV>
0

>  <SCORE.SYSTEM.norm>
0

>  <SCORE.heavy>
26

>  <SCORE.norm>
-0.553641

>  <RMSD>
4.149

$$$$
ligand
 OpenBabel11021811463D
libRbt.so/2013.1/901 2013/11/27
 26 27  0  0  0  0  0  0  0  0999 V2000
   -5.2285  -35.5399    4.5568 C   0  0  0  0  0  0  0  0  0  0  0  0
   -7.7829  -42.7428    4.7891 C   0  0  0  0  0  0  0  0  0  0  0  0
   -4.4566  -44.8982    5.4605 P   0  0  1  0  0  0  0  0  0  0  0  0
   -3.5728  -47.4938    5.6181 P   0  0  2  0  0  0  0  0  0  0  0  0
   -8.9036  -39.8792    5.3336 C   0  0  0  0  0  0  0  0  0  0  0  0
   -8.1213  -37.5413    5.8392 C   0  0  0  0  0  0  0  0  0  0  0  0
   -7.9502  -38.7304    5.1239 C   0  0  0  0  0  0  0  0  0  0  0  0
   -6.8767  -38.8773    4.2412 C   0  0  0  0  0  0  0  0  0  0  0  0
   -6.7120  -40.0053    3.5828 N   0  0  0  0  0  0  0  0  0  0  0  0
   -6.0113  -37.8295    4.0414 N   0  0  0  0  0  0  0  0  0  0  0  0
   -6.1798  -36.6644    4.7629 C   0  0  0  0  0  0  0  0  0  0  0  0
   -7.2321  -36.5086    5.6455 N   0  0  0  0  0  0  0  0  0  0  0  0
   -3.4353  -44.4909    4.4430 O   0  5  0  0  0  0  0  0  0  0  0  0
   -2.7318  -47.2193    4.4353 O   0  0  0  0  0  0  0  0  0  0  0  0
   -7.5932  -41.5542    8.5131 S   0  0  0  0  0  0  0  0  0  0  0  0
   -8.2398  -40.4059    7.6382 C   0  0  0  0  0  0  0  0  0  0  0  0
   -5.7918  -45.2762    4.9239 O   0  0  0  0  0  0  0  0  0  0  0  0
   -4.8744  -48.0848    5.2536 O   0  5  0  0  0  0  0  0  0  0  0  0
   -8.3530  -40.7630    6.3237 N   0  0  0  0  0  0  0  0  0  0  0  0
   -3.7246  -46.0520    6.2593 O   0  0  0  0  0  0  0  0  0  0  0  0
   -3.0336  -48.4451    6.6367 O   0  0  0  0  0  0  0  0  0  0  0  0
   -7.8492  -42.0126    6.0957 C   0  0  1  0  0  0  0  0  0  0  0  0
   -7.3940  -42.5483    7.2742 C   0  0  2  0  0  0  0  0  0  0  0  0
   -6.7665  -43.8865    7.5759 C   0  0  0  0  0  0  0  0  0  0  0  0
   -5.2376  -43.8011    7.6464 C   0  0  0  0  0  0  0  0  0  0  0  0
   -4.5181  -43.6598    6.4351 O   0  0  0  0  0  0  0  0  0  0  0  0
  1 11  1  0  0  0  0
  3 13  1  6  0  0  0
  3 17  2  0  0  0  0
  3 20  1  0  0  0  0
  3 26  1  0  0  0  0
  4 14  1  6  0  0  0
  4 18  1  0  0  0  0
  4 21  2  0  0  0  0
  4 20  1  0  0  0  0
  5 19  1  0  0  0  0
  5  7  1  0  0  0  0
  6  7  2  0  0  0  0
  6 12  1  0  0  0  0
  7  8  1  0  0  0  0
  8  9  1  0  0  0  0
  8 10  2  0  0  0  0
 10 11  1  0  0  0  0
 11 12  2  0  0  0  0
 15 23  1  0  0  0  0
 15 16  1  0  0  0  0
 16 19  1  0  0  0  0
 19 22  1  0  0  0  0
 22  2  1  1  0  0  0
 22 23  1  0  0  0  0
 23 24  1  1  0  0  0
 24 25  1  0  0  0  0
 25 26  1  0  0  0  0
M  CHG  2  13  -1  18  -1
M  END
>  <CHROM.1>
-75.81860986,68.78379734,-93.94908025,63.15192207,-82.10288838,-73.97897815
-70.80259218,-169.93571658,-5.87958160,-42.62612786,5.79949926,-2.07378474
-0.73198420,2.75791372

>  <Name>
ligand

>  <RI>
0

>  <Rbt.Current_Directory>
/home/itssahil/PROJECTS/Mol_Feturizer/New_Systems/rnas/3D2G

>  <Rbt.Executable>
rbdock ($Id: //depot/dev/client3/rdock/2013.1/src/exe/rbdock.cxx#4 $)

>  <Rbt.Library>
libRbt.so (2013.1, Build901 2013/11/27)

>  <Rbt.Parameter_File>
/export/apps/rDock/src/rDock_2013.1_src/data/scripts/dock_solv.prm

>  <Rbt.Receptor>
prm/pocket_docking_6.prm

>  <SCORE>
-12.2631

>  <SCORE.INTER>
-10.4932

>  <SCORE.INTER.CONST>
1

>  <SCORE.INTER.POLAR>
0

>  <SCORE.INTER.ROT>
8

>  <SCORE.INTER.SOLV>
5.21221

>  <SCORE.INTER.VDW>
-17.6662

>  <SCORE.INTER.norm>
-0.403584

>  <SCORE.INTRA>
-1.76991

>  <SCORE.INTRA.DIHEDRAL>
-2.62859

>  <SCORE.INTRA.DIHEDRAL.0>
9.09364

>  <SCORE.INTRA.POLAR>
0

>  <SCORE.INTRA.POLAR.0>
0

>  <SCORE.INTRA.REPUL>
0

>  <SCORE.INTRA.REPUL.0>
0

>  <SCORE.INTRA.SOLV>
2.20712

>  <SCORE.INTRA.SOLV.lig_0>
-78.5846

>  <SCORE.INTRA.VDW>
-1.55918

>  <SCORE.INTRA.VDW.0>
-2.81163

>  <SCORE.INTRA.norm>
-0.0680734

>  <SCORE.RESTR>
0

>  <SCORE.RESTR.CAVITY>
0

>  <SCORE.RESTR.norm>
0

>  <SCORE.SYSTEM>
0

>  <SCORE.SYSTEM.CONST>
0

>  <SCORE.SYSTEM.DIHEDRAL>
0

>  <SCORE.SYSTEM.SOLV>
0

>  <SCORE.SYSTEM.norm>
0

>  <SCORE.heavy>
26

>  <SCORE.norm>
-0.471657

>  <RMSD>
4.192

$$$$
ligand
 OpenBabel11021811463D
libRbt.so/2013.1/901 2013/11/27
 26 27  0  0  0  0  0  0  0  0999 V2000
   -5.3811  -35.7075    4.7728 C   0  0  0  0  0  0  0  0  0  0  0  0
   -8.2493  -40.4724    7.8368 C   0  0  0  0  0  0  0  0  0  0  0  0
   -6.1659  -45.6285   10.2715 P   0  0  1  0  0  0  0  0  0  0  0  0
   -6.0870  -43.2864   11.7037 P   0  0  2  0  0  0  0  0  0  0  0  0
   -9.0998  -40.0782    4.8579 C   0  0  0  0  0  0  0  0  0  0  0  0
   -8.3787  -37.7881    5.6120 C   0  0  0  0  0  0  0  0  0  0  0  0
   -8.1344  -38.9207    4.8294 C   0  0  0  0  0  0  0  0  0  0  0  0
   -6.9793  -39.0051    4.0472 C   0  0  0  0  0  0  0  0  0  0  0  0
   -6.7473  -40.0810    3.3250 N   0  0  0  0  0  0  0  0  0  0  0  0
   -6.1021  -37.9487    4.0124 N   0  0  0  0  0  0  0  0  0  0  0  0
   -6.3443  -36.8405    4.7997 C   0  0  0  0  0  0  0  0  0  0  0  0
   -7.4783  -36.7473    5.5844 N   0  0  0  0  0  0  0  0  0  0  0  0
   -5.0900  -46.2989    9.4731 O   0  5  0  0  0  0  0  0  0  0  0  0
   -7.5494  -43.2554   11.4980 O   0  0  0  0  0  0  0  0  0  0  0  0
   -7.3814  -43.4451    5.4436 S   0  0  0  0  0  0  0  0  0  0  0  0
   -8.1087  -42.3114    4.6140 C   0  0  0  0  0  0  0  0  0  0  0  0
   -6.5632  -46.3156   11.5299 O   0  0  0  0  0  0  0  0  0  0  0  0
   -5.4927  -41.9362   11.6970 O   0  5  0  0  0  0  0  0  0  0  0  0
   -8.4255  -41.2307    5.3885 N   0  0  0  0  0  0  0  0  0  0  0  0
   -5.5981  -44.1657   10.4786 O   0  0  0  0  0  0  0  0  0  0  0  0
   -5.5869  -43.8784   12.9815 O   0  0  0  0  0  0  0  0  0  0  0  0
   -8.0591  -41.4194    6.6914 C   0  0  1  0  0  0  0  0  0  0  0  0
   -7.4568  -42.6448    6.8280 C   0  0  2  0  0  0  0  0  0  0  0  0
   -6.8650  -43.3275    8.0361 C   0  0  0  0  0  0  0  0  0  0  0  0
   -7.1053  -44.8413    8.0155 C   0  0  0  0  0  0  0  0  0  0  0  0
   -7.3563  -45.4965    9.2454 O   0  0  0  0  0  0  0  0  0  0  0  0
  1 11  1  0  0  0  0
  3 13  1  6  0  0  0
  3 17  2  0  0  0  0
  3 20  1  0  0  0  0
  3 26  1  0  0  0  0
  4 14  1  1  0  0  0
  4 18  1  0  0  0  0
  4 21  2  0  0  0  0
  4 20  1  0  0  0  0
  5 19  1  0  0  0  0
  5  7  1  0  0  0  0
  6  7  2  0  0  0  0
  6 12  1  0  0  0  0
  7  8  1  0  0  0  0
  8  9  1  0  0  0  0
  8 10  2  0  0  0  0
 10 11  1  0  0  0  0
 11 12  2  0  0  0  0
 15 23  1  0  0  0  0
 15 16  1  0  0  0  0
 16 19  1  0  0  0  0
 19 22  1  0  0  0  0
 22  2  1  6  0  0  0
 22 23  1  0  0  0  0
 23 24  1  6  0  0  0
 24 25  1  0  0  0  0
 25 26  1  0  0  0  0
M  CHG  2  13  -1  18  -1
M  END
>  <CHROM.1>
-155.81029985,-110.16145486,-116.34782869,-57.07752421,-36.57730583,-143.69027873
-69.93606008,-54.98063067,-6.88885914,-42.09819800,7.82870202,-1.98596349
1.28129448,2.76083471

>  <Name>
ligand

>  <RI>
0

>  <Rbt.Current_Directory>
/home/itssahil/PROJECTS/Mol_Feturizer/New_Systems/rnas/3D2G

>  <Rbt.Executable>
rbdock ($Id: //depot/dev/client3/rdock/2013.1/src/exe/rbdock.cxx#4 $)

>  <Rbt.Library>
libRbt.so (2013.1, Build901 2013/11/27)

>  <Rbt.Parameter_File>
/export/apps/rDock/src/rDock_2013.1_src/data/scripts/dock_solv.prm

>  <Rbt.Receptor>
prm/pocket_docking_7.prm

>  <SCORE>
-16.1134

>  <SCORE.INTER>
-17.37

>  <SCORE.INTER.CONST>
1

>  <SCORE.INTER.POLAR>
0

>  <SCORE.INTER.ROT>
8

>  <SCORE.INTER.SOLV>
18.5279

>  <SCORE.INTER.VDW>
-26.6893

>  <SCORE.INTER.norm>
-0.668078

>  <SCORE.INTRA>
1.2566

>  <SCORE.INTRA.DIHEDRAL>
1.29004

>  <SCORE.INTRA.DIHEDRAL.0>
9.09364

>  <SCORE.INTRA.POLAR>
0

>  <SCORE.INTRA.POLAR.0>
0

>  <SCORE.INTRA.REPUL>
0

>  <SCORE.INTRA.REPUL.0>
0

>  <SCORE.INTRA.SOLV>
-0.075267

>  <SCORE.INTRA.SOLV.lig_0>
-78.5846

>  <SCORE.INTRA.VDW>
0.649213

>  <SCORE.INTRA.VDW.0>
-2.81163

>  <SCORE.INTRA.norm>
0.0483308

>  <SCORE.RESTR>
0

>  <SCORE.RESTR.CAVITY>
0

>  <SCORE.RESTR.norm>
0

>  <SCORE.SYSTEM>
0

>  <SCORE.SYSTEM.CONST>
0

>  <SCORE.SYSTEM.DIHEDRAL>
0

>  <SCORE.SYSTEM.SOLV>
0

>  <SCORE.SYSTEM.norm>
0

>  <SCORE.heavy>
26

>  <SCORE.norm>
-0.619748

>  <RMSD>
4.216

$$$$
ligand
 OpenBabel11021811463D
libRbt.so/2013.1/901 2013/11/27
 26 27  0  0  0  0  0  0  0  0999 V2000
   -6.5705  -35.4774    5.8112 C   0  0  0  0  0  0  0  0  0  0  0  0
   -7.7947  -43.6646    4.7956 C   0  0  0  0  0  0  0  0  0  0  0  0
   -5.8402  -46.2153    9.4305 P   0  0  1  0  0  0  0  0  0  0  0  0
   -6.5106  -44.0421   10.9703 P   0  0  2  0  0  0  0  0  0  0  0  0
   -7.2752  -40.7773    3.7248 C   0  0  0  0  0  0  0  0  0  0  0  0
   -5.8329  -38.7660    4.1804 C   0  0  0  0  0  0  0  0  0  0  0  0
   -7.0795  -39.3909    4.2834 C   0  0  0  0  0  0  0  0  0  0  0  0
   -8.1596  -38.7238    4.8677 C   0  0  0  0  0  0  0  0  0  0  0  0
   -9.3349  -39.3117    4.9471 N   0  0  0  0  0  0  0  0  0  0  0  0
   -7.9824  -37.4639    5.3853 N   0  0  0  0  0  0  0  0  0  0  0  0
   -6.7517  -36.8493    5.2661 C   0  0  0  0  0  0  0  0  0  0  0  0
   -5.6771  -37.4940    4.6830 N   0  0  0  0  0  0  0  0  0  0  0  0
   -4.9495  -47.2388   10.0658 O   0  5  0  0  0  0  0  0  0  0  0  0
   -6.8670  -44.9692   12.0637 O   0  0  0  0  0  0  0  0  0  0  0  0
   -4.0878  -42.4331    5.0402 S   0  0  0  0  0  0  0  0  0  0  0  0
   -4.9683  -41.2907    4.3906 C   0  0  0  0  0  0  0  0  0  0  0  0
   -7.2977  -46.5113    9.4675 O   0  0  0  0  0  0  0  0  0  0  0  0
   -7.6750  -43.6865   10.1371 O   0  5  0  0  0  0  0  0  0  0  0  0
   -6.2835  -41.6491    4.2913 N   0  0  0  0  0  0  0  0  0  0  0  0
   -5.4280  -44.8765   10.1674 O   0  0  0  0  0  0  0  0  0  0  0  0
   -5.9417  -42.7149   11.3550 O   0  0  0  0  0  0  0  0  0  0  0  0
   -6.4965  -42.9179    4.7520 C   0  0  1  0  0  0  0  0  0  0  0  0
   -5.3138  -43.4499    5.2007 C   0  0  2  0  0  0  0  0  0  0  0  0
   -5.0015  -44.7938    5.8108 C   0  0  0  0  0  0  0  0  0  0  0  0
   -5.5946  -44.9380    7.2169 C   0  0  0  0  0  0  0  0  0  0  0  0
   -5.2772  -46.0996    7.9619 O   0  0  0  0  0  0  0  0  0  0  0  0
  1 11  1  0  0  0  0
  3 13  1  1  0  0  0
  3 17  2  0  0  0  0
  3 20  1  0  0  0  0
  3 26  1  0  0  0  0
  4 14  1  1  0  0  0
  4 18  1  0  0  0  0
  4 21  2  0  0  0  0
  4 20  1  0  0  0  0
  5 19  1  0  0  0  0
  5  7  1  0  0  0  0
  6  7  2  0  0  0  0
  6 12  1  0  0  0  0
  7  8  1  0  0  0  0
  8  9  1  0  0  0  0
  8 10  2  0  0  0  0
 10 11  1  0  0  0  0
 11 12  2  0  0  0  0
 15 23  1  0  0  0  0
 15 16  1  0  0  0  0
 16 19  1  0  0  0  0
 19 22  1  0  0  0  0
 22  2  1  1  0  0  0
 22 23  1  0  0  0  0
 23 24  1  1  0  0  0
 24 25  1  0  0  0  0
 25 26  1  0  0  0  0
M  CHG  2  13  -1  18  -1
M  END
>  <CHROM.1>
-121.29330529,-45.10398587,54.50532624,65.20392108,109.76288224,-174.23148613
177.47143844,-160.15598160,-6.26651695,-42.55171765,7.15701466,1.82006616
1.22212506,-0.89240080

>  <Name>
ligand

>  <RI>
0

>  <Rbt.Current_Directory>
/home/itssahil/PROJECTS/Mol_Feturizer/New_Systems/rnas/3D2G

>  <Rbt.Executable>
rbdock ($Id: //depot/dev/client3/rdock/2013.1/src/exe/rbdock.cxx#4 $)

>  <Rbt.Library>
libRbt.so (2013.1, Build901 2013/11/27)

>  <Rbt.Parameter_File>
/export/apps/rDock/src/rDock_2013.1_src/data/scripts/dock_solv.prm

>  <Rbt.Receptor>
prm/pocket_docking_4.prm

>  <SCORE>
-10.3941

>  <SCORE.INTER>
-9.29507

>  <SCORE.INTER.CONST>
1

>  <SCORE.INTER.POLAR>
0

>  <SCORE.INTER.ROT>
8

>  <SCORE.INTER.SOLV>
19.255

>  <SCORE.INTER.VDW>
-21.5484

>  <SCORE.INTER.norm>
-0.357503

>  <SCORE.INTRA>
-1.10293

>  <SCORE.INTRA.DIHEDRAL>
-1.68199

>  <SCORE.INTRA.DIHEDRAL.0>
9.09364

>  <SCORE.INTRA.POLAR>
0

>  <SCORE.INTRA.POLAR.0>
0

>  <SCORE.INTRA.REPUL>
0

>  <SCORE.INTRA.REPUL.0>
0

>  <SCORE.INTRA.SOLV>
-1.93121

>  <SCORE.INTRA.SOLV.lig_0>
-78.5846

>  <SCORE.INTRA.VDW>
0.703672

>  <SCORE.INTRA.VDW.0>
-2.81163

>  <SCORE.INTRA.norm>
-0.0424203

>  <SCORE.RESTR>
0.00388593

>  <SCORE.RESTR.CAVITY>
0.00388593

>  <SCORE.RESTR.norm>
0.000149459

>  <SCORE.SYSTEM>
0

>  <SCORE.SYSTEM.CONST>
0

>  <SCORE.SYSTEM.DIHEDRAL>
0

>  <SCORE.SYSTEM.SOLV>
0

>  <SCORE.SYSTEM.norm>
0

>  <SCORE.heavy>
26

>  <SCORE.norm>
-0.399774

>  <RMSD>
4.234

$$$$
ligand
 OpenBabel11021811463D
libRbt.so/2013.1/901 2013/11/27
 26 27  0  0  0  0  0  0  0  0999 V2000
  -13.5985  -37.7261    2.0295 C   0  0  0  0  0  0  0  0  0  0  0  0
   -5.5073  -39.7618    4.3991 C   0  0  0  0  0  0  0  0  0  0  0  0
   -6.7198  -45.2978    6.4177 P   0  0  1  0  0  0  0  0  0  0  0  0
   -8.6418  -45.7422    4.5068 P   0  0  2  0  0  0  0  0  0  0  0  0
   -8.1327  -39.3131    2.7686 C   0  0  0  0  0  0  0  0  0  0  0  0
  -10.2160  -39.1866    1.3626 C   0  0  0  0  0  0  0  0  0  0  0  0
   -9.5639  -38.8867    2.5624 C   0  0  0  0  0  0  0  0  0  0  0  0
  -10.2418  -38.2262    3.5907 C   0  0  0  0  0  0  0  0  0  0  0  0
   -9.6269  -37.9611    4.7241 N   0  0  0  0  0  0  0  0  0  0  0  0
  -11.5432  -37.8288    3.4028 N   0  0  0  0  0  0  0  0  0  0  0  0
  -12.1833  -38.1420    2.2202 C   0  0  0  0  0  0  0  0  0  0  0  0
  -11.5275  -38.8023    1.1981 N   0  0  0  0  0  0  0  0  0  0  0  0
   -6.5336  -45.8037    7.8154 O   0  5  0  0  0  0  0  0  0  0  0  0
   -9.9436  -46.4377    4.5641 O   0  0  0  0  0  0  0  0  0  0  0  0
   -8.7469  -41.2636    6.0013 S   0  0  0  0  0  0  0  0  0  0  0  0
   -9.1275  -40.5515    4.6410 C   0  0  0  0  0  0  0  0  0  0  0  0
   -5.5757  -45.5147    5.4916 O   0  0  0  0  0  0  0  0  0  0  0  0
   -7.7621  -46.2883    3.4559 O   0  5  0  0  0  0  0  0  0  0  0  0
   -8.0348  -40.0180    4.0168 N   0  0  0  0  0  0  0  0  0  0  0  0
   -8.0673  -45.9925    5.9629 O   0  0  0  0  0  0  0  0  0  0  0  0
   -8.6597  -44.2765    4.2161 O   0  0  0  0  0  0  0  0  0  0  0  0
   -6.8944  -40.2104    4.7448 C   0  0  1  0  0  0  0  0  0  0  0  0
   -7.1900  -40.9086    5.8886 C   0  0  2  0  0  0  0  0  0  0  0  0
   -6.3049  -41.3868    7.0127 C   0  0  0  0  0  0  0  0  0  0  0  0
   -5.9925  -42.8834    6.9009 C   0  0  0  0  0  0  0  0  0  0  0  0
   -7.0596  -43.7713    6.6220 O   0  0  0  0  0  0  0  0  0  0  0  0
  1 11  1  0  0  0  0
  3 13  1  1  0  0  0
  3 17  2  0  0  0  0
  3 20  1  0  0  0  0
  3 26  1  0  0  0  0
  4 14  1  6  0  0  0
  4 18  1  0  0  0  0
  4 21  2  0  0  0  0
  4 20  1  0  0  0  0
  5 19  1  0  0  0  0
  5  7  1  0  0  0  0
  6  7  2  0  0  0  0
  6 12  1  0  0  0  0
  7  8  1  0  0  0  0
  8  9  1  0  0  0  0
  8 10  2  0  0  0  0
 10 11  1  0  0  0  0
 11 12  2  0  0  0  0
 15 23  1  0  0  0  0
 15 16  1  0  0  0  0
 16 19  1  0  0  0  0
 19 22  1  0  0  0  0
 22  2  1  6  0  0  0
 22 23  1  0  0  0  0
 23 24  1  6  0  0  0
 24 25  1  0  0  0  0
 25 26  1  0  0  0  0
M  CHG  2  13  -1  18  -1
M  END
>  <CHROM.1>
-179.25631579,18.73873796,-128.55262716,-174.05672543,77.38872070,-46.00538123
176.21105805,78.22836211,-8.47300153,-42.10899732,4.68306250,2.12750061,-0.64608593
-0.05696470

>  <Name>
ligand

>  <RI>
0

>  <Rbt.Current_Directory>
/home/itssahil/PROJECTS/Mol_Feturizer/New_Systems/rnas/3D2G

>  <Rbt.Executable>
rbdock ($Id: //depot/dev/client3/rdock/2013.1/src/exe/rbdock.cxx#4 $)

>  <Rbt.Library>
libRbt.so (2013.1, Build901 2013/11/27)

>  <Rbt.Parameter_File>
/export/apps/rDock/src/rDock_2013.1_src/data/scripts/dock_solv.prm

>  <Rbt.Receptor>
prm/pocket_docking_8.prm

>  <SCORE>
-21.2957

>  <SCORE.INTER>
-21.205

>  <SCORE.INTER.CONST>
1

>  <SCORE.INTER.POLAR>
0

>  <SCORE.INTER.ROT>
8

>  <SCORE.INTER.SOLV>
16.4772

>  <SCORE.INTER.VDW>
-28.5624

>  <SCORE.INTER.norm>
-0.815576

>  <SCORE.INTRA>
-0.0907676

>  <SCORE.INTRA.DIHEDRAL>
-2.72076

>  <SCORE.INTRA.DIHEDRAL.0>
9.09364

>  <SCORE.INTRA.POLAR>
0

>  <SCORE.INTRA.POLAR.0>
0

>  <SCORE.INTRA.REPUL>
0

>  <SCORE.INTRA.REPUL.0>
0

>  <SCORE.INTRA.SOLV>
2.0829

>  <SCORE.INTRA.SOLV.lig_0>
-78.5846

>  <SCORE.INTRA.VDW>
0.22816

>  <SCORE.INTRA.VDW.0>
-2.81163

>  <SCORE.INTRA.norm>
-0.00349106

>  <SCORE.RESTR>
0

>  <SCORE.RESTR.CAVITY>
0

>  <SCORE.RESTR.norm>
0

>  <SCORE.SYSTEM>
0

>  <SCORE.SYSTEM.CONST>
0

>  <SCORE.SYSTEM.DIHEDRAL>
0

>  <SCORE.SYSTEM.SOLV>
0

>  <SCORE.SYSTEM.norm>
0

>  <SCORE.heavy>
26

>  <SCORE.norm>
-0.819067

>  <RMSD>
4.251

$$$$
ligand
 OpenBabel11021811463D
libRbt.so/2013.1/901 2013/11/27
 26 27  0  0  0  0  0  0  0  0999 V2000
  -12.0079  -38.2029    1.8252 C   0  0  0  0  0  0  0  0  0  0  0  0
   -4.1589  -41.2454    3.1409 C   0  0  0  0  0  0  0  0  0  0  0  0
   -2.7518  -46.7235    5.2035 P   0  0  1  0  0  0  0  0  0  0  0  0
   -0.0824  -47.1597    5.6798 P   0  0  2  0  0  0  0  0  0  0  0  0
   -6.8583  -39.8123    3.7827 C   0  0  0  0  0  0  0  0  0  0  0  0
   -8.4416  -39.3418    1.8840 C   0  0  0  0  0  0  0  0  0  0  0  0
   -8.2042  -39.3769    3.2614 C   0  0  0  0  0  0  0  0  0  0  0  0
   -9.2195  -39.0473    4.1634 C   0  0  0  0  0  0  0  0  0  0  0  0
   -8.9943  -39.0978    5.4594 N   0  0  0  0  0  0  0  0  0  0  0  0
  -10.4442  -38.6419    3.6915 N   0  0  0  0  0  0  0  0  0  0  0  0
  -10.6738  -38.6242    2.3301 C   0  0  0  0  0  0  0  0  0  0  0  0
   -9.6814  -38.9559    1.4270 N   0  0  0  0  0  0  0  0  0  0  0  0
   -3.7199  -47.8653    5.2643 O   0  5  0  0  0  0  0  0  0  0  0  0
    0.9528  -47.8664    4.8984 O   0  0  0  0  0  0  0  0  0  0  0  0
   -7.2978  -43.5788    3.2804 S   0  0  0  0  0  0  0  0  0  0  0  0
   -7.7469  -42.0926    3.5833 C   0  0  0  0  0  0  0  0  0  0  0  0
   -2.6802  -45.8686    6.4191 O   0  0  0  0  0  0  0  0  0  0  0  0
   -0.1967  -47.6800    7.0556 O   0  5  0  0  0  0  0  0  0  0  0  0
   -6.6977  -41.2181    3.5329 N   0  0  0  0  0  0  0  0  0  0  0  0
   -1.3882  -47.4311    4.8229 O   0  0  0  0  0  0  0  0  0  0  0  0
    0.0939  -45.6892    5.8794 O   0  0  0  0  0  0  0  0  0  0  0  0
   -5.5207  -41.8579    3.2629 C   0  0  1  0  0  0  0  0  0  0  0  0
   -5.7526  -43.2007    3.1010 C   0  0  2  0  0  0  0  0  0  0  0  0
   -4.8121  -44.3359    2.7808 C   0  0  0  0  0  0  0  0  0  0  0  0
   -4.2902  -45.0241    4.0472 C   0  0  0  0  0  0  0  0  0  0  0  0
   -3.2055  -45.9254    3.9211 O   0  0  0  0  0  0  0  0  0  0  0  0
  1 11  1  0  0  0  0
  3 13  1  1  0  0  0
  3 17  2  0  0  0  0
  3 20  1  0  0  0  0
  3 26  1  0  0  0  0
  4 14  1  6  0  0  0
  4 18  1  0  0  0  0
  4 21  2  0  0  0  0
  4 20  1  0  0  0  0
  5 19  1  0  0  0  0
  5  7  1  0  0  0  0
  6  7  2  0  0  0  0
  6 12  1  0  0  0  0
  7  8  1  0  0  0  0
  8  9  1  0  0  0  0
  8 10  2  0  0  0  0
 10 11  1  0  0  0  0
 11 12  2  0  0  0  0
 15 23  1  0  0  0  0
 15 16  1  0  0  0  0
 16 19  1  0  0  0  0
 19 22  1  0  0  0  0
 22  2  1  6  0  0  0
 22 23  1  0  0  0  0
 23 24  1  6  0  0  0
 24 25  1  0  0  0  0
 25 26  1  0  0  0  0
M  CHG  2  13  -1  18  -1
M  END
>  <CHROM.1>
-128.77483536,-34.49400889,-69.38722767,-173.48777529,-87.38988989,-167.75148479
-174.87934548,81.76822562,-5.06863326,-43.47065668,4.14777357,2.45934379
-0.39451771,0.12020798

>  <Name>
ligand

>  <RI>
0

>  <Rbt.Current_Directory>
/home/itssahil/PROJECTS/Mol_Feturizer/New_Systems/rnas/3D2G

>  <Rbt.Executable>
rbdock ($Id: //depot/dev/client3/rdock/2013.1/src/exe/rbdock.cxx#4 $)

>  <Rbt.Library>
libRbt.so (2013.1, Build901 2013/11/27)

>  <Rbt.Parameter_File>
/export/apps/rDock/src/rDock_2013.1_src/data/scripts/dock_solv.prm

>  <Rbt.Receptor>
prm/pocket_docking_8.prm

>  <SCORE>
-16.2088

>  <SCORE.INTER>
-15.6282

>  <SCORE.INTER.CONST>
1

>  <SCORE.INTER.POLAR>
0

>  <SCORE.INTER.ROT>
8

>  <SCORE.INTER.SOLV>
9.77728

>  <SCORE.INTER.VDW>
-22.6112

>  <SCORE.INTER.norm>
-0.601085

>  <SCORE.INTRA>
-0.580603

>  <SCORE.INTRA.DIHEDRAL>
-0.707532

>  <SCORE.INTRA.DIHEDRAL.0>
9.09364

>  <SCORE.INTRA.POLAR>
0

>  <SCORE.INTRA.POLAR.0>
0

>  <SCORE.INTRA.REPUL>
0

>  <SCORE.INTRA.REPUL.0>
0

>  <SCORE.INTRA.SOLV>
-0.451805

>  <SCORE.INTRA.SOLV.lig_0>
-78.5846

>  <SCORE.INTRA.VDW>
-0.000935105

>  <SCORE.INTRA.VDW.0>
-2.81163

>  <SCORE.INTRA.norm>
-0.0223309

>  <SCORE.RESTR>
0

>  <SCORE.RESTR.CAVITY>
0

>  <SCORE.RESTR.norm>
0

>  <SCORE.SYSTEM>
0

>  <SCORE.SYSTEM.CONST>
0

>  <SCORE.SYSTEM.DIHEDRAL>
0

>  <SCORE.SYSTEM.SOLV>
0

>  <SCORE.SYSTEM.norm>
0

>  <SCORE.heavy>
26

>  <SCORE.norm>
-0.623416

>  <RMSD>
4.286

$$$$
ligand
 OpenBabel11021811463D
libRbt.so/2013.1/901 2013/11/27
 26 27  0  0  0  0  0  0  0  0999 V2000
   -6.0632  -43.9271    0.2233 C   0  0  0  0  0  0  0  0  0  0  0  0
   -9.1597  -40.4797    4.6677 C   0  0  0  0  0  0  0  0  0  0  0  0
   -7.1117  -43.6262   10.0765 P   0  0  1  0  0  0  0  0  0  0  0  0
   -6.8930  -45.7125    8.3038 P   0  0  2  0  0  0  0  0  0  0  0  0
   -6.8994  -39.0209    3.0817 C   0  0  0  0  0  0  0  0  0  0  0  0
   -7.5894  -40.6928    1.3318 C   0  0  0  0  0  0  0  0  0  0  0  0
   -6.6936  -40.3153    2.3367 C   0  0  0  0  0  0  0  0  0  0  0  0
   -5.5836  -41.1117    2.6314 C   0  0  0  0  0  0  0  0  0  0  0  0
   -4.7351  -40.7425    3.5677 N   0  0  0  0  0  0  0  0  0  0  0  0
   -5.3979  -42.2958    1.9604 N   0  0  0  0  0  0  0  0  0  0  0  0
   -6.2798  -42.6532    0.9598 C   0  0  0  0  0  0  0  0  0  0  0  0
   -7.3770  -41.8708    0.6522 N   0  0  0  0  0  0  0  0  0  0  0  0
   -7.6087  -43.7185   11.4868 O   0  5  0  0  0  0  0  0  0  0  0  0
   -7.7867  -46.8494    8.0027 O   0  0  0  0  0  0  0  0  0  0  0  0
   -6.0721  -39.3676    6.8002 S   0  0  0  0  0  0  0  0  0  0  0  0
   -5.8355  -38.9479    5.2934 C   0  0  0  0  0  0  0  0  0  0  0  0
   -5.6393  -43.4865    9.9155 O   0  0  0  0  0  0  0  0  0  0  0  0
   -5.5783  -46.1531    8.8077 O   0  5  0  0  0  0  0  0  0  0  0  0
   -6.8885  -39.2919    4.4927 N   0  0  0  0  0  0  0  0  0  0  0  0
   -7.7221  -44.9191    9.3974 O   0  0  0  0  0  0  0  0  0  0  0  0
   -6.5424  -44.7985    7.1747 O   0  0  0  0  0  0  0  0  0  0  0  0
   -7.8656  -39.9394    5.1951 C   0  0  1  0  0  0  0  0  0  0  0  0
   -7.5002  -40.0323    6.5145 C   0  0  2  0  0  0  0  0  0  0  0  0
   -8.2148  -40.6333    7.6994 C   0  0  0  0  0  0  0  0  0  0  0  0
   -7.4860  -41.8667    8.2446 C   0  0  0  0  0  0  0  0  0  0  0  0
   -7.9099  -42.4012    9.4854 O   0  0  0  0  0  0  0  0  0  0  0  0
  1 11  1  0  0  0  0
  3 13  1  1  0  0  0
  3 17  2  0  0  0  0
  3 20  1  0  0  0  0
  3 26  1  0  0  0  0
  4 14  1  6  0  0  0
  4 18  1  0  0  0  0
  4 21  2  0  0  0  0
  4 20  1  0  0  0  0
  5 19  1  0  0  0  0
  5  7  1  0  0  0  0
  6  7  2  0  0  0  0
  6 12  1  0  0  0  0
  7  8  1  0  0  0  0
  8  9  1  0  0  0  0
  8 10  2  0  0  0  0
 10 11  1  0  0  0  0
 11 12  2  0  0  0  0
 15 23  1  0  0  0  0
 15 16  1  0  0  0  0
 16 19  1  0  0  0  0
 19 22  1  0  0  0  0
 22  2  1  1  0  0  0
 22 23  1  0  0  0  0
 23 24  1  1  0  0  0
 24 25  1  0  0  0  0
 25 26  1  0  0  0  0
M  CHG  2  13  -1  18  -1
M  END
>  <CHROM.1>
-143.70791385,106.57770424,127.45430349,177.28727452,-67.20259399,169.51637251
-177.04005948,167.50553295,-6.85065421,-42.33581501,6.20893447,-1.02578672
-1.45017801,2.58113245

>  <Name>
ligand

>  <RI>
0

>  <Rbt.Current_Directory>
/home/itssahil/PROJECTS/Mol_Feturizer/New_Systems/rnas/3D2G

>  <Rbt.Executable>
rbdock ($Id: //depot/dev/client3/rdock/2013.1/src/exe/rbdock.cxx#4 $)

>  <Rbt.Library>
libRbt.so (2013.1, Build901 2013/11/27)

>  <Rbt.Parameter_File>
/export/apps/rDock/src/rDock_2013.1_src/data/scripts/dock_solv.prm

>  <Rbt.Receptor>
prm/pocket_docking_6.prm

>  <SCORE>
-14.4842

>  <SCORE.INTER>
-14.4295

>  <SCORE.INTER.CONST>
1

>  <SCORE.INTER.POLAR>
0

>  <SCORE.INTER.ROT>
8

>  <SCORE.INTER.SOLV>
16.85

>  <SCORE.INTER.VDW>
-24.1696

>  <SCORE.INTER.norm>
-0.554979

>  <SCORE.INTRA>
-0.0547959

>  <SCORE.INTRA.DIHEDRAL>
-1.10894

>  <SCORE.INTRA.DIHEDRAL.0>
9.09364

>  <SCORE.INTRA.POLAR>
0

>  <SCORE.INTRA.POLAR.0>
0

>  <SCORE.INTRA.REPUL>
0

>  <SCORE.INTRA.REPUL.0>
0

>  <SCORE.INTRA.SOLV>
2.33449

>  <SCORE.INTRA.SOLV.lig_0>
-78.5846

>  <SCORE.INTRA.VDW>
-0.667574

>  <SCORE.INTRA.VDW.0>
-2.81163

>  <SCORE.INTRA.norm>
-0.00210754

>  <SCORE.RESTR>
0

>  <SCORE.RESTR.CAVITY>
0

>  <SCORE.RESTR.norm>
0

>  <SCORE.SYSTEM>
0

>  <SCORE.SYSTEM.CONST>
0

>  <SCORE.SYSTEM.DIHEDRAL>
0

>  <SCORE.SYSTEM.SOLV>
0

>  <SCORE.SYSTEM.norm>
0

>  <SCORE.heavy>
26

>  <SCORE.norm>
-0.557086

>  <RMSD>
4.352

$$$$
ligand
 OpenBabel11021811463D
libRbt.so/2013.1/901 2013/11/27
 26 27  0  0  0  0  0  0  0  0999 V2000
  -10.2026  -38.9876    3.9309 C   0  0  0  0  0  0  0  0  0  0  0  0
   -7.5665  -43.4053   10.5209 C   0  0  0  0  0  0  0  0  0  0  0  0
   -4.0334  -45.5053    9.6643 P   0  0  1  0  0  0  0  0  0  0  0  0
   -4.0351  -43.7248   11.7554 P   0  0  2  0  0  0  0  0  0  0  0  0
   -7.2137  -41.2776    8.2624 C   0  0  0  0  0  0  0  0  0  0  0  0
   -9.3858  -40.5002    7.2571 C   0  0  0  0  0  0  0  0  0  0  0  0
   -8.0070  -40.6897    7.1233 C   0  0  0  0  0  0  0  0  0  0  0  0
   -7.3496  -40.3022    5.9525 C   0  0  0  0  0  0  0  0  0  0  0  0
   -6.0486  -40.4686    5.8390 N   0  0  0  0  0  0  0  0  0  0  0  0
   -8.0709  -39.7742    4.9096 N   0  0  0  0  0  0  0  0  0  0  0  0
   -9.4296  -39.5775    5.0564 C   0  0  0  0  0  0  0  0  0  0  0  0
  -10.0913  -39.9483    6.2119 N   0  0  0  0  0  0  0  0  0  0  0  0
   -4.4131  -45.3303    8.2257 O   0  5  0  0  0  0  0  0  0  0  0  0
   -4.3780  -44.8775   12.6130 O   0  0  0  0  0  0  0  0  0  0  0  0
   -6.8954  -44.8558    6.9484 S   0  0  0  0  0  0  0  0  0  0  0  0
   -6.9246  -43.2764    6.8659 C   0  0  0  0  0  0  0  0  0  0  0  0
   -2.5936  -45.7723    9.9273 O   0  0  0  0  0  0  0  0  0  0  0  0
   -4.6647  -42.4746   12.2213 O   0  5  0  0  0  0  0  0  0  0  0  0
   -7.1379  -42.7017    8.0876 N   0  0  0  0  0  0  0  0  0  0  0  0
   -4.5864  -44.1865   10.3426 O   0  0  0  0  0  0  0  0  0  0  0  0
   -2.5900  -43.3624   11.6396 O   0  0  0  0  0  0  0  0  0  0  0  0
   -7.3022  -43.6421    9.0653 C   0  0  1  0  0  0  0  0  0  0  0  0
   -7.1814  -44.8969    8.5230 C   0  0  2  0  0  0  0  0  0  0  0  0
   -7.2627  -46.2622    9.1594 C   0  0  0  0  0  0  0  0  0  0  0  0
   -6.3382  -46.3847   10.3760 C   0  0  0  0  0  0  0  0  0  0  0  0
   -4.9709  -46.6762   10.1516 O   0  0  0  0  0  0  0  0  0  0  0  0
  1 11  1  0  0  0  0
  3 13  1  6  0  0  0
  3 17  2  0  0  0  0
  3 20  1  0  0  0  0
  3 26  1  0  0  0  0
  4 14  1  1  0  0  0
  4 18  1  0  0  0  0
  4 21  2  0  0  0  0
  4 20  1  0  0  0  0
  5 19  1  0  0  0  0
  5  7  1  0  0  0  0
  6  7  2  0  0  0  0
  6 12  1  0  0  0  0
  7  8  1  0  0  0  0
  8  9  1  0  0  0  0
  8 10  2  0  0  0  0
 10 11  1  0  0  0  0
 11 12  2  0  0  0  0
 15 23  1  0  0  0  0
 15 16  1  0  0  0  0
 16 19  1  0  0  0  0
 19 22  1  0  0  0  0
 22  2  1  1  0  0  0
 22 23  1  0  0  0  0
 23 24  1  1  0  0  0
 24 25  1  0  0  0  0
 25 26  1  0  0  0  0
M  CHG  2  13  -1  18  -1
M  END
>  <CHROM.1>
-161.06724598,41.30908759,92.58731246,-59.74812026,127.71778977,-82.27686940
77.49035265,-74.73444469,-6.18730754,-43.32571345,8.71430325,-2.68886372
0.91832051,-2.95103375

>  <Name>
ligand

>  <RI>
0

>  <Rbt.Current_Directory>
/home/itssahil/PROJECTS/Mol_Feturizer/New_Systems/rnas/3D2G

>  <Rbt.Executable>
rbdock ($Id: //depot/dev/client3/rdock/2013.1/src/exe/rbdock.cxx#4 $)

>  <Rbt.Library>
libRbt.so (2013.1, Build901 2013/11/27)

>  <Rbt.Parameter_File>
/export/apps/rDock/src/rDock_2013.1_src/data/scripts/dock_solv.prm

>  <Rbt.Receptor>
prm/pocket_docking_5.prm

>  <SCORE>
-15.7985

>  <SCORE.INTER>
-15.0575

>  <SCORE.INTER.CONST>
1

>  <SCORE.INTER.POLAR>
0

>  <SCORE.INTER.ROT>
8

>  <SCORE.INTER.SOLV>
13.9309

>  <SCORE.INTER.VDW>
-23.6153

>  <SCORE.INTER.norm>
-0.579133

>  <SCORE.INTRA>
-0.741077

>  <SCORE.INTRA.DIHEDRAL>
0.286049

>  <SCORE.INTRA.DIHEDRAL.0>
9.09364

>  <SCORE.INTRA.POLAR>
0

>  <SCORE.INTRA.POLAR.0>
0

>  <SCORE.INTRA.REPUL>
0

>  <SCORE.INTRA.REPUL.0>
0

>  <SCORE.INTRA.SOLV>
1.87386

>  <SCORE.INTRA.SOLV.lig_0>
-78.5846

>  <SCORE.INTRA.VDW>
-1.82103

>  <SCORE.INTRA.VDW.0>
-2.81163

>  <SCORE.INTRA.norm>
-0.028503

>  <SCORE.RESTR>
0

>  <SCORE.RESTR.CAVITY>
0

>  <SCORE.RESTR.norm>
0

>  <SCORE.SYSTEM>
0

>  <SCORE.SYSTEM.CONST>
0

>  <SCORE.SYSTEM.DIHEDRAL>
0

>  <SCORE.SYSTEM.SOLV>
0

>  <SCORE.SYSTEM.norm>
0

>  <SCORE.heavy>
26

>  <SCORE.norm>
-0.607636

>  <RMSD>
4.398

$$$$
ligand
 OpenBabel11021811463D
libRbt.so/2013.1/901 2013/11/27
 26 27  0  0  0  0  0  0  0  0999 V2000
   -4.9980  -35.7096    4.3508 C   0  0  0  0  0  0  0  0  0  0  0  0
   -6.7239  -41.0474    7.7883 C   0  0  0  0  0  0  0  0  0  0  0  0
   -6.4130  -45.2290   10.2909 P   0  0  1  0  0  0  0  0  0  0  0  0
   -4.5952  -43.9606   11.9126 P   0  0  2  0  0  0  0  0  0  0  0  0
   -8.8314  -39.6758    5.9364 C   0  0  0  0  0  0  0  0  0  0  0  0
   -7.1242  -38.7913    4.3127 C   0  0  0  0  0  0  0  0  0  0  0  0
   -7.8129  -38.6451    5.5207 C   0  0  0  0  0  0  0  0  0  0  0  0
   -7.5921  -37.5278    6.3307 C   0  0  0  0  0  0  0  0  0  0  0  0
   -8.2556  -37.3879    7.4591 N   0  0  0  0  0  0  0  0  0  0  0  0
   -6.6586  -36.5912    5.9589 N   0  0  0  0  0  0  0  0  0  0  0  0
   -5.9939  -36.7368    4.7575 C   0  0  0  0  0  0  0  0  0  0  0  0
   -6.2087  -37.8324    3.9426 N   0  0  0  0  0  0  0  0  0  0  0  0
   -6.7604  -46.6717   10.0849 O   0  5  0  0  0  0  0  0  0  0  0  0
   -3.8569  -44.4608   13.0900 O   0  0  0  0  0  0  0  0  0  0  0  0
   -7.8910  -43.1783    4.7201 S   0  0  0  0  0  0  0  0  0  0  0  0
   -8.6480  -41.7895    4.7005 C   0  0  0  0  0  0  0  0  0  0  0  0
   -7.5318  -44.3476   10.7211 O   0  0  0  0  0  0  0  0  0  0  0  0
   -5.6377  -42.9836   12.2801 O   0  5  0  0  0  0  0  0  0  0  0  0
   -8.2726  -40.9848    5.7395 N   0  0  0  0  0  0  0  0  0  0  0  0
   -5.2053  -45.2947   11.3118 O   0  0  0  0  0  0  0  0  0  0  0  0
   -3.8076  -43.2476   10.8616 O   0  0  0  0  0  0  0  0  0  0  0  0
   -7.3592  -41.5997    6.5489 C   0  0  1  0  0  0  0  0  0  0  0  0
   -7.0745  -42.8487    6.0570 C   0  0  2  0  0  0  0  0  0  0  0  0
   -6.1360  -43.9188    6.5567 C   0  0  0  0  0  0  0  0  0  0  0  0
   -6.6746  -44.6147    7.8118 C   0  0  0  0  0  0  0  0  0  0  0  0
   -5.7943  -44.7989    8.9055 O   0  0  0  0  0  0  0  0  0  0  0  0
  1 11  1  0  0  0  0
  3 13  1  6  0  0  0
  3 17  2  0  0  0  0
  3 20  1  0  0  0  0
  3 26  1  0  0  0  0
  4 14  1  1  0  0  0
  4 18  1  0  0  0  0
  4 21  2  0  0  0  0
  4 20  1  0  0  0  0
  5 19  1  0  0  0  0
  5  7  1  0  0  0  0
  6  7  2  0  0  0  0
  6 12  1  0  0  0  0
  7  8  1  0  0  0  0
  8  9  1  0  0  0  0
  8 10  2  0  0  0  0
 10 11  1  0  0  0  0
 11 12  2  0  0  0  0
 15 23  1  0  0  0  0
 15 16  1  0  0  0  0
 16 19  1  0  0  0  0
 19 22  1  0  0  0  0
 22  2  1  6  0  0  0
 22 23  1  0  0  0  0
 23 24  1  6  0  0  0
 24 25  1  0  0  0  0
 25 26  1  0  0  0  0
M  CHG  2  13  -1  18  -1
M  END
>  <CHROM.1>
-174.65359693,-104.94779666,46.32627462,162.12861363,-107.06995479,-133.04887482
167.29468544,74.13881972,-6.50985777,-41.99909074,7.94996779,-1.94947647
1.06013389,2.72928631

>  <Name>
ligand

>  <RI>
0

>  <Rbt.Current_Directory>
/home/itssahil/PROJECTS/Mol_Feturizer/New_Systems/rnas/3D2G

>  <Rbt.Executable>
rbdock ($Id: //depot/dev/client3/rdock/2013.1/src/exe/rbdock.cxx#4 $)

>  <Rbt.Library>
libRbt.so (2013.1, Build901 2013/11/27)

>  <Rbt.Parameter_File>
/export/apps/rDock/src/rDock_2013.1_src/data/scripts/dock_solv.prm

>  <Rbt.Receptor>
prm/pocket_docking_4.prm

>  <SCORE>
-15.6678

>  <SCORE.INTER>
-15.3281

>  <SCORE.INTER.CONST>
1

>  <SCORE.INTER.POLAR>
0

>  <SCORE.INTER.ROT>
8

>  <SCORE.INTER.SOLV>
18.4478

>  <SCORE.INTER.VDW>
-25.3013

>  <SCORE.INTER.norm>
-0.589541

>  <SCORE.INTRA>
-0.339723

>  <SCORE.INTRA.DIHEDRAL>
2.01591

>  <SCORE.INTRA.DIHEDRAL.0>
9.09364

>  <SCORE.INTRA.POLAR>
0

>  <SCORE.INTRA.POLAR.0>
0

>  <SCORE.INTRA.REPUL>
0

>  <SCORE.INTRA.REPUL.0>
0

>  <SCORE.INTRA.SOLV>
-0.391033

>  <SCORE.INTRA.SOLV.lig_0>
-78.5846

>  <SCORE.INTRA.VDW>
-1.15216

>  <SCORE.INTRA.VDW.0>
-2.81163

>  <SCORE.INTRA.norm>
-0.0130663

>  <SCORE.RESTR>
0

>  <SCORE.RESTR.CAVITY>
0

>  <SCORE.RESTR.norm>
0

>  <SCORE.SYSTEM>
0

>  <SCORE.SYSTEM.CONST>
0

>  <SCORE.SYSTEM.DIHEDRAL>
0

>  <SCORE.SYSTEM.SOLV>
0

>  <SCORE.SYSTEM.norm>
0

>  <SCORE.heavy>
26

>  <SCORE.norm>
-0.602607

>  <RMSD>
4.418

$$$$
ligand
 OpenBabel11021811463D
libRbt.so/2013.1/901 2013/11/27
 26 27  0  0  0  0  0  0  0  0999 V2000
   -5.0060  -35.6563    4.3876 C   0  0  0  0  0  0  0  0  0  0  0  0
   -6.6949  -40.7424    8.1183 C   0  0  0  0  0  0  0  0  0  0  0  0
   -5.5216  -44.6948   11.0054 P   0  0  1  0  0  0  0  0  0  0  0  0
   -3.9697  -42.4467   11.2893 P   0  0  2  0  0  0  0  0  0  0  0  0
   -8.7800  -39.6386    6.0723 C   0  0  0  0  0  0  0  0  0  0  0  0
   -7.0721  -38.7784    4.4363 C   0  0  0  0  0  0  0  0  0  0  0  0
   -7.7769  -38.6033    5.6311 C   0  0  0  0  0  0  0  0  0  0  0  0
   -7.5866  -37.4542    6.4034 C   0  0  0  0  0  0  0  0  0  0  0  0
   -8.2652  -37.2878    7.5191 N   0  0  0  0  0  0  0  0  0  0  0  0
   -6.6672  -36.5131    6.0085 N   0  0  0  0  0  0  0  0  0  0  0  0
   -5.9865  -36.6878    4.8200 C   0  0  0  0  0  0  0  0  0  0  0  0
   -6.1711  -37.8153    4.0421 N   0  0  0  0  0  0  0  0  0  0  0  0
   -4.3257  -45.4520   11.4963 O   0  5  0  0  0  0  0  0  0  0  0  0
   -4.0426  -42.2966    9.8217 O   0  0  0  0  0  0  0  0  0  0  0  0
   -7.6534  -43.1937    5.2218 S   0  0  0  0  0  0  0  0  0  0  0  0
   -8.4637  -41.8466    5.0459 C   0  0  0  0  0  0  0  0  0  0  0  0
   -6.8450  -45.2952   11.3241 O   0  0  0  0  0  0  0  0  0  0  0  0
   -2.7606  -43.1756   11.7173 O   0  5  0  0  0  0  0  0  0  0  0  0
   -8.1621  -40.9346    6.0183 N   0  0  0  0  0  0  0  0  0  0  0  0
   -5.3000  -43.2479   11.6075 O   0  0  0  0  0  0  0  0  0  0  0  0
   -3.9265  -41.1954   12.1051 O   0  0  0  0  0  0  0  0  0  0  0  0
   -7.2580  -41.4328    6.9137 C   0  0  1  0  0  0  0  0  0  0  0  0
   -6.9045  -42.7081    6.5507 C   0  0  2  0  0  0  0  0  0  0  0  0
   -5.9448  -43.6864    7.1812 C   0  0  0  0  0  0  0  0  0  0  0  0
   -6.2339  -43.8949    8.6721 C   0  0  0  0  0  0  0  0  0  0  0  0
   -5.2652  -44.5692    9.4543 O   0  0  0  0  0  0  0  0  0  0  0  0
  1 11  1  0  0  0  0
  3 13  1  1  0  0  0
  3 17  2  0  0  0  0
  3 20  1  0  0  0  0
  3 26  1  0  0  0  0
  4 14  1  6  0  0  0
  4 18  1  0  0  0  0
  4 21  2  0  0  0  0
  4 20  1  0  0  0  0
  5 19  1  0  0  0  0
  5  7  1  0  0  0  0
  6  7  2  0  0  0  0
  6 12  1  0  0  0  0
  7  8  1  0  0  0  0
  8  9  1  0  0  0  0
  8 10  2  0  0  0  0
 10 11  1  0  0  0  0
 11 12  2  0  0  0  0
 15 23  1  0  0  0  0
 15 16  1  0  0  0  0
 16 19  1  0  0  0  0
 19 22  1  0  0  0  0
 22  2  1  6  0  0  0
 22 23  1  0  0  0  0
 23 24  1  6  0  0  0
 24 25  1  0  0  0  0
 25 26  1  0  0  0  0
M  CHG  2  13  -1  18  -1
M  END
>  <CHROM.1>
56.70168799,-106.30369017,50.38924776,61.95631548,-127.96939699,-167.56820577
175.90579079,179.76242001,-6.10087896,-41.53060213,8.13461852,-2.04196688
0.93941919,2.74282435

>  <Name>
ligand

>  <RI>
0

>  <Rbt.Current_Directory>
/home/itssahil/PROJECTS/Mol_Feturizer/New_Systems/rnas/3D2G

>  <Rbt.Executable>
rbdock ($Id: //depot/dev/client3/rdock/2013.1/src/exe/rbdock.cxx#4 $)

>  <Rbt.Library>
libRbt.so (2013.1, Build901 2013/11/27)

>  <Rbt.Parameter_File>
/export/apps/rDock/src/rDock_2013.1_src/data/scripts/dock_solv.prm

>  <Rbt.Receptor>
prm/pocket_docking_4.prm

>  <SCORE>
-13.9523

>  <SCORE.INTER>
-10.6177

>  <SCORE.INTER.CONST>
1

>  <SCORE.INTER.POLAR>
0

>  <SCORE.INTER.ROT>
8

>  <SCORE.INTER.SOLV>
17.5773

>  <SCORE.INTER.VDW>
-21.8709

>  <SCORE.INTER.norm>
-0.408372

>  <SCORE.INTRA>
-3.35098

>  <SCORE.INTRA.DIHEDRAL>
-3.69234

>  <SCORE.INTRA.DIHEDRAL.0>
9.09364

>  <SCORE.INTRA.POLAR>
0

>  <SCORE.INTRA.POLAR.0>
0

>  <SCORE.INTRA.REPUL>
0

>  <SCORE.INTRA.REPUL.0>
0

>  <SCORE.INTRA.SOLV>
-1.80283

>  <SCORE.INTRA.SOLV.lig_0>
-78.5846

>  <SCORE.INTRA.VDW>
-0.603398

>  <SCORE.INTRA.VDW.0>
-2.81163

>  <SCORE.INTRA.norm>
-0.128884

>  <SCORE.RESTR>
0.0163362

>  <SCORE.RESTR.CAVITY>
0.0163362

>  <SCORE.RESTR.norm>
0.000628315

>  <SCORE.SYSTEM>
0

>  <SCORE.SYSTEM.CONST>
0

>  <SCORE.SYSTEM.DIHEDRAL>
0

>  <SCORE.SYSTEM.SOLV>
0

>  <SCORE.SYSTEM.norm>
0

>  <SCORE.heavy>
26

>  <SCORE.norm>
-0.536628

>  <RMSD>
4.434

$$$$
ligand
 OpenBabel11021811463D
libRbt.so/2013.1/901 2013/11/27
 26 27  0  0  0  0  0  0  0  0999 V2000
  -11.6287  -38.1059    1.9479 C   0  0  0  0  0  0  0  0  0  0  0  0
   -4.5961  -41.5129    2.8587 C   0  0  0  0  0  0  0  0  0  0  0  0
   -6.0006  -46.7037    5.4681 P   0  0  1  0  0  0  0  0  0  0  0  0
   -6.8638  -45.7436    7.8921 P   0  0  2  0  0  0  0  0  0  0  0  0
   -6.4421  -40.2208    0.6964 C   0  0  0  0  0  0  0  0  0  0  0  0
   -8.6625  -39.2742   -0.0157 C   0  0  0  0  0  0  0  0  0  0  0  0
   -7.8003  -39.6514    1.0184 C   0  0  0  0  0  0  0  0  0  0  0  0
   -8.2031  -39.5402    2.3520 C   0  0  0  0  0  0  0  0  0  0  0  0
   -7.3927  -39.9121    3.3204 N   0  0  0  0  0  0  0  0  0  0  0  0
   -9.4366  -39.0138    2.6490 N   0  0  0  0  0  0  0  0  0  0  0  0
  -10.2867  -38.6575    1.6209 C   0  0  0  0  0  0  0  0  0  0  0  0
   -9.9045  -38.7700    0.2974 N   0  0  0  0  0  0  0  0  0  0  0  0
   -5.0865  -47.6178    6.2253 O   0  5  0  0  0  0  0  0  0  0  0  0
   -6.5754  -44.3519    7.4899 O   0  0  0  0  0  0  0  0  0  0  0  0
   -7.0515  -43.9788    1.0677 S   0  0  0  0  0  0  0  0  0  0  0  0
   -7.2676  -42.5237    0.4861 C   0  0  0  0  0  0  0  0  0  0  0  0
   -6.4550  -47.1957    4.1396 O   0  0  0  0  0  0  0  0  0  0  0  0
   -5.7255  -46.3710    8.5901 O   0  5  0  0  0  0  0  0  0  0  0  0
   -6.4255  -41.6114    1.0577 N   0  0  0  0  0  0  0  0  0  0  0  0
   -7.1711  -46.4348    6.4990 O   0  0  0  0  0  0  0  0  0  0  0  0
   -8.0077  -45.9636    8.8281 O   0  0  0  0  0  0  0  0  0  0  0  0
   -5.6312  -42.1858    2.0098 C   0  0  1  0  0  0  0  0  0  0  0  0
   -5.9071  -43.5275    2.0921 C   0  0  2  0  0  0  0  0  0  0  0  0
   -5.3129  -44.6086    2.9603 C   0  0  0  0  0  0  0  0  0  0  0  0
   -5.6114  -44.3806    4.4465 C   0  0  0  0  0  0  0  0  0  0  0  0
   -5.1805  -45.3598    5.3741 O   0  0  0  0  0  0  0  0  0  0  0  0
  1 11  1  0  0  0  0
  3 13  1  1  0  0  0
  3 17  2  0  0  0  0
  3 20  1  0  0  0  0
  3 26  1  0  0  0  0
  4 14  1  6  0  0  0
  4 18  1  0  0  0  0
  4 21  2  0  0  0  0
  4 20  1  0  0  0  0
  5 19  1  0  0  0  0
  5  7  1  0  0  0  0
  6  7  2  0  0  0  0
  6 12  1  0  0  0  0
  7  8  1  0  0  0  0
  8  9  1  0  0  0  0
  8 10  2  0  0  0  0
 10 11  1  0  0  0  0
 11 12  2  0  0  0  0
 15 23  1  0  0  0  0
 15 16  1  0  0  0  0
 16 19  1  0  0  0  0
 19 22  1  0  0  0  0
 22  2  1  6  0  0  0
 22 23  1  0  0  0  0
 23 24  1  6  0  0  0
 24 25  1  0  0  0  0
 25 26  1  0  0  0  0
M  CHG  2  13  -1  18  -1
M  END
>  <CHROM.1>
60.86297400,61.20038577,-110.94935563,71.58026193,-115.38353261,176.41330953
-75.84589138,165.03816088,-7.00383747,-43.30880363,3.83916767,1.98522223
0.86167405,-1.02445914

>  <Name>
ligand

>  <RI>
0

>  <Rbt.Current_Directory>
/home/itssahil/PROJECTS/Mol_Feturizer/New_Systems/rnas/3D2G

>  <Rbt.Executable>
rbdock ($Id: //depot/dev/client3/rdock/2013.1/src/exe/rbdock.cxx#4 $)

>  <Rbt.Library>
libRbt.so (2013.1, Build901 2013/11/27)

>  <Rbt.Parameter_File>
/export/apps/rDock/src/rDock_2013.1_src/data/scripts/dock_solv.prm

>  <Rbt.Receptor>
prm/pocket_docking_7.prm

>  <SCORE>
-22.1989

>  <SCORE.INTER>
-20.8176

>  <SCORE.INTER.CONST>
1

>  <SCORE.INTER.POLAR>
0

>  <SCORE.INTER.ROT>
8

>  <SCORE.INTER.SOLV>
13.4077

>  <SCORE.INTER.VDW>
-27.2809

>  <SCORE.INTER.norm>
-0.800676

>  <SCORE.INTRA>
-1.38132

>  <SCORE.INTRA.DIHEDRAL>
-2.27932

>  <SCORE.INTRA.DIHEDRAL.0>
9.09364

>  <SCORE.INTRA.POLAR>
0

>  <SCORE.INTRA.POLAR.0>
0

>  <SCORE.INTRA.REPUL>
0

>  <SCORE.INTRA.REPUL.0>
0

>  <SCORE.INTRA.SOLV>
1.47248

>  <SCORE.INTRA.SOLV.lig_0>
-78.5846

>  <SCORE.INTRA.VDW>
-0.977904

>  <SCORE.INTRA.VDW.0>
-2.81163

>  <SCORE.INTRA.norm>
-0.0531277

>  <SCORE.RESTR>
0

>  <SCORE.RESTR.CAVITY>
0

>  <SCORE.RESTR.norm>
0

>  <SCORE.SYSTEM>
0

>  <SCORE.SYSTEM.CONST>
0

>  <SCORE.SYSTEM.DIHEDRAL>
0

>  <SCORE.SYSTEM.SOLV>
0

>  <SCORE.SYSTEM.norm>
0

>  <SCORE.heavy>
26

>  <SCORE.norm>
-0.853803

>  <RMSD>
4.441

$$$$
ligand
 OpenBabel11021811463D
libRbt.so/2013.1/901 2013/11/27
 26 27  0  0  0  0  0  0  0  0999 V2000
   -6.4689  -41.5650    1.9181 C   0  0  0  0  0  0  0  0  0  0  0  0
   -5.3200  -40.0289    9.5889 C   0  0  0  0  0  0  0  0  0  0  0  0
   -2.3846  -43.9813    9.9695 P   0  0  1  0  0  0  0  0  0  0  0  0
   -1.1223  -44.9559    7.7335 P   0  0  2  0  0  0  0  0  0  0  0  0
   -7.5007  -40.0385    7.3536 C   0  0  0  0  0  0  0  0  0  0  0  0
   -7.4305  -41.7721    5.5308 C   0  0  0  0  0  0  0  0  0  0  0  0
   -7.2182  -40.4494    5.9310 C   0  0  0  0  0  0  0  0  0  0  0  0
   -6.7811  -39.4928    5.0106 C   0  0  0  0  0  0  0  0  0  0  0  0
   -6.5985  -38.2455    5.3900 N   0  0  0  0  0  0  0  0  0  0  0  0
   -6.5146  -39.8658    3.7158 N   0  0  0  0  0  0  0  0  0  0  0  0
   -6.7409  -41.1710    3.3263 C   0  0  0  0  0  0  0  0  0  0  0  0
   -7.1811  -42.1254    4.2239 N   0  0  0  0  0  0  0  0  0  0  0  0
   -1.1417  -43.9076   10.8027 O   0  5  0  0  0  0  0  0  0  0  0  0
    0.1256  -44.5014    8.3799 O   0  0  0  0  0  0  0  0  0  0  0  0
   -7.3394  -43.3630    9.2385 S   0  0  0  0  0  0  0  0  0  0  0  0
   -7.8688  -42.3253    8.1684 C   0  0  0  0  0  0  0  0  0  0  0  0
   -2.7917  -42.7172    9.2988 O   0  0  0  0  0  0  0  0  0  0  0  0
   -1.6560  -43.9593    6.7857 O   0  5  0  0  0  0  0  0  0  0  0  0
   -7.1916  -41.1393    8.2237 N   0  0  0  0  0  0  0  0  0  0  0  0
   -2.0794  -45.1765    8.9778 O   0  0  0  0  0  0  0  0  0  0  0  0
   -1.0562  -46.2073    6.9193 O   0  0  0  0  0  0  0  0  0  0  0  0
   -6.2484  -41.1429    9.2125 C   0  0  1  0  0  0  0  0  0  0  0  0
   -6.2507  -42.3595    9.8473 C   0  0  2  0  0  0  0  0  0  0  0  0
   -5.4087  -42.8846   10.9835 C   0  0  0  0  0  0  0  0  0  0  0  0
   -4.8347  -44.2730   10.6791 C   0  0  0  0  0  0  0  0  0  0  0  0
   -3.4722  -44.5150   10.9792 O   0  0  0  0  0  0  0  0  0  0  0  0
  1 11  1  0  0  0  0
  3 13  1  1  0  0  0
  3 17  2  0  0  0  0
  3 20  1  0  0  0  0
  3 26  1  0  0  0  0
  4 14  1  1  0  0  0
  4 18  1  0  0  0  0
  4 21  2  0  0  0  0
  4 20  1  0  0  0  0
  5 19  1  0  0  0  0
  5  7  1  0  0  0  0
  6  7  2  0  0  0  0
  6 12  1  0  0  0  0
  7  8  1  0  0  0  0
  8  9  1  0  0  0  0
  8 10  2  0  0  0  0
 10 11  1  0  0  0  0
 11 12  2  0  0  0  0
 15 23  1  0  0  0  0
 15 16  1  0  0  0  0
 16 19  1  0  0  0  0
 19 22  1  0  0  0  0
 22  2  1  6  0  0  0
 22 23  1  0  0  0  0
 23 24  1  6  0  0  0
 24 25  1  0  0  0  0
 25 26  1  0  0  0  0
M  CHG  2  13  -1  18  -1
M  END
>  <CHROM.1>
-77.32417498,-63.76895531,34.00452638,57.90086825,47.84066845,135.13380188
-79.36336686,158.43706950,-4.61718084,-42.69977722,7.85525493,-2.50587158
-0.53859816,1.75667989

>  <Name>
ligand

>  <RI>
0

>  <Rbt.Current_Directory>
/home/itssahil/PROJECTS/Mol_Feturizer/New_Systems/rnas/3D2G

>  <Rbt.Executable>
rbdock ($Id: //depot/dev/client3/rdock/2013.1/src/exe/rbdock.cxx#4 $)

>  <Rbt.Library>
libRbt.so (2013.1, Build901 2013/11/27)

>  <Rbt.Parameter_File>
/export/apps/rDock/src/rDock_2013.1_src/data/scripts/dock_solv.prm

>  <Rbt.Receptor>
prm/pocket_docking_3.prm

>  <SCORE>
-2.74684

>  <SCORE.INTER>
-5.14545

>  <SCORE.INTER.CONST>
1

>  <SCORE.INTER.POLAR>
0

>  <SCORE.INTER.ROT>
8

>  <SCORE.INTER.SOLV>
10.5374

>  <SCORE.INTER.VDW>
-15.8761

>  <SCORE.INTER.norm>
-0.197902

>  <SCORE.INTRA>
2.373

>  <SCORE.INTRA.DIHEDRAL>
3.64438

>  <SCORE.INTRA.DIHEDRAL.0>
9.09364

>  <SCORE.INTRA.POLAR>
0

>  <SCORE.INTRA.POLAR.0>
0

>  <SCORE.INTRA.REPUL>
0

>  <SCORE.INTRA.REPUL.0>
0

>  <SCORE.INTRA.SOLV>
-0.8827

>  <SCORE.INTRA.SOLV.lig_0>
-78.5846

>  <SCORE.INTRA.VDW>
0.992162

>  <SCORE.INTRA.VDW.0>
-2.81163

>  <SCORE.INTRA.norm>
0.0912693

>  <SCORE.RESTR>
0.0256081

>  <SCORE.RESTR.CAVITY>
0.0256081

>  <SCORE.RESTR.norm>
0.000984928

>  <SCORE.SYSTEM>
0

>  <SCORE.SYSTEM.CONST>
0

>  <SCORE.SYSTEM.DIHEDRAL>
0

>  <SCORE.SYSTEM.SOLV>
0

>  <SCORE.SYSTEM.norm>
0

>  <SCORE.heavy>
26

>  <SCORE.norm>
-0.105648

>  <RMSD>
4.507

$$$$
ligand
 OpenBabel11021811463D
libRbt.so/2013.1/901 2013/11/27
 26 27  0  0  0  0  0  0  0  0999 V2000
   -6.6085  -45.1862   -0.0948 C   0  0  0  0  0  0  0  0  0  0  0  0
   -4.7720  -41.8591    5.4707 C   0  0  0  0  0  0  0  0  0  0  0  0
   -7.0161  -45.6873    7.7074 P   0  0  1  0  0  0  0  0  0  0  0  0
   -5.0038  -47.0035    9.0345 P   0  0  2  0  0  0  0  0  0  0  0  0
   -6.6754  -40.5916    3.3439 C   0  0  0  0  0  0  0  0  0  0  0  0
   -7.2300  -43.0026    2.8825 C   0  0  0  0  0  0  0  0  0  0  0  0
   -6.6487  -41.8062    2.4514 C   0  0  0  0  0  0  0  0  0  0  0  0
   -6.0749  -41.7157    1.1803 C   0  0  0  0  0  0  0  0  0  0  0  0
   -5.5435  -40.5818    0.7743 N   0  0  0  0  0  0  0  0  0  0  0  0
   -6.0414  -42.8229    0.3681 N   0  0  0  0  0  0  0  0  0  0  0  0
   -6.6307  -43.9958    0.7966 C   0  0  0  0  0  0  0  0  0  0  0  0
   -7.2092  -44.0969    2.0478 N   0  0  0  0  0  0  0  0  0  0  0  0
   -7.8869  -46.0670    6.5490 O   0  5  0  0  0  0  0  0  0  0  0  0
   -5.7315  -46.8472   10.3103 O   0  0  0  0  0  0  0  0  0  0  0  0
   -8.4756  -41.3556    6.6313 S   0  0  0  0  0  0  0  0  0  0  0  0
   -8.3264  -40.8352    5.1450 C   0  0  0  0  0  0  0  0  0  0  0  0
   -7.7232  -45.1534    8.9026 O   0  0  0  0  0  0  0  0  0  0  0  0
   -4.0448  -45.9073    8.7999 O   0  5  0  0  0  0  0  0  0  0  0  0
   -7.0557  -40.9984    4.6684 N   0  0  0  0  0  0  0  0  0  0  0  0
   -6.1849  -47.0069    7.9770 O   0  0  0  0  0  0  0  0  0  0  0  0
   -4.1718  -48.2334    8.8660 O   0  0  0  0  0  0  0  0  0  0  0  0
   -6.2298  -41.5429    5.6111 C   0  0  1  0  0  0  0  0  0  0  0  0
   -6.9387  -41.7843    6.7610 C   0  0  2  0  0  0  0  0  0  0  0  0
   -6.5126  -42.3804    8.0796 C   0  0  0  0  0  0  0  0  0  0  0  0
   -5.5695  -43.5742    7.8923 C   0  0  0  0  0  0  0  0  0  0  0  0
   -6.0048  -44.6510    7.0823 O   0  0  0  0  0  0  0  0  0  0  0  0
  1 11  1  0  0  0  0
  3 13  1  6  0  0  0
  3 17  2  0  0  0  0
  3 20  1  0  0  0  0
  3 26  1  0  0  0  0
  4 14  1  1  0  0  0
  4 18  1  0  0  0  0
  4 21  2  0  0  0  0
  4 20  1  0  0  0  0
  5 19  1  0  0  0  0
  5  7  1  0  0  0  0
  6  7  2  0  0  0  0
  6 12  1  0  0  0  0
  7  8  1  0  0  0  0
  8  9  1  0  0  0  0
  8 10  2  0  0  0  0
 10 11  1  0  0  0  0
 11 12  2  0  0  0  0
 15 23  1  0  0  0  0
 15 16  1  0  0  0  0
 16 19  1  0  0  0  0
 19 22  1  0  0  0  0
 22  2  1  6  0  0  0
 22 23  1  0  0  0  0
 23 24  1  6  0  0  0
 24 25  1  0  0  0  0
 25 26  1  0  0  0  0
M  CHG  2  13  -1  18  -1
M  END
>  <CHROM.1>
173.10224389,-100.58264976,13.46711594,68.83315855,138.56913042,-55.42141054
-78.60655846,145.13487683,-6.42124478,-43.90081251,5.80258697,-1.95335250
-1.25005205,1.77177161

>  <Name>
ligand

>  <RI>
0

>  <Rbt.Current_Directory>
/home/itssahil/PROJECTS/Mol_Feturizer/New_Systems/rnas/3D2G

>  <Rbt.Executable>
rbdock ($Id: //depot/dev/client3/rdock/2013.1/src/exe/rbdock.cxx#4 $)

>  <Rbt.Library>
libRbt.so (2013.1, Build901 2013/11/27)

>  <Rbt.Parameter_File>
/export/apps/rDock/src/rDock_2013.1_src/data/scripts/dock_solv.prm

>  <Rbt.Receptor>
prm/pocket_docking_7.prm

>  <SCORE>
-7.04476

>  <SCORE.INTER>
-6.08076

>  <SCORE.INTER.CONST>
1

>  <SCORE.INTER.POLAR>
0

>  <SCORE.INTER.ROT>
8

>  <SCORE.INTER.SOLV>
18.5724

>  <SCORE.INTER.VDW>
-19.178

>  <SCORE.INTER.norm>
-0.233875

>  <SCORE.INTRA>
-0.963998

>  <SCORE.INTRA.DIHEDRAL>
-0.6681

>  <SCORE.INTRA.DIHEDRAL.0>
9.09364

>  <SCORE.INTRA.POLAR>
0

>  <SCORE.INTRA.POLAR.0>
0

>  <SCORE.INTRA.REPUL>
0

>  <SCORE.INTRA.REPUL.0>
0

>  <SCORE.INTRA.SOLV>
-1.25434

>  <SCORE.INTRA.SOLV.lig_0>
-78.5846

>  <SCORE.INTRA.VDW>
-0.00277929

>  <SCORE.INTRA.VDW.0>
-2.81163

>  <SCORE.INTRA.norm>
-0.0370769

>  <SCORE.RESTR>
0

>  <SCORE.RESTR.CAVITY>
0

>  <SCORE.RESTR.norm>
0

>  <SCORE.SYSTEM>
0

>  <SCORE.SYSTEM.CONST>
0

>  <SCORE.SYSTEM.DIHEDRAL>
0

>  <SCORE.SYSTEM.SOLV>
0

>  <SCORE.SYSTEM.norm>
0

>  <SCORE.heavy>
26

>  <SCORE.norm>
-0.270952

>  <RMSD>
4.553

$$$$
ligand
 OpenBabel11021811463D
libRbt.so/2013.1/901 2013/11/27
 26 27  0  0  0  0  0  0  0  0999 V2000
   -9.8755  -39.0995    4.3154 C   0  0  0  0  0  0  0  0  0  0  0  0
   -6.0299  -43.6571   10.7077 C   0  0  0  0  0  0  0  0  0  0  0  0
   -1.8382  -41.2420    9.4081 P   0  0  1  0  0  0  0  0  0  0  0  0
   -0.4667  -43.2187    8.0835 P   0  0  2  0  0  0  0  0  0  0  0  0
   -7.3617  -42.6327    8.0753 C   0  0  0  0  0  0  0  0  0  0  0  0
   -8.8902  -40.7032    7.5521 C   0  0  0  0  0  0  0  0  0  0  0  0
   -8.0363  -41.7102    7.0922 C   0  0  0  0  0  0  0  0  0  0  0  0
   -7.7721  -41.8452    5.7265 C   0  0  0  0  0  0  0  0  0  0  0  0
   -6.9545  -42.7854    5.3013 N   0  0  0  0  0  0  0  0  0  0  0  0
   -8.3918  -41.0119    4.8275 N   0  0  0  0  0  0  0  0  0  0  0  0
   -9.2221  -40.0113    5.2921 C   0  0  0  0  0  0  0  0  0  0  0  0
   -9.4857  -39.8609    6.6406 N   0  0  0  0  0  0  0  0  0  0  0  0
   -0.9556  -40.1396    8.9077 O   0  5  0  0  0  0  0  0  0  0  0  0
    0.5353  -44.2004    8.5462 O   0  0  0  0  0  0  0  0  0  0  0  0
   -5.2948  -39.9199    9.8075 S   0  0  0  0  0  0  0  0  0  0  0  0
   -6.2241  -40.5455    8.6907 C   0  0  0  0  0  0  0  0  0  0  0  0
   -3.0983  -41.4597    8.6477 O   0  0  0  0  0  0  0  0  0  0  0  0
    0.0868  -42.2824    7.0868 O   0  5  0  0  0  0  0  0  0  0  0  0
   -6.5361  -41.8501    8.9531 N   0  0  0  0  0  0  0  0  0  0  0  0
   -0.8681  -42.4923    9.4342 O   0  0  0  0  0  0  0  0  0  0  0  0
   -1.6914  -43.7527    7.4142 O   0  0  0  0  0  0  0  0  0  0  0  0
   -5.9387  -42.2904   10.1006 C   0  0  1  0  0  0  0  0  0  0  0  0
   -5.2125  -41.2707   10.6627 C   0  0  2  0  0  0  0  0  0  0  0  0
   -4.3856  -41.2228   11.9234 C   0  0  0  0  0  0  0  0  0  0  0  0
   -2.9439  -41.6845   11.6826 C   0  0  0  0  0  0  0  0  0  0  0  0
   -2.0934  -40.8525   10.9150 O   0  0  0  0  0  0  0  0  0  0  0  0
  1 11  1  0  0  0  0
  3 13  1  6  0  0  0
  3 17  2  0  0  0  0
  3 20  1  0  0  0  0
  3 26  1  0  0  0  0
  4 14  1  1  0  0  0
  4 18  1  0  0  0  0
  4 21  2  0  0  0  0
  4 20  1  0  0  0  0
  5 19  1  0  0  0  0
  5  7  1  0  0  0  0
  6  7  2  0  0  0  0
  6 12  1  0  0  0  0
  7  8  1  0  0  0  0
  8  9  1  0  0  0  0
  8 10  2  0  0  0  0
 10 11  1  0  0  0  0
 11 12  2  0  0  0  0
 15 23  1  0  0  0  0
 15 16  1  0  0  0  0
 16 19  1  0  0  0  0
 19 22  1  0  0  0  0
 22  2  1  1  0  0  0
 22 23  1  0  0  0  0
 23 24  1  1  0  0  0
 24 25  1  0  0  0  0
 25 26  1  0  0  0  0
M  CHG  2  13  -1  18  -1
M  END
>  <CHROM.1>
-75.54409292,-13.28504635,-60.53999755,174.12376412,-93.51705617,69.76946540
-101.44497550,178.03873848,-4.47372676,-41.61473998,8.42532735,-2.84975842
-0.27527350,1.37375985

>  <Name>
ligand

>  <RI>
0

>  <Rbt.Current_Directory>
/home/itssahil/PROJECTS/Mol_Feturizer/New_Systems/rnas/3D2G

>  <Rbt.Executable>
rbdock ($Id: //depot/dev/client3/rdock/2013.1/src/exe/rbdock.cxx#4 $)

>  <Rbt.Library>
libRbt.so (2013.1, Build901 2013/11/27)

>  <Rbt.Parameter_File>
/export/apps/rDock/src/rDock_2013.1_src/data/scripts/dock_solv.prm

>  <Rbt.Receptor>
prm/pocket_docking_4.prm

>  <SCORE>
-9.63289

>  <SCORE.INTER>
-10.5221

>  <SCORE.INTER.CONST>
1

>  <SCORE.INTER.POLAR>
0

>  <SCORE.INTER.ROT>
8

>  <SCORE.INTER.SOLV>
10.7419

>  <SCORE.INTER.VDW>
-19.5287

>  <SCORE.INTER.norm>
-0.404695

>  <SCORE.INTRA>
0.889189

>  <SCORE.INTRA.DIHEDRAL>
2.0365

>  <SCORE.INTRA.DIHEDRAL.0>
9.09364

>  <SCORE.INTRA.POLAR>
0

>  <SCORE.INTRA.POLAR.0>
0

>  <SCORE.INTRA.REPUL>
0

>  <SCORE.INTRA.REPUL.0>
0

>  <SCORE.INTRA.SOLV>
1.9084

>  <SCORE.INTRA.SOLV.lig_0>
-78.5846

>  <SCORE.INTRA.VDW>
-1.08326

>  <SCORE.INTRA.VDW.0>
-2.81163

>  <SCORE.INTRA.norm>
0.0341996

>  <SCORE.RESTR>
0

>  <SCORE.RESTR.CAVITY>
0

>  <SCORE.RESTR.norm>
0

>  <SCORE.SYSTEM>
0

>  <SCORE.SYSTEM.CONST>
0

>  <SCORE.SYSTEM.DIHEDRAL>
0

>  <SCORE.SYSTEM.SOLV>
0

>  <SCORE.SYSTEM.norm>
0

>  <SCORE.heavy>
26

>  <SCORE.norm>
-0.370496

>  <RMSD>
4.592

$$$$
ligand
 OpenBabel11021811463D
libRbt.so/2013.1/901 2013/11/27
 26 27  0  0  0  0  0  0  0  0999 V2000
   -5.6208  -35.9001    4.7667 C   0  0  0  0  0  0  0  0  0  0  0  0
   -6.5132  -44.5070    4.4102 C   0  0  0  0  0  0  0  0  0  0  0  0
   -0.6273  -45.8321    6.0229 P   0  0  1  0  0  0  0  0  0  0  0  0
   -0.3211  -43.5757    7.5585 P   0  0  2  0  0  0  0  0  0  0  0  0
   -6.5468  -41.5329    5.3619 C   0  0  0  0  0  0  0  0  0  0  0  0
   -5.9081  -39.2950    6.3195 C   0  0  0  0  0  0  0  0  0  0  0  0
   -6.3156  -40.0504    5.2158 C   0  0  0  0  0  0  0  0  0  0  0  0
   -6.4740  -39.4475    3.9650 C   0  0  0  0  0  0  0  0  0  0  0  0
   -6.8424  -40.1674    2.9262 N   0  0  0  0  0  0  0  0  0  0  0  0
   -6.2724  -38.0955    3.8304 N   0  0  0  0  0  0  0  0  0  0  0  0
   -5.8562  -37.3604    4.9226 C   0  0  0  0  0  0  0  0  0  0  0  0
   -5.6874  -37.9452    6.1636 N   0  0  0  0  0  0  0  0  0  0  0  0
    0.3328  -46.6666    5.2314 O   0  5  0  0  0  0  0  0  0  0  0  0
    0.0985  -44.0258    8.9013 O   0  0  0  0  0  0  0  0  0  0  0  0
   -3.0996  -42.6167    4.1073 S   0  0  0  0  0  0  0  0  0  0  0  0
   -4.1844  -41.6294    4.6996 C   0  0  0  0  0  0  0  0  0  0  0  0
   -1.4390  -46.5611    7.0344 O   0  0  0  0  0  0  0  0  0  0  0  0
   -1.7882  -43.4873    7.4317 O   0  5  0  0  0  0  0  0  0  0  0  0
   -5.4016  -42.2329    4.8492 N   0  0  0  0  0  0  0  0  0  0  0  0
    0.2975  -44.6971    6.6242 O   0  0  0  0  0  0  0  0  0  0  0  0
    0.1470  -42.2295    7.1093 O   0  0  0  0  0  0  0  0  0  0  0  0
   -5.3776  -43.5298    4.4191 C   0  0  1  0  0  0  0  0  0  0  0  0
   -4.1167  -43.8464    3.9797 C   0  0  2  0  0  0  0  0  0  0  0  0
   -3.5560  -45.1320    3.4243 C   0  0  0  0  0  0  0  0  0  0  0  0
   -2.6397  -45.8402    4.4286 C   0  0  0  0  0  0  0  0  0  0  0  0
   -1.5103  -45.1385    4.9154 O   0  0  0  0  0  0  0  0  0  0  0  0
  1 11  1  0  0  0  0
  3 13  1  6  0  0  0
  3 17  2  0  0  0  0
  3 20  1  0  0  0  0
  3 26  1  0  0  0  0
  4 14  1  1  0  0  0
  4 18  1  0  0  0  0
  4 21  2  0  0  0  0
  4 20  1  0  0  0  0
  5 19  1  0  0  0  0
  5  7  1  0  0  0  0
  6  7  2  0  0  0  0
  6 12  1  0  0  0  0
  7  8  1  0  0  0  0
  8  9  1  0  0  0  0
  8 10  2  0  0  0  0
 10 11  1  0  0  0  0
 11 12  2  0  0  0  0
 15 23  1  0  0  0  0
 15 16  1  0  0  0  0
 16 19  1  0  0  0  0
 19 22  1  0  0  0  0
 22  2  1  1  0  0  0
 22 23  1  0  0  0  0
 23 24  1  1  0  0  0
 24 25  1  0  0  0  0
 25 26  1  0  0  0  0
M  CHG  2  13  -1  18  -1
M  END
>  <CHROM.1>
-179.53547011,19.74667087,-100.65256017,102.81770278,72.82160580,-58.25967475
175.82335326,86.26245584,-3.22749897,-42.68213782,5.45868682,-2.47718251
0.60294315,-2.79746137

>  <Name>
ligand

>  <RI>
0

>  <Rbt.Current_Directory>
/home/itssahil/PROJECTS/Mol_Feturizer/New_Systems/rnas/3D2G

>  <Rbt.Executable>
rbdock ($Id: //depot/dev/client3/rdock/2013.1/src/exe/rbdock.cxx#4 $)

>  <Rbt.Library>
libRbt.so (2013.1, Build901 2013/11/27)

>  <Rbt.Parameter_File>
/export/apps/rDock/src/rDock_2013.1_src/data/scripts/dock_solv.prm

>  <Rbt.Receptor>
prm/pocket_docking_6.prm

>  <SCORE>
-12.0743

>  <SCORE.INTER>
-10.289

>  <SCORE.INTER.CONST>
1

>  <SCORE.INTER.POLAR>
0

>  <SCORE.INTER.ROT>
8

>  <SCORE.INTER.SOLV>
12.4283

>  <SCORE.INTER.VDW>
-19.9354

>  <SCORE.INTER.norm>
-0.39573

>  <SCORE.INTRA>
-1.78532

>  <SCORE.INTRA.DIHEDRAL>
-1.17685

>  <SCORE.INTRA.DIHEDRAL.0>
9.09364

>  <SCORE.INTRA.POLAR>
0

>  <SCORE.INTRA.POLAR.0>
0

>  <SCORE.INTRA.REPUL>
0

>  <SCORE.INTRA.REPUL.0>
0

>  <SCORE.INTRA.SOLV>
-0.595648

>  <SCORE.INTRA.SOLV.lig_0>
-78.5846

>  <SCORE.INTRA.VDW>
-0.899076

>  <SCORE.INTRA.VDW.0>
-2.81163

>  <SCORE.INTRA.norm>
-0.0686663

>  <SCORE.RESTR>
0

>  <SCORE.RESTR.CAVITY>
0

>  <SCORE.RESTR.norm>
0

>  <SCORE.SYSTEM>
0

>  <SCORE.SYSTEM.CONST>
0

>  <SCORE.SYSTEM.DIHEDRAL>
0

>  <SCORE.SYSTEM.SOLV>
0

>  <SCORE.SYSTEM.norm>
0

>  <SCORE.heavy>
26

>  <SCORE.norm>
-0.464396

>  <RMSD>
4.784

$$$$
ligand
 OpenBabel11021811463D
libRbt.so/2013.1/901 2013/11/27
 26 27  0  0  0  0  0  0  0  0999 V2000
   -4.8903  -35.4034    4.0305 C   0  0  0  0  0  0  0  0  0  0  0  0
   -5.7291  -39.6887    9.4897 C   0  0  0  0  0  0  0  0  0  0  0  0
   -6.6235  -46.0021    8.5591 P   0  0  1  0  0  0  0  0  0  0  0  0
   -4.9580  -45.7214   10.7249 P   0  0  2  0  0  0  0  0  0  0  0  0
   -7.9934  -38.1116    8.0275 C   0  0  0  0  0  0  0  0  0  0  0  0
   -6.3939  -38.1488    6.0849 C   0  0  0  0  0  0  0  0  0  0  0  0
   -7.1649  -37.4060    6.9843 C   0  0  0  0  0  0  0  0  0  0  0  0
   -7.2040  -36.0116    6.8996 C   0  0  0  0  0  0  0  0  0  0  0  0
   -7.9445  -35.3189    7.7392 N   0  0  0  0  0  0  0  0  0  0  0  0
   -6.4436  -35.3652    5.9558 N   0  0  0  0  0  0  0  0  0  0  0  0
   -5.6967  -36.1077    5.0628 C   0  0  0  0  0  0  0  0  0  0  0  0
   -5.6555  -37.4877    5.1297 N   0  0  0  0  0  0  0  0  0  0  0  0
   -5.3398  -46.6664    8.1653 O   0  5  0  0  0  0  0  0  0  0  0  0
   -5.0620  -47.1946   10.6991 O   0  0  0  0  0  0  0  0  0  0  0  0
   -8.0891  -41.8535    7.2400 S   0  0  0  0  0  0  0  0  0  0  0  0
   -8.5560  -40.3436    7.1729 C   0  0  0  0  0  0  0  0  0  0  0  0
   -7.8146  -46.8898    8.6414 O   0  0  0  0  0  0  0  0  0  0  0  0
   -4.9460  -45.1858   12.0994 O   0  5  0  0  0  0  0  0  0  0  0  0
   -7.7604  -39.5257    7.9253 N   0  0  0  0  0  0  0  0  0  0  0  0
   -6.2510  -45.2832    9.9192 O   0  0  0  0  0  0  0  0  0  0  0  0
   -3.7446  -45.1089   10.1039 O   0  0  0  0  0  0  0  0  0  0  0  0
   -6.7809  -40.2282    8.5691 C   0  0  1  0  0  0  0  0  0  0  0  0
   -6.8793  -41.5582    8.2459 C   0  0  2  0  0  0  0  0  0  0  0  0
   -6.0468  -42.7434    8.6678 C   0  0  0  0  0  0  0  0  0  0  0  0
   -5.8873  -43.7652    7.5363 C   0  0  0  0  0  0  0  0  0  0  0  0
   -6.7880  -44.8567    7.4875 O   0  0  0  0  0  0  0  0  0  0  0  0
  1 11  1  0  0  0  0
  3 13  1  6  0  0  0
  3 17  2  0  0  0  0
  3 20  1  0  0  0  0
  3 26  1  0  0  0  0
  4 14  1  1  0  0  0
  4 18  1  0  0  0  0
  4 21  2  0  0  0  0
  4 20  1  0  0  0  0
  5 19  1  0  0  0  0
  5  7  1  0  0  0  0
  6  7  2  0  0  0  0
  6 12  1  0  0  0  0
  7  8  1  0  0  0  0
  8  9  1  0  0  0  0
  8 10  2  0  0  0  0
 10 11  1  0  0  0  0
 11 12  2  0  0  0  0
 15 23  1  0  0  0  0
 15 16  1  0  0  0  0
 16 19  1  0  0  0  0
 19 22  1  0  0  0  0
 22  2  1  6  0  0  0
 22 23  1  0  0  0  0
 23 24  1  6  0  0  0
 24 25  1  0  0  0  0
 25 26  1  0  0  0  0
M  CHG  2  13  -1  18  -1
M  END
>  <CHROM.1>
-17.84752676,-93.36723447,2.91449075,-45.73110942,35.37755113,-94.75756610
-72.87560796,-69.28775020,-6.38468052,-41.85945881,8.15251024,-1.72665420
0.89607768,2.90885870

>  <Name>
ligand

>  <RI>
0

>  <Rbt.Current_Directory>
/home/itssahil/PROJECTS/Mol_Feturizer/New_Systems/rnas/3D2G

>  <Rbt.Executable>
rbdock ($Id: //depot/dev/client3/rdock/2013.1/src/exe/rbdock.cxx#4 $)

>  <Rbt.Library>
libRbt.so (2013.1, Build901 2013/11/27)

>  <Rbt.Parameter_File>
/export/apps/rDock/src/rDock_2013.1_src/data/scripts/dock_solv.prm

>  <Rbt.Receptor>
prm/pocket_docking_7.prm

>  <SCORE>
-14.3277

>  <SCORE.INTER>
-18.2035

>  <SCORE.INTER.CONST>
1

>  <SCORE.INTER.POLAR>
0

>  <SCORE.INTER.ROT>
8

>  <SCORE.INTER.SOLV>
26.6256

>  <SCORE.INTER.VDW>
-29.9442

>  <SCORE.INTER.norm>
-0.700135

>  <SCORE.INTRA>
3.87585

>  <SCORE.INTRA.DIHEDRAL>
3.09826

>  <SCORE.INTRA.DIHEDRAL.0>
9.09364

>  <SCORE.INTRA.POLAR>
0

>  <SCORE.INTRA.POLAR.0>
0

>  <SCORE.INTRA.REPUL>
0

>  <SCORE.INTRA.REPUL.0>
0

>  <SCORE.INTRA.SOLV>
-0.225663

>  <SCORE.INTRA.SOLV.lig_0>
-78.5846

>  <SCORE.INTRA.VDW>
2.43955

>  <SCORE.INTRA.VDW.0>
-2.81163

>  <SCORE.INTRA.norm>
0.149071

>  <SCORE.RESTR>
0

>  <SCORE.RESTR.CAVITY>
0

>  <SCORE.RESTR.norm>
0

>  <SCORE.SYSTEM>
0

>  <SCORE.SYSTEM.CONST>
0

>  <SCORE.SYSTEM.DIHEDRAL>
0

>  <SCORE.SYSTEM.SOLV>
0

>  <SCORE.SYSTEM.norm>
0

>  <SCORE.heavy>
26

>  <SCORE.norm>
-0.551064

>  <RMSD>
4.861

$$$$
ligand
 OpenBabel11021811463D
libRbt.so/2013.1/901 2013/11/27
 26 27  0  0  0  0  0  0  0  0999 V2000
   -5.3110  -35.4227    4.3693 C   0  0  0  0  0  0  0  0  0  0  0  0
   -6.1694  -43.0809    6.0257 C   0  0  0  0  0  0  0  0  0  0  0  0
   -5.6014  -46.3073    9.8502 P   0  0  1  0  0  0  0  0  0  0  0  0
   -5.4578  -44.6875   12.0635 P   0  0  2  0  0  0  0  0  0  0  0  0
   -7.0111  -40.2343    6.9957 C   0  0  0  0  0  0  0  0  0  0  0  0
   -5.8214  -39.0557    5.1171 C   0  0  0  0  0  0  0  0  0  0  0  0
   -6.5493  -38.9747    6.3082 C   0  0  0  0  0  0  0  0  0  0  0  0
   -6.8864  -37.7307    6.8485 C   0  0  0  0  0  0  0  0  0  0  0  0
   -7.5857  -37.6612    7.9617 N   0  0  0  0  0  0  0  0  0  0  0  0
   -6.4598  -36.5812    6.2292 N   0  0  0  0  0  0  0  0  0  0  0  0
   -5.7539  -36.6710    5.0459 C   0  0  0  0  0  0  0  0  0  0  0  0
   -5.4210  -37.8945    4.4958 N   0  0  0  0  0  0  0  0  0  0  0  0
   -4.8131  -47.5023    9.4086 O   0  5  0  0  0  0  0  0  0  0  0  0
   -6.7964  -45.1917   12.4318 O   0  0  0  0  0  0  0  0  0  0  0  0
   -3.7958  -41.4482    8.6748 S   0  0  0  0  0  0  0  0  0  0  0  0
   -4.9787  -40.4473    8.3569 C   0  0  0  0  0  0  0  0  0  0  0  0
   -7.0695  -46.5105    9.9795 O   0  0  0  0  0  0  0  0  0  0  0  0
   -5.5256  -43.4235   11.3057 O   0  5  0  0  0  0  0  0  0  0  0  0
   -5.8591  -40.9641    7.4479 N   0  0  0  0  0  0  0  0  0  0  0  0
   -4.8814  -45.8809   11.1937 O   0  0  0  0  0  0  0  0  0  0  0  0
   -4.5132  -44.3728   13.1779 O   0  0  0  0  0  0  0  0  0  0  0  0
   -5.4744  -42.2044    7.0224 C   0  0  1  0  0  0  0  0  0  0  0  0
   -4.3157  -42.5715    7.6595 C   0  0  2  0  0  0  0  0  0  0  0  0
   -3.4896  -43.8300    7.5636 C   0  0  0  0  0  0  0  0  0  0  0  0
   -3.8657  -44.8479    8.6463 C   0  0  0  0  0  0  0  0  0  0  0  0
   -5.2285  -45.2070    8.7836 O   0  0  0  0  0  0  0  0  0  0  0  0
  1 11  1  0  0  0  0
  3 13  1  6  0  0  0
  3 17  2  0  0  0  0
  3 20  1  0  0  0  0
  3 26  1  0  0  0  0
  4 14  1  1  0  0  0
  4 18  1  0  0  0  0
  4 21  2  0  0  0  0
  4 20  1  0  0  0  0
  5 19  1  0  0  0  0
  5  7  1  0  0  0  0
  6  7  2  0  0  0  0
  6 12  1  0  0  0  0
  7  8  1  0  0  0  0
  8  9  1  0  0  0  0
  8 10  2  0  0  0  0
 10 11  1  0  0  0  0
 11 12  2  0  0  0  0
 15 23  1  0  0  0  0
 15 16  1  0  0  0  0
 16 19  1  0  0  0  0
 19 22  1  0  0  0  0
 22  2  1  1  0  0  0
 22 23  1  0  0  0  0
 23 24  1  1  0  0  0
 24 25  1  0  0  0  0
 25 26  1  0  0  0  0
M  CHG  2  13  -1  18  -1
M  END
>  <CHROM.1>
-176.11547121,61.49837332,65.52691011,61.91468597,85.14729880,52.35274588
177.02308035,-58.99690947,-5.48012743,-42.32895276,8.56404327,1.83404972
1.31704153,-0.82290369

>  <Name>
ligand

>  <RI>
0

>  <Rbt.Current_Directory>
/home/itssahil/PROJECTS/Mol_Feturizer/New_Systems/rnas/3D2G

>  <Rbt.Executable>
rbdock ($Id: //depot/dev/client3/rdock/2013.1/src/exe/rbdock.cxx#4 $)

>  <Rbt.Library>
libRbt.so (2013.1, Build901 2013/11/27)

>  <Rbt.Parameter_File>
/export/apps/rDock/src/rDock_2013.1_src/data/scripts/dock_solv.prm

>  <Rbt.Receptor>
prm/pocket_docking_5.prm

>  <SCORE>
-17.8597

>  <SCORE.INTER>
-13.5282

>  <SCORE.INTER.CONST>
1

>  <SCORE.INTER.POLAR>
0

>  <SCORE.INTER.ROT>
8

>  <SCORE.INTER.SOLV>
23.3867

>  <SCORE.INTER.VDW>
-25.7477

>  <SCORE.INTER.norm>
-0.520316

>  <SCORE.INTRA>
-4.33147

>  <SCORE.INTRA.DIHEDRAL>
-3.61981

>  <SCORE.INTRA.DIHEDRAL.0>
9.09364

>  <SCORE.INTRA.POLAR>
0

>  <SCORE.INTRA.POLAR.0>
0

>  <SCORE.INTRA.REPUL>
0

>  <SCORE.INTRA.REPUL.0>
0

>  <SCORE.INTRA.SOLV>
-1.94521

>  <SCORE.INTRA.SOLV.lig_0>
-78.5846

>  <SCORE.INTRA.VDW>
-1.54896

>  <SCORE.INTRA.VDW.0>
-2.81163

>  <SCORE.INTRA.norm>
-0.166595

>  <SCORE.RESTR>
0

>  <SCORE.RESTR.CAVITY>
0

>  <SCORE.RESTR.norm>
0

>  <SCORE.SYSTEM>
0

>  <SCORE.SYSTEM.CONST>
0

>  <SCORE.SYSTEM.DIHEDRAL>
0

>  <SCORE.SYSTEM.SOLV>
0

>  <SCORE.SYSTEM.norm>
0

>  <SCORE.heavy>
26

>  <SCORE.norm>
-0.686911

>  <RMSD>
4.905

$$$$
ligand
 OpenBabel11021811463D
libRbt.so/2013.1/901 2013/11/27
 26 27  0  0  0  0  0  0  0  0999 V2000
   -7.5287  -34.5800    6.6107 C   0  0  0  0  0  0  0  0  0  0  0  0
   -7.0579  -42.6801    6.2323 C   0  0  0  0  0  0  0  0  0  0  0  0
   -4.9634  -42.8046   12.2222 P   0  0  1  0  0  0  0  0  0  0  0  0
   -5.1367  -40.2523   13.2215 P   0  0  2  0  0  0  0  0  0  0  0  0
   -5.8017  -39.9294    5.4524 C   0  0  0  0  0  0  0  0  0  0  0  0
   -5.5187  -37.4361    5.2610 C   0  0  0  0  0  0  0  0  0  0  0  0
   -6.2417  -38.5217    5.7647 C   0  0  0  0  0  0  0  0  0  0  0  0
   -7.3948  -38.3123    6.5260 C   0  0  0  0  0  0  0  0  0  0  0  0
   -8.0800  -39.3389    6.9838 N   0  0  0  0  0  0  0  0  0  0  0  0
   -7.7935  -37.0310    6.8195 N   0  0  0  0  0  0  0  0  0  0  0  0
   -7.0814  -35.9653    6.3058 C   0  0  0  0  0  0  0  0  0  0  0  0
   -5.9441  -36.1580    5.5443 N   0  0  0  0  0  0  0  0  0  0  0  0
   -3.9288  -43.2030   11.2145 O   0  5  0  0  0  0  0  0  0  0  0  0
   -6.3467  -40.7886   13.8772 O   0  0  0  0  0  0  0  0  0  0  0  0
   -4.6675  -41.1159    8.9075 S   0  0  0  0  0  0  0  0  0  0  0  0
   -4.7429  -40.1503    7.6568 C   0  0  0  0  0  0  0  0  0  0  0  0
   -5.4230  -43.8814   13.1402 O   0  0  0  0  0  0  0  0  0  0  0  0
   -5.4513  -39.5222   11.9788 O   0  5  0  0  0  0  0  0  0  0  0  0
   -5.5787  -40.6295    6.6872 N   0  0  0  0  0  0  0  0  0  0  0  0
   -4.2953  -41.5682   12.9503 O   0  0  0  0  0  0  0  0  0  0  0  0
   -4.3120  -39.2767   13.9969 O   0  0  0  0  0  0  0  0  0  0  0  0
   -6.1131  -41.8383    7.0345 C   0  0  1  0  0  0  0  0  0  0  0  0
   -5.6601  -42.2025    8.2775 C   0  0  2  0  0  0  0  0  0  0  0  0
   -5.9501  -43.4206    9.1188 C   0  0  0  0  0  0  0  0  0  0  0  0
   -6.7381  -43.0693   10.3858 C   0  0  0  0  0  0  0  0  0  0  0  0
   -6.1295  -42.2163   11.3382 O   0  0  0  0  0  0  0  0  0  0  0  0
  1 11  1  0  0  0  0
  3 13  1  6  0  0  0
  3 17  2  0  0  0  0
  3 20  1  0  0  0  0
  3 26  1  0  0  0  0
  4 14  1  1  0  0  0
  4 18  1  0  0  0  0
  4 21  2  0  0  0  0
  4 20  1  0  0  0  0
  5 19  1  0  0  0  0
  5  7  1  0  0  0  0
  6  7  2  0  0  0  0
  6 12  1  0  0  0  0
  7  8  1  0  0  0  0
  8  9  1  0  0  0  0
  8 10  2  0  0  0  0
 10 11  1  0  0  0  0
 11 12  2  0  0  0  0
 15 23  1  0  0  0  0
 15 16  1  0  0  0  0
 16 19  1  0  0  0  0
 19 22  1  0  0  0  0
 22  2  1  1  0  0  0
 22 23  1  0  0  0  0
 23 24  1  1  0  0  0
 24 25  1  0  0  0  0
 25 26  1  0  0  0  0
M  CHG  2  13  -1  18  -1
M  END
>  <CHROM.1>
134.37211034,-54.24159947,122.99782736,51.11456565,66.54811851,-62.97193541
-73.20327858,60.30552938,-5.76807594,-40.43949109,9.46739501,3.11831223,1.37144124
-2.54303602

>  <Name>
ligand

>  <RI>
0

>  <Rbt.Current_Directory>
/home/itssahil/PROJECTS/Mol_Feturizer/New_Systems/rnas/3D2G

>  <Rbt.Executable>
rbdock ($Id: //depot/dev/client3/rdock/2013.1/src/exe/rbdock.cxx#4 $)

>  <Rbt.Library>
libRbt.so (2013.1, Build901 2013/11/27)

>  <Rbt.Parameter_File>
/export/apps/rDock/src/rDock_2013.1_src/data/scripts/dock_solv.prm

>  <Rbt.Receptor>
prm/pocket_docking_7.prm

>  <SCORE>
-17.5859

>  <SCORE.INTER>
-16.5707

>  <SCORE.INTER.CONST>
1

>  <SCORE.INTER.POLAR>
0

>  <SCORE.INTER.ROT>
8

>  <SCORE.INTER.SOLV>
14.171

>  <SCORE.INTER.VDW>
-24.7042

>  <SCORE.INTER.norm>
-0.637336

>  <SCORE.INTRA>
-1.01517

>  <SCORE.INTRA.DIHEDRAL>
-1.18977

>  <SCORE.INTRA.DIHEDRAL.0>
9.09364

>  <SCORE.INTRA.POLAR>
0

>  <SCORE.INTRA.POLAR.0>
0

>  <SCORE.INTRA.REPUL>
0

>  <SCORE.INTRA.REPUL.0>
0

>  <SCORE.INTRA.SOLV>
1.73428

>  <SCORE.INTRA.SOLV.lig_0>
-78.5846

>  <SCORE.INTRA.VDW>
-1.28742

>  <SCORE.INTRA.VDW.0>
-2.81163

>  <SCORE.INTRA.norm>
-0.039045

>  <SCORE.RESTR>
0

>  <SCORE.RESTR.CAVITY>
0

>  <SCORE.RESTR.norm>
0

>  <SCORE.SYSTEM>
0

>  <SCORE.SYSTEM.CONST>
0

>  <SCORE.SYSTEM.DIHEDRAL>
0

>  <SCORE.SYSTEM.SOLV>
0

>  <SCORE.SYSTEM.norm>
0

>  <SCORE.heavy>
26

>  <SCORE.norm>
-0.676381

>  <RMSD>
5.008

$$$$
ligand
 OpenBabel11021811463D
libRbt.so/2013.1/901 2013/11/27
 26 27  0  0  0  0  0  0  0  0999 V2000
   -6.5418  -35.1912    5.5521 C   0  0  0  0  0  0  0  0  0  0  0  0
   -4.4674  -41.5289    6.6729 C   0  0  0  0  0  0  0  0  0  0  0  0
   -2.3210  -46.5309    5.3855 P   0  0  1  0  0  0  0  0  0  0  0  0
    0.1496  -47.6501    5.8173 P   0  0  2  0  0  0  0  0  0  0  0  0
   -7.0013  -40.8819    4.9660 C   0  0  0  0  0  0  0  0  0  0  0  0
   -5.8234  -38.7093    4.4911 C   0  0  0  0  0  0  0  0  0  0  0  0
   -6.8665  -39.3891    5.1273 C   0  0  0  0  0  0  0  0  0  0  0  0
   -7.8108  -38.6890    5.8831 C   0  0  0  0  0  0  0  0  0  0  0  0
   -8.7997  -39.3331    6.4664 N   0  0  0  0  0  0  0  0  0  0  0  0
   -7.6859  -37.3300    6.0391 N   0  0  0  0  0  0  0  0  0  0  0  0
   -6.6610  -36.6654    5.3953 C   0  0  0  0  0  0  0  0  0  0  0  0
   -5.7251  -37.3441    4.6379 N   0  0  0  0  0  0  0  0  0  0  0  0
   -2.7558  -47.4464    4.2822 O   0  5  0  0  0  0  0  0  0  0  0  0
    0.0062  -48.7108    4.7994 O   0  0  0  0  0  0  0  0  0  0  0  0
   -4.1400  -42.2777    2.8455 S   0  0  0  0  0  0  0  0  0  0  0  0
   -5.5865  -41.7076    3.1369 C   0  0  0  0  0  0  0  0  0  0  0  0
   -2.7810  -46.8978    6.7519 O   0  0  0  0  0  0  0  0  0  0  0  0
   -0.3150  -48.0858    7.1480 O   0  5  0  0  0  0  0  0  0  0  0  0
   -5.7637  -41.4065    4.4583 N   0  0  0  0  0  0  0  0  0  0  0  0
   -0.7478  -46.4897    5.2163 O   0  0  0  0  0  0  0  0  0  0  0  0
    1.5276  -47.1365    6.0828 O   0  0  0  0  0  0  0  0  0  0  0  0
   -4.6530  -41.7044    5.1966 C   0  0  1  0  0  0  0  0  0  0  0  0
   -3.6737  -42.2035    4.3751 C   0  0  2  0  0  0  0  0  0  0  0  0
   -2.2703  -42.6674    4.6768 C   0  0  0  0  0  0  0  0  0  0  0  0
   -2.2572  -43.9664    5.4906 C   0  0  0  0  0  0  0  0  0  0  0  0
   -2.8498  -45.1195    4.9212 O   0  0  0  0  0  0  0  0  0  0  0  0
  1 11  1  0  0  0  0
  3 13  1  6  0  0  0
  3 17  2  0  0  0  0
  3 20  1  0  0  0  0
  3 26  1  0  0  0  0
  4 14  1  6  0  0  0
  4 18  1  0  0  0  0
  4 21  2  0  0  0  0
  4 20  1  0  0  0  0
  5 19  1  0  0  0  0
  5  7  1  0  0  0  0
  6  7  2  0  0  0  0
  6 12  1  0  0  0  0
  7  8  1  0  0  0  0
  8  9  1  0  0  0  0
  8 10  2  0  0  0  0
 10 11  1  0  0  0  0
 11 12  2  0  0  0  0
 15 23  1  0  0  0  0
 15 16  1  0  0  0  0
 16 19  1  0  0  0  0
 19 22  1  0  0  0  0
 22  2  1  6  0  0  0
 22 23  1  0  0  0  0
 23 24  1  6  0  0  0
 24 25  1  0  0  0  0
 25 26  1  0  0  0  0
M  CHG  2  13  -1  18  -1
M  END
>  <CHROM.1>
-81.99139807,-99.92800223,16.37647482,79.99243938,-111.41491047,60.95255054
153.37211222,-159.84380531,-3.67964162,-43.08686927,5.18270845,-2.21635494
-0.39034495,2.81766044

>  <Name>
ligand

>  <RI>
0

>  <Rbt.Current_Directory>
/home/itssahil/PROJECTS/Mol_Feturizer/New_Systems/rnas/3D2G

>  <Rbt.Executable>
rbdock ($Id: //depot/dev/client3/rdock/2013.1/src/exe/rbdock.cxx#4 $)

>  <Rbt.Library>
libRbt.so (2013.1, Build901 2013/11/27)

>  <Rbt.Parameter_File>
/export/apps/rDock/src/rDock_2013.1_src/data/scripts/dock_solv.prm

>  <Rbt.Receptor>
prm/pocket_docking_8.prm

>  <SCORE>
-13.065

>  <SCORE.INTER>
-11.1624

>  <SCORE.INTER.CONST>
1

>  <SCORE.INTER.POLAR>
0

>  <SCORE.INTER.ROT>
8

>  <SCORE.INTER.SOLV>
12.7489

>  <SCORE.INTER.VDW>
-20.6245

>  <SCORE.INTER.norm>
-0.429322

>  <SCORE.INTRA>
-1.90263

>  <SCORE.INTRA.DIHEDRAL>
-0.0628728

>  <SCORE.INTRA.DIHEDRAL.0>
9.09364

>  <SCORE.INTRA.POLAR>
0

>  <SCORE.INTRA.POLAR.0>
0

>  <SCORE.INTRA.REPUL>
0

>  <SCORE.INTRA.REPUL.0>
0

>  <SCORE.INTRA.SOLV>
-2.26051

>  <SCORE.INTRA.SOLV.lig_0>
-78.5846

>  <SCORE.INTRA.VDW>
-0.740941

>  <SCORE.INTRA.VDW.0>
-2.81163

>  <SCORE.INTRA.norm>
-0.0731782

>  <SCORE.RESTR>
0

>  <SCORE.RESTR.CAVITY>
0

>  <SCORE.RESTR.norm>
0

>  <SCORE.SYSTEM>
0

>  <SCORE.SYSTEM.CONST>
0

>  <SCORE.SYSTEM.DIHEDRAL>
0

>  <SCORE.SYSTEM.SOLV>
0

>  <SCORE.SYSTEM.norm>
0

>  <SCORE.heavy>
26

>  <SCORE.norm>
-0.5025

>  <RMSD>
5.043

$$$$
ligand
 OpenBabel11021811463D
libRbt.so/2013.1/901 2013/11/27
 26 27  0  0  0  0  0  0  0  0999 V2000
   -6.4223  -37.5716    5.6705 C   0  0  0  0  0  0  0  0  0  0  0  0
   -4.0739  -44.7551    7.2799 C   0  0  0  0  0  0  0  0  0  0  0  0
   -6.7719  -44.2536   10.9201 P   0  0  1  0  0  0  0  0  0  0  0  0
   -4.5263  -43.1101   12.0122 P   0  0  2  0  0  0  0  0  0  0  0  0
   -4.4739  -42.8995    4.8001 C   0  0  0  0  0  0  0  0  0  0  0  0
   -5.0582  -40.9942    6.3370 C   0  0  0  0  0  0  0  0  0  0  0  0
   -4.9979  -41.5060    5.0372 C   0  0  0  0  0  0  0  0  0  0  0  0
   -5.3849  -40.7201    3.9483 C   0  0  0  0  0  0  0  0  0  0  0  0
   -5.3105  -41.2023    2.7256 N   0  0  0  0  0  0  0  0  0  0  0  0
   -5.8708  -39.4531    4.1616 N   0  0  0  0  0  0  0  0  0  0  0  0
   -5.9131  -38.9512    5.4472 C   0  0  0  0  0  0  0  0  0  0  0  0
   -5.5256  -39.7143    6.5325 N   0  0  0  0  0  0  0  0  0  0  0  0
   -6.6513  -45.4673   11.7900 O   0  5  0  0  0  0  0  0  0  0  0  0
   -4.5448  -44.2059   13.0025 O   0  0  0  0  0  0  0  0  0  0  0  0
   -7.5285  -45.1012    5.4735 S   0  0  0  0  0  0  0  0  0  0  0  0
   -6.6648  -44.0056    4.7279 C   0  0  0  0  0  0  0  0  0  0  0  0
   -7.7143  -43.2054   11.3962 O   0  0  0  0  0  0  0  0  0  0  0  0
   -5.2128  -41.9005   12.5040 O   0  5  0  0  0  0  0  0  0  0  0  0
   -5.4331  -43.8460    5.2986 N   0  0  0  0  0  0  0  0  0  0  0  0
   -5.2728  -43.7661   10.7772 O   0  0  0  0  0  0  0  0  0  0  0  0
   -3.1901  -42.5986   11.5808 O   0  0  0  0  0  0  0  0  0  0  0  0
   -5.2741  -44.6543    6.3889 C   0  0  1  0  0  0  0  0  0  0  0  0
   -6.4060  -45.4080    6.5729 C   0  0  2  0  0  0  0  0  0  0  0  0
   -6.7418  -46.4527    7.6080 C   0  0  0  0  0  0  0  0  0  0  0  0
   -6.4535  -45.9639    9.0320 C   0  0  0  0  0  0  0  0  0  0  0  0
   -7.1766  -44.8469    9.5160 O   0  0  0  0  0  0  0  0  0  0  0  0
  1 11  1  0  0  0  0
  3 13  1  1  0  0  0
  3 17  2  0  0  0  0
  3 20  1  0  0  0  0
  3 26  1  0  0  0  0
  4 14  1  1  0  0  0
  4 18  1  0  0  0  0
  4 21  2  0  0  0  0
  4 20  1  0  0  0  0
  5 19  1  0  0  0  0
  5  7  1  0  0  0  0
  6  7  2  0  0  0  0
  6 12  1  0  0  0  0
  7  8  1  0  0  0  0
  8  9  1  0  0  0  0
  8 10  2  0  0  0  0
 10 11  1  0  0  0  0
 11 12  2  0  0  0  0
 15 23  1  0  0  0  0
 15 16  1  0  0  0  0
 16 19  1  0  0  0  0
 19 22  1  0  0  0  0
 22  2  1  6  0  0  0
 22 23  1  0  0  0  0
 23 24  1  6  0  0  0
 24 25  1  0  0  0  0
 25 26  1  0  0  0  0
M  CHG  2  13  -1  18  -1
M  END
>  <CHROM.1>
-71.39969287,67.08849172,70.69253055,61.26725657,-130.73176566,62.64973752
-173.67258876,-46.47656376,-5.78610095,-43.13533305,8.11550811,-1.64828511
1.29263092,2.01975247

>  <Name>
ligand

>  <RI>
0

>  <Rbt.Current_Directory>
/home/itssahil/PROJECTS/Mol_Feturizer/New_Systems/rnas/3D2G

>  <Rbt.Executable>
rbdock ($Id: //depot/dev/client3/rdock/2013.1/src/exe/rbdock.cxx#4 $)

>  <Rbt.Library>
libRbt.so (2013.1, Build901 2013/11/27)

>  <Rbt.Parameter_File>
/export/apps/rDock/src/rDock_2013.1_src/data/scripts/dock_solv.prm

>  <Rbt.Receptor>
prm/pocket_docking_5.prm

>  <SCORE>
-12.9706

>  <SCORE.INTER>
-9.85335

>  <SCORE.INTER.CONST>
1

>  <SCORE.INTER.POLAR>
0

>  <SCORE.INTER.ROT>
8

>  <SCORE.INTER.SOLV>
16.8388

>  <SCORE.INTER.VDW>
-21.1152

>  <SCORE.INTER.norm>
-0.378975

>  <SCORE.INTRA>
-3.11721

>  <SCORE.INTRA.DIHEDRAL>
-4.03585

>  <SCORE.INTRA.DIHEDRAL.0>
9.09364

>  <SCORE.INTRA.POLAR>
0

>  <SCORE.INTRA.POLAR.0>
0

>  <SCORE.INTRA.REPUL>
0

>  <SCORE.INTRA.REPUL.0>
0

>  <SCORE.INTRA.SOLV>
-1.73073

>  <SCORE.INTRA.SOLV.lig_0>
-78.5846

>  <SCORE.INTRA.VDW>
-0.233921

>  <SCORE.INTRA.VDW.0>
-2.81163

>  <SCORE.INTRA.norm>
-0.119893

>  <SCORE.RESTR>
0

>  <SCORE.RESTR.CAVITY>
0

>  <SCORE.RESTR.norm>
0

>  <SCORE.SYSTEM>
0

>  <SCORE.SYSTEM.CONST>
0

>  <SCORE.SYSTEM.DIHEDRAL>
0

>  <SCORE.SYSTEM.SOLV>
0

>  <SCORE.SYSTEM.norm>
0

>  <SCORE.heavy>
26

>  <SCORE.norm>
-0.498868

>  <RMSD>
5.061

$$$$
ligand
 OpenBabel11021811463D
libRbt.so/2013.1/901 2013/11/27
 26 27  0  0  0  0  0  0  0  0999 V2000
   -7.9710  -39.6268    1.8463 C   0  0  0  0  0  0  0  0  0  0  0  0
   -7.0405  -45.5550    8.1975 C   0  0  0  0  0  0  0  0  0  0  0  0
   -4.8081  -42.5685   12.3702 P   0  0  1  0  0  0  0  0  0  0  0  0
   -5.5365  -39.9658   12.8581 P   0  0  2  0  0  0  0  0  0  0  0  0
   -6.8807  -43.8300    5.5991 C   0  0  0  0  0  0  0  0  0  0  0  0
   -8.4331  -42.1181    4.6028 C   0  0  0  0  0  0  0  0  0  0  0  0
   -7.1784  -42.7351    4.6066 C   0  0  0  0  0  0  0  0  0  0  0  0
   -6.1817  -42.3177    3.7204 C   0  0  0  0  0  0  0  0  0  0  0  0
   -4.9972  -42.8919    3.7399 N   0  0  0  0  0  0  0  0  0  0  0  0
   -6.4525  -41.3262    2.8092 N   0  0  0  0  0  0  0  0  0  0  0  0
   -7.6896  -40.7130    2.8225 C   0  0  0  0  0  0  0  0  0  0  0  0
   -8.6818  -41.1099    3.6992 N   0  0  0  0  0  0  0  0  0  0  0  0
   -3.3554  -42.2266   12.2397 O   0  5  0  0  0  0  0  0  0  0  0  0
   -6.5436  -40.3394   13.8720 O   0  0  0  0  0  0  0  0  0  0  0  0
   -7.4443  -41.6979    8.7246 S   0  0  0  0  0  0  0  0  0  0  0  0
   -7.2270  -41.9874    7.1847 C   0  0  0  0  0  0  0  0  0  0  0  0
   -5.2388  -43.0720   13.7023 O   0  0  0  0  0  0  0  0  0  0  0  0
   -5.9007  -38.7316   12.1367 O   0  5  0  0  0  0  0  0  0  0  0  0
   -7.0960  -43.3232    6.9262 N   0  0  0  0  0  0  0  0  0  0  0  0
   -5.5310  -41.2373   11.9114 O   0  0  0  0  0  0  0  0  0  0  0  0
   -4.1492  -39.6888   13.3396 O   0  0  0  0  0  0  0  0  0  0  0  0
   -7.1559  -44.0665    8.0714 C   0  0  1  0  0  0  0  0  0  0  0  0
   -7.3529  -43.2390    9.1482 C   0  0  2  0  0  0  0  0  0  0  0  0
   -7.5025  -43.5457   10.6177 C   0  0  0  0  0  0  0  0  0  0  0  0
   -6.2864  -44.2942   11.1749 C   0  0  0  0  0  0  0  0  0  0  0  0
   -5.0437  -43.6166   11.2155 O   0  0  0  0  0  0  0  0  0  0  0  0
  1 11  1  0  0  0  0
  3 13  1  1  0  0  0
  3 17  2  0  0  0  0
  3 20  1  0  0  0  0
  3 26  1  0  0  0  0
  4 14  1  1  0  0  0
  4 18  1  0  0  0  0
  4 21  2  0  0  0  0
  4 20  1  0  0  0  0
  5 19  1  0  0  0  0
  5  7  1  0  0  0  0
  6  7  2  0  0  0  0
  6 12  1  0  0  0  0
  7  8  1  0  0  0  0
  8  9  1  0  0  0  0
  8 10  2  0  0  0  0
 10 11  1  0  0  0  0
 11 12  2  0  0  0  0
 15 23  1  0  0  0  0
 15 16  1  0  0  0  0
 16 19  1  0  0  0  0
 19 22  1  0  0  0  0
 22  2  1  6  0  0  0
 22 23  1  0  0  0  0
 23 24  1  6  0  0  0
 24 25  1  0  0  0  0
 25 26  1  0  0  0  0
M  CHG  2  13  -1  18  -1
M  END
>  <CHROM.1>
-73.35075258,-14.13493689,-56.84011149,-75.91801352,-122.36043226,65.89354172
77.95987940,171.22127273,-6.32009148,-42.01934949,8.92719160,3.13202374,1.34577397
3.09992061

>  <Name>
ligand

>  <RI>
0

>  <Rbt.Current_Directory>
/home/itssahil/PROJECTS/Mol_Feturizer/New_Systems/rnas/3D2G

>  <Rbt.Executable>
rbdock ($Id: //depot/dev/client3/rdock/2013.1/src/exe/rbdock.cxx#4 $)

>  <Rbt.Library>
libRbt.so (2013.1, Build901 2013/11/27)

>  <Rbt.Parameter_File>
/export/apps/rDock/src/rDock_2013.1_src/data/scripts/dock_solv.prm

>  <Rbt.Receptor>
prm/pocket_docking_7.prm

>  <SCORE>
-16.4759

>  <SCORE.INTER>
-14.6942

>  <SCORE.INTER.CONST>
1

>  <SCORE.INTER.POLAR>
0

>  <SCORE.INTER.ROT>
8

>  <SCORE.INTER.SOLV>
15.8686

>  <SCORE.INTER.VDW>
-24.019

>  <SCORE.INTER.norm>
-0.565162

>  <SCORE.INTRA>
-1.7817

>  <SCORE.INTRA.DIHEDRAL>
-2.14037

>  <SCORE.INTRA.DIHEDRAL.0>
9.09364

>  <SCORE.INTRA.POLAR>
0

>  <SCORE.INTRA.POLAR.0>
0

>  <SCORE.INTRA.REPUL>
0

>  <SCORE.INTRA.REPUL.0>
0

>  <SCORE.INTRA.SOLV>
-1.38161

>  <SCORE.INTRA.SOLV.lig_0>
-78.5846

>  <SCORE.INTRA.VDW>
-0.0207154

>  <SCORE.INTRA.VDW.0>
-2.81163

>  <SCORE.INTRA.norm>
-0.068527

>  <SCORE.RESTR>
0

>  <SCORE.RESTR.CAVITY>
0

>  <SCORE.RESTR.norm>
0

>  <SCORE.SYSTEM>
0

>  <SCORE.SYSTEM.CONST>
0

>  <SCORE.SYSTEM.DIHEDRAL>
0

>  <SCORE.SYSTEM.SOLV>
0

>  <SCORE.SYSTEM.norm>
0

>  <SCORE.heavy>
26

>  <SCORE.norm>
-0.633689

>  <RMSD>
5.090

$$$$
ligand
 OpenBabel11021811463D
libRbt.so/2013.1/901 2013/11/27
 26 27  0  0  0  0  0  0  0  0999 V2000
   -5.3219  -35.4294    4.1909 C   0  0  0  0  0  0  0  0  0  0  0  0
   -5.1379  -40.1642    9.9363 C   0  0  0  0  0  0  0  0  0  0  0  0
   -5.1075  -44.3229   11.9585 P   0  0  1  0  0  0  0  0  0  0  0  0
   -6.8406  -44.6744    9.8572 P   0  0  2  0  0  0  0  0  0  0  0  0
   -6.8439  -39.9892    7.3265 C   0  0  0  0  0  0  0  0  0  0  0  0
   -5.6875  -38.9760    5.3341 C   0  0  0  0  0  0  0  0  0  0  0  0
   -6.4287  -38.7948    6.5057 C   0  0  0  0  0  0  0  0  0  0  0  0
   -6.8220  -37.5141    6.9036 C   0  0  0  0  0  0  0  0  0  0  0  0
   -7.5335  -37.3517    7.9992 N   0  0  0  0  0  0  0  0  0  0  0  0
   -6.4381  -36.4231    6.1626 N   0  0  0  0  0  0  0  0  0  0  0  0
   -5.7186  -36.6130    4.9995 C   0  0  0  0  0  0  0  0  0  0  0  0
   -5.3302  -37.8746    4.5897 N   0  0  0  0  0  0  0  0  0  0  0  0
   -5.3320  -43.9317   13.3871 O   0  5  0  0  0  0  0  0  0  0  0  0
   -5.9319  -43.8865    8.9997 O   0  0  0  0  0  0  0  0  0  0  0  0
   -3.9908  -42.5196    7.0287 S   0  0  0  0  0  0  0  0  0  0  0  0
   -5.2565  -41.6967    6.5561 C   0  0  0  0  0  0  0  0  0  0  0  0
   -4.5440  -45.6823   11.7393 O   0  0  0  0  0  0  0  0  0  0  0  0
   -8.2560  -44.5017    9.4789 O   0  5  0  0  0  0  0  0  0  0  0  0
   -5.7005  -40.8370    7.5216 N   0  0  0  0  0  0  0  0  0  0  0  0
   -6.5267  -44.0911   11.2974 O   0  0  0  0  0  0  0  0  0  0  0  0
   -6.6624  -46.1581    9.8635 O   0  0  0  0  0  0  0  0  0  0  0  0
   -4.9538  -40.9308    8.6622 C   0  0  1  0  0  0  0  0  0  0  0  0
   -3.9569  -41.8572    8.4857 C   0  0  2  0  0  0  0  0  0  0  0  0
   -2.8646  -42.3249    9.4151 C   0  0  0  0  0  0  0  0  0  0  0  0
   -3.3281  -43.4788   10.3114 C   0  0  0  0  0  0  0  0  0  0  0  0
   -4.1735  -43.1781   11.4068 O   0  0  0  0  0  0  0  0  0  0  0  0
  1 11  1  0  0  0  0
  3 13  1  1  0  0  0
  3 17  2  0  0  0  0
  3 20  1  0  0  0  0
  3 26  1  0  0  0  0
  4 14  1  6  0  0  0
  4 18  1  0  0  0  0
  4 21  2  0  0  0  0
  4 20  1  0  0  0  0
  5 19  1  0  0  0  0
  5  7  1  0  0  0  0
  6  7  2  0  0  0  0
  6 12  1  0  0  0  0
  7  8  1  0  0  0  0
  8  9  1  0  0  0  0
  8 10  2  0  0  0  0
 10 11  1  0  0  0  0
 11 12  2  0  0  0  0
 15 23  1  0  0  0  0
 15 16  1  0  0  0  0
 16 19  1  0  0  0  0
 19 22  1  0  0  0  0
 22  2  1  6  0  0  0
 22 23  1  0  0  0  0
 23 24  1  6  0  0  0
 24 25  1  0  0  0  0
 25 26  1  0  0  0  0
M  CHG  2  13  -1  18  -1
M  END
>  <CHROM.1>
-166.67292941,-79.36329307,48.29814261,-66.54478951,-93.21475332,-75.91431925
155.51421928,154.25663837,-5.54075218,-41.74206884,8.72556333,-1.61432991
-0.01602141,2.49353010

>  <Name>
ligand

>  <RI>
0

>  <Rbt.Current_Directory>
/home/itssahil/PROJECTS/Mol_Feturizer/New_Systems/rnas/3D2G

>  <Rbt.Executable>
rbdock ($Id: //depot/dev/client3/rdock/2013.1/src/exe/rbdock.cxx#4 $)

>  <Rbt.Library>
libRbt.so (2013.1, Build901 2013/11/27)

>  <Rbt.Parameter_File>
/export/apps/rDock/src/rDock_2013.1_src/data/scripts/dock_solv.prm

>  <Rbt.Receptor>
prm/pocket_docking_5.prm

>  <SCORE>
-12.8372

>  <SCORE.INTER>
-9.87115

>  <SCORE.INTER.CONST>
1

>  <SCORE.INTER.POLAR>
0

>  <SCORE.INTER.ROT>
8

>  <SCORE.INTER.SOLV>
24.5645

>  <SCORE.INTER.VDW>
-23.7023

>  <SCORE.INTER.norm>
-0.37966

>  <SCORE.INTRA>
-2.96606

>  <SCORE.INTRA.DIHEDRAL>
1.17098

>  <SCORE.INTRA.DIHEDRAL.0>
9.09364

>  <SCORE.INTRA.POLAR>
0

>  <SCORE.INTRA.POLAR.0>
0

>  <SCORE.INTRA.REPUL>
0

>  <SCORE.INTRA.REPUL.0>
0

>  <SCORE.INTRA.SOLV>
-2.37919

>  <SCORE.INTRA.SOLV.lig_0>
-78.5846

>  <SCORE.INTRA.VDW>
-2.36196

>  <SCORE.INTRA.VDW.0>
-2.81163

>  <SCORE.INTRA.norm>
-0.114079

>  <SCORE.RESTR>
0

>  <SCORE.RESTR.CAVITY>
0

>  <SCORE.RESTR.norm>
0

>  <SCORE.SYSTEM>
0

>  <SCORE.SYSTEM.CONST>
0

>  <SCORE.SYSTEM.DIHEDRAL>
0

>  <SCORE.SYSTEM.SOLV>
0

>  <SCORE.SYSTEM.norm>
0

>  <SCORE.heavy>
26

>  <SCORE.norm>
-0.493739

>  <RMSD>
5.168

$$$$
ligand
 OpenBabel11021811463D
libRbt.so/2013.1/901 2013/11/27
 26 27  0  0  0  0  0  0  0  0999 V2000
   -6.8553  -41.5255    2.7328 C   0  0  0  0  0  0  0  0  0  0  0  0
   -4.6594  -41.3640    8.9572 C   0  0  0  0  0  0  0  0  0  0  0  0
   -2.0811  -45.4718    7.9885 P   0  0  1  0  0  0  0  0  0  0  0  0
   -2.2008  -43.1368    6.5475 P   0  0  2  0  0  0  0  0  0  0  0  0
   -7.7326  -41.3522    8.4020 C   0  0  0  0  0  0  0  0  0  0  0  0
   -7.3913  -42.6398    6.2669 C   0  0  0  0  0  0  0  0  0  0  0  0
   -7.4880  -41.4049    6.9154 C   0  0  0  0  0  0  0  0  0  0  0  0
   -7.3977  -40.2147    6.1886 C   0  0  0  0  0  0  0  0  0  0  0  0
   -7.5056  -39.0553    6.8029 N   0  0  0  0  0  0  0  0  0  0  0  0
   -7.1664  -40.2592    4.8353 N   0  0  0  0  0  0  0  0  0  0  0  0
   -7.0867  -41.4832    4.2014 C   0  0  0  0  0  0  0  0  0  0  0  0
   -7.1827  -42.6682    4.9066 N   0  0  0  0  0  0  0  0  0  0  0  0
   -3.0031  -46.3034    7.1503 O   0  5  0  0  0  0  0  0  0  0  0  0
   -3.4155  -42.3421    6.2740 O   0  0  0  0  0  0  0  0  0  0  0  0
   -6.5838  -44.5599   10.1405 S   0  0  0  0  0  0  0  0  0  0  0  0
   -7.6120  -43.5534    9.4832 C   0  0  0  0  0  0  0  0  0  0  0  0
   -0.6301  -45.6124    7.6912 O   0  0  0  0  0  0  0  0  0  0  0  0
   -1.8072  -43.9705    5.3958 O   0  5  0  0  0  0  0  0  0  0  0  0
   -7.0012  -42.4178    9.0297 N   0  0  0  0  0  0  0  0  0  0  0  0
   -2.6471  -44.0063    7.7956 O   0  0  0  0  0  0  0  0  0  0  0  0
   -0.9505  -42.3871    6.8756 O   0  0  0  0  0  0  0  0  0  0  0  0
   -5.6594  -42.4294    9.2884 C   0  0  1  0  0  0  0  0  0  0  0  0
   -5.3210  -43.6022    9.9154 C   0  0  2  0  0  0  0  0  0  0  0  0
   -3.9880  -44.1167   10.3994 C   0  0  0  0  0  0  0  0  0  0  0  0
   -3.7329  -45.5605    9.9520 C   0  0  0  0  0  0  0  0  0  0  0  0
   -2.4460  -45.8930    9.4639 O   0  0  0  0  0  0  0  0  0  0  0  0
  1 11  1  0  0  0  0
  3 13  1  6  0  0  0
  3 17  2  0  0  0  0
  3 20  1  0  0  0  0
  3 26  1  0  0  0  0
  4 14  1  6  0  0  0
  4 18  1  0  0  0  0
  4 21  2  0  0  0  0
  4 20  1  0  0  0  0
  5 19  1  0  0  0  0
  5  7  1  0  0  0  0
  6  7  2  0  0  0  0
  6 12  1  0  0  0  0
  7  8  1  0  0  0  0
  8  9  1  0  0  0  0
  8 10  2  0  0  0  0
 10 11  1  0  0  0  0
 11 12  2  0  0  0  0
 15 23  1  0  0  0  0
 15 16  1  0  0  0  0
 16 19  1  0  0  0  0
 19 22  1  0  0  0  0
 22  2  1  6  0  0  0
 22 23  1  0  0  0  0
 23 24  1  6  0  0  0
 24 25  1  0  0  0  0
 25 26  1  0  0  0  0
M  CHG  2  13  -1  18  -1
M  END
>  <CHROM.1>
-84.79548698,-104.36152830,37.72717933,147.09170242,47.59975317,136.78226517
-77.94233621,-66.26426911,-4.66731778,-43.21557877,7.53274588,-2.57621357
-0.44068391,2.06606980

>  <Name>
ligand

>  <RI>
0

>  <Rbt.Current_Directory>
/home/itssahil/PROJECTS/Mol_Feturizer/New_Systems/rnas/3D2G

>  <Rbt.Executable>
rbdock ($Id: //depot/dev/client3/rdock/2013.1/src/exe/rbdock.cxx#4 $)

>  <Rbt.Library>
libRbt.so (2013.1, Build901 2013/11/27)

>  <Rbt.Parameter_File>
/export/apps/rDock/src/rDock_2013.1_src/data/scripts/dock_solv.prm

>  <Rbt.Receptor>
prm/pocket_docking_3.prm

>  <SCORE>
-0.0260776

>  <SCORE.INTER>
-1.66131

>  <SCORE.INTER.CONST>
1

>  <SCORE.INTER.POLAR>
0

>  <SCORE.INTER.ROT>
8

>  <SCORE.INTER.SOLV>
6.81755

>  <SCORE.INTER.VDW>
-12.3134

>  <SCORE.INTER.norm>
-0.0638964

>  <SCORE.INTRA>
1.61902

>  <SCORE.INTRA.DIHEDRAL>
4.10133

>  <SCORE.INTRA.DIHEDRAL.0>
9.09364

>  <SCORE.INTRA.POLAR>
0

>  <SCORE.INTRA.POLAR.0>
0

>  <SCORE.INTRA.REPUL>
0

>  <SCORE.INTRA.REPUL.0>
0

>  <SCORE.INTRA.SOLV>
0.743424

>  <SCORE.INTRA.SOLV.lig_0>
-78.5846

>  <SCORE.INTRA.VDW>
-0.80336

>  <SCORE.INTRA.VDW.0>
-2.81163

>  <SCORE.INTRA.norm>
0.0622699

>  <SCORE.RESTR>
0.016212

>  <SCORE.RESTR.CAVITY>
0.016212

>  <SCORE.RESTR.norm>
0.000623537

>  <SCORE.SYSTEM>
0

>  <SCORE.SYSTEM.CONST>
0

>  <SCORE.SYSTEM.DIHEDRAL>
0

>  <SCORE.SYSTEM.SOLV>
0

>  <SCORE.SYSTEM.norm>
0

>  <SCORE.heavy>
26

>  <SCORE.norm>
-0.00100298

>  <RMSD>
5.199

$$$$
ligand
 OpenBabel11021811463D
libRbt.so/2013.1/901 2013/11/27
 26 27  0  0  0  0  0  0  0  0999 V2000
   -8.8725  -45.4660    4.3722 C   0  0  0  0  0  0  0  0  0  0  0  0
   -4.6339  -40.9952    8.5542 C   0  0  0  0  0  0  0  0  0  0  0  0
   -4.7391  -45.0672   11.3653 P   0  0  1  0  0  0  0  0  0  0  0  0
   -6.8405  -43.3035   11.2376 P   0  0  2  0  0  0  0  0  0  0  0  0
   -4.9136  -41.4608    5.4789 C   0  0  0  0  0  0  0  0  0  0  0  0
   -5.5737  -43.8636    5.1263 C   0  0  0  0  0  0  0  0  0  0  0  0
   -5.9457  -42.5166    5.1747 C   0  0  0  0  0  0  0  0  0  0  0  0
   -7.2782  -42.1429    4.9805 C   0  0  0  0  0  0  0  0  0  0  0  0
   -7.6248  -40.8744    5.0432 N   0  0  0  0  0  0  0  0  0  0  0  0
   -8.2195  -43.1016    4.6946 N   0  0  0  0  0  0  0  0  0  0  0  0
   -7.8454  -44.4303    4.6632 C   0  0  0  0  0  0  0  0  0  0  0  0
   -6.5327  -44.8149    4.8618 N   0  0  0  0  0  0  0  0  0  0  0  0
   -4.2309  -44.7406   12.7362 O   0  5  0  0  0  0  0  0  0  0  0  0
   -6.0410  -42.5114   12.1943 O   0  0  0  0  0  0  0  0  0  0  0  0
   -1.9622  -43.3797    6.9752 S   0  0  0  0  0  0  0  0  0  0  0  0
   -2.9481  -42.8874    5.8403 C   0  0  0  0  0  0  0  0  0  0  0  0
   -4.4113  -46.4273   10.8591 O   0  0  0  0  0  0  0  0  0  0  0  0
   -8.2888  -43.1988   11.4982 O   0  5  0  0  0  0  0  0  0  0  0  0
   -3.9002  -42.0330    6.3216 N   0  0  0  0  0  0  0  0  0  0  0  0
   -6.2896  -44.7702   11.4791 O   0  0  0  0  0  0  0  0  0  0  0  0
   -6.7229  -42.9520    9.7899 O   0  0  0  0  0  0  0  0  0  0  0  0
   -3.7749  -41.8461    7.6695 C   0  0  1  0  0  0  0  0  0  0  0  0
   -2.7040  -42.5657    8.1370 C   0  0  2  0  0  0  0  0  0  0  0  0
   -2.1300  -42.6964    9.5259 C   0  0  0  0  0  0  0  0  0  0  0  0
   -2.7326  -43.8825   10.2873 C   0  0  0  0  0  0  0  0  0  0  0  0
   -4.1366  -43.9193   10.4672 O   0  0  0  0  0  0  0  0  0  0  0  0
  1 11  1  0  0  0  0
  3 13  1  1  0  0  0
  3 17  2  0  0  0  0
  3 20  1  0  0  0  0
  3 26  1  0  0  0  0
  4 14  1  1  0  0  0
  4 18  1  0  0  0  0
  4 21  2  0  0  0  0
  4 20  1  0  0  0  0
  5 19  1  0  0  0  0
  5  7  1  0  0  0  0
  6  7  2  0  0  0  0
  6 12  1  0  0  0  0
  7  8  1  0  0  0  0
  8  9  1  0  0  0  0
  8 10  2  0  0  0  0
 10 11  1  0  0  0  0
 11 12  2  0  0  0  0
 15 23  1  0  0  0  0
 15 16  1  0  0  0  0
 16 19  1  0  0  0  0
 19 22  1  0  0  0  0
 22  2  1  6  0  0  0
 22 23  1  0  0  0  0
 23 24  1  6  0  0  0
 24 25  1  0  0  0  0
 25 26  1  0  0  0  0
M  CHG  2  13  -1  18  -1
M  END
>  <CHROM.1>
86.04958741,75.23672093,-29.74931335,-54.69377304,-88.71369012,-57.79972243
-174.36172888,67.01463401,-5.27182597,-43.41583931,8.43925679,1.77321732
-0.13436539,-1.37296732

>  <Name>
ligand

>  <RI>
0

>  <Rbt.Current_Directory>
/home/itssahil/PROJECTS/Mol_Feturizer/New_Systems/rnas/3D2G

>  <Rbt.Executable>
rbdock ($Id: //depot/dev/client3/rdock/2013.1/src/exe/rbdock.cxx#4 $)

>  <Rbt.Library>
libRbt.so (2013.1, Build901 2013/11/27)

>  <Rbt.Parameter_File>
/export/apps/rDock/src/rDock_2013.1_src/data/scripts/dock_solv.prm

>  <Rbt.Receptor>
prm/pocket_docking_7.prm

>  <SCORE>
-6.77782

>  <SCORE.INTER>
-3.6989

>  <SCORE.INTER.CONST>
1

>  <SCORE.INTER.POLAR>
0

>  <SCORE.INTER.ROT>
8

>  <SCORE.INTER.SOLV>
22.8032

>  <SCORE.INTER.VDW>
-19.0003

>  <SCORE.INTER.norm>
-0.142265

>  <SCORE.INTRA>
-3.07892

>  <SCORE.INTRA.DIHEDRAL>
-2.52151

>  <SCORE.INTRA.DIHEDRAL.0>
9.09364

>  <SCORE.INTRA.POLAR>
0

>  <SCORE.INTRA.POLAR.0>
0

>  <SCORE.INTRA.REPUL>
0

>  <SCORE.INTRA.REPUL.0>
0

>  <SCORE.INTRA.SOLV>
-1.78889

>  <SCORE.INTRA.SOLV.lig_0>
-78.5846

>  <SCORE.INTRA.VDW>
-0.923722

>  <SCORE.INTRA.VDW.0>
-2.81163

>  <SCORE.INTRA.norm>
-0.11842

>  <SCORE.RESTR>
0

>  <SCORE.RESTR.CAVITY>
0

>  <SCORE.RESTR.norm>
0

>  <SCORE.SYSTEM>
0

>  <SCORE.SYSTEM.CONST>
0

>  <SCORE.SYSTEM.DIHEDRAL>
0

>  <SCORE.SYSTEM.SOLV>
0

>  <SCORE.SYSTEM.norm>
0

>  <SCORE.heavy>
26

>  <SCORE.norm>
-0.260685

>  <RMSD>
5.505

$$$$
ligand
 OpenBabel11021811463D
libRbt.so/2013.1/901 2013/11/27
 26 27  0  0  0  0  0  0  0  0999 V2000
   -9.0219  -39.1900    7.7076 C   0  0  0  0  0  0  0  0  0  0  0  0
   -4.1768  -44.2896    8.1240 C   0  0  0  0  0  0  0  0  0  0  0  0
   -6.1299  -43.1383   11.0909 P   0  0  1  0  0  0  0  0  0  0  0  0
   -4.7164  -41.0110   10.0811 P   0  0  2  0  0  0  0  0  0  0  0  0
   -6.6677  -44.2149    6.2419 C   0  0  0  0  0  0  0  0  0  0  0  0
   -7.5617  -42.6272    7.9777 C   0  0  0  0  0  0  0  0  0  0  0  0
   -7.2990  -42.9028    6.6324 C   0  0  0  0  0  0  0  0  0  0  0  0
   -7.5825  -41.9534    5.6468 C   0  0  0  0  0  0  0  0  0  0  0  0
   -7.3178  -42.2128    4.3836 N   0  0  0  0  0  0  0  0  0  0  0  0
   -8.1655  -40.7604    5.9984 N   0  0  0  0  0  0  0  0  0  0  0  0
   -8.4080  -40.4913    7.3307 C   0  0  0  0  0  0  0  0  0  0  0  0
   -8.1248  -41.4177    8.3167 N   0  0  0  0  0  0  0  0  0  0  0  0
   -6.1283  -42.3956   12.3920 O   0  5  0  0  0  0  0  0  0  0  0  0
   -4.9319  -40.1563    8.8959 O   0  0  0  0  0  0  0  0  0  0  0  0
   -7.1303  -46.6364    9.1666 S   0  0  0  0  0  0  0  0  0  0  0  0
   -7.5305  -45.8594    7.8481 C   0  0  0  0  0  0  0  0  0  0  0  0
   -7.2960  -44.0317   10.8555 O   0  0  0  0  0  0  0  0  0  0  0  0
   -3.4354  -41.7401   10.0192 O   0  5  0  0  0  0  0  0  0  0  0  0
   -6.5324  -45.0314    7.4164 N   0  0  0  0  0  0  0  0  0  0  0  0
   -5.9666  -41.9839   10.0205 O   0  0  0  0  0  0  0  0  0  0  0  0
   -4.6664  -40.3357   11.4133 O   0  0  0  0  0  0  0  0  0  0  0  0
   -5.4529  -45.0639    8.2536 C   0  0  1  0  0  0  0  0  0  0  0  0
   -5.6906  -45.9452    9.2782 C   0  0  2  0  0  0  0  0  0  0  0  0
   -4.8317  -46.3583   10.4476 C   0  0  0  0  0  0  0  0  0  0  0  0
   -4.7668  -45.2702   11.5253 C   0  0  0  0  0  0  0  0  0  0  0  0
   -4.7582  -43.9164   11.1106 O   0  0  0  0  0  0  0  0  0  0  0  0
  1 11  1  0  0  0  0
  3 13  1  1  0  0  0
  3 17  2  0  0  0  0
  3 20  1  0  0  0  0
  3 26  1  0  0  0  0
  4 14  1  6  0  0  0
  4 18  1  0  0  0  0
  4 21  2  0  0  0  0
  4 20  1  0  0  0  0
  5 19  1  0  0  0  0
  5  7  1  0  0  0  0
  6  7  2  0  0  0  0
  6 12  1  0  0  0  0
  7  8  1  0  0  0  0
  8  9  1  0  0  0  0
  8 10  2  0  0  0  0
 10 11  1  0  0  0  0
 11 12  2  0  0  0  0
 15 23  1  0  0  0  0
 15 16  1  0  0  0  0
 16 19  1  0  0  0  0
 19 22  1  0  0  0  0
 22  2  1  6  0  0  0
 22 23  1  0  0  0  0
 23 24  1  6  0  0  0
 24 25  1  0  0  0  0
 25 26  1  0  0  0  0
M  CHG  2  13  -1  18  -1
M  END
>  <CHROM.1>
57.54222183,87.68475308,4.26713513,177.61005726,-105.80060436,-35.78426040
96.06935355,97.37550496,-6.22360626,-43.05825464,9.03916880,-2.48223684,1.05357358
-3.12787808

>  <Name>
ligand

>  <RI>
0

>  <Rbt.Current_Directory>
/home/itssahil/PROJECTS/Mol_Feturizer/New_Systems/rnas/3D2G

>  <Rbt.Executable>
rbdock ($Id: //depot/dev/client3/rdock/2013.1/src/exe/rbdock.cxx#4 $)

>  <Rbt.Library>
libRbt.so (2013.1, Build901 2013/11/27)

>  <Rbt.Parameter_File>
/export/apps/rDock/src/rDock_2013.1_src/data/scripts/dock_solv.prm

>  <Rbt.Receptor>
prm/pocket_docking_5.prm

>  <SCORE>
-14.8275

>  <SCORE.INTER>
-14.3728

>  <SCORE.INTER.CONST>
1

>  <SCORE.INTER.POLAR>
0

>  <SCORE.INTER.ROT>
8

>  <SCORE.INTER.SOLV>
10.046

>  <SCORE.INTER.VDW>
-21.8639

>  <SCORE.INTER.norm>
-0.552801

>  <SCORE.INTRA>
-0.454641

>  <SCORE.INTRA.DIHEDRAL>
3.50664

>  <SCORE.INTRA.DIHEDRAL.0>
9.09364

>  <SCORE.INTRA.POLAR>
0

>  <SCORE.INTRA.POLAR.0>
0

>  <SCORE.INTRA.REPUL>
0

>  <SCORE.INTRA.REPUL.0>
0

>  <SCORE.INTRA.SOLV>
3.71601

>  <SCORE.INTRA.SOLV.lig_0>
-78.5846

>  <SCORE.INTRA.VDW>
-4.06597

>  <SCORE.INTRA.VDW.0>
-2.81163

>  <SCORE.INTRA.norm>
-0.0174862

>  <SCORE.RESTR>
0

>  <SCORE.RESTR.CAVITY>
0

>  <SCORE.RESTR.norm>
0

>  <SCORE.SYSTEM>
0

>  <SCORE.SYSTEM.CONST>
0

>  <SCORE.SYSTEM.DIHEDRAL>
0

>  <SCORE.SYSTEM.SOLV>
0

>  <SCORE.SYSTEM.norm>
0

>  <SCORE.heavy>
26

>  <SCORE.norm>
-0.570287

>  <RMSD>
5.638

$$$$
ligand
 OpenBabel11021811463D
libRbt.so/2013.1/901 2013/11/27
 26 27  0  0  0  0  0  0  0  0999 V2000
   -8.5797  -45.8878    0.7829 C   0  0  0  0  0  0  0  0  0  0  0  0
   -6.9976  -43.1382    8.8947 C   0  0  0  0  0  0  0  0  0  0  0  0
   -3.9944  -43.7201   11.9549 P   0  0  1  0  0  0  0  0  0  0  0  0
   -1.6909  -43.1385   10.5770 P   0  0  2  0  0  0  0  0  0  0  0  0
   -7.0352  -43.5732    5.8025 C   0  0  0  0  0  0  0  0  0  0  0  0
   -8.7609  -44.6252    4.3030 C   0  0  0  0  0  0  0  0  0  0  0  0
   -7.4440  -44.1950    4.4914 C   0  0  0  0  0  0  0  0  0  0  0  0
   -6.5096  -44.3020    3.4577 C   0  0  0  0  0  0  0  0  0  0  0  0
   -5.2754  -43.8803    3.6361 N   0  0  0  0  0  0  0  0  0  0  0  0
   -6.8767  -44.8759    2.2649 N   0  0  0  0  0  0  0  0  0  0  0  0
   -8.1829  -45.2846    2.0832 C   0  0  0  0  0  0  0  0  0  0  0  0
   -9.1195  -45.1770    3.0940 N   0  0  0  0  0  0  0  0  0  0  0  0
   -4.0329  -44.6469   13.1314 O   0  5  0  0  0  0  0  0  0  0  0  0
   -1.0235  -42.6438   11.7984 O   0  0  0  0  0  0  0  0  0  0  0  0
   -6.7297  -46.8643    7.7278 S   0  0  0  0  0  0  0  0  0  0  0  0
   -6.8400  -45.9324    6.4543 C   0  0  0  0  0  0  0  0  0  0  0  0
   -4.0093  -42.2669   12.2733 O   0  0  0  0  0  0  0  0  0  0  0  0
   -2.3703  -42.0595    9.8351 O   0  5  0  0  0  0  0  0  0  0  0  0
   -6.9190  -44.6099    6.7905 N   0  0  0  0  0  0  0  0  0  0  0  0
   -2.7109  -44.2010   11.1633 O   0  0  0  0  0  0  0  0  0  0  0  0
   -0.8307  -43.7838    9.5393 O   0  0  0  0  0  0  0  0  0  0  0  0
   -6.9133  -44.4330    8.1455 C   0  0  1  0  0  0  0  0  0  0  0  0
   -6.8077  -45.6508    8.7689 C   0  0  2  0  0  0  0  0  0  0  0  0
   -6.7448  -46.0113   10.2324 C   0  0  0  0  0  0  0  0  0  0  0  0
   -5.4325  -45.5556   10.8803 C   0  0  0  0  0  0  0  0  0  0  0  0
   -5.2362  -44.1695   11.0929 O   0  0  0  0  0  0  0  0  0  0  0  0
  1 11  1  0  0  0  0
  3 13  1  1  0  0  0
  3 17  2  0  0  0  0
  3 20  1  0  0  0  0
  3 26  1  0  0  0  0
  4 14  1  1  0  0  0
  4 18  1  0  0  0  0
  4 21  2  0  0  0  0
  4 20  1  0  0  0  0
  5 19  1  0  0  0  0
  5  7  1  0  0  0  0
  6  7  2  0  0  0  0
  6 12  1  0  0  0  0
  7  8  1  0  0  0  0
  8  9  1  0  0  0  0
  8 10  2  0  0  0  0
 10 11  1  0  0  0  0
 11 12  2  0  0  0  0
 15 23  1  0  0  0  0
 15 16  1  0  0  0  0
 16 19  1  0  0  0  0
 19 22  1  0  0  0  0
 22  2  1  6  0  0  0
 22 23  1  0  0  0  0
 23 24  1  6  0  0  0
 24 25  1  0  0  0  0
 25 26  1  0  0  0  0
M  CHG  2  13  -1  18  -1
M  END
>  <CHROM.1>
-136.23085668,16.05695478,74.85709990,72.48554542,110.53230165,71.45776511
170.75012836,-45.59315337,-5.33610607,-44.38507405,8.13842872,-2.19001592
0.50487429,1.70790793

>  <Name>
ligand

>  <RI>
0

>  <Rbt.Current_Directory>
/home/itssahil/PROJECTS/Mol_Feturizer/New_Systems/rnas/3D2G

>  <Rbt.Executable>
rbdock ($Id: //depot/dev/client3/rdock/2013.1/src/exe/rbdock.cxx#4 $)

>  <Rbt.Library>
libRbt.so (2013.1, Build901 2013/11/27)

>  <Rbt.Parameter_File>
/export/apps/rDock/src/rDock_2013.1_src/data/scripts/dock_solv.prm

>  <Rbt.Receptor>
prm/pocket_docking_6.prm

>  <SCORE>
-13.6283

>  <SCORE.INTER>
-12.8263

>  <SCORE.INTER.CONST>
1

>  <SCORE.INTER.POLAR>
0

>  <SCORE.INTER.ROT>
8

>  <SCORE.INTER.SOLV>
14.804

>  <SCORE.INTER.VDW>
-22.4189

>  <SCORE.INTER.norm>
-0.493319

>  <SCORE.INTRA>
-0.801991

>  <SCORE.INTRA.DIHEDRAL>
-0.841563

>  <SCORE.INTRA.DIHEDRAL.0>
9.09364

>  <SCORE.INTRA.POLAR>
0

>  <SCORE.INTRA.POLAR.0>
0

>  <SCORE.INTRA.REPUL>
0

>  <SCORE.INTRA.REPUL.0>
0

>  <SCORE.INTRA.SOLV>
-1.84771

>  <SCORE.INTRA.SOLV.lig_0>
-78.5846

>  <SCORE.INTRA.VDW>
0.542646

>  <SCORE.INTRA.VDW.0>
-2.81163

>  <SCORE.INTRA.norm>
-0.0308458

>  <SCORE.RESTR>
0

>  <SCORE.RESTR.CAVITY>
0

>  <SCORE.RESTR.norm>
0

>  <SCORE.SYSTEM>
0

>  <SCORE.SYSTEM.CONST>
0

>  <SCORE.SYSTEM.DIHEDRAL>
0

>  <SCORE.SYSTEM.SOLV>
0

>  <SCORE.SYSTEM.norm>
0

>  <SCORE.heavy>
26

>  <SCORE.norm>
-0.524164

>  <RMSD>
5.676

$$$$
ligand
 OpenBabel11021811463D
libRbt.so/2013.1/901 2013/11/27
 26 27  0  0  0  0  0  0  0  0999 V2000
   -9.3334  -40.0451    5.9814 C   0  0  0  0  0  0  0  0  0  0  0  0
   -3.9961  -45.3821    7.7728 C   0  0  0  0  0  0  0  0  0  0  0  0
   -6.1807  -43.6498   10.8864 P   0  0  1  0  0  0  0  0  0  0  0  0
   -5.0781  -41.5841   12.3218 P   0  0  2  0  0  0  0  0  0  0  0  0
   -6.4095  -44.9815    5.8317 C   0  0  0  0  0  0  0  0  0  0  0  0
   -7.2478  -42.9577    7.0705 C   0  0  0  0  0  0  0  0  0  0  0  0
   -7.1875  -43.6913    5.8817 C   0  0  0  0  0  0  0  0  0  0  0  0
   -7.8129  -43.2176    4.7251 C   0  0  0  0  0  0  0  0  0  0  0  0
   -7.7388  -43.9052    3.6049 N   0  0  0  0  0  0  0  0  0  0  0  0
   -8.5297  -42.0468    4.7696 N   0  0  0  0  0  0  0  0  0  0  0  0
   -8.5716  -41.3220    5.9441 C   0  0  0  0  0  0  0  0  0  0  0  0
   -7.9507  -41.7744    7.0931 N   0  0  0  0  0  0  0  0  0  0  0  0
   -7.5829  -44.1586   10.7474 O   0  5  0  0  0  0  0  0  0  0  0  0
   -4.3351  -41.3548   11.0659 O   0  0  0  0  0  0  0  0  0  0  0  0
   -7.4343  -46.7155    9.0836 S   0  0  0  0  0  0  0  0  0  0  0  0
   -7.6408  -46.0812    7.6492 C   0  0  0  0  0  0  0  0  0  0  0  0
   -5.4570  -43.3869    9.6133 O   0  0  0  0  0  0  0  0  0  0  0  0
   -4.2920  -42.3553   13.3035 O   0  5  0  0  0  0  0  0  0  0  0  0
   -6.4710  -45.6098    7.1224 N   0  0  0  0  0  0  0  0  0  0  0  0
   -6.3523  -42.3783   11.8133 O   0  0  0  0  0  0  0  0  0  0  0  0
   -5.5090  -40.3790   13.0932 O   0  0  0  0  0  0  0  0  0  0  0  0
   -5.4249  -45.7801    7.9850 C   0  0  1  0  0  0  0  0  0  0  0  0
   -5.8655  -46.4001    9.1272 C   0  0  2  0  0  0  0  0  0  0  0  0
   -5.1251  -46.8259   10.3706 C   0  0  0  0  0  0  0  0  0  0  0  0
   -4.5634  -45.6272   11.1435 C   0  0  0  0  0  0  0  0  0  0  0  0
   -5.4777  -44.7483   11.7732 O   0  0  0  0  0  0  0  0  0  0  0  0
  1 11  1  0  0  0  0
  3 13  1  6  0  0  0
  3 17  2  0  0  0  0
  3 20  1  0  0  0  0
  3 26  1  0  0  0  0
  4 14  1  6  0  0  0
  4 18  1  0  0  0  0
  4 21  2  0  0  0  0
  4 20  1  0  0  0  0
  5 19  1  0  0  0  0
  5  7  1  0  0  0  0
  6  7  2  0  0  0  0
  6 12  1  0  0  0  0
  7  8  1  0  0  0  0
  8  9  1  0  0  0  0
  8 10  2  0  0  0  0
 10 11  1  0  0  0  0
 11 12  2  0  0  0  0
 15 23  1  0  0  0  0
 15 16  1  0  0  0  0
 16 19  1  0  0  0  0
 19 22  1  0  0  0  0
 22  2  1  6  0  0  0
 22 23  1  0  0  0  0
 23 24  1  6  0  0  0
 24 25  1  0  0  0  0
 25 26  1  0  0  0  0
M  CHG  2  13  -1  18  -1
M  END
>  <CHROM.1>
175.00368687,65.55241943,31.76894639,50.89078769,-115.66986418,68.23940283
-80.78471399,106.43483011,-6.37116341,-43.69209176,9.08647852,2.65194940
1.14078734,-2.71687755

>  <Name>
ligand

>  <RI>
0

>  <Rbt.Current_Directory>
/home/itssahil/PROJECTS/Mol_Feturizer/New_Systems/rnas/3D2G

>  <Rbt.Executable>
rbdock ($Id: //depot/dev/client3/rdock/2013.1/src/exe/rbdock.cxx#4 $)

>  <Rbt.Library>
libRbt.so (2013.1, Build901 2013/11/27)

>  <Rbt.Parameter_File>
/export/apps/rDock/src/rDock_2013.1_src/data/scripts/dock_solv.prm

>  <Rbt.Receptor>
prm/pocket_docking_5.prm

>  <SCORE>
-16.6402

>  <SCORE.INTER>
-14.6523

>  <SCORE.INTER.CONST>
1

>  <SCORE.INTER.POLAR>
0

>  <SCORE.INTER.ROT>
8

>  <SCORE.INTER.SOLV>
16.1289

>  <SCORE.INTER.VDW>
-24.0778

>  <SCORE.INTER.norm>
-0.563551

>  <SCORE.INTRA>
-1.98913

>  <SCORE.INTRA.DIHEDRAL>
-0.490163

>  <SCORE.INTRA.DIHEDRAL.0>
9.09364

>  <SCORE.INTRA.POLAR>
0

>  <SCORE.INTRA.POLAR.0>
0

>  <SCORE.INTRA.REPUL>
0

>  <SCORE.INTRA.REPUL.0>
0

>  <SCORE.INTRA.SOLV>
1.52937

>  <SCORE.INTRA.SOLV.lig_0>
-78.5846

>  <SCORE.INTRA.VDW>
-2.50873

>  <SCORE.INTRA.VDW.0>
-2.81163

>  <SCORE.INTRA.norm>
-0.0765048

>  <SCORE.RESTR>
0.00124511

>  <SCORE.RESTR.CAVITY>
0.00124511

>  <SCORE.RESTR.norm>
4.78888e-05

>  <SCORE.SYSTEM>
0

>  <SCORE.SYSTEM.CONST>
0

>  <SCORE.SYSTEM.DIHEDRAL>
0

>  <SCORE.SYSTEM.SOLV>
0

>  <SCORE.SYSTEM.norm>
0

>  <SCORE.heavy>
26

>  <SCORE.norm>
-0.640008

>  <RMSD>
5.697

$$$$
ligand
 OpenBabel11021811463D
libRbt.so/2013.1/901 2013/11/27
 26 27  0  0  0  0  0  0  0  0999 V2000
   -4.4432  -41.2738    3.2096 C   0  0  0  0  0  0  0  0  0  0  0  0
   -4.6310  -41.8061   11.2207 C   0  0  0  0  0  0  0  0  0  0  0  0
   -4.9242  -46.4629    9.5023 P   0  0  1  0  0  0  0  0  0  0  0  0
   -4.1982  -44.9175    7.3512 P   0  0  2  0  0  0  0  0  0  0  0  0
   -5.8316  -40.3924    8.7082 C   0  0  0  0  0  0  0  0  0  0  0  0
   -4.5119  -41.6010    6.9388 C   0  0  0  0  0  0  0  0  0  0  0  0
   -5.4519  -40.6194    7.2671 C   0  0  0  0  0  0  0  0  0  0  0  0
   -6.0728  -39.8702    6.2639 C   0  0  0  0  0  0  0  0  0  0  0  0
   -6.9689  -38.9586    6.5787 N   0  0  0  0  0  0  0  0  0  0  0  0
   -5.7228  -40.0687    4.9506 N   0  0  0  0  0  0  0  0  0  0  0  0
   -4.8043  -41.0501    4.6350 C   0  0  0  0  0  0  0  0  0  0  0  0
   -4.1887  -41.8041    5.6163 N   0  0  0  0  0  0  0  0  0  0  0  0
   -6.3758  -46.1807    9.2624 O   0  5  0  0  0  0  0  0  0  0  0  0
   -5.5791  -44.4540    7.1058 O   0  0  0  0  0  0  0  0  0  0  0  0
   -7.6562  -43.6463    9.5536 S   0  0  0  0  0  0  0  0  0  0  0  0
   -7.3523  -42.3198    8.7471 C   0  0  0  0  0  0  0  0  0  0  0  0
   -4.4154  -47.7510    8.9587 O   0  0  0  0  0  0  0  0  0  0  0  0
   -3.8716  -46.1331    6.5817 O   0  5  0  0  0  0  0  0  0  0  0  0
   -6.2906  -41.6339    9.2672 N   0  0  0  0  0  0  0  0  0  0  0  0
   -4.2088  -45.1792    8.9146 O   0  0  0  0  0  0  0  0  0  0  0  0
   -3.0883  -43.9792    7.0039 O   0  0  0  0  0  0  0  0  0  0  0  0
   -5.7812  -42.2557   10.3723 C   0  0  1  0  0  0  0  0  0  0  0  0
   -6.4850  -43.4077   10.6185 C   0  0  2  0  0  0  0  0  0  0  0  0
   -6.3256  -44.4543   11.6932 C   0  0  0  0  0  0  0  0  0  0  0  0
   -4.9313  -45.0910   11.6725 C   0  0  0  0  0  0  0  0  0  0  0  0
   -4.7853  -46.3642   11.0702 O   0  0  0  0  0  0  0  0  0  0  0  0
  1 11  1  0  0  0  0
  3 13  1  6  0  0  0
  3 17  2  0  0  0  0
  3 20  1  0  0  0  0
  3 26  1  0  0  0  0
  4 14  1  6  0  0  0
  4 18  1  0  0  0  0
  4 21  2  0  0  0  0
  4 20  1  0  0  0  0
  5 19  1  0  0  0  0
  5  7  1  0  0  0  0
  6  7  2  0  0  0  0
  6 12  1  0  0  0  0
  7  8  1  0  0  0  0
  8  9  1  0  0  0  0
  8 10  2  0  0  0  0
 10 11  1  0  0  0  0
 11 12  2  0  0  0  0
 15 23  1  0  0  0  0
 15 16  1  0  0  0  0
 16 19  1  0  0  0  0
 19 22  1  0  0  0  0
 22  2  1  6  0  0  0
 22 23  1  0  0  0  0
 23 24  1  6  0  0  0
 24 25  1  0  0  0  0
 25 26  1  0  0  0  0
M  CHG  2  13  -1  18  -1
M  END
>  <CHROM.1>
-69.40430004,-58.71600846,-55.75445281,75.49336374,120.98520306,-100.89563481
70.22761782,-68.78502663,-5.33597705,-43.49993654,8.28712650,-1.64472653
-1.05709574,2.40796274

>  <Name>
ligand

>  <RI>
0

>  <Rbt.Current_Directory>
/home/itssahil/PROJECTS/Mol_Feturizer/New_Systems/rnas/3D2G

>  <Rbt.Executable>
rbdock ($Id: //depot/dev/client3/rdock/2013.1/src/exe/rbdock.cxx#4 $)

>  <Rbt.Library>
libRbt.so (2013.1, Build901 2013/11/27)

>  <Rbt.Parameter_File>
/export/apps/rDock/src/rDock_2013.1_src/data/scripts/dock_solv.prm

>  <Rbt.Receptor>
prm/pocket_docking_4.prm

>  <SCORE>
-12.6134

>  <SCORE.INTER>
-10.2987

>  <SCORE.INTER.CONST>
1

>  <SCORE.INTER.POLAR>
0

>  <SCORE.INTER.ROT>
8

>  <SCORE.INTER.SOLV>
9.22889

>  <SCORE.INTER.VDW>
-18.8754

>  <SCORE.INTER.norm>
-0.396105

>  <SCORE.INTRA>
-2.31471

>  <SCORE.INTRA.DIHEDRAL>
1.10408

>  <SCORE.INTRA.DIHEDRAL.0>
9.09364

>  <SCORE.INTRA.POLAR>
0

>  <SCORE.INTRA.POLAR.0>
0

>  <SCORE.INTRA.REPUL>
0

>  <SCORE.INTRA.REPUL.0>
0

>  <SCORE.INTRA.SOLV>
0.89567

>  <SCORE.INTRA.SOLV.lig_0>
-78.5846

>  <SCORE.INTRA.VDW>
-3.31458

>  <SCORE.INTRA.VDW.0>
-2.81163

>  <SCORE.INTRA.norm>
-0.0890271

>  <SCORE.RESTR>
0

>  <SCORE.RESTR.CAVITY>
0

>  <SCORE.RESTR.norm>
0

>  <SCORE.SYSTEM>
0

>  <SCORE.SYSTEM.CONST>
0

>  <SCORE.SYSTEM.DIHEDRAL>
0

>  <SCORE.SYSTEM.SOLV>
0

>  <SCORE.SYSTEM.norm>
0

>  <SCORE.heavy>
26

>  <SCORE.norm>
-0.485132

>  <RMSD>
5.757

$$$$
ligand
 OpenBabel11021811463D
libRbt.so/2013.1/901 2013/11/27
 26 27  0  0  0  0  0  0  0  0999 V2000
   -3.8983  -41.7259    3.8293 C   0  0  0  0  0  0  0  0  0  0  0  0
   -6.9822  -45.2013    7.3945 C   0  0  0  0  0  0  0  0  0  0  0  0
   -2.6216  -46.2952    8.1525 P   0  0  1  0  0  0  0  0  0  0  0  0
   -2.6199  -43.8709    9.4431 P   0  0  2  0  0  0  0  0  0  0  0  0
   -7.7910  -42.2493    8.0142 C   0  0  0  0  0  0  0  0  0  0  0  0
   -7.0002  -42.7250    5.6729 C   0  0  0  0  0  0  0  0  0  0  0  0
   -6.7662  -42.1277    6.9152 C   0  0  0  0  0  0  0  0  0  0  0  0
   -5.6037  -41.3840    7.1354 C   0  0  0  0  0  0  0  0  0  0  0  0
   -5.3969  -40.8107    8.3022 N   0  0  0  0  0  0  0  0  0  0  0  0
   -4.6641  -41.2785    6.1389 N   0  0  0  0  0  0  0  0  0  0  0  0
   -4.9105  -41.8596    4.9109 C   0  0  0  0  0  0  0  0  0  0  0  0
   -6.0599  -42.5907    4.6767 N   0  0  0  0  0  0  0  0  0  0  0  0
   -2.5468  -45.7510    6.7587 O   0  5  0  0  0  0  0  0  0  0  0  0
   -3.3425  -43.5038    8.2082 O   0  0  0  0  0  0  0  0  0  0  0  0
   -6.6275  -44.1224   11.1399 S   0  0  0  0  0  0  0  0  0  0  0  0
   -7.1602  -42.8936   10.2981 C   0  0  0  0  0  0  0  0  0  0  0  0
   -2.1031  -47.6773    8.3378 O   0  0  0  0  0  0  0  0  0  0  0  0
   -1.6869  -42.8148    9.8797 O   0  5  0  0  0  0  0  0  0  0  0  0
   -7.3248  -43.2076    8.9780 N   0  0  0  0  0  0  0  0  0  0  0  0
   -1.8676  -45.1960    9.0061 O   0  0  0  0  0  0  0  0  0  0  0  0
   -3.4398  -44.1351   10.6642 O   0  0  0  0  0  0  0  0  0  0  0  0
   -6.9571  -44.4976    8.7170 C   0  0  1  0  0  0  0  0  0  0  0  0
   -6.5472  -45.1040    9.8778 C   0  0  2  0  0  0  0  0  0  0  0  0
   -6.0597  -46.5067   10.1428 C   0  0  0  0  0  0  0  0  0  0  0  0
   -4.5866  -46.6851    9.7583 C   0  0  0  0  0  0  0  0  0  0  0  0
   -4.1503  -46.1621    8.5169 O   0  0  0  0  0  0  0  0  0  0  0  0
  1 11  1  0  0  0  0
  3 13  1  6  0  0  0
  3 17  2  0  0  0  0
  3 20  1  0  0  0  0
  3 26  1  0  0  0  0
  4 14  1  6  0  0  0
  4 18  1  0  0  0  0
  4 21  2  0  0  0  0
  4 20  1  0  0  0  0
  5 19  1  0  0  0  0
  5  7  1  0  0  0  0
  6  7  2  0  0  0  0
  6 12  1  0  0  0  0
  7  8  1  0  0  0  0
  8  9  1  0  0  0  0
  8 10  2  0  0  0  0
 10 11  1  0  0  0  0
 11 12  2  0  0  0  0
 15 23  1  0  0  0  0
 15 16  1  0  0  0  0
 16 19  1  0  0  0  0
 19 22  1  0  0  0  0
 22  2  1  1  0  0  0
 22 23  1  0  0  0  0
 23 24  1  1  0  0  0
 24 25  1  0  0  0  0
 25 26  1  0  0  0  0
M  CHG  2  13  -1  18  -1
M  END
>  <CHROM.1>
80.63586565,122.62701962,104.43168915,-43.13510867,-100.38538203,-45.24539348
177.50792167,175.56202669,-4.71345124,-44.03916651,8.32217674,-2.21758683
-0.43646562,2.19434236

>  <Name>
ligand

>  <RI>
0

>  <Rbt.Current_Directory>
/home/itssahil/PROJECTS/Mol_Feturizer/New_Systems/rnas/3D2G

>  <Rbt.Executable>
rbdock ($Id: //depot/dev/client3/rdock/2013.1/src/exe/rbdock.cxx#4 $)

>  <Rbt.Library>
libRbt.so (2013.1, Build901 2013/11/27)

>  <Rbt.Parameter_File>
/export/apps/rDock/src/rDock_2013.1_src/data/scripts/dock_solv.prm

>  <Rbt.Receptor>
prm/pocket_docking_4.prm

>  <SCORE>
-8.28994

>  <SCORE.INTER>
-5.32252

>  <SCORE.INTER.CONST>
1

>  <SCORE.INTER.POLAR>
0

>  <SCORE.INTER.ROT>
8

>  <SCORE.INTER.SOLV>
9.89355

>  <SCORE.INTER.VDW>
-15.7795

>  <SCORE.INTER.norm>
-0.204712

>  <SCORE.INTRA>
-2.96742

>  <SCORE.INTRA.DIHEDRAL>
-1.74611

>  <SCORE.INTRA.DIHEDRAL.0>
9.09364

>  <SCORE.INTRA.POLAR>
0

>  <SCORE.INTRA.POLAR.0>
0

>  <SCORE.INTRA.REPUL>
0

>  <SCORE.INTRA.REPUL.0>
0

>  <SCORE.INTRA.SOLV>
0.912317

>  <SCORE.INTRA.SOLV.lig_0>
-78.5846

>  <SCORE.INTRA.VDW>
-2.55052

>  <SCORE.INTRA.VDW.0>
-2.81163

>  <SCORE.INTRA.norm>
-0.114131

>  <SCORE.RESTR>
0

>  <SCORE.RESTR.CAVITY>
0

>  <SCORE.RESTR.norm>
0

>  <SCORE.SYSTEM>
0

>  <SCORE.SYSTEM.CONST>
0

>  <SCORE.SYSTEM.DIHEDRAL>
0

>  <SCORE.SYSTEM.SOLV>
0

>  <SCORE.SYSTEM.norm>
0

>  <SCORE.heavy>
26

>  <SCORE.norm>
-0.318844

>  <RMSD>
5.777

$$$$
ligand
 OpenBabel11021811463D
libRbt.so/2013.1/901 2013/11/27
 26 27  0  0  0  0  0  0  0  0999 V2000
   -9.0316  -40.4854    5.0505 C   0  0  0  0  0  0  0  0  0  0  0  0
   -4.0252  -45.7437    7.6287 C   0  0  0  0  0  0  0  0  0  0  0  0
   -6.6468  -43.3709   11.2500 P   0  0  1  0  0  0  0  0  0  0  0  0
   -4.6798  -41.9216   12.5043 P   0  0  2  0  0  0  0  0  0  0  0  0
   -6.4547  -45.5757    5.6737 C   0  0  0  0  0  0  0  0  0  0  0  0
   -7.0558  -43.2926    6.5453 C   0  0  0  0  0  0  0  0  0  0  0  0
   -7.1411  -44.2420    5.5224 C   0  0  0  0  0  0  0  0  0  0  0  0
   -7.8277  -43.9498    4.3408 C   0  0  0  0  0  0  0  0  0  0  0  0
   -7.8907  -44.8422    3.3750 N   0  0  0  0  0  0  0  0  0  0  0  0
   -8.4614  -42.7389    4.2033 N   0  0  0  0  0  0  0  0  0  0  0  0
   -8.3596  -41.8023    5.2127 C   0  0  0  0  0  0  0  0  0  0  0  0
   -7.6766  -42.0748    6.3831 N   0  0  0  0  0  0  0  0  0  0  0  0
   -8.1413  -43.2919   11.3201 O   0  5  0  0  0  0  0  0  0  0  0  0
   -3.9673  -43.1543   12.8975 O   0  0  0  0  0  0  0  0  0  0  0  0
   -7.4891  -46.6958    9.1819 S   0  0  0  0  0  0  0  0  0  0  0  0
   -7.6958  -46.3032    7.6635 C   0  0  0  0  0  0  0  0  0  0  0  0
   -6.0419  -43.0527    9.9286 O   0  0  0  0  0  0  0  0  0  0  0  0
   -4.4991  -40.8345   13.4850 O   0  5  0  0  0  0  0  0  0  0  0  0
   -6.5180  -45.9753    7.0524 N   0  0  0  0  0  0  0  0  0  0  0  0
   -6.1832  -42.4180   12.4257 O   0  0  0  0  0  0  0  0  0  0  0  0
   -4.2891  -41.2877   11.2087 O   0  0  0  0  0  0  0  0  0  0  0  0
   -5.4644  -46.0413    7.9201 C   0  0  1  0  0  0  0  0  0  0  0  0
   -5.9087  -46.4422    9.1550 C   0  0  2  0  0  0  0  0  0  0  0  0
   -5.1638  -46.6834   10.4444 C   0  0  0  0  0  0  0  0  0  0  0  0
   -5.1106  -45.4268   11.3207 C   0  0  0  0  0  0  0  0  0  0  0  0
   -6.3341  -44.8413   11.7270 O   0  0  0  0  0  0  0  0  0  0  0  0
  1 11  1  0  0  0  0
  3 13  1  6  0  0  0
  3 17  2  0  0  0  0
  3 20  1  0  0  0  0
  3 26  1  0  0  0  0
  4 14  1  1  0  0  0
  4 18  1  0  0  0  0
  4 21  2  0  0  0  0
  4 20  1  0  0  0  0
  5 19  1  0  0  0  0
  5  7  1  0  0  0  0
  6  7  2  0  0  0  0
  6 12  1  0  0  0  0
  7  8  1  0  0  0  0
  8  9  1  0  0  0  0
  8 10  2  0  0  0  0
 10 11  1  0  0  0  0
 11 12  2  0  0  0  0
 15 23  1  0  0  0  0
 15 16  1  0  0  0  0
 16 19  1  0  0  0  0
 19 22  1  0  0  0  0
 22  2  1  6  0  0  0
 22 23  1  0  0  0  0
 23 24  1  6  0  0  0
 24 25  1  0  0  0  0
 25 26  1  0  0  0  0
M  CHG  2  13  -1  18  -1
M  END
>  <CHROM.1>
-165.12075388,67.42838297,35.04742576,-71.45997410,-89.08049092,58.66362454
-117.75337314,156.59542053,-6.39559235,-43.88893606,9.04859348,2.70357242
1.19324438,-2.83681985

>  <Name>
ligand

>  <RI>
0

>  <Rbt.Current_Directory>
/home/itssahil/PROJECTS/Mol_Feturizer/New_Systems/rnas/3D2G

>  <Rbt.Executable>
rbdock ($Id: //depot/dev/client3/rdock/2013.1/src/exe/rbdock.cxx#4 $)

>  <Rbt.Library>
libRbt.so (2013.1, Build901 2013/11/27)

>  <Rbt.Parameter_File>
/export/apps/rDock/src/rDock_2013.1_src/data/scripts/dock_solv.prm

>  <Rbt.Receptor>
prm/pocket_docking_6.prm

>  <SCORE>
-17.4774

>  <SCORE.INTER>
-17.0121

>  <SCORE.INTER.CONST>
1

>  <SCORE.INTER.POLAR>
0

>  <SCORE.INTER.ROT>
8

>  <SCORE.INTER.SOLV>
17.1004

>  <SCORE.INTER.VDW>
-25.9749

>  <SCORE.INTER.norm>
-0.654313

>  <SCORE.INTRA>
-0.465259

>  <SCORE.INTRA.DIHEDRAL>
4.88416

>  <SCORE.INTRA.DIHEDRAL.0>
9.09364

>  <SCORE.INTRA.POLAR>
0

>  <SCORE.INTRA.POLAR.0>
0

>  <SCORE.INTRA.REPUL>
0

>  <SCORE.INTRA.REPUL.0>
0

>  <SCORE.INTRA.SOLV>
-1.34876

>  <SCORE.INTRA.SOLV.lig_0>
-78.5846

>  <SCORE.INTRA.VDW>
-2.23296

>  <SCORE.INTRA.VDW.0>
-2.81163

>  <SCORE.INTRA.norm>
-0.0178946

>  <SCORE.RESTR>
0

>  <SCORE.RESTR.CAVITY>
0

>  <SCORE.RESTR.norm>
0

>  <SCORE.SYSTEM>
0

>  <SCORE.SYSTEM.CONST>
0

>  <SCORE.SYSTEM.DIHEDRAL>
0

>  <SCORE.SYSTEM.SOLV>
0

>  <SCORE.SYSTEM.norm>
0

>  <SCORE.heavy>
26

>  <SCORE.norm>
-0.672207

>  <RMSD>
5.778

$$$$
ligand
 OpenBabel11021811463D
libRbt.so/2013.1/901 2013/11/27
 26 27  0  0  0  0  0  0  0  0999 V2000
   -9.1667  -40.2409    5.4826 C   0  0  0  0  0  0  0  0  0  0  0  0
   -4.0277  -45.5132    7.7918 C   0  0  0  0  0  0  0  0  0  0  0  0
   -6.1445  -43.5299   11.0318 P   0  0  1  0  0  0  0  0  0  0  0  0
   -5.3353  -41.4473   12.6289 P   0  0  2  0  0  0  0  0  0  0  0  0
   -6.3869  -45.2544    5.7621 C   0  0  0  0  0  0  0  0  0  0  0  0
   -7.1433  -43.0965    6.8132 C   0  0  0  0  0  0  0  0  0  0  0  0
   -7.1271  -43.9425    5.7001 C   0  0  0  0  0  0  0  0  0  0  0  0
   -7.7614  -43.5638    4.5138 C   0  0  0  0  0  0  0  0  0  0  0  0
   -7.7288  -44.3578    3.4643 N   0  0  0  0  0  0  0  0  0  0  0  0
   -8.4439  -42.3731    4.4568 N   0  0  0  0  0  0  0  0  0  0  0  0
   -8.4422  -41.5378    5.5563 C   0  0  0  0  0  0  0  0  0  0  0  0
   -7.8118  -41.8959    6.7331 N   0  0  0  0  0  0  0  0  0  0  0  0
   -7.4654  -44.2073   10.8298 O   0  5  0  0  0  0  0  0  0  0  0  0
   -6.0879  -40.5202   13.4983 O   0  0  0  0  0  0  0  0  0  0  0  0
   -7.5077  -46.7245    9.1109 S   0  0  0  0  0  0  0  0  0  0  0  0
   -7.6725  -46.2032    7.6265 C   0  0  0  0  0  0  0  0  0  0  0  0
   -5.4670  -43.0487    9.7978 O   0  0  0  0  0  0  0  0  0  0  0  0
   -4.6193  -40.7433   11.5482 O   0  5  0  0  0  0  0  0  0  0  0  0
   -6.4863  -45.7796    7.0958 N   0  0  0  0  0  0  0  0  0  0  0  0
   -6.4837  -42.3900   12.0761 O   0  0  0  0  0  0  0  0  0  0  0  0
   -4.2682  -42.2742   13.2699 O   0  0  0  0  0  0  0  0  0  0  0  0
   -5.4642  -45.8868    7.9964 C   0  0  1  0  0  0  0  0  0  0  0  0
   -5.9385  -46.4137    9.1714 C   0  0  2  0  0  0  0  0  0  0  0  0
   -5.2336  -46.7445   10.4634 C   0  0  0  0  0  0  0  0  0  0  0  0
   -4.5261  -45.5229   11.0608 C   0  0  0  0  0  0  0  0  0  0  0  0
   -5.2967  -44.6049   11.8148 O   0  0  0  0  0  0  0  0  0  0  0  0
  1 11  1  0  0  0  0
  3 13  1  6  0  0  0
  3 17  2  0  0  0  0
  3 20  1  0  0  0  0
  3 26  1  0  0  0  0
  4 14  1  1  0  0  0
  4 18  1  0  0  0  0
  4 21  2  0  0  0  0
  4 20  1  0  0  0  0
  5 19  1  0  0  0  0
  5  7  1  0  0  0  0
  6  7  2  0  0  0  0
  6 12  1  0  0  0  0
  7  8  1  0  0  0  0
  8  9  1  0  0  0  0
  8 10  2  0  0  0  0
 10 11  1  0  0  0  0
 11 12  2  0  0  0  0
 15 23  1  0  0  0  0
 15 16  1  0  0  0  0
 16 19  1  0  0  0  0
 19 22  1  0  0  0  0
 22  2  1  6  0  0  0
 22 23  1  0  0  0  0
 23 24  1  6  0  0  0
 24 25  1  0  0  0  0
 25 26  1  0  0  0  0
M  CHG  2  13  -1  18  -1
M  END
>  <CHROM.1>
177.41944208,67.02217122,34.04191330,177.50572268,-123.20950691,81.71959159
-81.06263754,90.36211874,-6.40287165,-43.72138837,9.10036266,2.52029705,1.17783488
-2.66666811

>  <Name>
ligand

>  <RI>
0

>  <Rbt.Current_Directory>
/home/itssahil/PROJECTS/Mol_Feturizer/New_Systems/rnas/3D2G

>  <Rbt.Executable>
rbdock ($Id: //depot/dev/client3/rdock/2013.1/src/exe/rbdock.cxx#4 $)

>  <Rbt.Library>
libRbt.so (2013.1, Build901 2013/11/27)

>  <Rbt.Parameter_File>
/export/apps/rDock/src/rDock_2013.1_src/data/scripts/dock_solv.prm

>  <Rbt.Receptor>
prm/pocket_docking_6.prm

>  <SCORE>
-18.5388

>  <SCORE.INTER>
-17.0911

>  <SCORE.INTER.CONST>
1

>  <SCORE.INTER.POLAR>
0

>  <SCORE.INTER.ROT>
8

>  <SCORE.INTER.SOLV>
13.189

>  <SCORE.INTER.VDW>
-24.7237

>  <SCORE.INTER.norm>
-0.657351

>  <SCORE.INTRA>
-1.45187

>  <SCORE.INTRA.DIHEDRAL>
-0.130076

>  <SCORE.INTRA.DIHEDRAL.0>
9.09364

>  <SCORE.INTRA.POLAR>
0

>  <SCORE.INTRA.POLAR.0>
0

>  <SCORE.INTRA.REPUL>
0

>  <SCORE.INTRA.REPUL.0>
0

>  <SCORE.INTRA.SOLV>
2.25953

>  <SCORE.INTRA.SOLV.lig_0>
-78.5846

>  <SCORE.INTRA.VDW>
-2.5166

>  <SCORE.INTRA.VDW.0>
-2.81163

>  <SCORE.INTRA.norm>
-0.0558412

>  <SCORE.RESTR>
0.00419563

>  <SCORE.RESTR.CAVITY>
0.00419563

>  <SCORE.RESTR.norm>
0.000161371

>  <SCORE.SYSTEM>
0

>  <SCORE.SYSTEM.CONST>
0

>  <SCORE.SYSTEM.DIHEDRAL>
0

>  <SCORE.SYSTEM.SOLV>
0

>  <SCORE.SYSTEM.norm>
0

>  <SCORE.heavy>
26

>  <SCORE.norm>
-0.713031

>  <RMSD>
5.792

$$$$
ligand
 OpenBabel11021811463D
libRbt.so/2013.1/901 2013/11/27
 26 27  0  0  0  0  0  0  0  0999 V2000
   -9.0390  -39.9182    0.1430 C   0  0  0  0  0  0  0  0  0  0  0  0
   -8.0781  -38.5830    7.5024 C   0  0  0  0  0  0  0  0  0  0  0  0
   -7.2953  -35.5421   11.7620 P   0  0  1  0  0  0  0  0  0  0  0  0
   -5.9302  -37.9163   11.5562 P   0  0  2  0  0  0  0  0  0  0  0  0
   -6.2035  -39.1891    5.0794 C   0  0  0  0  0  0  0  0  0  0  0  0
   -8.1618  -38.7048    3.5747 C   0  0  0  0  0  0  0  0  0  0  0  0
   -6.9606  -39.3870    3.7909 C   0  0  0  0  0  0  0  0  0  0  0  0
   -6.4345  -40.2244    2.8034 C   0  0  0  0  0  0  0  0  0  0  0  0
   -5.2950  -40.8513    3.0067 N   0  0  0  0  0  0  0  0  0  0  0  0
   -7.1261  -40.4134    1.6317 N   0  0  0  0  0  0  0  0  0  0  0  0
   -8.3041  -39.7244    1.4214 C   0  0  0  0  0  0  0  0  0  0  0  0
   -8.8315  -38.8866    2.3860 N   0  0  0  0  0  0  0  0  0  0  0  0
   -8.7562  -35.2548   11.9288 O   0  5  0  0  0  0  0  0  0  0  0  0
   -4.8736  -36.8846   11.5879 O   0  0  0  0  0  0  0  0  0  0  0  0
   -6.4397  -35.4461    5.8313 S   0  0  0  0  0  0  0  0  0  0  0  0
   -5.9529  -36.7466    5.0737 C   0  0  0  0  0  0  0  0  0  0  0  0
   -6.3742  -34.7248   12.5968 O   0  0  0  0  0  0  0  0  0  0  0  0
   -6.1021  -38.4993   10.2120 O   0  5  0  0  0  0  0  0  0  0  0  0
   -6.5037  -37.8828    5.5970 N   0  0  0  0  0  0  0  0  0  0  0  0
   -7.2053  -37.1001   12.0262 O   0  0  0  0  0  0  0  0  0  0  0  0
   -5.7460  -39.1133   12.4318 O   0  0  0  0  0  0  0  0  0  0  0  0
   -7.3124  -37.6062    6.6631 C   0  0  1  0  0  0  0  0  0  0  0  0
   -7.3451  -36.2512    6.8776 C   0  0  2  0  0  0  0  0  0  0  0  0
   -8.0844  -35.4292    7.9040 C   0  0  0  0  0  0  0  0  0  0  0  0
   -7.9311  -36.0021    9.3175 C   0  0  0  0  0  0  0  0  0  0  0  0
   -7.0564  -35.3442   10.2157 O   0  0  0  0  0  0  0  0  0  0  0  0
  1 11  1  0  0  0  0
  3 13  1  1  0  0  0
  3 17  2  0  0  0  0
  3 20  1  0  0  0  0
  3 26  1  0  0  0  0
  4 14  1  1  0  0  0
  4 18  1  0  0  0  0
  4 21  2  0  0  0  0
  4 20  1  0  0  0  0
  5 19  1  0  0  0  0
  5  7  1  0  0  0  0
  6  7  2  0  0  0  0
  6 12  1  0  0  0  0
  7  8  1  0  0  0  0
  8  9  1  0  0  0  0
  8 10  2  0  0  0  0
 10 11  1  0  0  0  0
 11 12  2  0  0  0  0
 15 23  1  0  0  0  0
 15 16  1  0  0  0  0
 16 19  1  0  0  0  0
 19 22  1  0  0  0  0
 22  2  1  6  0  0  0
 22 23  1  0  0  0  0
 23 24  1  6  0  0  0
 24 25  1  0  0  0  0
 25 26  1  0  0  0  0
M  CHG  2  13  -1  18  -1
M  END
>  <CHROM.1>
162.40640971,-76.43420791,-27.35289782,27.64416940,-133.09241000,104.52043667
156.56754485,-49.97124801,-6.97631174,-37.52331204,7.58501225,1.74503752
1.12220129,-2.04247935

>  <Name>
ligand

>  <RI>
0

>  <Rbt.Current_Directory>
/home/itssahil/PROJECTS/Mol_Feturizer/New_Systems/rnas/3D2G

>  <Rbt.Executable>
rbdock ($Id: //depot/dev/client3/rdock/2013.1/src/exe/rbdock.cxx#4 $)

>  <Rbt.Library>
libRbt.so (2013.1, Build901 2013/11/27)

>  <Rbt.Parameter_File>
/export/apps/rDock/src/rDock_2013.1_src/data/scripts/dock_solv.prm

>  <Rbt.Receptor>
prm/blind_docking_60.prm

>  <SCORE>
-22.9109

>  <SCORE.INTER>
-24.9633

>  <SCORE.INTER.CONST>
1

>  <SCORE.INTER.POLAR>
0

>  <SCORE.INTER.ROT>
8

>  <SCORE.INTER.SOLV>
24.165

>  <SCORE.INTER.VDW>
-33.6305

>  <SCORE.INTER.norm>
-0.960126

>  <SCORE.INTRA>
1.47249

>  <SCORE.INTRA.DIHEDRAL>
4.24697

>  <SCORE.INTRA.DIHEDRAL.0>
9.09364

>  <SCORE.INTRA.POLAR>
0

>  <SCORE.INTRA.POLAR.0>
0

>  <SCORE.INTRA.REPUL>
0

>  <SCORE.INTRA.REPUL.0>
0

>  <SCORE.INTRA.SOLV>
-2.15883

>  <SCORE.INTRA.SOLV.lig_0>
-78.5846

>  <SCORE.INTRA.VDW>
0.428425

>  <SCORE.INTRA.VDW.0>
-2.81163

>  <SCORE.INTRA.norm>
0.0566343

>  <SCORE.RESTR>
0.579841

>  <SCORE.RESTR.CAVITY>
0.579841

>  <SCORE.RESTR.norm>
0.0223016

>  <SCORE.SYSTEM>
0

>  <SCORE.SYSTEM.CONST>
0

>  <SCORE.SYSTEM.DIHEDRAL>
0

>  <SCORE.SYSTEM.SOLV>
0

>  <SCORE.SYSTEM.norm>
0

>  <SCORE.heavy>
26

>  <SCORE.norm>
-0.88119

>  <RMSD>
5.971

$$$$
ligand
 OpenBabel11021811463D
libRbt.so/2013.1/901 2013/11/27
 26 27  0  0  0  0  0  0  0  0999 V2000
   -8.6652  -40.8250    4.4465 C   0  0  0  0  0  0  0  0  0  0  0  0
   -3.9944  -46.3225    7.3474 C   0  0  0  0  0  0  0  0  0  0  0  0
   -4.6477  -43.1210   11.6893 P   0  0  1  0  0  0  0  0  0  0  0  0
   -4.3838  -40.9923    9.9741 P   0  0  2  0  0  0  0  0  0  0  0  0
   -6.4611  -46.0273    5.4551 C   0  0  0  0  0  0  0  0  0  0  0  0
   -8.2774  -44.5480    4.5354 C   0  0  0  0  0  0  0  0  0  0  0  0
   -7.0392  -44.6636    5.1744 C   0  0  0  0  0  0  0  0  0  0  0  0
   -6.3482  -43.5225    5.5909 C   0  0  0  0  0  0  0  0  0  0  0  0
   -5.1903  -43.6389    6.2064 N   0  0  0  0  0  0  0  0  0  0  0  0
   -6.8680  -42.2784    5.3290 N   0  0  0  0  0  0  0  0  0  0  0  0
   -8.0981  -42.1744    4.7104 C   0  0  0  0  0  0  0  0  0  0  0  0
   -8.7963  -43.2948    4.3009 N   0  0  0  0  0  0  0  0  0  0  0  0
   -3.7828  -43.6080   12.8114 O   0  5  0  0  0  0  0  0  0  0  0  0
   -3.1883  -40.3997    9.3404 O   0  0  0  0  0  0  0  0  0  0  0  0
   -7.4847  -46.6341    9.0905 S   0  0  0  0  0  0  0  0  0  0  0  0
   -7.7020  -46.3739    7.5454 C   0  0  0  0  0  0  0  0  0  0  0  0
   -6.0017  -42.6405   12.0756 O   0  0  0  0  0  0  0  0  0  0  0  0
   -5.2151  -39.9811   10.6544 O   0  5  0  0  0  0  0  0  0  0  0  0
   -6.5181  -46.2723    6.8698 N   0  0  0  0  0  0  0  0  0  0  0  0
   -3.7428  -42.0271   10.9896 O   0  0  0  0  0  0  0  0  0  0  0  0
   -5.3549  -41.6957    9.0822 O   0  0  0  0  0  0  0  0  0  0  0  0
   -5.4466  -46.3914    7.7095 C   0  0  1  0  0  0  0  0  0  0  0  0
   -5.8872  -46.6007    8.9921 C   0  0  2  0  0  0  0  0  0  0  0  0
   -5.1266  -46.8078   10.2783 C   0  0  0  0  0  0  0  0  0  0  0  0
   -5.1978  -45.5790   11.1920 C   0  0  0  0  0  0  0  0  0  0  0  0
   -4.6943  -44.3498   10.7017 O   0  0  0  0  0  0  0  0  0  0  0  0
  1 11  1  0  0  0  0
  3 13  1  1  0  0  0
  3 17  2  0  0  0  0
  3 20  1  0  0  0  0
  3 26  1  0  0  0  0
  4 14  1  6  0  0  0
  4 18  1  0  0  0  0
  4 21  2  0  0  0  0
  4 20  1  0  0  0  0
  5 19  1  0  0  0  0
  5  7  1  0  0  0  0
  6  7  2  0  0  0  0
  6 12  1  0  0  0  0
  7  8  1  0  0  0  0
  8  9  1  0  0  0  0
  8 10  2  0  0  0  0
 10 11  1  0  0  0  0
 11 12  2  0  0  0  0
 15 23  1  0  0  0  0
 15 16  1  0  0  0  0
 16 19  1  0  0  0  0
 19 22  1  0  0  0  0
 22  2  1  6  0  0  0
 22 23  1  0  0  0  0
 23 24  1  6  0  0  0
 24 25  1  0  0  0  0
 25 26  1  0  0  0  0
M  CHG  2  13  -1  18  -1
M  END
>  <CHROM.1>
-164.66172649,64.48514872,-109.07081596,-167.27537139,-73.60121634,-59.68292578
-174.49558471,58.72632607,-5.80183901,-43.75276057,8.55336003,-3.13603054
1.10909006,2.85630555

>  <Name>
ligand

>  <RI>
0

>  <Rbt.Current_Directory>
/home/itssahil/PROJECTS/Mol_Feturizer/New_Systems/rnas/3D2G

>  <Rbt.Executable>
rbdock ($Id: //depot/dev/client3/rdock/2013.1/src/exe/rbdock.cxx#4 $)

>  <Rbt.Library>
libRbt.so (2013.1, Build901 2013/11/27)

>  <Rbt.Parameter_File>
/export/apps/rDock/src/rDock_2013.1_src/data/scripts/dock_solv.prm

>  <Rbt.Receptor>
prm/pocket_docking_5.prm

>  <SCORE>
-13.5178

>  <SCORE.INTER>
-12.2933

>  <SCORE.INTER.CONST>
1

>  <SCORE.INTER.POLAR>
0

>  <SCORE.INTER.ROT>
8

>  <SCORE.INTER.SOLV>
10.8435

>  <SCORE.INTER.VDW>
-20.7434

>  <SCORE.INTER.norm>
-0.472819

>  <SCORE.INTRA>
-1.22455

>  <SCORE.INTRA.DIHEDRAL>
-2.75442

>  <SCORE.INTRA.DIHEDRAL.0>
9.09364

>  <SCORE.INTRA.POLAR>
0

>  <SCORE.INTRA.POLAR.0>
0

>  <SCORE.INTRA.REPUL>
0

>  <SCORE.INTRA.REPUL.0>
0

>  <SCORE.INTRA.SOLV>
3.09427

>  <SCORE.INTRA.SOLV.lig_0>
-78.5846

>  <SCORE.INTRA.VDW>
-1.39447

>  <SCORE.INTRA.VDW.0>
-2.81163

>  <SCORE.INTRA.norm>
-0.0470981

>  <SCORE.RESTR>
0

>  <SCORE.RESTR.CAVITY>
0

>  <SCORE.RESTR.norm>
0

>  <SCORE.SYSTEM>
0

>  <SCORE.SYSTEM.CONST>
0

>  <SCORE.SYSTEM.DIHEDRAL>
0

>  <SCORE.SYSTEM.SOLV>
0

>  <SCORE.SYSTEM.norm>
0

>  <SCORE.heavy>
26

>  <SCORE.norm>
-0.519917

>  <RMSD>
5.995

$$$$
ligand
 OpenBabel11021811463D
libRbt.so/2013.1/901 2013/11/27
 26 27  0  0  0  0  0  0  0  0999 V2000
   -5.2310  -35.4821    4.3946 C   0  0  0  0  0  0  0  0  0  0  0  0
   -7.2749  -42.5823    9.1066 C   0  0  0  0  0  0  0  0  0  0  0  0
   -4.2547  -39.7996   12.4910 P   0  0  1  0  0  0  0  0  0  0  0  0
   -3.2045  -37.4004   13.3181 P   0  0  2  0  0  0  0  0  0  0  0  0
   -6.9836  -40.2724    7.0253 C   0  0  0  0  0  0  0  0  0  0  0  0
   -5.7285  -39.1089    5.1802 C   0  0  0  0  0  0  0  0  0  0  0  0
   -6.5080  -39.0181    6.3373 C   0  0  0  0  0  0  0  0  0  0  0  0
   -6.8834  -37.7701    6.8419 C   0  0  0  0  0  0  0  0  0  0  0  0
   -7.6308  -37.6917    7.9227 N   0  0  0  0  0  0  0  0  0  0  0  0
   -6.4446  -36.6253    6.2224 N   0  0  0  0  0  0  0  0  0  0  0  0
   -5.6873  -36.7250    5.0722 C   0  0  0  0  0  0  0  0  0  0  0  0
   -5.3160  -37.9528    4.5573 N   0  0  0  0  0  0  0  0  0  0  0  0
   -4.9795  -39.8408   13.8016 O   0  5  0  0  0  0  0  0  0  0  0  0
   -1.8898  -36.7911   13.0316 O   0  0  0  0  0  0  0  0  0  0  0  0
   -3.7414  -40.9065    8.9535 S   0  0  0  0  0  0  0  0  0  0  0  0
   -4.6879  -40.2105    7.8942 C   0  0  0  0  0  0  0  0  0  0  0  0
   -5.0576  -39.3563   11.3196 O   0  0  0  0  0  0  0  0  0  0  0  0
   -3.5460  -37.3446   14.7522 O   0  5  0  0  0  0  0  0  0  0  0  0
   -5.9489  -40.7377    7.9070 N   0  0  0  0  0  0  0  0  0  0  0  0
   -3.0006  -38.8864   12.8050 O   0  0  0  0  0  0  0  0  0  0  0  0
   -4.3993  -36.7964   12.6540 O   0  0  0  0  0  0  0  0  0  0  0  0
   -6.0610  -41.7547    8.8129 C   0  0  1  0  0  0  0  0  0  0  0  0
   -4.8639  -41.9292    9.4605 C   0  0  2  0  0  0  0  0  0  0  0  0
   -4.4575  -42.8944   10.5462 C   0  0  0  0  0  0  0  0  0  0  0  0
   -4.6076  -42.2831   11.9439 C   0  0  0  0  0  0  0  0  0  0  0  0
   -3.7004  -41.2674   12.3317 O   0  0  0  0  0  0  0  0  0  0  0  0
  1 11  1  0  0  0  0
  3 13  1  1  0  0  0
  3 17  2  0  0  0  0
  3 20  1  0  0  0  0
  3 26  1  0  0  0  0
  4 14  1  6  0  0  0
  4 18  1  0  0  0  0
  4 21  2  0  0  0  0
  4 20  1  0  0  0  0
  5 19  1  0  0  0  0
  5  7  1  0  0  0  0
  6  7  2  0  0  0  0
  6 12  1  0  0  0  0
  7  8  1  0  0  0  0
  8  9  1  0  0  0  0
  8 10  2  0  0  0  0
 10 11  1  0  0  0  0
 11 12  2  0  0  0  0
 15 23  1  0  0  0  0
 15 16  1  0  0  0  0
 16 19  1  0  0  0  0
 19 22  1  0  0  0  0
 22  2  1  1  0  0  0
 22 23  1  0  0  0  0
 23 24  1  1  0  0  0
 24 25  1  0  0  0  0
 25 26  1  0  0  0  0
M  CHG  2  13  -1  18  -1
M  END
>  <CHROM.1>
-59.04267748,-10.05790190,84.70935189,-161.08062648,85.49002324,-70.95663068
110.73679823,76.55744395,-4.85274935,-39.26941270,9.85752916,-2.64083251
1.20081903,2.68728617

>  <Name>
ligand

>  <RI>
0

>  <Rbt.Current_Directory>
/home/itssahil/PROJECTS/Mol_Feturizer/New_Systems/rnas/3D2G

>  <Rbt.Executable>
rbdock ($Id: //depot/dev/client3/rdock/2013.1/src/exe/rbdock.cxx#4 $)

>  <Rbt.Library>
libRbt.so (2013.1, Build901 2013/11/27)

>  <Rbt.Parameter_File>
/export/apps/rDock/src/rDock_2013.1_src/data/scripts/dock_solv.prm

>  <Rbt.Receptor>
prm/blind_docking_60.prm

>  <SCORE>
-13.6894

>  <SCORE.INTER>
-15.4987

>  <SCORE.INTER.CONST>
1

>  <SCORE.INTER.POLAR>
0

>  <SCORE.INTER.ROT>
8

>  <SCORE.INTER.SOLV>
17.9694

>  <SCORE.INTER.VDW>
-25.2556

>  <SCORE.INTER.norm>
-0.596105

>  <SCORE.INTRA>
1.80934

>  <SCORE.INTRA.DIHEDRAL>
4.036

>  <SCORE.INTRA.DIHEDRAL.0>
9.09364

>  <SCORE.INTRA.POLAR>
0

>  <SCORE.INTRA.POLAR.0>
0

>  <SCORE.INTRA.REPUL>
0

>  <SCORE.INTRA.REPUL.0>
0

>  <SCORE.INTRA.SOLV>
1.92543

>  <SCORE.INTRA.SOLV.lig_0>
-78.5846

>  <SCORE.INTRA.VDW>
-1.17138

>  <SCORE.INTRA.VDW.0>
-2.81163

>  <SCORE.INTRA.norm>
0.0695898

>  <SCORE.RESTR>
0

>  <SCORE.RESTR.CAVITY>
0

>  <SCORE.RESTR.norm>
0

>  <SCORE.SYSTEM>
0

>  <SCORE.SYSTEM.CONST>
0

>  <SCORE.SYSTEM.DIHEDRAL>
0

>  <SCORE.SYSTEM.SOLV>
0

>  <SCORE.SYSTEM.norm>
0

>  <SCORE.heavy>
26

>  <SCORE.norm>
-0.526515

>  <RMSD>
6.056

$$$$
ligand
 OpenBabel11021811463D
libRbt.so/2013.1/901 2013/11/27
 26 27  0  0  0  0  0  0  0  0999 V2000
   -9.0246  -45.2637    1.6418 C   0  0  0  0  0  0  0  0  0  0  0  0
   -6.2208  -43.7036    7.0541 C   0  0  0  0  0  0  0  0  0  0  0  0
   -4.5740  -42.9776   12.0107 P   0  0  1  0  0  0  0  0  0  0  0  0
   -2.2141  -41.9020   11.1068 P   0  0  2  0  0  0  0  0  0  0  0  0
   -5.6098  -46.5993    6.0571 C   0  0  0  0  0  0  0  0  0  0  0  0
   -7.8531  -45.9276    5.1354 C   0  0  0  0  0  0  0  0  0  0  0  0
   -6.5158  -46.2612    4.9006 C   0  0  0  0  0  0  0  0  0  0  0  0
   -6.0002  -46.2469    3.6017 C   0  0  0  0  0  0  0  0  0  0  0  0
   -4.7360  -46.5464    3.3891 N   0  0  0  0  0  0  0  0  0  0  0  0
   -6.8252  -45.9477    2.5450 N   0  0  0  0  0  0  0  0  0  0  0  0
   -8.1406  -45.6055    2.7880 C   0  0  0  0  0  0  0  0  0  0  0  0
   -8.6615  -45.6074    4.0683 N   0  0  0  0  0  0  0  0  0  0  0  0
   -3.7731  -44.0043   12.7516 O   0  5  0  0  0  0  0  0  0  0  0  0
   -2.5975  -40.7205   11.9060 O   0  0  0  0  0  0  0  0  0  0  0  0
   -7.4523  -46.5767    9.4091 S   0  0  0  0  0  0  0  0  0  0  0  0
   -6.7503  -47.2139    8.1428 C   0  0  0  0  0  0  0  0  0  0  0  0
   -5.0613  -41.8278   12.8194 O   0  0  0  0  0  0  0  0  0  0  0  0
   -1.5012  -41.5325    9.8692 O   0  5  0  0  0  0  0  0  0  0  0  0
   -6.2784  -46.2617    7.2832 N   0  0  0  0  0  0  0  0  0  0  0  0
   -3.6193  -42.5750   10.8142 O   0  0  0  0  0  0  0  0  0  0  0  0
   -1.3017  -42.8967   11.7480 O   0  0  0  0  0  0  0  0  0  0  0  0
   -6.5616  -44.9996    7.7241 C   0  0  1  0  0  0  0  0  0  0  0  0
   -7.2252  -45.0683    8.9233 C   0  0  2  0  0  0  0  0  0  0  0  0
   -7.7466  -43.9809    9.8295 C   0  0  0  0  0  0  0  0  0  0  0  0
   -6.6120  -43.1660   10.4606 C   0  0  0  0  0  0  0  0  0  0  0  0
   -5.7471  -43.8171   11.3733 O   0  0  0  0  0  0  0  0  0  0  0  0
  1 11  1  0  0  0  0
  3 13  1  1  0  0  0
  3 17  2  0  0  0  0
  3 20  1  0  0  0  0
  3 26  1  0  0  0  0
  4 14  1  1  0  0  0
  4 18  1  0  0  0  0
  4 21  2  0  0  0  0
  4 20  1  0  0  0  0
  5 19  1  0  0  0  0
  5  7  1  0  0  0  0
  6  7  2  0  0  0  0
  6 12  1  0  0  0  0
  7  8  1  0  0  0  0
  8  9  1  0  0  0  0
  8 10  2  0  0  0  0
 10 11  1  0  0  0  0
 11 12  2  0  0  0  0
 15 23  1  0  0  0  0
 15 16  1  0  0  0  0
 16 19  1  0  0  0  0
 19 22  1  0  0  0  0
 22  2  1  1  0  0  0
 22 23  1  0  0  0  0
 23 24  1  1  0  0  0
 24 25  1  0  0  0  0
 25 26  1  0  0  0  0
M  CHG  2  13  -1  18  -1
M  END
>  <CHROM.1>
-62.57549517,108.88794672,-10.82651500,-56.41434982,112.19406453,-65.96501636
179.49495039,-172.48877988,-5.49033838,-44.31592652,8.50103823,-2.09162048
0.53813328,1.41255777

>  <Name>
ligand

>  <RI>
0

>  <Rbt.Current_Directory>
/home/itssahil/PROJECTS/Mol_Feturizer/New_Systems/rnas/3D2G

>  <Rbt.Executable>
rbdock ($Id: //depot/dev/client3/rdock/2013.1/src/exe/rbdock.cxx#4 $)

>  <Rbt.Library>
libRbt.so (2013.1, Build901 2013/11/27)

>  <Rbt.Parameter_File>
/export/apps/rDock/src/rDock_2013.1_src/data/scripts/dock_solv.prm

>  <Rbt.Receptor>
prm/pocket_docking_6.prm

>  <SCORE>
-13.9468

>  <SCORE.INTER>
-9.99484

>  <SCORE.INTER.CONST>
1

>  <SCORE.INTER.POLAR>
0

>  <SCORE.INTER.ROT>
8

>  <SCORE.INTER.SOLV>
13.1093

>  <SCORE.INTER.VDW>
-19.9663

>  <SCORE.INTER.norm>
-0.384417

>  <SCORE.INTRA>
-3.95195

>  <SCORE.INTRA.DIHEDRAL>
-4.22191

>  <SCORE.INTRA.DIHEDRAL.0>
9.09364

>  <SCORE.INTRA.POLAR>
0

>  <SCORE.INTRA.POLAR.0>
0

>  <SCORE.INTRA.REPUL>
0

>  <SCORE.INTRA.REPUL.0>
0

>  <SCORE.INTRA.SOLV>
-2.53795

>  <SCORE.INTRA.SOLV.lig_0>
-78.5846

>  <SCORE.INTRA.VDW>
-0.572011

>  <SCORE.INTRA.VDW.0>
-2.81163

>  <SCORE.INTRA.norm>
-0.151998

>  <SCORE.RESTR>
0

>  <SCORE.RESTR.CAVITY>
0

>  <SCORE.RESTR.norm>
0

>  <SCORE.SYSTEM>
0

>  <SCORE.SYSTEM.CONST>
0

>  <SCORE.SYSTEM.DIHEDRAL>
0

>  <SCORE.SYSTEM.SOLV>
0

>  <SCORE.SYSTEM.norm>
0

>  <SCORE.heavy>
26

>  <SCORE.norm>
-0.536415

>  <RMSD>
6.378

$$$$
ligand
 OpenBabel11021811463D
libRbt.so/2013.1/901 2013/11/27
 26 27  0  0  0  0  0  0  0  0999 V2000
   -4.5838  -39.6743   12.1379 C   0  0  0  0  0  0  0  0  0  0  0  0
   -8.8590  -39.3682    6.3280 C   0  0  0  0  0  0  0  0  0  0  0  0
   -6.2294  -42.7279    5.0136 P   0  0  1  0  0  0  0  0  0  0  0  0
   -6.7312  -44.9981    6.4756 P   0  0  2  0  0  0  0  0  0  0  0  0
   -7.9386  -37.0947    8.2610 C   0  0  0  0  0  0  0  0  0  0  0  0
   -6.4832  -39.0182    8.9787 C   0  0  0  0  0  0  0  0  0  0  0  0
   -7.0678  -37.7844    9.2801 C   0  0  0  0  0  0  0  0  0  0  0  0
   -6.8201  -37.1648   10.5081 C   0  0  0  0  0  0  0  0  0  0  0  0
   -7.3607  -35.9955   10.7794 N   0  0  0  0  0  0  0  0  0  0  0  0
   -6.0341  -37.7946   11.4421 N   0  0  0  0  0  0  0  0  0  0  0  0
   -5.4495  -39.0059   11.1300 C   0  0  0  0  0  0  0  0  0  0  0  0
   -5.6791  -39.6260    9.9161 N   0  0  0  0  0  0  0  0  0  0  0  0
   -4.9002  -42.3749    5.6078 O   0  5  0  0  0  0  0  0  0  0  0  0
   -7.2364  -45.1549    7.8547 O   0  0  0  0  0  0  0  0  0  0  0  0
   -6.0272  -37.0456    4.9480 S   0  0  0  0  0  0  0  0  0  0  0  0
   -6.4281  -36.5621    6.3999 C   0  0  0  0  0  0  0  0  0  0  0  0
   -6.1871  -43.5121    3.7500 O   0  0  0  0  0  0  0  0  0  0  0  0
   -5.3093  -45.3721    6.3553 O   0  5  0  0  0  0  0  0  0  0  0  0
   -7.4045  -37.3442    6.9507 N   0  0  0  0  0  0  0  0  0  0  0  0
   -6.9726  -43.4545    6.2073 O   0  0  0  0  0  0  0  0  0  0  0  0
   -7.3934  -45.8059    5.4069 O   0  0  0  0  0  0  0  0  0  0  0  0
   -7.8070  -38.3278    6.0918 C   0  0  1  0  0  0  0  0  0  0  0  0
   -7.0859  -38.2462    4.9271 C   0  0  2  0  0  0  0  0  0  0  0  0
   -7.1263  -39.0895    3.6769 C   0  0  0  0  0  0  0  0  0  0  0  0
   -6.4220  -40.4372    3.8702 C   0  0  0  0  0  0  0  0  0  0  0  0
   -6.9376  -41.3294    4.8413 O   0  0  0  0  0  0  0  0  0  0  0  0
  1 11  1  0  0  0  0
  3 13  1  1  0  0  0
  3 17  2  0  0  0  0
  3 20  1  0  0  0  0
  3 26  1  0  0  0  0
  4 14  1  1  0  0  0
  4 18  1  0  0  0  0
  4 21  2  0  0  0  0
  4 20  1  0  0  0  0
  5 19  1  0  0  0  0
  5  7  1  0  0  0  0
  6  7  2  0  0  0  0
  6 12  1  0  0  0  0
  7  8  1  0  0  0  0
  8  9  1  0  0  0  0
  8 10  2  0  0  0  0
 10 11  1  0  0  0  0
 11 12  2  0  0  0  0
 15 23  1  0  0  0  0
 15 16  1  0  0  0  0
 16 19  1  0  0  0  0
 19 22  1  0  0  0  0
 22  2  1  1  0  0  0
 22 23  1  0  0  0  0
 23 24  1  1  0  0  0
 24 25  1  0  0  0  0
 25 26  1  0  0  0  0
M  CHG  2  13  -1  18  -1
M  END
>  <CHROM.1>
-84.11518589,-86.39003748,-35.66346020,163.00838659,102.97303956,61.98522407
178.64127606,68.90173116,-6.58499769,-40.52263045,6.90993341,-1.68382197
1.43465303,-2.56375449

>  <Name>
ligand

>  <RI>
0

>  <Rbt.Current_Directory>
/home/itssahil/PROJECTS/Mol_Feturizer/New_Systems/rnas/3D2G

>  <Rbt.Executable>
rbdock ($Id: //depot/dev/client3/rdock/2013.1/src/exe/rbdock.cxx#4 $)

>  <Rbt.Library>
libRbt.so (2013.1, Build901 2013/11/27)

>  <Rbt.Parameter_File>
/export/apps/rDock/src/rDock_2013.1_src/data/scripts/dock_solv.prm

>  <Rbt.Receptor>
prm/pocket_docking_8.prm

>  <SCORE>
-14.3302

>  <SCORE.INTER>
-11.3911

>  <SCORE.INTER.CONST>
1

>  <SCORE.INTER.POLAR>
0

>  <SCORE.INTER.ROT>
8

>  <SCORE.INTER.SOLV>
11.4427

>  <SCORE.INTER.VDW>
-20.3416

>  <SCORE.INTER.norm>
-0.438119

>  <SCORE.INTRA>
-2.93913

>  <SCORE.INTRA.DIHEDRAL>
-3.33408

>  <SCORE.INTRA.DIHEDRAL.0>
9.09364

>  <SCORE.INTRA.POLAR>
0

>  <SCORE.INTRA.POLAR.0>
0

>  <SCORE.INTRA.REPUL>
0

>  <SCORE.INTRA.REPUL.0>
0

>  <SCORE.INTRA.SOLV>
-0.473488

>  <SCORE.INTRA.SOLV.lig_0>
-78.5846

>  <SCORE.INTRA.VDW>
-1.03534

>  <SCORE.INTRA.VDW.0>
-2.81163

>  <SCORE.INTRA.norm>
-0.113043

>  <SCORE.RESTR>
0

>  <SCORE.RESTR.CAVITY>
0

>  <SCORE.RESTR.norm>
0

>  <SCORE.SYSTEM>
0

>  <SCORE.SYSTEM.CONST>
0

>  <SCORE.SYSTEM.DIHEDRAL>
0

>  <SCORE.SYSTEM.SOLV>
0

>  <SCORE.SYSTEM.norm>
0

>  <SCORE.heavy>
26

>  <SCORE.norm>
-0.551162

>  <RMSD>
6.429

$$$$
ligand
 OpenBabel11021811463D
libRbt.so/2013.1/901 2013/11/27
 26 27  0  0  0  0  0  0  0  0999 V2000
   -8.3873  -36.2855    8.1266 C   0  0  0  0  0  0  0  0  0  0  0  0
   -4.5255  -41.4444    9.3729 C   0  0  0  0  0  0  0  0  0  0  0  0
   -4.0100  -39.8409   12.6613 P   0  0  1  0  0  0  0  0  0  0  0  0
   -3.4618  -37.1499   12.6980 P   0  0  2  0  0  0  0  0  0  0  0  0
   -7.2037  -41.8936    7.8309 C   0  0  0  0  0  0  0  0  0  0  0  0
   -6.7056  -39.5824    8.6931 C   0  0  0  0  0  0  0  0  0  0  0  0
   -7.5173  -40.4221    7.9243 C   0  0  0  0  0  0  0  0  0  0  0  0
   -8.5983  -39.9004    7.2084 C   0  0  0  0  0  0  0  0  0  0  0  0
   -9.3490  -40.6938    6.4736 N   0  0  0  0  0  0  0  0  0  0  0  0
   -8.8918  -38.5615    7.2982 N   0  0  0  0  0  0  0  0  0  0  0  0
   -8.0761  -37.7378    8.0483 C   0  0  0  0  0  0  0  0  0  0  0  0
   -6.9987  -38.2389    8.7545 N   0  0  0  0  0  0  0  0  0  0  0  0
   -5.3478  -39.5173   12.0696 O   0  5  0  0  0  0  0  0  0  0  0  0
   -2.2874  -37.4257   11.8457 O   0  0  0  0  0  0  0  0  0  0  0  0
   -7.2332  -43.5162   11.2947 S   0  0  0  0  0  0  0  0  0  0  0  0
   -7.8091  -43.1019    9.8809 C   0  0  0  0  0  0  0  0  0  0  0  0
   -2.9642  -40.2800   11.6986 O   0  0  0  0  0  0  0  0  0  0  0  0
   -3.2306  -36.0221   13.6204 O   0  5  0  0  0  0  0  0  0  0  0  0
   -6.9043  -42.3877    9.1464 N   0  0  0  0  0  0  0  0  0  0  0  0
   -3.6467  -38.5257   13.4636 O   0  0  0  0  0  0  0  0  0  0  0  0
   -4.7359  -36.7795   12.0106 O   0  0  0  0  0  0  0  0  0  0  0  0
   -5.7413  -42.1877    9.8356 C   0  0  1  0  0  0  0  0  0  0  0  0
   -5.8251  -42.7897   11.0659 C   0  0  2  0  0  0  0  0  0  0  0  0
   -4.8273  -42.8797   12.1937 C   0  0  0  0  0  0  0  0  0  0  0  0
   -5.2183  -41.9896   13.3788 C   0  0  0  0  0  0  0  0  0  0  0  0
   -4.3432  -40.9381   13.7441 O   0  0  0  0  0  0  0  0  0  0  0  0
  1 11  1  0  0  0  0
  3 13  1  6  0  0  0
  3 17  2  0  0  0  0
  3 20  1  0  0  0  0
  3 26  1  0  0  0  0
  4 14  1  6  0  0  0
  4 18  1  0  0  0  0
  4 21  2  0  0  0  0
  4 20  1  0  0  0  0
  5 19  1  0  0  0  0
  5  7  1  0  0  0  0
  6  7  2  0  0  0  0
  6 12  1  0  0  0  0
  7  8  1  0  0  0  0
  8  9  1  0  0  0  0
  8 10  2  0  0  0  0
 10 11  1  0  0  0  0
 11 12  2  0  0  0  0
 15 23  1  0  0  0  0
 15 16  1  0  0  0  0
 16 19  1  0  0  0  0
 19 22  1  0  0  0  0
 22  2  1  6  0  0  0
 22 23  1  0  0  0  0
 23 24  1  6  0  0  0
 24 25  1  0  0  0  0
 25 26  1  0  0  0  0
M  CHG  2  13  -1  18  -1
M  END
>  <CHROM.1>
-62.59230116,102.04309231,45.09632689,-63.99885476,-73.23499147,-117.73118910
58.77396630,45.39410941,-5.68632784,-39.95013530,10.73650212,2.94290569,0.85657172
2.91308570

>  <Name>
ligand

>  <RI>
0

>  <Rbt.Current_Directory>
/home/itssahil/PROJECTS/Mol_Feturizer/New_Systems/rnas/3D2G

>  <Rbt.Executable>
rbdock ($Id: //depot/dev/client3/rdock/2013.1/src/exe/rbdock.cxx#4 $)

>  <Rbt.Library>
libRbt.so (2013.1, Build901 2013/11/27)

>  <Rbt.Parameter_File>
/export/apps/rDock/src/rDock_2013.1_src/data/scripts/dock_solv.prm

>  <Rbt.Receptor>
prm/blind_docking_100.prm

>  <SCORE>
-15.9202

>  <SCORE.INTER>
-17.8366

>  <SCORE.INTER.CONST>
1

>  <SCORE.INTER.POLAR>
0

>  <SCORE.INTER.ROT>
8

>  <SCORE.INTER.SOLV>
17.0945

>  <SCORE.INTER.VDW>
-26.5226

>  <SCORE.INTER.norm>
-0.686023

>  <SCORE.INTRA>
1.91639

>  <SCORE.INTRA.DIHEDRAL>
2.13975

>  <SCORE.INTRA.DIHEDRAL.0>
9.09364

>  <SCORE.INTRA.POLAR>
0

>  <SCORE.INTRA.POLAR.0>
0

>  <SCORE.INTRA.REPUL>
0

>  <SCORE.INTRA.REPUL.0>
0

>  <SCORE.INTRA.SOLV>
1.69746

>  <SCORE.INTRA.SOLV.lig_0>
-78.5846

>  <SCORE.INTRA.VDW>
-0.00221248

>  <SCORE.INTRA.VDW.0>
-2.81163

>  <SCORE.INTRA.norm>
0.0737073

>  <SCORE.RESTR>
0

>  <SCORE.RESTR.CAVITY>
0

>  <SCORE.RESTR.norm>
0

>  <SCORE.SYSTEM>
0

>  <SCORE.SYSTEM.CONST>
0

>  <SCORE.SYSTEM.DIHEDRAL>
0

>  <SCORE.SYSTEM.SOLV>
0

>  <SCORE.SYSTEM.norm>
0

>  <SCORE.heavy>
26

>  <SCORE.norm>
-0.612316

>  <RMSD>
6.457

$$$$
ligand
 OpenBabel11021811463D
libRbt.so/2013.1/901 2013/11/27
 26 27  0  0  0  0  0  0  0  0999 V2000
   -3.7176  -47.0938    4.3915 C   0  0  0  0  0  0  0  0  0  0  0  0
   -7.4281  -40.3082    1.2918 C   0  0  0  0  0  0  0  0  0  0  0  0
   -9.1422  -39.7393    7.3821 P   0  0  1  0  0  0  0  0  0  0  0  0
   -7.0745  -41.2448    8.3826 P   0  0  2  0  0  0  0  0  0  0  0  0
   -4.9906  -42.2330    1.6180 C   0  0  0  0  0  0  0  0  0  0  0  0
   -3.5283  -43.5554    3.1821 C   0  0  0  0  0  0  0  0  0  0  0  0
   -4.6424  -43.5106    2.3385 C   0  0  0  0  0  0  0  0  0  0  0  0
   -5.4608  -44.6332    2.1865 C   0  0  0  0  0  0  0  0  0  0  0  0
   -6.5174  -44.5797    1.4031 N   0  0  0  0  0  0  0  0  0  0  0  0
   -5.1415  -45.8014    2.8348 N   0  0  0  0  0  0  0  0  0  0  0  0
   -4.0477  -45.8317    3.6770 C   0  0  0  0  0  0  0  0  0  0  0  0
   -3.2346  -44.7265    3.8432 N   0  0  0  0  0  0  0  0  0  0  0  0
  -10.4206  -40.2857    6.8238 O   0  5  0  0  0  0  0  0  0  0  0  0
   -6.4959  -39.9285    8.7208 O   0  0  0  0  0  0  0  0  0  0  0  0
   -5.4741  -39.9733    4.6663 S   0  0  0  0  0  0  0  0  0  0  0  0
   -4.7969  -41.1019    3.7887 C   0  0  0  0  0  0  0  0  0  0  0  0
   -9.2443  -38.4229    8.0678 O   0  0  0  0  0  0  0  0  0  0  0  0
   -6.5494  -41.7761    7.1105 O   0  5  0  0  0  0  0  0  0  0  0  0
   -5.4214  -41.2597    2.5832 N   0  0  0  0  0  0  0  0  0  0  0  0
   -8.6234  -40.9163    8.3044 O   0  0  0  0  0  0  0  0  0  0  0  0
   -6.8437  -42.3632    9.3465 O   0  0  0  0  0  0  0  0  0  0  0  0
   -6.4926  -40.4208    2.4567 C   0  0  1  0  0  0  0  0  0  0  0  0
   -6.6082  -39.6475    3.5845 C   0  0  2  0  0  0  0  0  0  0  0  0
   -7.5973  -38.5677    3.9469 C   0  0  0  0  0  0  0  0  0  0  0  0
   -8.6393  -39.0591    4.9580 C   0  0  0  0  0  0  0  0  0  0  0  0
   -8.1811  -39.7043    6.1322 O   0  0  0  0  0  0  0  0  0  0  0  0
  1 11  1  0  0  0  0
  3 13  1  6  0  0  0
  3 17  2  0  0  0  0
  3 20  1  0  0  0  0
  3 26  1  0  0  0  0
  4 14  1  1  0  0  0
  4 18  1  0  0  0  0
  4 21  2  0  0  0  0
  4 20  1  0  0  0  0
  5 19  1  0  0  0  0
  5  7  1  0  0  0  0
  6  7  2  0  0  0  0
  6 12  1  0  0  0  0
  7  8  1  0  0  0  0
  8  9  1  0  0  0  0
  8 10  2  0  0  0  0
 10 11  1  0  0  0  0
 11 12  2  0  0  0  0
 15 23  1  0  0  0  0
 15 16  1  0  0  0  0
 16 19  1  0  0  0  0
 19 22  1  0  0  0  0
 22  2  1  6  0  0  0
 22 23  1  0  0  0  0
 23 24  1  6  0  0  0
 24 25  1  0  0  0  0
 25 26  1  0  0  0  0
M  CHG  2  13  -1  18  -1
M  END
>  <CHROM.1>
141.95049938,41.32286378,-68.10785296,53.20002535,-76.24183562,50.79245005
158.15858938,52.00088847,-6.59088314,-41.54728679,5.13366214,-0.39867601
-1.00090781,1.93674015

>  <Name>
ligand

>  <RI>
0

>  <Rbt.Current_Directory>
/home/itssahil/PROJECTS/Mol_Feturizer/New_Systems/rnas/3D2G

>  <Rbt.Executable>
rbdock ($Id: //depot/dev/client3/rdock/2013.1/src/exe/rbdock.cxx#4 $)

>  <Rbt.Library>
libRbt.so (2013.1, Build901 2013/11/27)

>  <Rbt.Parameter_File>
/export/apps/rDock/src/rDock_2013.1_src/data/scripts/dock_solv.prm

>  <Rbt.Receptor>
prm/pocket_docking_8.prm

>  <SCORE>
-11.5992

>  <SCORE.INTER>
-10.0859

>  <SCORE.INTER.CONST>
1

>  <SCORE.INTER.POLAR>
0

>  <SCORE.INTER.ROT>
8

>  <SCORE.INTER.SOLV>
19.2041

>  <SCORE.INTER.VDW>
-22.0586

>  <SCORE.INTER.norm>
-0.38792

>  <SCORE.INTRA>
-1.51327

>  <SCORE.INTRA.DIHEDRAL>
0.137748

>  <SCORE.INTRA.DIHEDRAL.0>
9.09364

>  <SCORE.INTRA.POLAR>
0

>  <SCORE.INTRA.POLAR.0>
0

>  <SCORE.INTRA.REPUL>
0

>  <SCORE.INTRA.REPUL.0>
0

>  <SCORE.INTRA.SOLV>
-2.10855

>  <SCORE.INTRA.SOLV.lig_0>
-78.5846

>  <SCORE.INTRA.VDW>
-0.527869

>  <SCORE.INTRA.VDW.0>
-2.81163

>  <SCORE.INTRA.norm>
-0.0582027

>  <SCORE.RESTR>
0

>  <SCORE.RESTR.CAVITY>
0

>  <SCORE.RESTR.norm>
0

>  <SCORE.SYSTEM>
0

>  <SCORE.SYSTEM.CONST>
0

>  <SCORE.SYSTEM.DIHEDRAL>
0

>  <SCORE.SYSTEM.SOLV>
0

>  <SCORE.SYSTEM.norm>
0

>  <SCORE.heavy>
26

>  <SCORE.norm>
-0.446123

>  <RMSD>
6.571

$$$$
ligand
 OpenBabel11021811463D
libRbt.so/2013.1/901 2013/11/27
 26 27  0  0  0  0  0  0  0  0999 V2000
   -1.2337  -44.0468    4.5957 C   0  0  0  0  0  0  0  0  0  0  0  0
   -6.5492  -42.7442    8.0319 C   0  0  0  0  0  0  0  0  0  0  0  0
   -4.0382  -43.7395   11.8299 P   0  0  1  0  0  0  0  0  0  0  0  0
   -2.3475  -43.9165    9.6728 P   0  0  2  0  0  0  0  0  0  0  0  0
   -6.8151  -44.8026    5.6985 C   0  0  0  0  0  0  0  0  0  0  0  0
   -4.3914  -45.1290    6.2919 C   0  0  0  0  0  0  0  0  0  0  0  0
   -5.3476  -44.5956    5.4224 C   0  0  0  0  0  0  0  0  0  0  0  0
   -4.9527  -43.9025    4.2749 C   0  0  0  0  0  0  0  0  0  0  0  0
   -5.8580  -43.4166    3.4519 N   0  0  0  0  0  0  0  0  0  0  0  0
   -3.6166  -43.7048    4.0250 N   0  0  0  0  0  0  0  0  0  0  0  0
   -2.6795  -44.2475    4.8815 C   0  0  0  0  0  0  0  0  0  0  0  0
   -3.0558  -44.9426    6.0155 N   0  0  0  0  0  0  0  0  0  0  0  0
   -3.8290  -43.9381   13.3000 O   0  5  0  0  0  0  0  0  0  0  0  0
   -2.9546  -45.2151    9.3165 O   0  0  0  0  0  0  0  0  0  0  0  0
   -7.4591  -46.3926    9.1174 S   0  0  0  0  0  0  0  0  0  0  0  0
   -7.3226  -46.3427    7.5422 C   0  0  0  0  0  0  0  0  0  0  0  0
   -4.7531  -42.4947   11.4389 O   0  0  0  0  0  0  0  0  0  0  0  0
   -0.9190  -43.8490    9.3106 O   0  5  0  0  0  0  0  0  0  0  0  0
   -6.9868  -45.0957    7.0946 N   0  0  0  0  0  0  0  0  0  0  0  0
   -2.5744  -43.8631   11.2408 O   0  0  0  0  0  0  0  0  0  0  0  0
   -2.9240  -42.6930    9.0373 O   0  0  0  0  0  0  0  0  0  0  0  0
   -6.8847  -44.2015    8.1229 C   0  0  1  0  0  0  0  0  0  0  0  0
   -7.1328  -44.8376    9.3132 C   0  0  2  0  0  0  0  0  0  0  0  0
   -7.1354  -44.3200   10.7302 C   0  0  0  0  0  0  0  0  0  0  0  0
   -6.1935  -45.1212   11.6361 C   0  0  0  0  0  0  0  0  0  0  0  0
   -4.8015  -45.0469   11.3878 O   0  0  0  0  0  0  0  0  0  0  0  0
  1 11  1  0  0  0  0
  3 13  1  1  0  0  0
  3 17  2  0  0  0  0
  3 20  1  0  0  0  0
  3 26  1  0  0  0  0
  4 14  1  6  0  0  0
  4 18  1  0  0  0  0
  4 21  2  0  0  0  0
  4 20  1  0  0  0  0
  5 19  1  0  0  0  0
  5  7  1  0  0  0  0
  6  7  2  0  0  0  0
  6 12  1  0  0  0  0
  7  8  1  0  0  0  0
  8  9  1  0  0  0  0
  8 10  2  0  0  0  0
 10 11  1  0  0  0  0
 11 12  2  0  0  0  0
 15 23  1  0  0  0  0
 15 16  1  0  0  0  0
 16 19  1  0  0  0  0
 19 22  1  0  0  0  0
 22  2  1  1  0  0  0
 22 23  1  0  0  0  0
 23 24  1  1  0  0  0
 24 25  1  0  0  0  0
 25 26  1  0  0  0  0
M  CHG  2  13  -1  18  -1
M  END
>  <CHROM.1>
171.47795162,-108.37116065,21.82098567,-67.23366908,54.79163616,66.50238045
75.65733498,79.85999019,-4.63567051,-44.34505923,8.56256509,-1.61403264,0.27301754
1.55357391

>  <Name>
ligand

>  <RI>
0

>  <Rbt.Current_Directory>
/home/itssahil/PROJECTS/Mol_Feturizer/New_Systems/rnas/3D2G

>  <Rbt.Executable>
rbdock ($Id: //depot/dev/client3/rdock/2013.1/src/exe/rbdock.cxx#4 $)

>  <Rbt.Library>
libRbt.so (2013.1, Build901 2013/11/27)

>  <Rbt.Parameter_File>
/export/apps/rDock/src/rDock_2013.1_src/data/scripts/dock_solv.prm

>  <Rbt.Receptor>
prm/pocket_docking_6.prm

>  <SCORE>
-14.7013

>  <SCORE.INTER>
-11.003

>  <SCORE.INTER.CONST>
1

>  <SCORE.INTER.POLAR>
0

>  <SCORE.INTER.ROT>
8

>  <SCORE.INTER.SOLV>
10.8305

>  <SCORE.INTER.VDW>
-19.8788

>  <SCORE.INTER.norm>
-0.423193

>  <SCORE.INTRA>
-3.6983

>  <SCORE.INTRA.DIHEDRAL>
-2.22248

>  <SCORE.INTRA.DIHEDRAL.0>
9.09364

>  <SCORE.INTRA.POLAR>
0

>  <SCORE.INTRA.POLAR.0>
0

>  <SCORE.INTRA.REPUL>
0

>  <SCORE.INTRA.REPUL.0>
0

>  <SCORE.INTRA.SOLV>
-0.93154

>  <SCORE.INTRA.SOLV.lig_0>
-78.5846

>  <SCORE.INTRA.VDW>
-2.12128

>  <SCORE.INTRA.VDW.0>
-2.81163

>  <SCORE.INTRA.norm>
-0.142242

>  <SCORE.RESTR>
0

>  <SCORE.RESTR.CAVITY>
0

>  <SCORE.RESTR.norm>
0

>  <SCORE.SYSTEM>
0

>  <SCORE.SYSTEM.CONST>
0

>  <SCORE.SYSTEM.DIHEDRAL>
0

>  <SCORE.SYSTEM.SOLV>
0

>  <SCORE.SYSTEM.norm>
0

>  <SCORE.heavy>
26

>  <SCORE.norm>
-0.565435

>  <RMSD>
6.588

$$$$
ligand
 OpenBabel11021811463D
libRbt.so/2013.1/901 2013/11/27
 26 27  0  0  0  0  0  0  0  0999 V2000
   -6.0665  -44.9078    9.6104 C   0  0  0  0  0  0  0  0  0  0  0  0
   -6.3751  -38.6443    5.3074 C   0  0  0  0  0  0  0  0  0  0  0  0
   -5.6189  -41.4439    2.6476 P   0  0  1  0  0  0  0  0  0  0  0  0
   -4.9994  -43.4217    4.4497 P   0  0  2  0  0  0  0  0  0  0  0  0
   -7.4465  -39.5458    8.0988 C   0  0  0  0  0  0  0  0  0  0  0  0
   -7.8932  -42.0224    8.0752 C   0  0  0  0  0  0  0  0  0  0  0  0
   -7.0978  -40.9554    8.5040 C   0  0  0  0  0  0  0  0  0  0  0  0
   -5.9565  -41.1888    9.2760 C   0  0  0  0  0  0  0  0  0  0  0  0
   -5.2029  -40.1811    9.6630 N   0  0  0  0  0  0  0  0  0  0  0  0
   -5.6408  -42.4710    9.6541 N   0  0  0  0  0  0  0  0  0  0  0  0
   -6.4239  -43.5195    9.2139 C   0  0  0  0  0  0  0  0  0  0  0  0
   -7.5506  -43.3039    8.4428 N   0  0  0  0  0  0  0  0  0  0  0  0
   -4.1877  -41.0121    2.7471 O   0  5  0  0  0  0  0  0  0  0  0  0
   -5.6025  -43.8023    5.7432 O   0  0  0  0  0  0  0  0  0  0  0  0
  -10.0415  -40.0134    5.3276 S   0  0  0  0  0  0  0  0  0  0  0  0
   -9.4624  -40.0699    6.7986 C   0  0  0  0  0  0  0  0  0  0  0  0
   -5.9672  -42.2652    1.4570 O   0  0  0  0  0  0  0  0  0  0  0  0
   -3.5669  -43.0926    4.5761 O   0  5  0  0  0  0  0  0  0  0  0  0
   -8.1854  -39.5874    6.8672 N   0  0  0  0  0  0  0  0  0  0  0  0
   -5.8716  -42.1650    4.0337 O   0  0  0  0  0  0  0  0  0  0  0  0
   -5.0257  -44.4390    3.3553 O   0  0  0  0  0  0  0  0  0  0  0  0
   -7.7236  -39.2070    5.6387 C   0  0  1  0  0  0  0  0  0  0  0  0
   -8.7010  -39.4071    4.6965 C   0  0  2  0  0  0  0  0  0  0  0  0
   -8.7126  -39.1438    3.2112 C   0  0  0  0  0  0  0  0  0  0  0  0
   -7.8089  -40.1188    2.4480 C   0  0  0  0  0  0  0  0  0  0  0  0
   -6.4173  -40.0851    2.7073 O   0  0  0  0  0  0  0  0  0  0  0  0
  1 11  1  0  0  0  0
  3 13  1  6  0  0  0
  3 17  2  0  0  0  0
  3 20  1  0  0  0  0
  3 26  1  0  0  0  0
  4 14  1  1  0  0  0
  4 18  1  0  0  0  0
  4 21  2  0  0  0  0
  4 20  1  0  0  0  0
  5 19  1  0  0  0  0
  5  7  1  0  0  0  0
  6  7  2  0  0  0  0
  6 12  1  0  0  0  0
  7  8  1  0  0  0  0
  8  9  1  0  0  0  0
  8 10  2  0  0  0  0
 10 11  1  0  0  0  0
 11 12  2  0  0  0  0
 15 23  1  0  0  0  0
 15 16  1  0  0  0  0
 16 19  1  0  0  0  0
 19 22  1  0  0  0  0
 22  2  1  1  0  0  0
 22 23  1  0  0  0  0
 23 24  1  1  0  0  0
 24 25  1  0  0  0  0
 25 26  1  0  0  0  0
M  CHG  2  13  -1  18  -1
M  END
>  <CHROM.1>
-59.44133749,70.10420836,-25.78094579,-177.33863004,-109.83310222,-63.77159086
145.76827313,171.26721192,-6.62807629,-41.46262410,5.53204212,-1.73653396
0.81132428,-1.35142773

>  <Name>
ligand

>  <RI>
0

>  <Rbt.Current_Directory>
/home/itssahil/PROJECTS/Mol_Feturizer/New_Systems/rnas/3D2G

>  <Rbt.Executable>
rbdock ($Id: //depot/dev/client3/rdock/2013.1/src/exe/rbdock.cxx#4 $)

>  <Rbt.Library>
libRbt.so (2013.1, Build901 2013/11/27)

>  <Rbt.Parameter_File>
/export/apps/rDock/src/rDock_2013.1_src/data/scripts/dock_solv.prm

>  <Rbt.Receptor>
prm/pocket_docking_6.prm

>  <SCORE>
-11.6664

>  <SCORE.INTER>
-10.5128

>  <SCORE.INTER.CONST>
1

>  <SCORE.INTER.POLAR>
0

>  <SCORE.INTER.ROT>
8

>  <SCORE.INTER.SOLV>
11.4564

>  <SCORE.INTER.VDW>
-19.7606

>  <SCORE.INTER.norm>
-0.404337

>  <SCORE.INTRA>
-1.15366

>  <SCORE.INTRA.DIHEDRAL>
0.52203

>  <SCORE.INTRA.DIHEDRAL.0>
9.09364

>  <SCORE.INTRA.POLAR>
0

>  <SCORE.INTRA.POLAR.0>
0

>  <SCORE.INTRA.REPUL>
0

>  <SCORE.INTRA.REPUL.0>
0

>  <SCORE.INTRA.SOLV>
-0.252466

>  <SCORE.INTRA.SOLV.lig_0>
-78.5846

>  <SCORE.INTRA.VDW>
-1.28844

>  <SCORE.INTRA.VDW.0>
-2.81163

>  <SCORE.INTRA.norm>
-0.0443714

>  <SCORE.RESTR>
0

>  <SCORE.RESTR.CAVITY>
0

>  <SCORE.RESTR.norm>
0

>  <SCORE.SYSTEM>
0

>  <SCORE.SYSTEM.CONST>
0

>  <SCORE.SYSTEM.DIHEDRAL>
0

>  <SCORE.SYSTEM.SOLV>
0

>  <SCORE.SYSTEM.norm>
0

>  <SCORE.heavy>
26

>  <SCORE.norm>
-0.448708

>  <RMSD>
6.596

$$$$
ligand
 OpenBabel11021811463D
libRbt.so/2013.1/901 2013/11/27
 26 27  0  0  0  0  0  0  0  0999 V2000
   -5.5043  -42.5666    3.9458 C   0  0  0  0  0  0  0  0  0  0  0  0
   -7.2110  -43.6044   10.5764 C   0  0  0  0  0  0  0  0  0  0  0  0
   -1.5787  -42.8105   10.7749 P   0  0  1  0  0  0  0  0  0  0  0  0
   -0.8334  -43.9877    8.4081 P   0  0  2  0  0  0  0  0  0  0  0  0
   -7.5345  -45.7127    8.2955 C   0  0  0  0  0  0  0  0  0  0  0  0
   -7.0262  -43.4849    7.2411 C   0  0  0  0  0  0  0  0  0  0  0  0
   -7.0158  -44.8801    7.1508 C   0  0  0  0  0  0  0  0  0  0  0  0
   -6.4917  -45.5124    6.0200 C   0  0  0  0  0  0  0  0  0  0  0  0
   -6.4702  -46.8267    5.9480 N   0  0  0  0  0  0  0  0  0  0  0  0
   -6.0262  -44.7566    4.9718 N   0  0  0  0  0  0  0  0  0  0  0  0
   -6.0272  -43.3798    5.0761 C   0  0  0  0  0  0  0  0  0  0  0  0
   -6.5348  -42.7415    6.1920 N   0  0  0  0  0  0  0  0  0  0  0  0
   -0.8276  -42.4788   12.0280 O   0  5  0  0  0  0  0  0  0  0  0  0
    0.4609  -44.5229    7.9389 O   0  0  0  0  0  0  0  0  0  0  0  0
   -4.6526  -46.5649   10.6620 S   0  0  0  0  0  0  0  0  0  0  0  0
   -5.6266  -46.7612    9.4311 C   0  0  0  0  0  0  0  0  0  0  0  0
   -2.2386  -41.6652   10.0919 O   0  0  0  0  0  0  0  0  0  0  0  0
   -1.2992  -42.8529    7.5885 O   0  5  0  0  0  0  0  0  0  0  0  0
   -6.5388  -45.7483    9.3307 N   0  0  0  0  0  0  0  0  0  0  0  0
   -0.4949  -43.5571    9.8957 O   0  0  0  0  0  0  0  0  0  0  0  0
   -2.0018  -44.9193    8.4056 O   0  0  0  0  0  0  0  0  0  0  0  0
   -6.3949  -44.8384   10.3401 C   0  0  1  0  0  0  0  0  0  0  0  0
   -5.3509  -45.2094   11.1497 C   0  0  2  0  0  0  0  0  0  0  0  0
   -4.7715  -44.5557   12.3796 C   0  0  0  0  0  0  0  0  0  0  0  0
   -3.7087  -43.5089   12.0269 C   0  0  0  0  0  0  0  0  0  0  0  0
   -2.6025  -43.9155   11.2421 O   0  0  0  0  0  0  0  0  0  0  0  0
  1 11  1  0  0  0  0
  3 13  1  1  0  0  0
  3 17  2  0  0  0  0
  3 20  1  0  0  0  0
  3 26  1  0  0  0  0
  4 14  1  6  0  0  0
  4 18  1  0  0  0  0
  4 21  2  0  0  0  0
  4 20  1  0  0  0  0
  5 19  1  0  0  0  0
  5  7  1  0  0  0  0
  6  7  2  0  0  0  0
  6 12  1  0  0  0  0
  7  8  1  0  0  0  0
  8  9  1  0  0  0  0
  8 10  2  0  0  0  0
 10 11  1  0  0  0  0
 11 12  2  0  0  0  0
 15 23  1  0  0  0  0
 15 16  1  0  0  0  0
 16 19  1  0  0  0  0
 19 22  1  0  0  0  0
 22  2  1  6  0  0  0
 22 23  1  0  0  0  0
 23 24  1  6  0  0  0
 24 25  1  0  0  0  0
 25 26  1  0  0  0  0
M  CHG  2  13  -1  18  -1
M  END
>  <CHROM.1>
-174.88836696,-94.54575080,-77.48155652,175.18440168,92.62149517,-56.27396485
174.70487566,73.42003913,-3.99170677,-44.25567329,8.93217050,-2.60970819
0.34937097,1.73205087

>  <Name>
ligand

>  <RI>
0

>  <Rbt.Current_Directory>
/home/itssahil/PROJECTS/Mol_Feturizer/New_Systems/rnas/3D2G

>  <Rbt.Executable>
rbdock ($Id: //depot/dev/client3/rdock/2013.1/src/exe/rbdock.cxx#4 $)

>  <Rbt.Library>
libRbt.so (2013.1, Build901 2013/11/27)

>  <Rbt.Parameter_File>
/export/apps/rDock/src/rDock_2013.1_src/data/scripts/dock_solv.prm

>  <Rbt.Receptor>
prm/pocket_docking_5.prm

>  <SCORE>
-15.3874

>  <SCORE.INTER>
-11.4595

>  <SCORE.INTER.CONST>
1

>  <SCORE.INTER.POLAR>
0

>  <SCORE.INTER.ROT>
8

>  <SCORE.INTER.SOLV>
14.6466

>  <SCORE.INTER.VDW>
-21.4552

>  <SCORE.INTER.norm>
-0.44075

>  <SCORE.INTRA>
-3.92786

>  <SCORE.INTRA.DIHEDRAL>
-3.73416

>  <SCORE.INTRA.DIHEDRAL.0>
9.09364

>  <SCORE.INTRA.POLAR>
0

>  <SCORE.INTRA.POLAR.0>
0

>  <SCORE.INTRA.REPUL>
0

>  <SCORE.INTRA.REPUL.0>
0

>  <SCORE.INTRA.SOLV>
-0.584047

>  <SCORE.INTRA.SOLV.lig_0>
-78.5846

>  <SCORE.INTRA.VDW>
-1.76876

>  <SCORE.INTRA.VDW.0>
-2.81163

>  <SCORE.INTRA.norm>
-0.151072

>  <SCORE.RESTR>
0

>  <SCORE.RESTR.CAVITY>
0

>  <SCORE.RESTR.norm>
0

>  <SCORE.SYSTEM>
0

>  <SCORE.SYSTEM.CONST>
0

>  <SCORE.SYSTEM.DIHEDRAL>
0

>  <SCORE.SYSTEM.SOLV>
0

>  <SCORE.SYSTEM.norm>
0

>  <SCORE.heavy>
26

>  <SCORE.norm>
-0.591822

>  <RMSD>
6.609

$$$$
ligand
 OpenBabel11021811463D
libRbt.so/2013.1/901 2013/11/27
 26 27  0  0  0  0  0  0  0  0999 V2000
   -6.6796  -43.4468    2.4990 C   0  0  0  0  0  0  0  0  0  0  0  0
   -1.3613  -44.3886    6.8740 C   0  0  0  0  0  0  0  0  0  0  0  0
   -2.5854  -40.8555   10.5796 P   0  0  1  0  0  0  0  0  0  0  0  0
   -2.9272  -43.5039   11.2215 P   0  0  2  0  0  0  0  0  0  0  0  0
   -1.1885  -44.5411    3.7596 C   0  0  0  0  0  0  0  0  0  0  0  0
   -3.2013  -43.0318    3.8211 C   0  0  0  0  0  0  0  0  0  0  0  0
   -2.6342  -44.2530    3.4441 C   0  0  0  0  0  0  0  0  0  0  0  0
   -3.3881  -45.1967    2.7412 C   0  0  0  0  0  0  0  0  0  0  0  0
   -2.8435  -46.3379    2.3751 N   0  0  0  0  0  0  0  0  0  0  0  0
   -4.7080  -44.9407    2.4597 N   0  0  0  0  0  0  0  0  0  0  0  0
   -5.2552  -43.7263    2.8233 C   0  0  0  0  0  0  0  0  0  0  0  0
   -4.5188  -42.7805    3.5113 N   0  0  0  0  0  0  0  0  0  0  0  0
   -3.3560  -39.9096    9.7101 O   0  5  0  0  0  0  0  0  0  0  0  0
   -3.4411  -43.1888   12.5700 O   0  0  0  0  0  0  0  0  0  0  0  0
    0.4667  -41.3865    5.1527 S   0  0  0  0  0  0  0  0  0  0  0  0
   -0.0064  -42.4074    4.0408 C   0  0  0  0  0  0  0  0  0  0  0  0
   -2.4109  -40.4379   11.9968 O   0  0  0  0  0  0  0  0  0  0  0  0
   -1.4662  -43.7088   11.2139 O   0  5  0  0  0  0  0  0  0  0  0  0
   -0.6710  -43.4763    4.5738 N   0  0  0  0  0  0  0  0  0  0  0  0
   -3.3600  -42.2232   10.3936 O   0  0  0  0  0  0  0  0  0  0  0  0
   -3.4529  -44.7354   10.5580 O   0  0  0  0  0  0  0  0  0  0  0  0
   -0.7302  -43.4044    5.9371 C   0  0  1  0  0  0  0  0  0  0  0  0
   -0.1146  -42.2551    6.3653 C   0  0  2  0  0  0  0  0  0  0  0  0
    0.0837  -41.6964    7.7524 C   0  0  0  0  0  0  0  0  0  0  0  0
   -1.2487  -41.4620    8.4731 C   0  0  0  0  0  0  0  0  0  0  0  0
   -1.2143  -41.0201    9.8179 O   0  0  0  0  0  0  0  0  0  0  0  0
  1 11  1  0  0  0  0
  3 13  1  6  0  0  0
  3 17  2  0  0  0  0
  3 20  1  0  0  0  0
  3 26  1  0  0  0  0
  4 14  1  1  0  0  0
  4 18  1  0  0  0  0
  4 21  2  0  0  0  0
  4 20  1  0  0  0  0
  5 19  1  0  0  0  0
  5  7  1  0  0  0  0
  6  7  2  0  0  0  0
  6 12  1  0  0  0  0
  7  8  1  0  0  0  0
  8  9  1  0  0  0  0
  8 10  2  0  0  0  0
 10 11  1  0  0  0  0
 11 12  2  0  0  0  0
 15 23  1  0  0  0  0
 15 16  1  0  0  0  0
 16 19  1  0  0  0  0
 19 22  1  0  0  0  0
 22  2  1  6  0  0  0
 22 23  1  0  0  0  0
 23 24  1  6  0  0  0
 24 25  1  0  0  0  0
 25 26  1  0  0  0  0
M  CHG  2  13  -1  18  -1
M  END
>  <CHROM.1>
-176.20823637,-94.53018544,6.42579722,74.43944436,120.51678165,176.00384859
-176.74524841,-56.31424888,-2.32271913,-42.83564745,7.20417545,1.65109416
-0.44268096,-1.78315777

>  <Name>
ligand

>  <RI>
0

>  <Rbt.Current_Directory>
/home/itssahil/PROJECTS/Mol_Feturizer/New_Systems/rnas/3D2G

>  <Rbt.Executable>
rbdock ($Id: //depot/dev/client3/rdock/2013.1/src/exe/rbdock.cxx#4 $)

>  <Rbt.Library>
libRbt.so (2013.1, Build901 2013/11/27)

>  <Rbt.Parameter_File>
/export/apps/rDock/src/rDock_2013.1_src/data/scripts/dock_solv.prm

>  <Rbt.Receptor>
prm/pocket_docking_7.prm

>  <SCORE>
-10.269

>  <SCORE.INTER>
-7.0899

>  <SCORE.INTER.CONST>
1

>  <SCORE.INTER.POLAR>
0

>  <SCORE.INTER.ROT>
8

>  <SCORE.INTER.SOLV>
18.415

>  <SCORE.INTER.VDW>
-19.7983

>  <SCORE.INTER.norm>
-0.272688

>  <SCORE.INTRA>
-3.17909

>  <SCORE.INTRA.DIHEDRAL>
-3.74016

>  <SCORE.INTRA.DIHEDRAL.0>
9.09364

>  <SCORE.INTRA.POLAR>
0

>  <SCORE.INTRA.POLAR.0>
0

>  <SCORE.INTRA.REPUL>
0

>  <SCORE.INTRA.REPUL.0>
0

>  <SCORE.INTRA.SOLV>
-1.55664

>  <SCORE.INTRA.SOLV.lig_0>
-78.5846

>  <SCORE.INTRA.VDW>
-0.530693

>  <SCORE.INTRA.VDW.0>
-2.81163

>  <SCORE.INTRA.norm>
-0.122273

>  <SCORE.RESTR>
0

>  <SCORE.RESTR.CAVITY>
0

>  <SCORE.RESTR.norm>
0

>  <SCORE.SYSTEM>
0

>  <SCORE.SYSTEM.CONST>
0

>  <SCORE.SYSTEM.DIHEDRAL>
0

>  <SCORE.SYSTEM.SOLV>
0

>  <SCORE.SYSTEM.norm>
0

>  <SCORE.heavy>
26

>  <SCORE.norm>
-0.394961

>  <RMSD>
6.639

$$$$
ligand
 OpenBabel11021811463D
libRbt.so/2013.1/901 2013/11/27
 26 27  0  0  0  0  0  0  0  0999 V2000
   -9.8299  -47.5209    2.3733 C   0  0  0  0  0  0  0  0  0  0  0  0
   -6.2180  -42.4597    7.8667 C   0  0  0  0  0  0  0  0  0  0  0  0
   -4.9044  -41.5699   12.8333 P   0  0  1  0  0  0  0  0  0  0  0  0
   -4.0493  -40.0567   10.7067 P   0  0  2  0  0  0  0  0  0  0  0  0
   -6.1360  -44.8543    5.8637 C   0  0  0  0  0  0  0  0  0  0  0  0
   -8.3413  -44.9529    4.6553 C   0  0  0  0  0  0  0  0  0  0  0  0
   -7.1168  -45.5557    4.9589 C   0  0  0  0  0  0  0  0  0  0  0  0
   -6.7771  -46.7899    4.3983 C   0  0  0  0  0  0  0  0  0  0  0  0
   -5.6159  -47.3446    4.6755 N   0  0  0  0  0  0  0  0  0  0  0  0
   -7.6721  -47.4356    3.5804 N   0  0  0  0  0  0  0  0  0  0  0  0
   -8.8727  -46.8260    3.2748 C   0  0  0  0  0  0  0  0  0  0  0  0
   -9.2179  -45.6016    3.8154 N   0  0  0  0  0  0  0  0  0  0  0  0
   -4.3236  -42.7674   13.5212 O   0  5  0  0  0  0  0  0  0  0  0  0
   -5.4087  -40.1853   10.1434 O   0  0  0  0  0  0  0  0  0  0  0  0
   -7.6292  -45.8401    9.2446 S   0  0  0  0  0  0  0  0  0  0  0  0
   -7.1515  -46.0518    7.7515 C   0  0  0  0  0  0  0  0  0  0  0  0
   -5.0866  -40.3604   13.6803 O   0  0  0  0  0  0  0  0  0  0  0  0
   -3.0127  -40.0023    9.6585 O   0  5  0  0  0  0  0  0  0  0  0  0
   -6.6285  -44.9098    7.2123 N   0  0  0  0  0  0  0  0  0  0  0  0
   -3.9352  -41.3618   11.5994 O   0  0  0  0  0  0  0  0  0  0  0  0
   -3.7636  -38.8491   11.5393 O   0  0  0  0  0  0  0  0  0  0  0  0
   -6.6803  -43.8667    8.0935 C   0  0  1  0  0  0  0  0  0  0  0  0
   -7.2301  -44.2901    9.2774 C   0  0  2  0  0  0  0  0  0  0  0  0
   -7.4980  -43.5507   10.5646 C   0  0  0  0  0  0  0  0  0  0  0  0
   -6.2014  -43.1442   11.2741 C   0  0  0  0  0  0  0  0  0  0  0  0
   -6.2619  -42.1101   12.2394 O   0  0  0  0  0  0  0  0  0  0  0  0
  1 11  1  0  0  0  0
  3 13  1  1  0  0  0
  3 17  2  0  0  0  0
  3 20  1  0  0  0  0
  3 26  1  0  0  0  0
  4 14  1  6  0  0  0
  4 18  1  0  0  0  0
  4 21  2  0  0  0  0
  4 20  1  0  0  0  0
  5 19  1  0  0  0  0
  5  7  1  0  0  0  0
  6  7  2  0  0  0  0
  6 12  1  0  0  0  0
  7  8  1  0  0  0  0
  8  9  1  0  0  0  0
  8 10  2  0  0  0  0
 10 11  1  0  0  0  0
 11 12  2  0  0  0  0
 15 23  1  0  0  0  0
 15 16  1  0  0  0  0
 16 19  1  0  0  0  0
 19 22  1  0  0  0  0
 22  2  1  1  0  0  0
 22 23  1  0  0  0  0
 23 24  1  1  0  0  0
 24 25  1  0  0  0  0
 25 26  1  0  0  0  0
M  CHG  2  13  -1  18  -1
M  END
>  <CHROM.1>
-170.74510236,44.30049004,72.92894632,-63.04768196,111.90823315,160.52327143
-172.40979157,-62.47154473,-6.17984059,-43.47755082,8.76394047,-2.24033996
0.99177872,1.51170437

>  <Name>
ligand

>  <RI>
0

>  <Rbt.Current_Directory>
/home/itssahil/PROJECTS/Mol_Feturizer/New_Systems/rnas/3D2G

>  <Rbt.Executable>
rbdock ($Id: //depot/dev/client3/rdock/2013.1/src/exe/rbdock.cxx#4 $)

>  <Rbt.Library>
libRbt.so (2013.1, Build901 2013/11/27)

>  <Rbt.Parameter_File>
/export/apps/rDock/src/rDock_2013.1_src/data/scripts/dock_solv.prm

>  <Rbt.Receptor>
prm/pocket_docking_6.prm

>  <SCORE>
-15.4024

>  <SCORE.INTER>
-12.631

>  <SCORE.INTER.CONST>
1

>  <SCORE.INTER.POLAR>
0

>  <SCORE.INTER.ROT>
8

>  <SCORE.INTER.SOLV>
12.5124

>  <SCORE.INTER.VDW>
-21.5248

>  <SCORE.INTER.norm>
-0.485809

>  <SCORE.INTRA>
-3.18642

>  <SCORE.INTRA.DIHEDRAL>
-2.27752

>  <SCORE.INTRA.DIHEDRAL.0>
9.09364

>  <SCORE.INTRA.POLAR>
0

>  <SCORE.INTRA.POLAR.0>
0

>  <SCORE.INTRA.REPUL>
0

>  <SCORE.INTRA.REPUL.0>
0

>  <SCORE.INTRA.SOLV>
-2.41237

>  <SCORE.INTRA.SOLV.lig_0>
-78.5846

>  <SCORE.INTRA.VDW>
-0.841475

>  <SCORE.INTRA.VDW.0>
-2.81163

>  <SCORE.INTRA.norm>
-0.122555

>  <SCORE.RESTR>
0.41504

>  <SCORE.RESTR.CAVITY>
0.41504

>  <SCORE.RESTR.norm>
0.0159631

>  <SCORE.SYSTEM>
0

>  <SCORE.SYSTEM.CONST>
0

>  <SCORE.SYSTEM.DIHEDRAL>
0

>  <SCORE.SYSTEM.SOLV>
0

>  <SCORE.SYSTEM.norm>
0

>  <SCORE.heavy>
26

>  <SCORE.norm>
-0.592401

>  <RMSD>
6.658

$$$$
ligand
 OpenBabel11021811463D
libRbt.so/2013.1/901 2013/11/27
 26 27  0  0  0  0  0  0  0  0999 V2000
   -4.2190  -41.7170    3.6566 C   0  0  0  0  0  0  0  0  0  0  0  0
   -4.0722  -46.8406    8.9315 C   0  0  0  0  0  0  0  0  0  0  0  0
   -4.2138  -42.9068   11.8487 P   0  0  1  0  0  0  0  0  0  0  0  0
   -1.7311  -43.1476   10.6993 P   0  0  2  0  0  0  0  0  0  0  0  0
   -5.3914  -46.7753    6.1017 C   0  0  0  0  0  0  0  0  0  0  0  0
   -6.0962  -44.4800    5.3479 C   0  0  0  0  0  0  0  0  0  0  0  0
   -5.0941  -45.4499    5.4479 C   0  0  0  0  0  0  0  0  0  0  0  0
   -3.8041  -45.1858    4.9795 C   0  0  0  0  0  0  0  0  0  0  0  0
   -2.8609  -46.0974    5.0911 N   0  0  0  0  0  0  0  0  0  0  0  0
   -3.5322  -43.9824    4.3756 N   0  0  0  0  0  0  0  0  0  0  0  0
   -4.5242  -43.0255    4.2944 C   0  0  0  0  0  0  0  0  0  0  0  0
   -5.8020  -43.2701    4.7611 N   0  0  0  0  0  0  0  0  0  0  0  0
   -4.6682  -42.8413   13.2747 O   0  5  0  0  0  0  0  0  0  0  0  0
   -2.0981  -44.5304   10.3319 O   0  0  0  0  0  0  0  0  0  0  0  0
   -7.8936  -45.9968    8.8882 S   0  0  0  0  0  0  0  0  0  0  0  0
   -7.3983  -46.2189    7.4024 C   0  0  0  0  0  0  0  0  0  0  0  0
   -4.7657  -41.8630   10.9436 O   0  0  0  0  0  0  0  0  0  0  0  0
   -0.2924  -43.0112   10.9962 O   0  5  0  0  0  0  0  0  0  0  0  0
   -6.0700  -46.5363    7.3454 N   0  0  0  0  0  0  0  0  0  0  0  0
   -2.6362  -42.8919   11.9754 O   0  0  0  0  0  0  0  0  0  0  0  0
   -1.9777  -42.0799    9.6833 O   0  0  0  0  0  0  0  0  0  0  0  0
   -5.5014  -46.5505    8.5879 C   0  0  1  0  0  0  0  0  0  0  0  0
   -6.4521  -46.2584    9.5333 C   0  0  2  0  0  0  0  0  0  0  0  0
   -6.3561  -46.1592   11.0356 C   0  0  0  0  0  0  0  0  0  0  0  0
   -5.9660  -44.7496   11.4944 C   0  0  0  0  0  0  0  0  0  0  0  0
   -4.6051  -44.3689   11.4054 O   0  0  0  0  0  0  0  0  0  0  0  0
  1 11  1  0  0  0  0
  3 13  1  1  0  0  0
  3 17  2  0  0  0  0
  3 20  1  0  0  0  0
  3 26  1  0  0  0  0
  4 14  1  6  0  0  0
  4 18  1  0  0  0  0
  4 21  2  0  0  0  0
  4 20  1  0  0  0  0
  5 19  1  0  0  0  0
  5  7  1  0  0  0  0
  6  7  2  0  0  0  0
  6 12  1  0  0  0  0
  7  8  1  0  0  0  0
  8  9  1  0  0  0  0
  8 10  2  0  0  0  0
 10 11  1  0  0  0  0
 11 12  2  0  0  0  0
 15 23  1  0  0  0  0
 15 16  1  0  0  0  0
 16 19  1  0  0  0  0
 19 22  1  0  0  0  0
 22  2  1  1  0  0  0
 22 23  1  0  0  0  0
 23 24  1  1  0  0  0
 24 25  1  0  0  0  0
 25 26  1  0  0  0  0
M  CHG  2  13  -1  18  -1
M  END
>  <CHROM.1>
171.61833586,78.00426247,-47.59565099,-63.14458224,-92.19393100,-78.62954048
178.66859783,58.46129030,-4.47022854,-44.36775510,8.80257700,-1.93708900
0.62513749,1.52627562

>  <Name>
ligand

>  <RI>
0

>  <Rbt.Current_Directory>
/home/itssahil/PROJECTS/Mol_Feturizer/New_Systems/rnas/3D2G

>  <Rbt.Executable>
rbdock ($Id: //depot/dev/client3/rdock/2013.1/src/exe/rbdock.cxx#4 $)

>  <Rbt.Library>
libRbt.so (2013.1, Build901 2013/11/27)

>  <Rbt.Parameter_File>
/export/apps/rDock/src/rDock_2013.1_src/data/scripts/dock_solv.prm

>  <Rbt.Receptor>
prm/pocket_docking_7.prm

>  <SCORE>
-13.6807

>  <SCORE.INTER>
-9.80369

>  <SCORE.INTER.CONST>
1

>  <SCORE.INTER.POLAR>
0

>  <SCORE.INTER.ROT>
8

>  <SCORE.INTER.SOLV>
14.3961

>  <SCORE.INTER.VDW>
-20.2678

>  <SCORE.INTER.norm>
-0.377065

>  <SCORE.INTRA>
-3.87702

>  <SCORE.INTRA.DIHEDRAL>
-2.8382

>  <SCORE.INTRA.DIHEDRAL.0>
9.09364

>  <SCORE.INTRA.POLAR>
0

>  <SCORE.INTRA.POLAR.0>
0

>  <SCORE.INTRA.REPUL>
0

>  <SCORE.INTRA.REPUL.0>
0

>  <SCORE.INTRA.SOLV>
-2.69232

>  <SCORE.INTRA.SOLV.lig_0>
-78.5846

>  <SCORE.INTRA.VDW>
-1.11176

>  <SCORE.INTRA.VDW.0>
-2.81163

>  <SCORE.INTRA.norm>
-0.149116

>  <SCORE.RESTR>
0

>  <SCORE.RESTR.CAVITY>
0

>  <SCORE.RESTR.norm>
0

>  <SCORE.SYSTEM>
0

>  <SCORE.SYSTEM.CONST>
0

>  <SCORE.SYSTEM.DIHEDRAL>
0

>  <SCORE.SYSTEM.SOLV>
0

>  <SCORE.SYSTEM.norm>
0

>  <SCORE.heavy>
26

>  <SCORE.norm>
-0.526181

>  <RMSD>
6.732

$$$$
ligand
 OpenBabel11021811463D
libRbt.so/2013.1/901 2013/11/27
 26 27  0  0  0  0  0  0  0  0999 V2000
   -8.5525  -36.4470    6.6984 C   0  0  0  0  0  0  0  0  0  0  0  0
   -5.6477  -42.1570   10.7001 C   0  0  0  0  0  0  0  0  0  0  0  0
   -2.9506  -37.4705   13.2101 P   0  0  1  0  0  0  0  0  0  0  0  0
   -1.1702  -35.8157   11.9316 P   0  0  2  0  0  0  0  0  0  0  0  0
   -5.7719  -41.3708    7.6804 C   0  0  0  0  0  0  0  0  0  0  0  0
   -6.9917  -39.3304    8.5064 C   0  0  0  0  0  0  0  0  0  0  0  0
   -6.5155  -40.0837    7.4290 C   0  0  0  0  0  0  0  0  0  0  0  0
   -6.6902  -39.6328    6.1178 C   0  0  0  0  0  0  0  0  0  0  0  0
   -6.2253  -40.3389    5.1086 N   0  0  0  0  0  0  0  0  0  0  0  0
   -7.3747  -38.4649    5.8850 N   0  0  0  0  0  0  0  0  0  0  0  0
   -7.8287  -37.7206    6.9557 C   0  0  0  0  0  0  0  0  0  0  0  0
   -7.6554  -38.1503    8.2579 N   0  0  0  0  0  0  0  0  0  0  0  0
   -3.0678  -37.9428   14.6270 O   0  5  0  0  0  0  0  0  0  0  0  0
   -0.0240  -35.0268   12.4274 O   0  0  0  0  0  0  0  0  0  0  0  0
   -2.4769  -40.3256    9.3182 S   0  0  0  0  0  0  0  0  0  0  0  0
   -3.5295  -40.4867    8.1484 C   0  0  0  0  0  0  0  0  0  0  0  0
   -4.1760  -36.8617   12.6260 O   0  0  0  0  0  0  0  0  0  0  0  0
   -2.1946  -34.9704   11.2894 O   0  5  0  0  0  0  0  0  0  0  0  0
   -4.6738  -41.1054    8.5681 N   0  0  0  0  0  0  0  0  0  0  0  0
   -1.7006  -36.5009   13.2591 O   0  0  0  0  0  0  0  0  0  0  0  0
   -0.8885  -36.8611   10.9016 O   0  0  0  0  0  0  0  0  0  0  0  0
   -4.6032  -41.4548    9.8874 C   0  0  1  0  0  0  0  0  0  0  0  0
   -3.3970  -41.0556   10.4060 C   0  0  2  0  0  0  0  0  0  0  0  0
   -2.8267  -41.1836   11.7967 C   0  0  0  0  0  0  0  0  0  0  0  0
   -3.1673  -39.9713   12.6709 C   0  0  0  0  0  0  0  0  0  0  0  0
   -2.4775  -38.7581   12.4319 O   0  0  0  0  0  0  0  0  0  0  0  0
  1 11  1  0  0  0  0
  3 13  1  1  0  0  0
  3 17  2  0  0  0  0
  3 20  1  0  0  0  0
  3 26  1  0  0  0  0
  4 14  1  1  0  0  0
  4 18  1  0  0  0  0
  4 21  2  0  0  0  0
  4 20  1  0  0  0  0
  5 19  1  0  0  0  0
  5  7  1  0  0  0  0
  6  7  2  0  0  0  0
  6 12  1  0  0  0  0
  7  8  1  0  0  0  0
  8  9  1  0  0  0  0
  8 10  2  0  0  0  0
 10 11  1  0  0  0  0
 11 12  2  0  0  0  0
 15 23  1  0  0  0  0
 15 16  1  0  0  0  0
 16 19  1  0  0  0  0
 19 22  1  0  0  0  0
 22  2  1  1  0  0  0
 22 23  1  0  0  0  0
 23 24  1  1  0  0  0
 24 25  1  0  0  0  0
 25 26  1  0  0  0  0
M  CHG  2  13  -1  18  -1
M  END
>  <CHROM.1>
177.16820586,-75.77135247,-54.49528710,-179.73153503,89.08693012,-74.27234127
172.70368618,47.72932356,-3.96004497,-38.60773189,10.21057591,2.76389208
0.84864805,-3.12637042

>  <Name>
ligand

>  <RI>
0

>  <Rbt.Current_Directory>
/home/itssahil/PROJECTS/Mol_Feturizer/New_Systems/rnas/3D2G

>  <Rbt.Executable>
rbdock ($Id: //depot/dev/client3/rdock/2013.1/src/exe/rbdock.cxx#4 $)

>  <Rbt.Library>
libRbt.so (2013.1, Build901 2013/11/27)

>  <Rbt.Parameter_File>
/export/apps/rDock/src/rDock_2013.1_src/data/scripts/dock_solv.prm

>  <Rbt.Receptor>
prm/blind_docking_80.prm

>  <SCORE>
-13.0492

>  <SCORE.INTER>
-10.0287

>  <SCORE.INTER.CONST>
1

>  <SCORE.INTER.POLAR>
0

>  <SCORE.INTER.ROT>
8

>  <SCORE.INTER.SOLV>
14.5029

>  <SCORE.INTER.VDW>
-20.4534

>  <SCORE.INTER.norm>
-0.385719

>  <SCORE.INTRA>
-3.02047

>  <SCORE.INTRA.DIHEDRAL>
-2.5956

>  <SCORE.INTRA.DIHEDRAL.0>
9.09364

>  <SCORE.INTRA.POLAR>
0

>  <SCORE.INTRA.POLAR.0>
0

>  <SCORE.INTRA.REPUL>
0

>  <SCORE.INTRA.REPUL.0>
0

>  <SCORE.INTRA.SOLV>
-1.33316

>  <SCORE.INTRA.SOLV.lig_0>
-78.5846

>  <SCORE.INTRA.VDW>
-1.05609

>  <SCORE.INTRA.VDW.0>
-2.81163

>  <SCORE.INTRA.norm>
-0.116172

>  <SCORE.RESTR>
0

>  <SCORE.RESTR.CAVITY>
0

>  <SCORE.RESTR.norm>
0

>  <SCORE.SYSTEM>
0

>  <SCORE.SYSTEM.CONST>
0

>  <SCORE.SYSTEM.DIHEDRAL>
0

>  <SCORE.SYSTEM.SOLV>
0

>  <SCORE.SYSTEM.norm>
0

>  <SCORE.heavy>
26

>  <SCORE.norm>
-0.50189

>  <RMSD>
6.809

$$$$
ligand
 OpenBabel11021811463D
libRbt.so/2013.1/901 2013/11/27
 26 27  0  0  0  0  0  0  0  0999 V2000
   -6.0426  -41.0180    0.1695 C   0  0  0  0  0  0  0  0  0  0  0  0
   -8.1808  -38.7358    7.6696 C   0  0  0  0  0  0  0  0  0  0  0  0
   -7.1560  -35.9537   11.2257 P   0  0  1  0  0  0  0  0  0  0  0  0
   -4.8951  -34.9739   12.4385 P   0  0  2  0  0  0  0  0  0  0  0  0
   -5.9297  -39.7767    5.7718 C   0  0  0  0  0  0  0  0  0  0  0  0
   -4.8664  -40.7625    3.7149 C   0  0  0  0  0  0  0  0  0  0  0  0
   -5.9467  -40.0932    4.2980 C   0  0  0  0  0  0  0  0  0  0  0  0
   -7.0628  -39.7477    3.5311 C   0  0  0  0  0  0  0  0  0  0  0  0
   -8.0835  -39.1318    4.0896 N   0  0  0  0  0  0  0  0  0  0  0  0
   -7.0777  -40.0270    2.1863 N   0  0  0  0  0  0  0  0  0  0  0  0
   -6.0127  -40.7010    1.6223 C   0  0  0  0  0  0  0  0  0  0  0  0
   -4.9062  -41.0562    2.3707 N   0  0  0  0  0  0  0  0  0  0  0  0
   -6.7862  -37.2823   11.8108 O   0  5  0  0  0  0  0  0  0  0  0  0
   -5.8014  -34.1607   13.2747 O   0  0  0  0  0  0  0  0  0  0  0  0
   -6.2472  -35.9655    5.6939 S   0  0  0  0  0  0  0  0  0  0  0  0
   -5.6539  -37.3809    5.3103 C   0  0  0  0  0  0  0  0  0  0  0  0
   -8.2127  -35.1974   11.9503 O   0  0  0  0  0  0  0  0  0  0  0  0
   -3.6260  -34.2789   12.1506 O   0  5  0  0  0  0  0  0  0  0  0  0
   -6.2983  -38.3999    5.9541 N   0  0  0  0  0  0  0  0  0  0  0  0
   -5.7650  -35.2043   11.1334 O   0  0  0  0  0  0  0  0  0  0  0  0
   -4.4516  -36.2906   12.9887 O   0  0  0  0  0  0  0  0  0  0  0  0
   -7.2729  -37.9319    6.7898 C   0  0  1  0  0  0  0  0  0  0  0  0
   -7.3259  -36.5627    6.7149 C   0  0  2  0  0  0  0  0  0  0  0  0
   -8.2191  -35.5672    7.4127 C   0  0  0  0  0  0  0  0  0  0  0  0
   -7.7211  -35.2401    8.8250 C   0  0  0  0  0  0  0  0  0  0  0  0
   -7.5643  -36.3061    9.7437 O   0  0  0  0  0  0  0  0  0  0  0  0
  1 11  1  0  0  0  0
  3 13  1  1  0  0  0
  3 17  2  0  0  0  0
  3 20  1  0  0  0  0
  3 26  1  0  0  0  0
  4 14  1  1  0  0  0
  4 18  1  0  0  0  0
  4 21  2  0  0  0  0
  4 20  1  0  0  0  0
  5 19  1  0  0  0  0
  5  7  1  0  0  0  0
  6  7  2  0  0  0  0
  6 12  1  0  0  0  0
  7  8  1  0  0  0  0
  8  9  1  0  0  0  0
  8 10  2  0  0  0  0
 10 11  1  0  0  0  0
 11 12  2  0  0  0  0
 15 23  1  0  0  0  0
 15 16  1  0  0  0  0
 16 19  1  0  0  0  0
 19 22  1  0  0  0  0
 22  2  1  6  0  0  0
 22 23  1  0  0  0  0
 23 24  1  6  0  0  0
 24 25  1  0  0  0  0
 25 26  1  0  0  0  0
M  CHG  2  13  -1  18  -1
M  END
>  <CHROM.1>
-58.36065719,-53.99526943,132.00604797,-60.43598776,-98.41372077,-57.44654850
-175.50661875,-167.80451232,-6.38107749,-37.25550051,7.79312236,-1.60799011
-0.33809808,1.08148979

>  <Name>
ligand

>  <RI>
0

>  <Rbt.Current_Directory>
/home/itssahil/PROJECTS/Mol_Feturizer/New_Systems/rnas/3D2G

>  <Rbt.Executable>
rbdock ($Id: //depot/dev/client3/rdock/2013.1/src/exe/rbdock.cxx#4 $)

>  <Rbt.Library>
libRbt.so (2013.1, Build901 2013/11/27)

>  <Rbt.Parameter_File>
/export/apps/rDock/src/rDock_2013.1_src/data/scripts/dock_solv.prm

>  <Rbt.Receptor>
prm/blind_docking_100.prm

>  <SCORE>
-22.7734

>  <SCORE.INTER>
-21.3557

>  <SCORE.INTER.CONST>
1

>  <SCORE.INTER.POLAR>
0

>  <SCORE.INTER.ROT>
8

>  <SCORE.INTER.SOLV>
19.0107

>  <SCORE.INTER.VDW>
-29.5074

>  <SCORE.INTER.norm>
-0.821372

>  <SCORE.INTRA>
-2.31048

>  <SCORE.INTRA.DIHEDRAL>
-4.03308

>  <SCORE.INTRA.DIHEDRAL.0>
9.09364

>  <SCORE.INTRA.POLAR>
0

>  <SCORE.INTRA.POLAR.0>
0

>  <SCORE.INTRA.REPUL>
0

>  <SCORE.INTRA.REPUL.0>
0

>  <SCORE.INTRA.SOLV>
1.55577

>  <SCORE.INTRA.SOLV.lig_0>
-78.5846

>  <SCORE.INTRA.VDW>
-1.07183

>  <SCORE.INTRA.VDW.0>
-2.81163

>  <SCORE.INTRA.norm>
-0.0888647

>  <SCORE.RESTR>
0.892782

>  <SCORE.RESTR.CAVITY>
0.892782

>  <SCORE.RESTR.norm>
0.0343378

>  <SCORE.SYSTEM>
0

>  <SCORE.SYSTEM.CONST>
0

>  <SCORE.SYSTEM.DIHEDRAL>
0

>  <SCORE.SYSTEM.SOLV>
0

>  <SCORE.SYSTEM.norm>
0

>  <SCORE.heavy>
26

>  <SCORE.norm>
-0.875898

>  <RMSD>
6.876

$$$$
ligand
 OpenBabel11021811463D
libRbt.so/2013.1/901 2013/11/27
 26 27  0  0  0  0  0  0  0  0999 V2000
   -5.9700  -44.9807    9.3092 C   0  0  0  0  0  0  0  0  0  0  0  0
   -6.6974  -38.3905    5.3369 C   0  0  0  0  0  0  0  0  0  0  0  0
   -6.4110  -41.3235    1.8958 P   0  0  1  0  0  0  0  0  0  0  0  0
   -7.0423  -42.8976    4.0561 P   0  0  2  0  0  0  0  0  0  0  0  0
   -7.4777  -39.5721    8.1204 C   0  0  0  0  0  0  0  0  0  0  0  0
   -7.8551  -42.0531    7.9328 C   0  0  0  0  0  0  0  0  0  0  0  0
   -7.0955  -40.9947    8.4405 C   0  0  0  0  0  0  0  0  0  0  0  0
   -5.9587  -41.2463    9.2135 C   0  0  0  0  0  0  0  0  0  0  0  0
   -5.2386  -40.2456    9.6751 N   0  0  0  0  0  0  0  0  0  0  0  0
   -5.6126  -42.5411    9.5141 N   0  0  0  0  0  0  0  0  0  0  0  0
   -6.3604  -43.5800    8.9963 C   0  0  0  0  0  0  0  0  0  0  0  0
   -7.4822  -43.3459    8.2234 N   0  0  0  0  0  0  0  0  0  0  0  0
   -4.9944  -41.3173    2.3831 O   0  5  0  0  0  0  0  0  0  0  0  0
   -8.2319  -42.1099    4.4386 O   0  0  0  0  0  0  0  0  0  0  0  0
  -10.2601  -39.9989    5.5304 S   0  0  0  0  0  0  0  0  0  0  0  0
   -9.5590  -40.1287    6.9425 C   0  0  0  0  0  0  0  0  0  0  0  0
   -6.5923  -41.1719    0.4269 O   0  0  0  0  0  0  0  0  0  0  0  0
   -5.8189  -42.4271    4.7331 O   0  5  0  0  0  0  0  0  0  0  0  0
   -8.3121  -39.5687    6.9507 N   0  0  0  0  0  0  0  0  0  0  0  0
   -6.9864  -42.6740    2.4877 O   0  0  0  0  0  0  0  0  0  0  0  0
   -7.0635  -44.3612    4.3570 O   0  0  0  0  0  0  0  0  0  0  0  0
   -7.9774  -39.0656    5.7250 C   0  0  1  0  0  0  0  0  0  0  0  0
   -9.0155  -39.2581    4.8485 C   0  0  2  0  0  0  0  0  0  0  0  0
   -9.1659  -38.8835    3.3950 C   0  0  0  0  0  0  0  0  0  0  0  0
   -8.4518  -39.8751    2.4695 C   0  0  0  0  0  0  0  0  0  0  0  0
   -7.0873  -40.1601    2.7182 O   0  0  0  0  0  0  0  0  0  0  0  0
  1 11  1  0  0  0  0
  3 13  1  1  0  0  0
  3 17  2  0  0  0  0
  3 20  1  0  0  0  0
  3 26  1  0  0  0  0
  4 14  1  1  0  0  0
  4 18  1  0  0  0  0
  4 21  2  0  0  0  0
  4 20  1  0  0  0  0
  5 19  1  0  0  0  0
  5  7  1  0  0  0  0
  6  7  2  0  0  0  0
  6 12  1  0  0  0  0
  7  8  1  0  0  0  0
  8  9  1  0  0  0  0
  8 10  2  0  0  0  0
 10 11  1  0  0  0  0
 11 12  2  0  0  0  0
 15 23  1  0  0  0  0
 15 16  1  0  0  0  0
 16 19  1  0  0  0  0
 19 22  1  0  0  0  0
 22  2  1  1  0  0  0
 22 23  1  0  0  0  0
 23 24  1  1  0  0  0
 24 25  1  0  0  0  0
 25 26  1  0  0  0  0
M  CHG  2  13  -1  18  -1
M  END
>  <CHROM.1>
61.52035230,65.95948190,-20.05251814,78.34368263,-100.57779970,-52.91778089
171.67656971,178.59815011,-7.30682365,-41.29433624,5.33115772,-1.42919707
0.98363321,-1.52656762

>  <Name>
ligand

>  <RI>
0

>  <Rbt.Current_Directory>
/home/itssahil/PROJECTS/Mol_Feturizer/New_Systems/rnas/3D2G

>  <Rbt.Executable>
rbdock ($Id: //depot/dev/client3/rdock/2013.1/src/exe/rbdock.cxx#4 $)

>  <Rbt.Library>
libRbt.so (2013.1, Build901 2013/11/27)

>  <Rbt.Parameter_File>
/export/apps/rDock/src/rDock_2013.1_src/data/scripts/dock_solv.prm

>  <Rbt.Receptor>
prm/pocket_docking_5.prm

>  <SCORE>
-16.5796

>  <SCORE.INTER>
-11.7519

>  <SCORE.INTER.CONST>
1

>  <SCORE.INTER.POLAR>
0

>  <SCORE.INTER.ROT>
8

>  <SCORE.INTER.SOLV>
11.121

>  <SCORE.INTER.VDW>
-20.4749

>  <SCORE.INTER.norm>
-0.451997

>  <SCORE.INTRA>
-4.82773

>  <SCORE.INTRA.DIHEDRAL>
-2.94181

>  <SCORE.INTRA.DIHEDRAL.0>
9.09364

>  <SCORE.INTRA.POLAR>
0

>  <SCORE.INTRA.POLAR.0>
0

>  <SCORE.INTRA.REPUL>
0

>  <SCORE.INTRA.REPUL.0>
0

>  <SCORE.INTRA.SOLV>
-1.88009

>  <SCORE.INTRA.SOLV.lig_0>
-78.5846

>  <SCORE.INTRA.VDW>
-2.41677

>  <SCORE.INTRA.VDW.0>
-2.81163

>  <SCORE.INTRA.norm>
-0.185682

>  <SCORE.RESTR>
0

>  <SCORE.RESTR.CAVITY>
0

>  <SCORE.RESTR.norm>
0

>  <SCORE.SYSTEM>
0

>  <SCORE.SYSTEM.CONST>
0

>  <SCORE.SYSTEM.DIHEDRAL>
0

>  <SCORE.SYSTEM.SOLV>
0

>  <SCORE.SYSTEM.norm>
0

>  <SCORE.heavy>
26

>  <SCORE.norm>
-0.637678

>  <RMSD>
7.002

$$$$
ligand
 OpenBabel11021811463D
libRbt.so/2013.1/901 2013/11/27
 26 27  0  0  0  0  0  0  0  0999 V2000
   -3.4616  -43.7764    4.1438 C   0  0  0  0  0  0  0  0  0  0  0  0
   -5.2125  -46.6064   10.2230 C   0  0  0  0  0  0  0  0  0  0  0  0
   -4.3756  -41.6556   11.7565 P   0  0  1  0  0  0  0  0  0  0  0  0
   -4.7519  -41.2462    9.0669 P   0  0  2  0  0  0  0  0  0  0  0  0
   -7.2119  -45.9134    7.9264 C   0  0  0  0  0  0  0  0  0  0  0  0
   -4.9590  -44.9379    7.3729 C   0  0  0  0  0  0  0  0  0  0  0  0
   -6.2271  -45.3381    6.9406 C   0  0  0  0  0  0  0  0  0  0  0  0
   -6.5770  -45.2444    5.5909 C   0  0  0  0  0  0  0  0  0  0  0  0
   -7.7669  -45.6378    5.1877 N   0  0  0  0  0  0  0  0  0  0  0  0
   -5.6852  -44.7127    4.6916 N   0  0  0  0  0  0  0  0  0  0  0  0
   -4.4303  -44.3337    5.1253 C   0  0  0  0  0  0  0  0  0  0  0  0
   -4.0678  -44.4287    6.4557 N   0  0  0  0  0  0  0  0  0  0  0  0
   -3.2493  -40.6774   11.6191 O   0  5  0  0  0  0  0  0  0  0  0  0
   -5.8370  -40.3754    9.5631 O   0  0  0  0  0  0  0  0  0  0  0  0
   -7.5098  -43.5080   10.8856 S   0  0  0  0  0  0  0  0  0  0  0  0
   -7.8472  -44.1039    9.4596 C   0  0  0  0  0  0  0  0  0  0  0  0
   -5.6341  -41.1179   12.3401 O   0  0  0  0  0  0  0  0  0  0  0  0
   -5.1292  -41.9616    7.8331 O   0  5  0  0  0  0  0  0  0  0  0  0
   -7.0901  -45.2044    9.1701 N   0  0  0  0  0  0  0  0  0  0  0  0
   -4.5305  -42.2302   10.2899 O   0  0  0  0  0  0  0  0  0  0  0  0
   -3.4584  -40.5911    8.7055 O   0  0  0  0  0  0  0  0  0  0  0  0
   -6.2115  -45.4909   10.1768 C   0  0  1  0  0  0  0  0  0  0  0  0
   -6.3701  -44.5879   11.1979 C   0  0  2  0  0  0  0  0  0  0  0  0
   -5.6692  -44.4650   12.5281 C   0  0  0  0  0  0  0  0  0  0  0  0
   -4.1796  -44.1422   12.3647 C   0  0  0  0  0  0  0  0  0  0  0  0
   -3.7495  -42.8175   12.6197 O   0  0  0  0  0  0  0  0  0  0  0  0
  1 11  1  0  0  0  0
  3 13  1  6  0  0  0
  3 17  2  0  0  0  0
  3 20  1  0  0  0  0
  3 26  1  0  0  0  0
  4 14  1  1  0  0  0
  4 18  1  0  0  0  0
  4 21  2  0  0  0  0
  4 20  1  0  0  0  0
  5 19  1  0  0  0  0
  5  7  1  0  0  0  0
  6  7  2  0  0  0  0
  6 12  1  0  0  0  0
  7  8  1  0  0  0  0
  8  9  1  0  0  0  0
  8 10  2  0  0  0  0
 10 11  1  0  0  0  0
 11 12  2  0  0  0  0
 15 23  1  0  0  0  0
 15 16  1  0  0  0  0
 16 19  1  0  0  0  0
 19 22  1  0  0  0  0
 22  2  1  1  0  0  0
 22 23  1  0  0  0  0
 23 24  1  1  0  0  0
 24 25  1  0  0  0  0
 25 26  1  0  0  0  0
M  CHG  2  13  -1  18  -1
M  END
>  <CHROM.1>
-54.85607174,91.50975290,37.93962815,-48.61039585,-115.82983095,104.09264887
-59.49391939,-146.20849843,-5.39196167,-43.36437657,9.24318891,-1.83906011
0.96862675,1.33592957

>  <Name>
ligand

>  <RI>
0

>  <Rbt.Current_Directory>
/home/itssahil/PROJECTS/Mol_Feturizer/New_Systems/rnas/3D2G

>  <Rbt.Executable>
rbdock ($Id: //depot/dev/client3/rdock/2013.1/src/exe/rbdock.cxx#4 $)

>  <Rbt.Library>
libRbt.so (2013.1, Build901 2013/11/27)

>  <Rbt.Parameter_File>
/export/apps/rDock/src/rDock_2013.1_src/data/scripts/dock_solv.prm

>  <Rbt.Receptor>
prm/pocket_docking_5.prm

>  <SCORE>
-12.7647

>  <SCORE.INTER>
-10.3503

>  <SCORE.INTER.CONST>
1

>  <SCORE.INTER.POLAR>
0

>  <SCORE.INTER.ROT>
8

>  <SCORE.INTER.SOLV>
11.551

>  <SCORE.INTER.VDW>
-19.6838

>  <SCORE.INTER.norm>
-0.398087

>  <SCORE.INTRA>
-2.41446

>  <SCORE.INTRA.DIHEDRAL>
1.53336

>  <SCORE.INTRA.DIHEDRAL.0>
9.09364

>  <SCORE.INTRA.POLAR>
0

>  <SCORE.INTRA.POLAR.0>
0

>  <SCORE.INTRA.REPUL>
0

>  <SCORE.INTRA.REPUL.0>
0

>  <SCORE.INTRA.SOLV>
0.364373

>  <SCORE.INTRA.SOLV.lig_0>
-78.5846

>  <SCORE.INTRA.VDW>
-3.36333

>  <SCORE.INTRA.VDW.0>
-2.81163

>  <SCORE.INTRA.norm>
-0.0928638

>  <SCORE.RESTR>
0

>  <SCORE.RESTR.CAVITY>
0

>  <SCORE.RESTR.norm>
0

>  <SCORE.SYSTEM>
0

>  <SCORE.SYSTEM.CONST>
0

>  <SCORE.SYSTEM.DIHEDRAL>
0

>  <SCORE.SYSTEM.SOLV>
0

>  <SCORE.SYSTEM.norm>
0

>  <SCORE.heavy>
26

>  <SCORE.norm>
-0.490951

>  <RMSD>
7.008

$$$$
ligand
 OpenBabel11021811463D
libRbt.so/2013.1/901 2013/11/27
 26 27  0  0  0  0  0  0  0  0999 V2000
   -4.0823  -41.7530    3.6965 C   0  0  0  0  0  0  0  0  0  0  0  0
   -4.0920  -46.6262    8.9715 C   0  0  0  0  0  0  0  0  0  0  0  0
   -4.3674  -42.4746   11.4009 P   0  0  1  0  0  0  0  0  0  0  0  0
   -5.2973  -40.2723   12.7530 P   0  0  2  0  0  0  0  0  0  0  0  0
   -5.5116  -46.7201    6.1916 C   0  0  0  0  0  0  0  0  0  0  0  0
   -5.8438  -44.2472    5.8633 C   0  0  0  0  0  0  0  0  0  0  0  0
   -5.1507  -45.4147    5.5295 C   0  0  0  0  0  0  0  0  0  0  0  0
   -4.0972  -45.3747    4.6122 C   0  0  0  0  0  0  0  0  0  0  0  0
   -3.4381  -46.4746    4.3142 N   0  0  0  0  0  0  0  0  0  0  0  0
   -3.7715  -44.1885    4.0008 N   0  0  0  0  0  0  0  0  0  0  0  0
   -4.4520  -43.0382    4.3475 C   0  0  0  0  0  0  0  0  0  0  0  0
   -5.4904  -43.0618    5.2594 N   0  0  0  0  0  0  0  0  0  0  0  0
   -4.0927  -41.5998   10.2161 O   0  5  0  0  0  0  0  0  0  0  0  0
   -6.5662  -40.0195   13.4656 O   0  0  0  0  0  0  0  0  0  0  0  0
   -7.9325  -45.8751    9.0301 S   0  0  0  0  0  0  0  0  0  0  0  0
   -7.4846  -46.1527    7.5386 C   0  0  0  0  0  0  0  0  0  0  0  0
   -3.1960  -42.7831   12.2647 O   0  0  0  0  0  0  0  0  0  0  0  0
   -5.0290  -39.2609   11.7131 O   0  5  0  0  0  0  0  0  0  0  0  0
   -6.1516  -46.4410    7.4473 N   0  0  0  0  0  0  0  0  0  0  0  0
   -5.5415  -41.7144   12.1416 O   0  0  0  0  0  0  0  0  0  0  0  0
   -4.0433  -40.2743   13.5658 O   0  0  0  0  0  0  0  0  0  0  0  0
   -5.5392  -46.3856    8.6677 C   0  0  1  0  0  0  0  0  0  0  0  0
   -6.4629  -46.0733    9.6333 C   0  0  2  0  0  0  0  0  0  0  0  0
   -6.3165  -45.9041   11.1251 C   0  0  0  0  0  0  0  0  0  0  0  0
   -5.9977  -44.4550   11.5102 C   0  0  0  0  0  0  0  0  0  0  0  0
   -5.0128  -43.7646   10.7631 O   0  0  0  0  0  0  0  0  0  0  0  0
  1 11  1  0  0  0  0
  3 13  1  6  0  0  0
  3 17  2  0  0  0  0
  3 20  1  0  0  0  0
  3 26  1  0  0  0  0
  4 14  1  1  0  0  0
  4 18  1  0  0  0  0
  4 21  2  0  0  0  0
  4 20  1  0  0  0  0
  5 19  1  0  0  0  0
  5  7  1  0  0  0  0
  6  7  2  0  0  0  0
  6 12  1  0  0  0  0
  7  8  1  0  0  0  0
  8  9  1  0  0  0  0
  8 10  2  0  0  0  0
 10 11  1  0  0  0  0
 11 12  2  0  0  0  0
 15 23  1  0  0  0  0
 15 16  1  0  0  0  0
 16 19  1  0  0  0  0
 19 22  1  0  0  0  0
 22  2  1  1  0  0  0
 22 23  1  0  0  0  0
 23 24  1  1  0  0  0
 24 25  1  0  0  0  0
 25 26  1  0  0  0  0
M  CHG  2  13  -1  18  -1
M  END
>  <CHROM.1>
-64.08510494,83.40835513,-23.39169894,-173.66071553,-90.04983562,-45.07869522
-161.51975713,-147.02468040,-5.24827770,-43.61676059,9.15165536,-1.57595493
1.13062820,1.03632439

>  <Name>
ligand

>  <RI>
0

>  <Rbt.Current_Directory>
/home/itssahil/PROJECTS/Mol_Feturizer/New_Systems/rnas/3D2G

>  <Rbt.Executable>
rbdock ($Id: //depot/dev/client3/rdock/2013.1/src/exe/rbdock.cxx#4 $)

>  <Rbt.Library>
libRbt.so (2013.1, Build901 2013/11/27)

>  <Rbt.Parameter_File>
/export/apps/rDock/src/rDock_2013.1_src/data/scripts/dock_solv.prm

>  <Rbt.Receptor>
prm/pocket_docking_6.prm

>  <SCORE>
-12.9383

>  <SCORE.INTER>
-11.6484

>  <SCORE.INTER.CONST>
1

>  <SCORE.INTER.POLAR>
0

>  <SCORE.INTER.ROT>
8

>  <SCORE.INTER.SOLV>
10.9151

>  <SCORE.INTER.VDW>
-20.3373

>  <SCORE.INTER.norm>
-0.448017

>  <SCORE.INTRA>
-1.28983

>  <SCORE.INTRA.DIHEDRAL>
-0.655647

>  <SCORE.INTRA.DIHEDRAL.0>
9.09364

>  <SCORE.INTRA.POLAR>
0

>  <SCORE.INTRA.POLAR.0>
0

>  <SCORE.INTRA.REPUL>
0

>  <SCORE.INTRA.REPUL.0>
0

>  <SCORE.INTRA.SOLV>
-0.598864

>  <SCORE.INTRA.SOLV.lig_0>
-78.5846

>  <SCORE.INTRA.VDW>
-0.66257

>  <SCORE.INTRA.VDW.0>
-2.81163

>  <SCORE.INTRA.norm>
-0.0496087

>  <SCORE.RESTR>
0

>  <SCORE.RESTR.CAVITY>
0

>  <SCORE.RESTR.norm>
0

>  <SCORE.SYSTEM>
0

>  <SCORE.SYSTEM.CONST>
0

>  <SCORE.SYSTEM.DIHEDRAL>
0

>  <SCORE.SYSTEM.SOLV>
0

>  <SCORE.SYSTEM.norm>
0

>  <SCORE.heavy>
26

>  <SCORE.norm>
-0.497626

>  <RMSD>
7.036

$$$$
ligand
 OpenBabel11021811463D
libRbt.so/2013.1/901 2013/11/27
 26 27  0  0  0  0  0  0  0  0999 V2000
   -4.3457  -42.9545    3.0206 C   0  0  0  0  0  0  0  0  0  0  0  0
   -3.7601  -45.9408    9.4887 C   0  0  0  0  0  0  0  0  0  0  0  0
   -5.1512  -41.6330   10.2987 P   0  0  1  0  0  0  0  0  0  0  0  0
   -2.4580  -41.4698   10.8117 P   0  0  2  0  0  0  0  0  0  0  0  0
   -4.8070  -47.2161    6.8372 C   0  0  0  0  0  0  0  0  0  0  0  0
   -4.5017  -44.7796    6.2861 C   0  0  0  0  0  0  0  0  0  0  0  0
   -4.6992  -46.0901    5.8406 C   0  0  0  0  0  0  0  0  0  0  0  0
   -4.7595  -46.3713    4.4730 C   0  0  0  0  0  0  0  0  0  0  0  0
   -4.9296  -47.6096    4.0597 N   0  0  0  0  0  0  0  0  0  0  0  0
   -4.6702  -45.3466    3.5626 N   0  0  0  0  0  0  0  0  0  0  0  0
   -4.4609  -44.0577    4.0115 C   0  0  0  0  0  0  0  0  0  0  0  0
   -4.3907  -43.7665    5.3608 N   0  0  0  0  0  0  0  0  0  0  0  0
   -5.2942  -40.9519   11.6254 O   0  5  0  0  0  0  0  0  0  0  0  0
   -1.3262  -40.9777   10.0000 O   0  0  0  0  0  0  0  0  0  0  0  0
   -7.6474  -46.3196    9.2372 S   0  0  0  0  0  0  0  0  0  0  0  0
   -6.9891  -46.8706    7.9085 C   0  0  0  0  0  0  0  0  0  0  0  0
   -6.2100  -41.3322    9.2978 O   0  0  0  0  0  0  0  0  0  0  0  0
   -2.3059  -42.8902   11.1799 O   0  5  0  0  0  0  0  0  0  0  0  0
   -5.6253  -46.7846    7.9366 N   0  0  0  0  0  0  0  0  0  0  0  0
   -3.6903  -41.2271    9.8445 O   0  0  0  0  0  0  0  0  0  0  0  0
   -2.7050  -40.7967   12.1228 O   0  0  0  0  0  0  0  0  0  0  0  0
   -5.1798  -46.2149    9.0960 C   0  0  1  0  0  0  0  0  0  0  0  0
   -6.2487  -45.9154    9.9028 C   0  0  2  0  0  0  0  0  0  0  0  0
   -6.3084  -45.2958   11.2769 C   0  0  0  0  0  0  0  0  0  0  0  0
   -6.2450  -43.7653   11.2200 C   0  0  0  0  0  0  0  0  0  0  0  0
   -5.0845  -43.1627   10.6766 O   0  0  0  0  0  0  0  0  0  0  0  0
  1 11  1  0  0  0  0
  3 13  1  1  0  0  0
  3 17  2  0  0  0  0
  3 20  1  0  0  0  0
  3 26  1  0  0  0  0
  4 14  1  6  0  0  0
  4 18  1  0  0  0  0
  4 21  2  0  0  0  0
  4 20  1  0  0  0  0
  5 19  1  0  0  0  0
  5  7  1  0  0  0  0
  6  7  2  0  0  0  0
  6 12  1  0  0  0  0
  7  8  1  0  0  0  0
  8  9  1  0  0  0  0
  8 10  2  0  0  0  0
 10 11  1  0  0  0  0
 11 12  2  0  0  0  0
 15 23  1  0  0  0  0
 15 16  1  0  0  0  0
 16 19  1  0  0  0  0
 19 22  1  0  0  0  0
 22  2  1  1  0  0  0
 22 23  1  0  0  0  0
 23 24  1  1  0  0  0
 24 25  1  0  0  0  0
 25 26  1  0  0  0  0
M  CHG  2  13  -1  18  -1
M  END
>  <CHROM.1>
52.71456695,85.18305875,42.37819965,179.22092005,-97.27746726,-61.92066771
165.60634247,67.09606289,-4.75617121,-43.95800469,8.62919516,-1.91337048
0.91575081,1.18018472

>  <Name>
ligand

>  <RI>
0

>  <Rbt.Current_Directory>
/home/itssahil/PROJECTS/Mol_Feturizer/New_Systems/rnas/3D2G

>  <Rbt.Executable>
rbdock ($Id: //depot/dev/client3/rdock/2013.1/src/exe/rbdock.cxx#4 $)

>  <Rbt.Library>
libRbt.so (2013.1, Build901 2013/11/27)

>  <Rbt.Parameter_File>
/export/apps/rDock/src/rDock_2013.1_src/data/scripts/dock_solv.prm

>  <Rbt.Receptor>
prm/pocket_docking_6.prm

>  <SCORE>
-9.3024

>  <SCORE.INTER>
-6.35187

>  <SCORE.INTER.CONST>
1

>  <SCORE.INTER.POLAR>
0

>  <SCORE.INTER.ROT>
8

>  <SCORE.INTER.SOLV>
8.74118

>  <SCORE.INTER.VDW>
-16.0816

>  <SCORE.INTER.norm>
-0.244303

>  <SCORE.INTRA>
-2.95054

>  <SCORE.INTRA.DIHEDRAL>
-3.3653

>  <SCORE.INTRA.DIHEDRAL.0>
9.09364

>  <SCORE.INTRA.POLAR>
0

>  <SCORE.INTRA.POLAR.0>
0

>  <SCORE.INTRA.REPUL>
0

>  <SCORE.INTRA.REPUL.0>
0

>  <SCORE.INTRA.SOLV>
-0.0227739

>  <SCORE.INTRA.SOLV.lig_0>
-78.5846

>  <SCORE.INTRA.VDW>
-1.2565

>  <SCORE.INTRA.VDW.0>
-2.81163

>  <SCORE.INTRA.norm>
-0.113482

>  <SCORE.RESTR>
0

>  <SCORE.RESTR.CAVITY>
0

>  <SCORE.RESTR.norm>
0

>  <SCORE.SYSTEM>
0

>  <SCORE.SYSTEM.CONST>
0

>  <SCORE.SYSTEM.DIHEDRAL>
0

>  <SCORE.SYSTEM.SOLV>
0

>  <SCORE.SYSTEM.norm>
0

>  <SCORE.heavy>
26

>  <SCORE.norm>
-0.357785

>  <RMSD>
7.047

$$$$
ligand
 OpenBabel11021811463D
libRbt.so/2013.1/901 2013/11/27
 26 27  0  0  0  0  0  0  0  0999 V2000
   -4.6568  -42.7965    3.8787 C   0  0  0  0  0  0  0  0  0  0  0  0
   -5.1304  -46.5321   10.2152 C   0  0  0  0  0  0  0  0  0  0  0  0
   -4.5770  -40.5779   12.5652 P   0  0  1  0  0  0  0  0  0  0  0  0
   -2.5488  -39.9184   10.8347 P   0  0  2  0  0  0  0  0  0  0  0  0
   -7.2211  -45.8700    7.9919 C   0  0  0  0  0  0  0  0  0  0  0  0
   -6.8992  -43.7147    6.7331 C   0  0  0  0  0  0  0  0  0  0  0  0
   -6.5617  -45.0607    6.9042 C   0  0  0  0  0  0  0  0  0  0  0  0
   -5.5870  -45.6543    6.0975 C   0  0  0  0  0  0  0  0  0  0  0  0
   -5.2624  -46.9177    6.2743 N   0  0  0  0  0  0  0  0  0  0  0  0
   -4.9906  -44.9221    5.1000 N   0  0  0  0  0  0  0  0  0  0  0  0
   -5.3198  -43.5898    4.9480 C   0  0  0  0  0  0  0  0  0  0  0  0
   -6.2758  -42.9877    5.7443 N   0  0  0  0  0  0  0  0  0  0  0  0
   -4.1983  -40.4349   14.0076 O   0  5  0  0  0  0  0  0  0  0  0  0
   -3.5132  -39.9544    9.7164 O   0  0  0  0  0  0  0  0  0  0  0  0
   -7.4901  -43.5068   10.9877 S   0  0  0  0  0  0  0  0  0  0  0  0
   -7.8566  -44.0960    9.5661 C   0  0  0  0  0  0  0  0  0  0  0  0
   -5.2906  -39.4191   11.9640 O   0  0  0  0  0  0  0  0  0  0  0  0
   -1.1959  -40.3354   10.4199 O   0  5  0  0  0  0  0  0  0  0  0  0
   -7.0789  -45.1716    9.2395 N   0  0  0  0  0  0  0  0  0  0  0  0
   -3.2004  -40.9292   11.8676 O   0  0  0  0  0  0  0  0  0  0  0  0
   -2.3166  -38.5993   11.4974 O   0  0  0  0  0  0  0  0  0  0  0  0
   -6.1609  -45.4445   10.2142 C   0  0  1  0  0  0  0  0  0  0  0  0
   -6.3114  -44.5578   11.2506 C   0  0  2  0  0  0  0  0  0  0  0  0
   -5.5718  -44.4300   12.5591 C   0  0  0  0  0  0  0  0  0  0  0  0
   -4.7486  -43.1388   12.6299 C   0  0  0  0  0  0  0  0  0  0  0  0
   -5.4328  -41.9024   12.5399 O   0  0  0  0  0  0  0  0  0  0  0  0
  1 11  1  0  0  0  0
  3 13  1  1  0  0  0
  3 17  2  0  0  0  0
  3 20  1  0  0  0  0
  3 26  1  0  0  0  0
  4 14  1  6  0  0  0
  4 18  1  0  0  0  0
  4 21  2  0  0  0  0
  4 20  1  0  0  0  0
  5 19  1  0  0  0  0
  5  7  1  0  0  0  0
  6  7  2  0  0  0  0
  6 12  1  0  0  0  0
  7  8  1  0  0  0  0
  8  9  1  0  0  0  0
  8 10  2  0  0  0  0
 10 11  1  0  0  0  0
 11 12  2  0  0  0  0
 15 23  1  0  0  0  0
 15 16  1  0  0  0  0
 16 19  1  0  0  0  0
 19 22  1  0  0  0  0
 22  2  1  1  0  0  0
 22 23  1  0  0  0  0
 23 24  1  1  0  0  0
 24 25  1  0  0  0  0
 25 26  1  0  0  0  0
M  CHG  2  13  -1  18  -1
M  END
>  <CHROM.1>
-114.48892425,77.50647852,-52.54399162,-66.71033045,-67.45722041,61.05325513
-178.01170552,-75.88216944,-5.07798752,-42.74385072,9.81427900,-2.12187455
0.90946497,1.30543789

>  <Name>
ligand

>  <RI>
0

>  <Rbt.Current_Directory>
/home/itssahil/PROJECTS/Mol_Feturizer/New_Systems/rnas/3D2G

>  <Rbt.Executable>
rbdock ($Id: //depot/dev/client3/rdock/2013.1/src/exe/rbdock.cxx#4 $)

>  <Rbt.Library>
libRbt.so (2013.1, Build901 2013/11/27)

>  <Rbt.Parameter_File>
/export/apps/rDock/src/rDock_2013.1_src/data/scripts/dock_solv.prm

>  <Rbt.Receptor>
prm/pocket_docking_6.prm

>  <SCORE>
-15.1051

>  <SCORE.INTER>
-13.5457

>  <SCORE.INTER.CONST>
1

>  <SCORE.INTER.POLAR>
0

>  <SCORE.INTER.ROT>
8

>  <SCORE.INTER.SOLV>
12.9599

>  <SCORE.INTER.VDW>
-22.2838

>  <SCORE.INTER.norm>
-0.52099

>  <SCORE.INTRA>
-1.55939

>  <SCORE.INTRA.DIHEDRAL>
-1.02038

>  <SCORE.INTRA.DIHEDRAL.0>
9.09364

>  <SCORE.INTRA.POLAR>
0

>  <SCORE.INTRA.POLAR.0>
0

>  <SCORE.INTRA.REPUL>
0

>  <SCORE.INTRA.REPUL.0>
0

>  <SCORE.INTRA.SOLV>
-1.63254

>  <SCORE.INTRA.SOLV.lig_0>
-78.5846

>  <SCORE.INTRA.VDW>
-0.232934

>  <SCORE.INTRA.VDW.0>
-2.81163

>  <SCORE.INTRA.norm>
-0.0599766

>  <SCORE.RESTR>
0

>  <SCORE.RESTR.CAVITY>
0

>  <SCORE.RESTR.norm>
0

>  <SCORE.SYSTEM>
0

>  <SCORE.SYSTEM.CONST>
0

>  <SCORE.SYSTEM.DIHEDRAL>
0

>  <SCORE.SYSTEM.SOLV>
0

>  <SCORE.SYSTEM.norm>
0

>  <SCORE.heavy>
26

>  <SCORE.norm>
-0.580966

>  <RMSD>
7.056

$$$$
ligand
 OpenBabel11021811463D
libRbt.so/2013.1/901 2013/11/27
 26 27  0  0  0  0  0  0  0  0999 V2000
   -5.4283  -43.5780    2.2197 C   0  0  0  0  0  0  0  0  0  0  0  0
   -4.2730  -47.3050    8.8875 C   0  0  0  0  0  0  0  0  0  0  0  0
   -4.5004  -42.1858   10.5069 P   0  0  1  0  0  0  0  0  0  0  0  0
   -5.3710  -41.4310   13.0000 P   0  0  2  0  0  0  0  0  0  0  0  0
   -5.9331  -47.6214    6.2614 C   0  0  0  0  0  0  0  0  0  0  0  0
   -6.9517  -45.9174    4.7147 C   0  0  0  0  0  0  0  0  0  0  0  0
   -5.8091  -46.5684    5.1897 C   0  0  0  0  0  0  0  0  0  0  0  0
   -4.5446  -46.2230    4.7051 C   0  0  0  0  0  0  0  0  0  0  0  0
   -3.4713  -46.8286    5.1681 N   0  0  0  0  0  0  0  0  0  0  0  0
   -4.4290  -45.2701    3.7225 N   0  0  0  0  0  0  0  0  0  0  0  0
   -5.5614  -44.6226    3.2700 C   0  0  0  0  0  0  0  0  0  0  0  0
   -6.8173  -44.9481    3.7466 N   0  0  0  0  0  0  0  0  0  0  0  0
   -4.7436  -41.5041    9.1952 O   0  5  0  0  0  0  0  0  0  0  0  0
   -6.5888  -40.7239   13.4457 O   0  0  0  0  0  0  0  0  0  0  0  0
   -7.8905  -45.8161    9.0075 S   0  0  0  0  0  0  0  0  0  0  0  0
   -7.6384  -46.4424    7.5770 C   0  0  0  0  0  0  0  0  0  0  0  0
   -3.1202  -42.0724   11.0507 O   0  0  0  0  0  0  0  0  0  0  0  0
   -4.1420  -40.6733   13.3031 O   0  5  0  0  0  0  0  0  0  0  0  0
   -6.3944  -46.9987    7.4713 N   0  0  0  0  0  0  0  0  0  0  0  0
   -5.6216  -41.5732   11.4411 O   0  0  0  0  0  0  0  0  0  0  0  0
   -5.1036  -42.7763   13.5931 O   0  0  0  0  0  0  0  0  0  0  0  0
   -5.6736  -46.8440    8.6219 C   0  0  1  0  0  0  0  0  0  0  0  0
   -6.4331  -46.1863    9.5567 C   0  0  2  0  0  0  0  0  0  0  0  0
   -6.1230  -45.7810   10.9763 C   0  0  0  0  0  0  0  0  0  0  0  0
   -5.8704  -44.2743   11.1013 C   0  0  0  0  0  0  0  0  0  0  0  0
   -4.9270  -43.6786   10.2295 O   0  0  0  0  0  0  0  0  0  0  0  0
  1 11  1  0  0  0  0
  3 13  1  6  0  0  0
  3 17  2  0  0  0  0
  3 20  1  0  0  0  0
  3 26  1  0  0  0  0
  4 14  1  1  0  0  0
  4 18  1  0  0  0  0
  4 21  2  0  0  0  0
  4 20  1  0  0  0  0
  5 19  1  0  0  0  0
  5  7  1  0  0  0  0
  6  7  2  0  0  0  0
  6 12  1  0  0  0  0
  7  8  1  0  0  0  0
  8  9  1  0  0  0  0
  8 10  2  0  0  0  0
 10 11  1  0  0  0  0
 11 12  2  0  0  0  0
 15 23  1  0  0  0  0
 15 16  1  0  0  0  0
 16 19  1  0  0  0  0
 19 22  1  0  0  0  0
 22  2  1  1  0  0  0
 22 23  1  0  0  0  0
 23 24  1  1  0  0  0
 24 25  1  0  0  0  0
 25 26  1  0  0  0  0
M  CHG  2  13  -1  18  -1
M  END
>  <CHROM.1>
-150.43008223,65.93362504,-65.57759830,175.22173368,-74.81878200,-51.65993022
-170.48543215,-126.69602347,-5.52645035,-44.22944515,8.85394758,-1.73135859
1.15472918,1.21968772

>  <Name>
ligand

>  <RI>
0

>  <Rbt.Current_Directory>
/home/itssahil/PROJECTS/Mol_Feturizer/New_Systems/rnas/3D2G

>  <Rbt.Executable>
rbdock ($Id: //depot/dev/client3/rdock/2013.1/src/exe/rbdock.cxx#4 $)

>  <Rbt.Library>
libRbt.so (2013.1, Build901 2013/11/27)

>  <Rbt.Parameter_File>
/export/apps/rDock/src/rDock_2013.1_src/data/scripts/dock_solv.prm

>  <Rbt.Receptor>
prm/pocket_docking_7.prm

>  <SCORE>
-11.271

>  <SCORE.INTER>
-11.4845

>  <SCORE.INTER.CONST>
1

>  <SCORE.INTER.POLAR>
0

>  <SCORE.INTER.ROT>
8

>  <SCORE.INTER.SOLV>
11.6162

>  <SCORE.INTER.VDW>
-20.4618

>  <SCORE.INTER.norm>
-0.441713

>  <SCORE.INTRA>
0.213505

>  <SCORE.INTRA.DIHEDRAL>
0.331381

>  <SCORE.INTRA.DIHEDRAL.0>
9.09364

>  <SCORE.INTRA.POLAR>
0

>  <SCORE.INTRA.POLAR.0>
0

>  <SCORE.INTRA.REPUL>
0

>  <SCORE.INTRA.REPUL.0>
0

>  <SCORE.INTRA.SOLV>
0.847065

>  <SCORE.INTRA.SOLV.lig_0>
-78.5846

>  <SCORE.INTRA.VDW>
-0.375718

>  <SCORE.INTRA.VDW.0>
-2.81163

>  <SCORE.INTRA.norm>
0.00821174

>  <SCORE.RESTR>
0

>  <SCORE.RESTR.CAVITY>
0

>  <SCORE.RESTR.norm>
0

>  <SCORE.SYSTEM>
0

>  <SCORE.SYSTEM.CONST>
0

>  <SCORE.SYSTEM.DIHEDRAL>
0

>  <SCORE.SYSTEM.SOLV>
0

>  <SCORE.SYSTEM.norm>
0

>  <SCORE.heavy>
26

>  <SCORE.norm>
-0.433501

>  <RMSD>
7.074

$$$$
ligand
 OpenBabel11021811463D
libRbt.so/2013.1/901 2013/11/27
 26 27  0  0  0  0  0  0  0  0999 V2000
   -6.6245  -44.6172    9.4010 C   0  0  0  0  0  0  0  0  0  0  0  0
   -9.3839  -39.7279    5.9634 C   0  0  0  0  0  0  0  0  0  0  0  0
   -5.6039  -41.4403    1.1957 P   0  0  1  0  0  0  0  0  0  0  0  0
   -6.6711  -43.9081    1.7559 P   0  0  2  0  0  0  0  0  0  0  0  0
   -7.1579  -39.0645    8.0508 C   0  0  0  0  0  0  0  0  0  0  0  0
   -7.9702  -41.4438    7.9390 C   0  0  0  0  0  0  0  0  0  0  0  0
   -7.0317  -40.5223    8.4134 C   0  0  0  0  0  0  0  0  0  0  0  0
   -5.9524  -40.9485    9.1922 C   0  0  0  0  0  0  0  0  0  0  0  0
   -5.0633  -40.0781    9.6223 N   0  0  0  0  0  0  0  0  0  0  0  0
   -5.8392  -42.2747    9.5314 N   0  0  0  0  0  0  0  0  0  0  0  0
   -6.7627  -43.1794    9.0463 C   0  0  0  0  0  0  0  0  0  0  0  0
   -7.8303  -42.7730    8.2681 N   0  0  0  0  0  0  0  0  0  0  0  0
   -4.4150  -41.8930    1.9869 O   0  5  0  0  0  0  0  0  0  0  0  0
   -7.4245  -44.8604    0.9149 O   0  0  0  0  0  0  0  0  0  0  0  0
   -6.0257  -38.3952    4.4589 S   0  0  0  0  0  0  0  0  0  0  0  0
   -5.8970  -38.4534    6.0345 C   0  0  0  0  0  0  0  0  0  0  0  0
   -5.3252  -40.4655    0.1068 O   0  0  0  0  0  0  0  0  0  0  0  0
   -7.4935  -43.3555    2.8489 O   0  5  0  0  0  0  0  0  0  0  0  0
   -7.0337  -38.9293    6.6258 N   0  0  0  0  0  0  0  0  0  0  0  0
   -6.2452  -42.8012    0.7041 O   0  0  0  0  0  0  0  0  0  0  0  0
   -5.4601  -44.4262    2.4618 O   0  0  0  0  0  0  0  0  0  0  0  0
   -8.0041  -39.2051    5.7039 C   0  0  1  0  0  0  0  0  0  0  0  0
   -7.5319  -38.9372    4.4436 C   0  0  2  0  0  0  0  0  0  0  0  0
   -8.1850  -39.0793    3.0912 C   0  0  0  0  0  0  0  0  0  0  0  0
   -7.2140  -39.6269    2.0391 C   0  0  0  0  0  0  0  0  0  0  0  0
   -6.5792  -40.8666    2.2943 O   0  0  0  0  0  0  0  0  0  0  0  0
  1 11  1  0  0  0  0
  3 13  1  1  0  0  0
  3 17  2  0  0  0  0
  3 20  1  0  0  0  0
  3 26  1  0  0  0  0
  4 14  1  6  0  0  0
  4 18  1  0  0  0  0
  4 21  2  0  0  0  0
  4 20  1  0  0  0  0
  5 19  1  0  0  0  0
  5  7  1  0  0  0  0
  6  7  2  0  0  0  0
  6 12  1  0  0  0  0
  7  8  1  0  0  0  0
  8  9  1  0  0  0  0
  8 10  2  0  0  0  0
 10 11  1  0  0  0  0
 11 12  2  0  0  0  0
 15 23  1  0  0  0  0
 15 16  1  0  0  0  0
 16 19  1  0  0  0  0
 19 22  1  0  0  0  0
 22  2  1  6  0  0  0
 22 23  1  0  0  0  0
 23 24  1  6  0  0  0
 24 25  1  0  0  0  0
 25 26  1  0  0  0  0
M  CHG  2  13  -1  18  -1
M  END
>  <CHROM.1>
56.73269778,-104.40273766,-62.59081291,170.12143207,39.86687118,56.53120408
178.76384375,134.92172930,-6.61979420,-41.28166144,4.58583766,-2.74817997
1.49003817,-0.58387566

>  <Name>
ligand

>  <RI>
0

>  <Rbt.Current_Directory>
/home/itssahil/PROJECTS/Mol_Feturizer/New_Systems/rnas/3D2G

>  <Rbt.Executable>
rbdock ($Id: //depot/dev/client3/rdock/2013.1/src/exe/rbdock.cxx#4 $)

>  <Rbt.Library>
libRbt.so (2013.1, Build901 2013/11/27)

>  <Rbt.Parameter_File>
/export/apps/rDock/src/rDock_2013.1_src/data/scripts/dock_solv.prm

>  <Rbt.Receptor>
prm/pocket_docking_5.prm

>  <SCORE>
-12.3623

>  <SCORE.INTER>
-12.4454

>  <SCORE.INTER.CONST>
1

>  <SCORE.INTER.POLAR>
0

>  <SCORE.INTER.ROT>
8

>  <SCORE.INTER.SOLV>
16.268

>  <SCORE.INTER.VDW>
-22.6529

>  <SCORE.INTER.norm>
-0.478668

>  <SCORE.INTRA>
0.0830595

>  <SCORE.INTRA.DIHEDRAL>
-1.56249

>  <SCORE.INTRA.DIHEDRAL.0>
9.09364

>  <SCORE.INTRA.POLAR>
0

>  <SCORE.INTRA.POLAR.0>
0

>  <SCORE.INTRA.REPUL>
0

>  <SCORE.INTRA.REPUL.0>
0

>  <SCORE.INTRA.SOLV>
-0.480946

>  <SCORE.INTRA.SOLV.lig_0>
-78.5846

>  <SCORE.INTRA.VDW>
1.10478

>  <SCORE.INTRA.VDW.0>
-2.81163

>  <SCORE.INTRA.norm>
0.00319459

>  <SCORE.RESTR>
0

>  <SCORE.RESTR.CAVITY>
0

>  <SCORE.RESTR.norm>
0

>  <SCORE.SYSTEM>
0

>  <SCORE.SYSTEM.CONST>
0

>  <SCORE.SYSTEM.DIHEDRAL>
0

>  <SCORE.SYSTEM.SOLV>
0

>  <SCORE.SYSTEM.norm>
0

>  <SCORE.heavy>
26

>  <SCORE.norm>
-0.475473

>  <RMSD>
7.149

$$$$
ligand
 OpenBabel11021811463D
libRbt.so/2013.1/901 2013/11/27
 26 27  0  0  0  0  0  0  0  0999 V2000
   -8.5466  -40.1061    6.4179 C   0  0  0  0  0  0  0  0  0  0  0  0
   -6.9774  -44.1369   11.5274 C   0  0  0  0  0  0  0  0  0  0  0  0
   -4.5490  -39.6622   12.9393 P   0  0  1  0  0  0  0  0  0  0  0  0
   -3.8763  -37.1117   12.1742 P   0  0  2  0  0  0  0  0  0  0  0  0
   -6.3817  -44.9639    8.5754 C   0  0  0  0  0  0  0  0  0  0  0  0
   -7.4371  -42.6996    8.8799 C   0  0  0  0  0  0  0  0  0  0  0  0
   -6.9646  -43.6915    8.0151 C   0  0  0  0  0  0  0  0  0  0  0  0
   -6.9932  -43.4967    6.6315 C   0  0  0  0  0  0  0  0  0  0  0  0
   -6.5321  -44.4279    5.8233 N   0  0  0  0  0  0  0  0  0  0  0  0
   -7.5315  -42.3422    6.1175 N   0  0  0  0  0  0  0  0  0  0  0  0
   -7.9823  -41.3624    6.9796 C   0  0  0  0  0  0  0  0  0  0  0  0
   -7.9522  -41.5382    8.3503 N   0  0  0  0  0  0  0  0  0  0  0  0
   -3.8738  -39.4774   14.2638 O   0  5  0  0  0  0  0  0  0  0  0  0
   -2.9511  -36.6025   11.1414 O   0  0  0  0  0  0  0  0  0  0  0  0
   -3.1876  -44.2564   10.5576 S   0  0  0  0  0  0  0  0  0  0  0  0
   -4.0546  -44.6636    9.2986 C   0  0  0  0  0  0  0  0  0  0  0  0
   -6.0227  -39.4582   12.9285 O   0  0  0  0  0  0  0  0  0  0  0  0
   -3.4959  -36.6736   13.5305 O   0  5  0  0  0  0  0  0  0  0  0  0
   -5.3949  -44.6254    9.5634 N   0  0  0  0  0  0  0  0  0  0  0  0
   -3.7480  -38.6810   11.9901 O   0  0  0  0  0  0  0  0  0  0  0  0
   -5.3109  -36.7066   12.0691 O   0  0  0  0  0  0  0  0  0  0  0  0
   -5.6428  -44.2737   10.8605 C   0  0  1  0  0  0  0  0  0  0  0  0
   -4.4564  -44.0416   11.5099 C   0  0  2  0  0  0  0  0  0  0  0  0
   -4.1715  -43.6194   12.9298 C   0  0  0  0  0  0  0  0  0  0  0  0
   -4.6951  -42.2094   13.2258 C   0  0  0  0  0  0  0  0  0  0  0  0
   -4.1312  -41.1225   12.5148 O   0  0  0  0  0  0  0  0  0  0  0  0
  1 11  1  0  0  0  0
  3 13  1  1  0  0  0
  3 17  2  0  0  0  0
  3 20  1  0  0  0  0
  3 26  1  0  0  0  0
  4 14  1  6  0  0  0
  4 18  1  0  0  0  0
  4 21  2  0  0  0  0
  4 20  1  0  0  0  0
  5 19  1  0  0  0  0
  5  7  1  0  0  0  0
  6  7  2  0  0  0  0
  6 12  1  0  0  0  0
  7  8  1  0  0  0  0
  8  9  1  0  0  0  0
  8 10  2  0  0  0  0
 10 11  1  0  0  0  0
 11 12  2  0  0  0  0
 15 23  1  0  0  0  0
 15 16  1  0  0  0  0
 16 19  1  0  0  0  0
 19 22  1  0  0  0  0
 22  2  1  6  0  0  0
 22 23  1  0  0  0  0
 23 24  1  6  0  0  0
 24 25  1  0  0  0  0
 25 26  1  0  0  0  0
M  CHG  2  13  -1  18  -1
M  END
>  <CHROM.1>
-68.99480000,-101.43593977,-50.52619943,178.09650869,114.30573090,-63.85821950
-172.97144329,71.01544323,-5.23540272,-41.29927764,10.64708409,2.20931601
0.99833922,-3.00318136

>  <Name>
ligand

>  <RI>
0

>  <Rbt.Current_Directory>
/home/itssahil/PROJECTS/Mol_Feturizer/New_Systems/rnas/3D2G

>  <Rbt.Executable>
rbdock ($Id: //depot/dev/client3/rdock/2013.1/src/exe/rbdock.cxx#4 $)

>  <Rbt.Library>
libRbt.so (2013.1, Build901 2013/11/27)

>  <Rbt.Parameter_File>
/export/apps/rDock/src/rDock_2013.1_src/data/scripts/dock_solv.prm

>  <Rbt.Receptor>
prm/pocket_docking_8.prm

>  <SCORE>
-15.3949

>  <SCORE.INTER>
-12.7931

>  <SCORE.INTER.CONST>
1

>  <SCORE.INTER.POLAR>
0

>  <SCORE.INTER.ROT>
8

>  <SCORE.INTER.SOLV>
15.2107

>  <SCORE.INTER.VDW>
-22.5323

>  <SCORE.INTER.norm>
-0.492042

>  <SCORE.INTRA>
-2.60176

>  <SCORE.INTRA.DIHEDRAL>
-4.00115

>  <SCORE.INTRA.DIHEDRAL.0>
9.09364

>  <SCORE.INTRA.POLAR>
0

>  <SCORE.INTRA.POLAR.0>
0

>  <SCORE.INTRA.REPUL>
0

>  <SCORE.INTRA.REPUL.0>
0

>  <SCORE.INTRA.SOLV>
-0.294795

>  <SCORE.INTRA.SOLV.lig_0>
-78.5846

>  <SCORE.INTRA.VDW>
-0.45379

>  <SCORE.INTRA.VDW.0>
-2.81163

>  <SCORE.INTRA.norm>
-0.100068

>  <SCORE.RESTR>
0

>  <SCORE.RESTR.CAVITY>
0

>  <SCORE.RESTR.norm>
0

>  <SCORE.SYSTEM>
0

>  <SCORE.SYSTEM.CONST>
0

>  <SCORE.SYSTEM.DIHEDRAL>
0

>  <SCORE.SYSTEM.SOLV>
0

>  <SCORE.SYSTEM.norm>
0

>  <SCORE.heavy>
26

>  <SCORE.norm>
-0.59211

>  <RMSD>
7.158

$$$$
ligand
 OpenBabel11021811463D
libRbt.so/2013.1/901 2013/11/27
 26 27  0  0  0  0  0  0  0  0999 V2000
   -8.1958  -41.0556    7.1812 C   0  0  0  0  0  0  0  0  0  0  0  0
   -2.4153  -40.6323    8.8908 C   0  0  0  0  0  0  0  0  0  0  0  0
   -2.0612  -45.7828    6.5774 P   0  0  1  0  0  0  0  0  0  0  0  0
    0.2208  -47.2618    6.1932 P   0  0  2  0  0  0  0  0  0  0  0  0
   -4.2708  -41.0446   11.3686 C   0  0  0  0  0  0  0  0  0  0  0  0
   -5.5075  -39.8842    9.5092 C   0  0  0  0  0  0  0  0  0  0  0  0
   -5.3100  -41.0362   10.2765 C   0  0  0  0  0  0  0  0  0  0  0  0
   -6.0438  -42.1962   10.0137 C   0  0  0  0  0  0  0  0  0  0  0  0
   -5.8418  -43.2825   10.7294 N   0  0  0  0  0  0  0  0  0  0  0  0
   -6.9974  -42.1892    9.0250 N   0  0  0  0  0  0  0  0  0  0  0  0
   -7.1752  -41.0515    8.2631 C   0  0  0  0  0  0  0  0  0  0  0  0
   -6.4505  -39.9000    8.5065 N   0  0  0  0  0  0  0  0  0  0  0  0
   -2.7286  -44.7081    5.7750 O   0  5  0  0  0  0  0  0  0  0  0  0
    1.0903  -47.4280    5.0107 O   0  0  0  0  0  0  0  0  0  0  0  0
   -1.6323  -43.7965   11.0570 S   0  0  0  0  0  0  0  0  0  0  0  0
   -2.8552  -43.0237   11.6971 C   0  0  0  0  0  0  0  0  0  0  0  0
   -2.9101  -46.9540    6.9256 O   0  0  0  0  0  0  0  0  0  0  0  0
   -0.4702  -48.5128    6.5592 O   0  5  0  0  0  0  0  0  0  0  0  0
   -3.1948  -41.9126   10.9772 N   0  0  0  0  0  0  0  0  0  0  0  0
   -0.7860  -46.1370    5.7094 O   0  0  0  0  0  0  0  0  0  0  0  0
    0.8732  -46.8403    7.4698 O   0  0  0  0  0  0  0  0  0  0  0  0
   -2.3692  -41.7363    9.9026 C   0  0  1  0  0  0  0  0  0  0  0  0
   -1.4483  -42.7527    9.8572 C   0  0  2  0  0  0  0  0  0  0  0  0
   -0.3344  -43.0360    8.8801 C   0  0  0  0  0  0  0  0  0  0  0  0
   -0.8321  -43.7987    7.6471 C   0  0  0  0  0  0  0  0  0  0  0  0
   -1.5285  -45.0151    7.8479 O   0  0  0  0  0  0  0  0  0  0  0  0
  1 11  1  0  0  0  0
  3 13  1  6  0  0  0
  3 17  2  0  0  0  0
  3 20  1  0  0  0  0
  3 26  1  0  0  0  0
  4 14  1  6  0  0  0
  4 18  1  0  0  0  0
  4 21  2  0  0  0  0
  4 20  1  0  0  0  0
  5 19  1  0  0  0  0
  5  7  1  0  0  0  0
  6  7  2  0  0  0  0
  6 12  1  0  0  0  0
  7  8  1  0  0  0  0
  8  9  1  0  0  0  0
  8 10  2  0  0  0  0
 10 11  1  0  0  0  0
 11 12  2  0  0  0  0
 15 23  1  0  0  0  0
 15 16  1  0  0  0  0
 16 19  1  0  0  0  0
 19 22  1  0  0  0  0
 22  2  1  6  0  0  0
 22 23  1  0  0  0  0
 23 24  1  6  0  0  0
 24 25  1  0  0  0  0
 25 26  1  0  0  0  0
M  CHG  2  13  -1  18  -1
M  END
>  <CHROM.1>
-179.48236562,-118.77466270,-110.93383427,170.36006703,95.07518859,-54.79772451
178.91515674,-47.25583160,-2.70711792,-43.90546494,8.34962697,2.35155154
-0.45560367,0.93604075

>  <Name>
ligand

>  <RI>
0

>  <Rbt.Current_Directory>
/home/itssahil/PROJECTS/Mol_Feturizer/New_Systems/rnas/3D2G

>  <Rbt.Executable>
rbdock ($Id: //depot/dev/client3/rdock/2013.1/src/exe/rbdock.cxx#4 $)

>  <Rbt.Library>
libRbt.so (2013.1, Build901 2013/11/27)

>  <Rbt.Parameter_File>
/export/apps/rDock/src/rDock_2013.1_src/data/scripts/dock_solv.prm

>  <Rbt.Receptor>
prm/pocket_docking_7.prm

>  <SCORE>
-13.0639

>  <SCORE.INTER>
-10.1398

>  <SCORE.INTER.CONST>
1

>  <SCORE.INTER.POLAR>
0

>  <SCORE.INTER.ROT>
8

>  <SCORE.INTER.SOLV>
8.65024

>  <SCORE.INTER.VDW>
-18.5766

>  <SCORE.INTER.norm>
-0.389991

>  <SCORE.INTRA>
-2.92414

>  <SCORE.INTRA.DIHEDRAL>
-3.92968

>  <SCORE.INTRA.DIHEDRAL.0>
9.09364

>  <SCORE.INTRA.POLAR>
0

>  <SCORE.INTRA.POLAR.0>
0

>  <SCORE.INTRA.REPUL>
0

>  <SCORE.INTRA.REPUL.0>
0

>  <SCORE.INTRA.SOLV>
0.816161

>  <SCORE.INTRA.SOLV.lig_0>
-78.5846

>  <SCORE.INTRA.VDW>
-1.36738

>  <SCORE.INTRA.VDW.0>
-2.81163

>  <SCORE.INTRA.norm>
-0.112467

>  <SCORE.RESTR>
0

>  <SCORE.RESTR.CAVITY>
0

>  <SCORE.RESTR.norm>
0

>  <SCORE.SYSTEM>
0

>  <SCORE.SYSTEM.CONST>
0

>  <SCORE.SYSTEM.DIHEDRAL>
0

>  <SCORE.SYSTEM.SOLV>
0

>  <SCORE.SYSTEM.norm>
0

>  <SCORE.heavy>
26

>  <SCORE.norm>
-0.502458

>  <RMSD>
7.169

$$$$
ligand
 OpenBabel11021811463D
libRbt.so/2013.1/901 2013/11/27
 26 27  0  0  0  0  0  0  0  0999 V2000
   -4.2522  -42.7724    3.2090 C   0  0  0  0  0  0  0  0  0  0  0  0
   -3.7228  -45.9982    9.4643 C   0  0  0  0  0  0  0  0  0  0  0  0
   -4.7473  -41.8917   10.5747 P   0  0  1  0  0  0  0  0  0  0  0  0
   -5.1287  -40.9314   13.1194 P   0  0  2  0  0  0  0  0  0  0  0  0
   -4.7559  -47.2311    6.7875 C   0  0  0  0  0  0  0  0  0  0  0  0
   -4.3946  -44.7761    6.3687 C   0  0  0  0  0  0  0  0  0  0  0  0
   -4.6366  -46.0534    5.8541 C   0  0  0  0  0  0  0  0  0  0  0  0
   -4.7313  -46.2544    4.4744 C   0  0  0  0  0  0  0  0  0  0  0  0
   -4.9434  -47.4622    3.9954 N   0  0  0  0  0  0  0  0  0  0  0  0
   -4.6317  -45.1821    3.6217 N   0  0  0  0  0  0  0  0  0  0  0  0
   -4.3783  -43.9269    4.1382 C   0  0  0  0  0  0  0  0  0  0  0  0
   -4.2738  -43.7151    5.5001 N   0  0  0  0  0  0  0  0  0  0  0  0
   -5.5415  -41.7680    9.3104 O   0  5  0  0  0  0  0  0  0  0  0  0
   -6.3360  -40.4267   13.8046 O   0  0  0  0  0  0  0  0  0  0  0  0
   -7.5992  -46.4867    9.2356 S   0  0  0  0  0  0  0  0  0  0  0  0
   -6.9373  -46.9810    7.8866 C   0  0  0  0  0  0  0  0  0  0  0  0
   -3.3462  -41.3953   10.5118 O   0  0  0  0  0  0  0  0  0  0  0  0
   -4.0095  -39.9721   13.1798 O   0  5  0  0  0  0  0  0  0  0  0  0
   -5.5764  -46.8549    7.9054 N   0  0  0  0  0  0  0  0  0  0  0  0
   -5.6541  -41.1514   11.6400 O   0  0  0  0  0  0  0  0  0  0  0  0
   -4.5269  -42.1984   13.6350 O   0  0  0  0  0  0  0  0  0  0  0  0
   -5.1373  -46.3040    9.0763 C   0  0  1  0  0  0  0  0  0  0  0  0
   -6.2070  -46.0591    9.9002 C   0  0  2  0  0  0  0  0  0  0  0  0
   -6.2724  -45.4794   11.2914 C   0  0  0  0  0  0  0  0  0  0  0  0
   -6.0960  -43.9567   11.2880 C   0  0  0  0  0  0  0  0  0  0  0  0
   -4.8361  -43.4292   10.9150 O   0  0  0  0  0  0  0  0  0  0  0  0
  1 11  1  0  0  0  0
  3 13  1  6  0  0  0
  3 17  2  0  0  0  0
  3 20  1  0  0  0  0
  3 26  1  0  0  0  0
  4 14  1  1  0  0  0
  4 18  1  0  0  0  0
  4 21  2  0  0  0  0
  4 20  1  0  0  0  0
  5 19  1  0  0  0  0
  5  7  1  0  0  0  0
  6  7  2  0  0  0  0
  6 12  1  0  0  0  0
  7  8  1  0  0  0  0
  8  9  1  0  0  0  0
  8 10  2  0  0  0  0
 10 11  1  0  0  0  0
 11 12  2  0  0  0  0
 15 23  1  0  0  0  0
 15 16  1  0  0  0  0
 16 19  1  0  0  0  0
 19 22  1  0  0  0  0
 22  2  1  1  0  0  0
 22 23  1  0  0  0  0
 23 24  1  1  0  0  0
 24 25  1  0  0  0  0
 25 26  1  0  0  0  0
M  CHG  2  13  -1  18  -1
M  END
>  <CHROM.1>
-174.64357543,87.87897136,44.21921245,-171.12356050,-103.72523661,-67.27329208
165.51875884,-67.53221202,-5.18141515,-43.91232366,9.15160186,-1.54475206
1.13806305,0.99072314

>  <Name>
ligand

>  <RI>
0

>  <Rbt.Current_Directory>
/home/itssahil/PROJECTS/Mol_Feturizer/New_Systems/rnas/3D2G

>  <Rbt.Executable>
rbdock ($Id: //depot/dev/client3/rdock/2013.1/src/exe/rbdock.cxx#4 $)

>  <Rbt.Library>
libRbt.so (2013.1, Build901 2013/11/27)

>  <Rbt.Parameter_File>
/export/apps/rDock/src/rDock_2013.1_src/data/scripts/dock_solv.prm

>  <Rbt.Receptor>
prm/pocket_docking_8.prm

>  <SCORE>
-13.8313

>  <SCORE.INTER>
-10.9395

>  <SCORE.INTER.CONST>
1

>  <SCORE.INTER.POLAR>
0

>  <SCORE.INTER.ROT>
8

>  <SCORE.INTER.SOLV>
10.1294

>  <SCORE.INTER.VDW>
-19.6028

>  <SCORE.INTER.norm>
-0.420751

>  <SCORE.INTRA>
-2.89175

>  <SCORE.INTRA.DIHEDRAL>
-2.61216

>  <SCORE.INTRA.DIHEDRAL.0>
9.09364

>  <SCORE.INTRA.POLAR>
0

>  <SCORE.INTRA.POLAR.0>
0

>  <SCORE.INTRA.REPUL>
0

>  <SCORE.INTRA.REPUL.0>
0

>  <SCORE.INTRA.SOLV>
-0.498953

>  <SCORE.INTRA.SOLV.lig_0>
-78.5846

>  <SCORE.INTRA.VDW>
-1.33619

>  <SCORE.INTRA.VDW.0>
-2.81163

>  <SCORE.INTRA.norm>
-0.111221

>  <SCORE.RESTR>
0

>  <SCORE.RESTR.CAVITY>
0

>  <SCORE.RESTR.norm>
0

>  <SCORE.SYSTEM>
0

>  <SCORE.SYSTEM.CONST>
0

>  <SCORE.SYSTEM.DIHEDRAL>
0

>  <SCORE.SYSTEM.SOLV>
0

>  <SCORE.SYSTEM.norm>
0

>  <SCORE.heavy>
26

>  <SCORE.norm>
-0.531972

>  <RMSD>
7.268

$$$$
ligand
 OpenBabel11021811463D
libRbt.so/2013.1/901 2013/11/27
 26 27  0  0  0  0  0  0  0  0999 V2000
   -5.9578  -44.8143    9.5323 C   0  0  0  0  0  0  0  0  0  0  0  0
   -6.1147  -38.6022    5.4254 C   0  0  0  0  0  0  0  0  0  0  0  0
   -5.9486  -41.0880    0.3880 P   0  0  1  0  0  0  0  0  0  0  0  0
   -4.7102  -41.9999    2.6635 P   0  0  2  0  0  0  0  0  0  0  0  0
   -7.5500  -39.5037    8.0483 C   0  0  0  0  0  0  0  0  0  0  0  0
   -7.8862  -41.9972    7.9948 C   0  0  0  0  0  0  0  0  0  0  0  0
   -7.1456  -40.9004    8.4461 C   0  0  0  0  0  0  0  0  0  0  0  0
   -6.0073  -41.0909    9.2341 C   0  0  0  0  0  0  0  0  0  0  0  0
   -5.3052  -40.0548    9.6424 N   0  0  0  0  0  0  0  0  0  0  0  0
   -5.6410  -42.3617    9.6053 N   0  0  0  0  0  0  0  0  0  0  0  0
   -6.3701  -43.4393    9.1430 C   0  0  0  0  0  0  0  0  0  0  0  0
   -7.4930  -43.2659    8.3560 N   0  0  0  0  0  0  0  0  0  0  0  0
   -5.4375  -40.4377   -0.8611 O   0  5  0  0  0  0  0  0  0  0  0  0
   -4.5409  -40.8194    3.5351 O   0  0  0  0  0  0  0  0  0  0  0  0
   -9.7524  -39.9673    4.9554 S   0  0  0  0  0  0  0  0  0  0  0  0
   -9.3749  -40.0250    6.4905 C   0  0  0  0  0  0  0  0  0  0  0  0
   -6.8047  -42.2886    0.1906 O   0  0  0  0  0  0  0  0  0  0  0  0
   -3.6633  -43.0150    2.8876 O   0  5  0  0  0  0  0  0  0  0  0  0
   -8.1180  -39.5439    6.7292 N   0  0  0  0  0  0  0  0  0  0  0  0
   -4.6271  -41.3586    1.2162 O   0  0  0  0  0  0  0  0  0  0  0  0
   -5.9799  -42.7761    2.7997 O   0  0  0  0  0  0  0  0  0  0  0  0
   -7.4959  -39.1635    5.5734 C   0  0  1  0  0  0  0  0  0  0  0  0
   -8.3391  -39.3622    4.5092 C   0  0  2  0  0  0  0  0  0  0  0  0
   -8.1521  -39.0983    3.0357 C   0  0  0  0  0  0  0  0  0  0  0  0
   -7.3579  -40.2149    2.3485 C   0  0  0  0  0  0  0  0  0  0  0  0
   -6.7002  -39.9170    1.1304 O   0  0  0  0  0  0  0  0  0  0  0  0
  1 11  1  0  0  0  0
  3 13  1  6  0  0  0
  3 17  2  0  0  0  0
  3 20  1  0  0  0  0
  3 26  1  0  0  0  0
  4 14  1  1  0  0  0
  4 18  1  0  0  0  0
  4 21  2  0  0  0  0
  4 20  1  0  0  0  0
  5 19  1  0  0  0  0
  5  7  1  0  0  0  0
  6  7  2  0  0  0  0
  6 12  1  0  0  0  0
  7  8  1  0  0  0  0
  8  9  1  0  0  0  0
  8 10  2  0  0  0  0
 10 11  1  0  0  0  0
 11 12  2  0  0  0  0
 15 23  1  0  0  0  0
 15 16  1  0  0  0  0
 16 19  1  0  0  0  0
 19 22  1  0  0  0  0
 22  2  1  1  0  0  0
 22 23  1  0  0  0  0
 23 24  1  1  0  0  0
 24 25  1  0  0  0  0
 25 26  1  0  0  0  0
M  CHG  2  13  -1  18  -1
M  END
>  <CHROM.1>
177.63714355,75.13883363,-32.88277539,-101.08239896,-99.67299960,-158.00009771
-176.80870871,177.56854565,-6.58872986,-41.06195863,4.63637881,-1.76380521
0.74162205,-1.37508158

>  <Name>
ligand

>  <RI>
0

>  <Rbt.Current_Directory>
/home/itssahil/PROJECTS/Mol_Feturizer/New_Systems/rnas/3D2G

>  <Rbt.Executable>
rbdock ($Id: //depot/dev/client3/rdock/2013.1/src/exe/rbdock.cxx#4 $)

>  <Rbt.Library>
libRbt.so (2013.1, Build901 2013/11/27)

>  <Rbt.Parameter_File>
/export/apps/rDock/src/rDock_2013.1_src/data/scripts/dock_solv.prm

>  <Rbt.Receptor>
prm/pocket_docking_7.prm

>  <SCORE>
-16.9269

>  <SCORE.INTER>
-15.5228

>  <SCORE.INTER.CONST>
1

>  <SCORE.INTER.POLAR>
0

>  <SCORE.INTER.ROT>
8

>  <SCORE.INTER.SOLV>
20.3778

>  <SCORE.INTER.VDW>
-26.0745

>  <SCORE.INTER.norm>
-0.597033

>  <SCORE.INTRA>
-1.40403

>  <SCORE.INTRA.DIHEDRAL>
-0.657594

>  <SCORE.INTRA.DIHEDRAL.0>
9.09364

>  <SCORE.INTRA.POLAR>
0

>  <SCORE.INTRA.POLAR.0>
0

>  <SCORE.INTRA.REPUL>
0

>  <SCORE.INTRA.REPUL.0>
0

>  <SCORE.INTRA.SOLV>
-1.01234

>  <SCORE.INTRA.SOLV.lig_0>
-78.5846

>  <SCORE.INTRA.VDW>
-0.569061

>  <SCORE.INTRA.VDW.0>
-2.81163

>  <SCORE.INTRA.norm>
-0.0540011

>  <SCORE.RESTR>
0

>  <SCORE.RESTR.CAVITY>
0

>  <SCORE.RESTR.norm>
0

>  <SCORE.SYSTEM>
0

>  <SCORE.SYSTEM.CONST>
0

>  <SCORE.SYSTEM.DIHEDRAL>
0

>  <SCORE.SYSTEM.SOLV>
0

>  <SCORE.SYSTEM.norm>
0

>  <SCORE.heavy>
26

>  <SCORE.norm>
-0.651034

>  <RMSD>
7.319

$$$$
ligand
 OpenBabel11021811463D
libRbt.so/2013.1/901 2013/11/27
 26 27  0  0  0  0  0  0  0  0999 V2000
   -1.5764  -47.6712    5.6270 C   0  0  0  0  0  0  0  0  0  0  0  0
   -7.3569  -46.5840    9.3392 C   0  0  0  0  0  0  0  0  0  0  0  0
   -4.1163  -43.7027   11.6022 P   0  0  1  0  0  0  0  0  0  0  0  0
   -1.7065  -42.9052   10.5534 P   0  0  2  0  0  0  0  0  0  0  0  0
   -6.9745  -45.8520    6.3275 C   0  0  0  0  0  0  0  0  0  0  0  0
   -4.9335  -47.0606    7.1683 C   0  0  0  0  0  0  0  0  0  0  0  0
   -5.5520  -46.3207    6.1559 C   0  0  0  0  0  0  0  0  0  0  0  0
   -4.8733  -46.0437    4.9661 C   0  0  0  0  0  0  0  0  0  0  0  0
   -5.4669  -45.3603    4.0102 N   0  0  0  0  0  0  0  0  0  0  0  0
   -3.5742  -46.4620    4.8100 N   0  0  0  0  0  0  0  0  0  0  0  0
   -2.9768  -47.2043    5.8093 C   0  0  0  0  0  0  0  0  0  0  0  0
   -3.6392  -47.4929    6.9876 N   0  0  0  0  0  0  0  0  0  0  0  0
   -3.7099  -43.7920   13.0414 O   0  5  0  0  0  0  0  0  0  0  0  0
   -2.4458  -41.9979    9.6522 O   0  0  0  0  0  0  0  0  0  0  0  0
   -6.9628  -42.7639    8.5848 S   0  0  0  0  0  0  0  0  0  0  0  0
   -6.8765  -43.5689    7.2258 C   0  0  0  0  0  0  0  0  0  0  0  0
   -4.7560  -42.4252   11.1870 O   0  0  0  0  0  0  0  0  0  0  0  0
   -0.4775  -43.4325    9.9307 O   0  5  0  0  0  0  0  0  0  0  0  0
   -7.0251  -44.9144    7.4151 N   0  0  0  0  0  0  0  0  0  0  0  0
   -2.7764  -44.0416   10.8309 O   0  0  0  0  0  0  0  0  0  0  0  0
   -1.2229  -42.3398   11.8494 O   0  0  0  0  0  0  0  0  0  0  0  0
   -7.1801  -45.2235    8.7371 C   0  0  1  0  0  0  0  0  0  0  0  0
   -7.1604  -44.0730    9.4849 C   0  0  2  0  0  0  0  0  0  0  0  0
   -7.3019  -43.8560   10.9710 C   0  0  0  0  0  0  0  0  0  0  0  0
   -6.4224  -44.8176   11.7781 C   0  0  0  0  0  0  0  0  0  0  0  0
   -5.0617  -44.9503   11.4095 O   0  0  0  0  0  0  0  0  0  0  0  0
  1 11  1  0  0  0  0
  3 13  1  1  0  0  0
  3 17  2  0  0  0  0
  3 20  1  0  0  0  0
  3 26  1  0  0  0  0
  4 14  1  6  0  0  0
  4 18  1  0  0  0  0
  4 21  2  0  0  0  0
  4 20  1  0  0  0  0
  5 19  1  0  0  0  0
  5  7  1  0  0  0  0
  6  7  2  0  0  0  0
  6 12  1  0  0  0  0
  7  8  1  0  0  0  0
  8  9  1  0  0  0  0
  8 10  2  0  0  0  0
 10 11  1  0  0  0  0
 11 12  2  0  0  0  0
 15 23  1  0  0  0  0
 15 16  1  0  0  0  0
 16 19  1  0  0  0  0
 19 22  1  0  0  0  0
 22  2  1  6  0  0  0
 22 23  1  0  0  0  0
 23 24  1  6  0  0  0
 24 25  1  0  0  0  0
 25 26  1  0  0  0  0
M  CHG  2  13  -1  18  -1
M  END
>  <CHROM.1>
-84.15838961,91.12815216,64.87300492,-64.54220371,-133.47614670,48.86647410
66.47577490,83.76228032,-4.55817871,-44.52533416,8.99231449,-1.86739254,0.00311727
1.05955646

>  <Name>
ligand

>  <RI>
0

>  <Rbt.Current_Directory>
/home/itssahil/PROJECTS/Mol_Feturizer/New_Systems/rnas/3D2G

>  <Rbt.Executable>
rbdock ($Id: //depot/dev/client3/rdock/2013.1/src/exe/rbdock.cxx#4 $)

>  <Rbt.Library>
libRbt.so (2013.1, Build901 2013/11/27)

>  <Rbt.Parameter_File>
/export/apps/rDock/src/rDock_2013.1_src/data/scripts/dock_solv.prm

>  <Rbt.Receptor>
prm/pocket_docking_5.prm

>  <SCORE>
-10.6526

>  <SCORE.INTER>
-8.38866

>  <SCORE.INTER.CONST>
1

>  <SCORE.INTER.POLAR>
0

>  <SCORE.INTER.ROT>
8

>  <SCORE.INTER.SOLV>
14.8889

>  <SCORE.INTER.VDW>
-19.4887

>  <SCORE.INTER.norm>
-0.322641

>  <SCORE.INTRA>
-2.26398

>  <SCORE.INTRA.DIHEDRAL>
-2.8157

>  <SCORE.INTRA.DIHEDRAL.0>
9.09364

>  <SCORE.INTRA.POLAR>
0

>  <SCORE.INTRA.POLAR.0>
0

>  <SCORE.INTRA.REPUL>
0

>  <SCORE.INTRA.REPUL.0>
0

>  <SCORE.INTRA.SOLV>
-0.406352

>  <SCORE.INTRA.SOLV.lig_0>
-78.5846

>  <SCORE.INTRA.VDW>
-0.652953

>  <SCORE.INTRA.VDW.0>
-2.81163

>  <SCORE.INTRA.norm>
-0.0870762

>  <SCORE.RESTR>
0

>  <SCORE.RESTR.CAVITY>
0

>  <SCORE.RESTR.norm>
0

>  <SCORE.SYSTEM>
0

>  <SCORE.SYSTEM.CONST>
0

>  <SCORE.SYSTEM.DIHEDRAL>
0

>  <SCORE.SYSTEM.SOLV>
0

>  <SCORE.SYSTEM.norm>
0

>  <SCORE.heavy>
26

>  <SCORE.norm>
-0.409717

>  <RMSD>
7.369

$$$$
ligand
 OpenBabel11021811463D
libRbt.so/2013.1/901 2013/11/27
 26 27  0  0  0  0  0  0  0  0999 V2000
   -7.2615  -39.0646    8.0912 C   0  0  0  0  0  0  0  0  0  0  0  0
   -3.1464  -43.0248    7.9654 C   0  0  0  0  0  0  0  0  0  0  0  0
   -0.2822  -46.1018    6.2584 P   0  0  1  0  0  0  0  0  0  0  0  0
   -1.1572  -44.5761    4.1490 P   0  0  2  0  0  0  0  0  0  0  0  0
   -4.3290  -43.1528   10.8528 C   0  0  0  0  0  0  0  0  0  0  0  0
   -4.7423  -40.7320   10.3029 C   0  0  0  0  0  0  0  0  0  0  0  0
   -5.1040  -42.0729   10.1415 C   0  0  0  0  0  0  0  0  0  0  0  0
   -6.1575  -42.4247    9.2934 C   0  0  0  0  0  0  0  0  0  0  0  0
   -6.4828  -43.6903    9.1333 N   0  0  0  0  0  0  0  0  0  0  0  0
   -6.8711  -41.4427    8.6505 N   0  0  0  0  0  0  0  0  0  0  0  0
   -6.4974  -40.1225    8.8048 C   0  0  0  0  0  0  0  0  0  0  0  0
   -5.4522  -39.7609    9.6337 N   0  0  0  0  0  0  0  0  0  0  0  0
   -1.5310  -46.9287    6.2952 O   0  5  0  0  0  0  0  0  0  0  0  0
   -0.4349  -43.3250    4.4569 O   0  0  0  0  0  0  0  0  0  0  0  0
   -0.5254  -42.7481   10.8586 S   0  0  0  0  0  0  0  0  0  0  0  0
   -1.9704  -42.8955   11.4850 C   0  0  0  0  0  0  0  0  0  0  0  0
    0.9426  -46.7525    6.7967 O   0  0  0  0  0  0  0  0  0  0  0  0
   -2.4921  -44.6195    4.7756 O   0  5  0  0  0  0  0  0  0  0  0  0
   -2.9367  -43.0155   10.5258 N   0  0  0  0  0  0  0  0  0  0  0  0
   -0.1799  -45.6769    4.7372 O   0  0  0  0  0  0  0  0  0  0  0  0
   -1.4400  -44.8683    2.7111 O   0  0  0  0  0  0  0  0  0  0  0  0
   -2.4089  -42.9465    9.2672 C   0  0  1  0  0  0  0  0  0  0  0  0
   -1.0472  -42.7964    9.3460 C   0  0  2  0  0  0  0  0  0  0  0  0
    0.0002  -42.6844    8.2661 C   0  0  0  0  0  0  0  0  0  0  0  0
    0.3528  -44.0493    7.6641 C   0  0  0  0  0  0  0  0  0  0  0  0
   -0.6812  -44.7989    7.0525 O   0  0  0  0  0  0  0  0  0  0  0  0
  1 11  1  0  0  0  0
  3 13  1  1  0  0  0
  3 17  2  0  0  0  0
  3 20  1  0  0  0  0
  3 26  1  0  0  0  0
  4 14  1  1  0  0  0
  4 18  1  0  0  0  0
  4 21  2  0  0  0  0
  4 20  1  0  0  0  0
  5 19  1  0  0  0  0
  5  7  1  0  0  0  0
  6  7  2  0  0  0  0
  6 12  1  0  0  0  0
  7  8  1  0  0  0  0
  8  9  1  0  0  0  0
  8 10  2  0  0  0  0
 10 11  1  0  0  0  0
 11 12  2  0  0  0  0
 15 23  1  0  0  0  0
 15 16  1  0  0  0  0
 16 19  1  0  0  0  0
 19 22  1  0  0  0  0
 22  2  1  6  0  0  0
 22 23  1  0  0  0  0
 23 24  1  6  0  0  0
 24 25  1  0  0  0  0
 25 26  1  0  0  0  0
M  CHG  2  13  -1  18  -1
M  END
>  <CHROM.1>
73.79237115,125.04345159,-54.42878587,86.83421908,100.79061972,59.51538616
171.54054064,155.45272318,-2.40693825,-43.48888518,7.72886085,2.37429218
-0.50483331,1.28883824

>  <Name>
ligand

>  <RI>
0

>  <Rbt.Current_Directory>
/home/itssahil/PROJECTS/Mol_Feturizer/New_Systems/rnas/3D2G

>  <Rbt.Executable>
rbdock ($Id: //depot/dev/client3/rdock/2013.1/src/exe/rbdock.cxx#4 $)

>  <Rbt.Library>
libRbt.so (2013.1, Build901 2013/11/27)

>  <Rbt.Parameter_File>
/export/apps/rDock/src/rDock_2013.1_src/data/scripts/dock_solv.prm

>  <Rbt.Receptor>
prm/pocket_docking_6.prm

>  <SCORE>
-12.4031

>  <SCORE.INTER>
-10.4521

>  <SCORE.INTER.CONST>
1

>  <SCORE.INTER.POLAR>
0

>  <SCORE.INTER.ROT>
8

>  <SCORE.INTER.SOLV>
14.5027

>  <SCORE.INTER.VDW>
-20.7356

>  <SCORE.INTER.norm>
-0.402004

>  <SCORE.INTRA>
-1.95261

>  <SCORE.INTRA.DIHEDRAL>
-1.09406

>  <SCORE.INTRA.DIHEDRAL.0>
9.09364

>  <SCORE.INTRA.POLAR>
0

>  <SCORE.INTRA.POLAR.0>
0

>  <SCORE.INTRA.REPUL>
0

>  <SCORE.INTRA.REPUL.0>
0

>  <SCORE.INTRA.SOLV>
-0.0234309

>  <SCORE.INTRA.SOLV.lig_0>
-78.5846

>  <SCORE.INTRA.VDW>
-1.39386

>  <SCORE.INTRA.VDW.0>
-2.81163

>  <SCORE.INTRA.norm>
-0.0751002

>  <SCORE.RESTR>
0.00164341

>  <SCORE.RESTR.CAVITY>
0.00164341

>  <SCORE.RESTR.norm>
6.32079e-05

>  <SCORE.SYSTEM>
0

>  <SCORE.SYSTEM.CONST>
0

>  <SCORE.SYSTEM.DIHEDRAL>
0

>  <SCORE.SYSTEM.SOLV>
0

>  <SCORE.SYSTEM.norm>
0

>  <SCORE.heavy>
26

>  <SCORE.norm>
-0.477041

>  <RMSD>
7.413

$$$$
ligand
 OpenBabel11021811463D
libRbt.so/2013.1/901 2013/11/27
 26 27  0  0  0  0  0  0  0  0999 V2000
   -4.7916  -41.2094   13.2266 C   0  0  0  0  0  0  0  0  0  0  0  0
   -5.9092  -44.4975    6.1904 C   0  0  0  0  0  0  0  0  0  0  0  0
   -2.1657  -46.9390    7.5545 P   0  0  1  0  0  0  0  0  0  0  0  0
   -1.2947  -49.4350    8.2989 P   0  0  2  0  0  0  0  0  0  0  0  0
   -7.4503  -43.0346    8.4790 C   0  0  0  0  0  0  0  0  0  0  0  0
   -7.0650  -43.1406   10.9636 C   0  0  0  0  0  0  0  0  0  0  0  0
   -6.7660  -42.5503    9.7319 C   0  0  0  0  0  0  0  0  0  0  0  0
   -5.8068  -41.5375    9.6466 C   0  0  0  0  0  0  0  0  0  0  0  0
   -5.5183  -40.9970    8.4814 N   0  0  0  0  0  0  0  0  0  0  0  0
   -5.1878  -41.0882   10.7875 N   0  0  0  0  0  0  0  0  0  0  0  0
   -5.4790  -41.6869   11.9971 C   0  0  0  0  0  0  0  0  0  0  0  0
   -6.4192  -42.6953   12.0948 N   0  0  0  0  0  0  0  0  0  0  0  0
   -2.0200  -45.5814    8.1712 O   0  5  0  0  0  0  0  0  0  0  0  0
   -2.7021  -49.8344    8.5028 O   0  0  0  0  0  0  0  0  0  0  0  0
   -7.3986  -46.8292    8.9585 S   0  0  0  0  0  0  0  0  0  0  0  0
   -7.7443  -45.3262    9.3103 C   0  0  0  0  0  0  0  0  0  0  0  0
   -1.7518  -47.0519    6.1299 O   0  0  0  0  0  0  0  0  0  0  0  0
   -0.3796  -50.1146    9.2354 O   0  5  0  0  0  0  0  0  0  0  0  0
   -7.2670  -44.4556    8.3709 N   0  0  0  0  0  0  0  0  0  0  0  0
   -1.3548  -47.8701    8.5448 O   0  0  0  0  0  0  0  0  0  0  0  0
   -0.6902  -49.7130    6.9609 O   0  0  0  0  0  0  0  0  0  0  0  0
   -6.5851  -45.1058    7.3812 C   0  0  1  0  0  0  0  0  0  0  0  0
   -6.6026  -46.4570    7.6204 C   0  0  2  0  0  0  0  0  0  0  0  0
   -6.0177  -47.6079    6.8400 C   0  0  0  0  0  0  0  0  0  0  0  0
   -4.5067  -47.4532    6.6340 C   0  0  0  0  0  0  0  0  0  0  0  0
   -3.6889  -47.2818    7.7772 O   0  0  0  0  0  0  0  0  0  0  0  0
  1 11  1  0  0  0  0
  3 13  1  1  0  0  0
  3 17  2  0  0  0  0
  3 20  1  0  0  0  0
  3 26  1  0  0  0  0
  4 14  1  1  0  0  0
  4 18  1  0  0  0  0
  4 21  2  0  0  0  0
  4 20  1  0  0  0  0
  5 19  1  0  0  0  0
  5  7  1  0  0  0  0
  6  7  2  0  0  0  0
  6 12  1  0  0  0  0
  7  8  1  0  0  0  0
  8  9  1  0  0  0  0
  8 10  2  0  0  0  0
 10 11  1  0  0  0  0
 11 12  2  0  0  0  0
 15 23  1  0  0  0  0
 15 16  1  0  0  0  0
 16 19  1  0  0  0  0
 19 22  1  0  0  0  0
 22  2  1  6  0  0  0
 22 23  1  0  0  0  0
 23 24  1  6  0  0  0
 24 25  1  0  0  0  0
 25 26  1  0  0  0  0
M  CHG  2  13  -1  18  -1
M  END
>  <CHROM.1>
177.50897967,61.65056994,-53.74529310,-65.67653189,-123.55174221,55.43979015
-172.30607673,116.92984905,-4.43154492,-45.79587322,8.65574106,-2.21475774
0.32841115,-2.53346079

>  <Name>
ligand

>  <RI>
0

>  <Rbt.Current_Directory>
/home/itssahil/PROJECTS/Mol_Feturizer/New_Systems/rnas/3D2G

>  <Rbt.Executable>
rbdock ($Id: //depot/dev/client3/rdock/2013.1/src/exe/rbdock.cxx#4 $)

>  <Rbt.Library>
libRbt.so (2013.1, Build901 2013/11/27)

>  <Rbt.Parameter_File>
/export/apps/rDock/src/rDock_2013.1_src/data/scripts/dock_solv.prm

>  <Rbt.Receptor>
prm/pocket_docking_6.prm

>  <SCORE>
-14.506

>  <SCORE.INTER>
-12.1483

>  <SCORE.INTER.CONST>
1

>  <SCORE.INTER.POLAR>
0

>  <SCORE.INTER.ROT>
8

>  <SCORE.INTER.SOLV>
8.40019

>  <SCORE.INTER.VDW>
-19.8323

>  <SCORE.INTER.norm>
-0.467242

>  <SCORE.INTRA>
-2.35767

>  <SCORE.INTRA.DIHEDRAL>
-1.82471

>  <SCORE.INTRA.DIHEDRAL.0>
9.09364

>  <SCORE.INTRA.POLAR>
0

>  <SCORE.INTRA.POLAR.0>
0

>  <SCORE.INTRA.REPUL>
0

>  <SCORE.INTRA.REPUL.0>
0

>  <SCORE.INTRA.SOLV>
-2.19925

>  <SCORE.INTRA.SOLV.lig_0>
-78.5846

>  <SCORE.INTRA.VDW>
-0.345692

>  <SCORE.INTRA.VDW.0>
-2.81163

>  <SCORE.INTRA.norm>
-0.0906797

>  <SCORE.RESTR>
2.47832e-05

>  <SCORE.RESTR.CAVITY>
2.47832e-05

>  <SCORE.RESTR.norm>
9.53199e-07

>  <SCORE.SYSTEM>
0

>  <SCORE.SYSTEM.CONST>
0

>  <SCORE.SYSTEM.DIHEDRAL>
0

>  <SCORE.SYSTEM.SOLV>
0

>  <SCORE.SYSTEM.norm>
0

>  <SCORE.heavy>
26

>  <SCORE.norm>
-0.557921

>  <RMSD>
7.420

$$$$
ligand
 OpenBabel11021811463D
libRbt.so/2013.1/901 2013/11/27
 26 27  0  0  0  0  0  0  0  0999 V2000
   -3.1215  -46.6056    4.7157 C   0  0  0  0  0  0  0  0  0  0  0  0
   -5.1236  -46.5059   10.5136 C   0  0  0  0  0  0  0  0  0  0  0  0
   -3.3480  -41.1118   10.2243 P   0  0  1  0  0  0  0  0  0  0  0  0
   -2.8763  -42.2956    7.7913 P   0  0  2  0  0  0  0  0  0  0  0  0
   -7.4734  -46.5286    8.4568 C   0  0  0  0  0  0  0  0  0  0  0  0
   -5.4385  -47.6338    7.4714 C   0  0  0  0  0  0  0  0  0  0  0  0
   -6.3199  -46.5486    7.4863 C   0  0  0  0  0  0  0  0  0  0  0  0
   -6.1625  -45.4962    6.5803 C   0  0  0  0  0  0  0  0  0  0  0  0
   -7.0054  -44.4850    6.5889 N   0  0  0  0  0  0  0  0  0  0  0  0
   -5.1077  -45.5073    5.7006 N   0  0  0  0  0  0  0  0  0  0  0  0
   -4.2509  -46.5899    5.6834 C   0  0  0  0  0  0  0  0  0  0  0  0
   -4.3998  -47.6415    6.5681 N   0  0  0  0  0  0  0  0  0  0  0  0
   -2.4111  -40.6723   11.3075 O   0  5  0  0  0  0  0  0  0  0  0  0
   -3.9837  -41.4769    7.2573 O   0  0  0  0  0  0  0  0  0  0  0  0
   -7.5393  -43.4324   10.7020 S   0  0  0  0  0  0  0  0  0  0  0  0
   -8.0261  -44.4003    9.5494 C   0  0  0  0  0  0  0  0  0  0  0  0
   -4.4516  -40.1686    9.8991 O   0  0  0  0  0  0  0  0  0  0  0  0
   -3.3244  -43.6375    8.2097 O   0  5  0  0  0  0  0  0  0  0  0  0
   -7.2337  -45.5086    9.4400 N   0  0  0  0  0  0  0  0  0  0  0  0
   -2.3755  -41.4196    9.0140 O   0  0  0  0  0  0  0  0  0  0  0  0
   -1.7321  -42.5830    6.8741 O   0  0  0  0  0  0  0  0  0  0  0  0
   -6.2030  -45.4820   10.3368 C   0  0  1  0  0  0  0  0  0  0  0  0
   -6.2865  -44.3455   11.1014 C   0  0  2  0  0  0  0  0  0  0  0  0
   -5.4176  -43.8448   12.2283 C   0  0  0  0  0  0  0  0  0  0  0  0
   -4.7146  -42.5303   11.8711 C   0  0  0  0  0  0  0  0  0  0  0  0
   -3.8697  -42.5098   10.7350 O   0  0  0  0  0  0  0  0  0  0  0  0
  1 11  1  0  0  0  0
  3 13  1  1  0  0  0
  3 17  2  0  0  0  0
  3 20  1  0  0  0  0
  3 26  1  0  0  0  0
  4 14  1  6  0  0  0
  4 18  1  0  0  0  0
  4 21  2  0  0  0  0
  4 20  1  0  0  0  0
  5 19  1  0  0  0  0
  5  7  1  0  0  0  0
  6  7  2  0  0  0  0
  6 12  1  0  0  0  0
  7  8  1  0  0  0  0
  8  9  1  0  0  0  0
  8 10  2  0  0  0  0
 10 11  1  0  0  0  0
 11 12  2  0  0  0  0
 15 23  1  0  0  0  0
 15 16  1  0  0  0  0
 16 19  1  0  0  0  0
 19 22  1  0  0  0  0
 22  2  1  1  0  0  0
 22 23  1  0  0  0  0
 23 24  1  1  0  0  0
 24 25  1  0  0  0  0
 25 26  1  0  0  0  0
M  CHG  2  13  -1  18  -1
M  END
>  <CHROM.1>
162.69166037,114.64116059,110.87323276,61.95680276,-64.55751868,-58.38901167
169.62723027,68.67614986,-4.79392598,-43.83431595,8.83417685,-2.02735282
0.68832018,0.85182131

>  <Name>
ligand

>  <RI>
0

>  <Rbt.Current_Directory>
/home/itssahil/PROJECTS/Mol_Feturizer/New_Systems/rnas/3D2G

>  <Rbt.Executable>
rbdock ($Id: //depot/dev/client3/rdock/2013.1/src/exe/rbdock.cxx#4 $)

>  <Rbt.Library>
libRbt.so (2013.1, Build901 2013/11/27)

>  <Rbt.Parameter_File>
/export/apps/rDock/src/rDock_2013.1_src/data/scripts/dock_solv.prm

>  <Rbt.Receptor>
prm/pocket_docking_5.prm

>  <SCORE>
-13.4352

>  <SCORE.INTER>
-9.62465

>  <SCORE.INTER.CONST>
1

>  <SCORE.INTER.POLAR>
0

>  <SCORE.INTER.ROT>
8

>  <SCORE.INTER.SOLV>
8.44139

>  <SCORE.INTER.VDW>
-18.1636

>  <SCORE.INTER.norm>
-0.370179

>  <SCORE.INTRA>
-3.81055

>  <SCORE.INTRA.DIHEDRAL>
-3.06792

>  <SCORE.INTRA.DIHEDRAL.0>
9.09364

>  <SCORE.INTRA.POLAR>
0

>  <SCORE.INTRA.POLAR.0>
0

>  <SCORE.INTRA.REPUL>
0

>  <SCORE.INTRA.REPUL.0>
0

>  <SCORE.INTRA.SOLV>
-0.175855

>  <SCORE.INTRA.SOLV.lig_0>
-78.5846

>  <SCORE.INTRA.VDW>
-2.18866

>  <SCORE.INTRA.VDW.0>
-2.81163

>  <SCORE.INTRA.norm>
-0.14656

>  <SCORE.RESTR>
0

>  <SCORE.RESTR.CAVITY>
0

>  <SCORE.RESTR.norm>
0

>  <SCORE.SYSTEM>
0

>  <SCORE.SYSTEM.CONST>
0

>  <SCORE.SYSTEM.DIHEDRAL>
0

>  <SCORE.SYSTEM.SOLV>
0

>  <SCORE.SYSTEM.norm>
0

>  <SCORE.heavy>
26

>  <SCORE.norm>
-0.516738

>  <RMSD>
7.452

$$$$
ligand
 OpenBabel11021811463D
libRbt.so/2013.1/901 2013/11/27
 26 27  0  0  0  0  0  0  0  0999 V2000
   -5.2711  -43.8650    2.1587 C   0  0  0  0  0  0  0  0  0  0  0  0
   -4.1038  -46.7225    9.0306 C   0  0  0  0  0  0  0  0  0  0  0  0
   -4.9204  -42.5664   12.1269 P   0  0  1  0  0  0  0  0  0  0  0  0
   -5.3252  -39.9978   13.0109 P   0  0  2  0  0  0  0  0  0  0  0  0
   -5.6327  -47.6399    6.4667 C   0  0  0  0  0  0  0  0  0  0  0  0
   -6.6737  -45.9112    4.9631 C   0  0  0  0  0  0  0  0  0  0  0  0
   -5.5484  -46.6569    5.3269 C   0  0  0  0  0  0  0  0  0  0  0  0
   -4.3316  -46.4706    4.6653 C   0  0  0  0  0  0  0  0  0  0  0  0
   -3.2716  -47.1645    5.0233 N   0  0  0  0  0  0  0  0  0  0  0  0
   -4.2536  -45.5820    3.6207 N   0  0  0  0  0  0  0  0  0  0  0  0
   -5.3663  -44.8397    3.2782 C   0  0  0  0  0  0  0  0  0  0  0  0
   -6.5738  -45.0076    3.9295 N   0  0  0  0  0  0  0  0  0  0  0  0
   -4.3332  -43.1132   10.8617 O   0  5  0  0  0  0  0  0  0  0  0  0
   -6.5202  -40.6007   13.6358 O   0  0  0  0  0  0  0  0  0  0  0  0
   -7.9388  -45.9416    9.0024 S   0  0  0  0  0  0  0  0  0  0  0  0
   -7.5505  -46.6652    7.6504 C   0  0  0  0  0  0  0  0  0  0  0  0
   -4.1949  -42.9092   13.3797 O   0  0  0  0  0  0  0  0  0  0  0  0
   -5.5812  -38.6309   12.5187 O   0  5  0  0  0  0  0  0  0  0  0  0
   -6.2223  -46.9841    7.6011 N   0  0  0  0  0  0  0  0  0  0  0  0
   -5.0178  -41.0141   11.8338 O   0  0  0  0  0  0  0  0  0  0  0  0
   -4.1117  -39.8357   13.8677 O   0  0  0  0  0  0  0  0  0  0  0  0
   -5.5619  -46.5678    8.7227 C   0  0  1  0  0  0  0  0  0  0  0  0
   -6.4465  -45.9651    9.5814 C   0  0  2  0  0  0  0  0  0  0  0  0
   -6.2409  -45.3519   10.9443 C   0  0  0  0  0  0  0  0  0  0  0  0
   -6.7976  -43.9258   11.0223 C   0  0  0  0  0  0  0  0  0  0  0  0
   -6.4006  -43.1104   12.1097 O   0  0  0  0  0  0  0  0  0  0  0  0
  1 11  1  0  0  0  0
  3 13  1  6  0  0  0
  3 17  2  0  0  0  0
  3 20  1  0  0  0  0
  3 26  1  0  0  0  0
  4 14  1  1  0  0  0
  4 18  1  0  0  0  0
  4 21  2  0  0  0  0
  4 20  1  0  0  0  0
  5 19  1  0  0  0  0
  5  7  1  0  0  0  0
  6  7  2  0  0  0  0
  6 12  1  0  0  0  0
  7  8  1  0  0  0  0
  8  9  1  0  0  0  0
  8 10  2  0  0  0  0
 10 11  1  0  0  0  0
 11 12  2  0  0  0  0
 15 23  1  0  0  0  0
 15 16  1  0  0  0  0
 16 19  1  0  0  0  0
 19 22  1  0  0  0  0
 22  2  1  1  0  0  0
 22 23  1  0  0  0  0
 23 24  1  1  0  0  0
 24 25  1  0  0  0  0
 25 26  1  0  0  0  0
M  CHG  2  13  -1  18  -1
M  END
>  <CHROM.1>
-168.01296298,72.36040903,-49.80013497,-50.78883282,-52.76693891,-164.95647488
71.88634598,0.76467071,-5.58525995,-44.01116678,9.22609384,-1.64642986,1.24284170
1.06423796

>  <Name>
ligand

>  <RI>
0

>  <Rbt.Current_Directory>
/home/itssahil/PROJECTS/Mol_Feturizer/New_Systems/rnas/3D2G

>  <Rbt.Executable>
rbdock ($Id: //depot/dev/client3/rdock/2013.1/src/exe/rbdock.cxx#4 $)

>  <Rbt.Library>
libRbt.so (2013.1, Build901 2013/11/27)

>  <Rbt.Parameter_File>
/export/apps/rDock/src/rDock_2013.1_src/data/scripts/dock_solv.prm

>  <Rbt.Receptor>
prm/pocket_docking_8.prm

>  <SCORE>
-12.8252

>  <SCORE.INTER>
-14.625

>  <SCORE.INTER.CONST>
1

>  <SCORE.INTER.POLAR>
0

>  <SCORE.INTER.ROT>
8

>  <SCORE.INTER.SOLV>
14.1673

>  <SCORE.INTER.VDW>
-23.4057

>  <SCORE.INTER.norm>
-0.5625

>  <SCORE.INTRA>
1.79983

>  <SCORE.INTRA.DIHEDRAL>
0.547656

>  <SCORE.INTRA.DIHEDRAL.0>
9.09364

>  <SCORE.INTRA.POLAR>
0

>  <SCORE.INTRA.POLAR.0>
0

>  <SCORE.INTRA.REPUL>
0

>  <SCORE.INTRA.REPUL.0>
0

>  <SCORE.INTRA.SOLV>
-1.18578

>  <SCORE.INTRA.SOLV.lig_0>
-78.5846

>  <SCORE.INTRA.VDW>
2.11889

>  <SCORE.INTRA.VDW.0>
-2.81163

>  <SCORE.INTRA.norm>
0.0692241

>  <SCORE.RESTR>
0

>  <SCORE.RESTR.CAVITY>
0

>  <SCORE.RESTR.norm>
0

>  <SCORE.SYSTEM>
0

>  <SCORE.SYSTEM.CONST>
0

>  <SCORE.SYSTEM.DIHEDRAL>
0

>  <SCORE.SYSTEM.SOLV>
0

>  <SCORE.SYSTEM.norm>
0

>  <SCORE.heavy>
26

>  <SCORE.norm>
-0.493276

>  <RMSD>
7.483

$$$$
ligand
 OpenBabel11021811463D
libRbt.so/2013.1/901 2013/11/27
 26 27  0  0  0  0  0  0  0  0999 V2000
   -6.2688  -45.3625   11.6011 C   0  0  0  0  0  0  0  0  0  0  0  0
   -5.5248  -43.8013    5.5753 C   0  0  0  0  0  0  0  0  0  0  0  0
   -7.7536  -40.4346    7.4259 P   0  0  1  0  0  0  0  0  0  0  0  0
   -5.4724  -40.4232    8.9554 P   0  0  2  0  0  0  0  0  0  0  0  0
   -6.5769  -46.7062    6.0299 C   0  0  0  0  0  0  0  0  0  0  0  0
   -7.6658  -46.0021    8.1867 C   0  0  0  0  0  0  0  0  0  0  0  0
   -6.5012  -46.3385    7.4899 C   0  0  0  0  0  0  0  0  0  0  0  0
   -5.2683  -46.3739    8.1470 C   0  0  0  0  0  0  0  0  0  0  0  0
   -4.1779  -46.7070    7.4889 N   0  0  0  0  0  0  0  0  0  0  0  0
   -5.1946  -46.0310    9.4751 N   0  0  0  0  0  0  0  0  0  0  0  0
   -6.3519  -45.7143   10.1584 C   0  0  0  0  0  0  0  0  0  0  0  0
   -7.5790  -45.6836    9.5230 N   0  0  0  0  0  0  0  0  0  0  0  0
   -8.2506  -41.1855    8.6232 O   0  5  0  0  0  0  0  0  0  0  0  0
   -4.0464  -40.3466    8.5780 O   0  0  0  0  0  0  0  0  0  0  0  0
   -9.0365  -44.5683    4.0270 S   0  0  0  0  0  0  0  0  0  0  0  0
   -8.4948  -45.8695    4.7452 C   0  0  0  0  0  0  0  0  0  0  0  0
   -8.2377  -39.0342    7.2917 O   0  0  0  0  0  0  0  0  0  0  0  0
   -5.7542  -41.5638    9.8476 O   0  5  0  0  0  0  0  0  0  0  0  0
   -7.2743  -45.6658    5.3258 N   0  0  0  0  0  0  0  0  0  0  0  0
   -6.1813  -40.5722    7.5453 O   0  0  0  0  0  0  0  0  0  0  0  0
   -6.0506  -39.2576    9.6904 O   0  0  0  0  0  0  0  0  0  0  0  0
   -6.8193  -44.3954    5.1105 C   0  0  1  0  0  0  0  0  0  0  0  0
   -7.7461  -43.6907    4.3842 C   0  0  2  0  0  0  0  0  0  0  0  0
   -7.7434  -42.2634    3.8958 C   0  0  0  0  0  0  0  0  0  0  0  0
   -7.4261  -41.2719    5.0210 C   0  0  0  0  0  0  0  0  0  0  0  0
   -8.1838  -41.3485    6.2147 O   0  0  0  0  0  0  0  0  0  0  0  0
  1 11  1  0  0  0  0
  3 13  1  1  0  0  0
  3 17  2  0  0  0  0
  3 20  1  0  0  0  0
  3 26  1  0  0  0  0
  4 14  1  6  0  0  0
  4 18  1  0  0  0  0
  4 21  2  0  0  0  0
  4 20  1  0  0  0  0
  5 19  1  0  0  0  0
  5  7  1  0  0  0  0
  6  7  2  0  0  0  0
  6 12  1  0  0  0  0
  7  8  1  0  0  0  0
  8  9  1  0  0  0  0
  8 10  2  0  0  0  0
 10 11  1  0  0  0  0
 11 12  2  0  0  0  0
 15 23  1  0  0  0  0
 15 16  1  0  0  0  0
 16 19  1  0  0  0  0
 19 22  1  0  0  0  0
 22  2  1  1  0  0  0
 22 23  1  0  0  0  0
 23 24  1  1  0  0  0
 24 25  1  0  0  0  0
 25 26  1  0  0  0  0
M  CHG  2  13  -1  18  -1
M  END
>  <CHROM.1>
-41.66915828,-113.60949993,52.84756164,-169.12765036,128.62182238,-52.05359999
173.49731649,-153.61493868,-6.82592721,-43.12200477,7.30125246,-1.75914110
-1.11455725,0.16151168

>  <Name>
ligand

>  <RI>
0

>  <Rbt.Current_Directory>
/home/itssahil/PROJECTS/Mol_Feturizer/New_Systems/rnas/3D2G

>  <Rbt.Executable>
rbdock ($Id: //depot/dev/client3/rdock/2013.1/src/exe/rbdock.cxx#4 $)

>  <Rbt.Library>
libRbt.so (2013.1, Build901 2013/11/27)

>  <Rbt.Parameter_File>
/export/apps/rDock/src/rDock_2013.1_src/data/scripts/dock_solv.prm

>  <Rbt.Receptor>
prm/pocket_docking_5.prm

>  <SCORE>
-13.0123

>  <SCORE.INTER>
-11.4693

>  <SCORE.INTER.CONST>
1

>  <SCORE.INTER.POLAR>
0

>  <SCORE.INTER.ROT>
8

>  <SCORE.INTER.SOLV>
13.6531

>  <SCORE.INTER.VDW>
-21.1305

>  <SCORE.INTER.norm>
-0.441126

>  <SCORE.INTRA>
-1.54299

>  <SCORE.INTRA.DIHEDRAL>
-2.29528

>  <SCORE.INTRA.DIHEDRAL.0>
9.09364

>  <SCORE.INTRA.POLAR>
0

>  <SCORE.INTRA.POLAR.0>
0

>  <SCORE.INTRA.REPUL>
0

>  <SCORE.INTRA.REPUL.0>
0

>  <SCORE.INTRA.SOLV>
0.970624

>  <SCORE.INTRA.SOLV.lig_0>
-78.5846

>  <SCORE.INTRA.VDW>
-0.880662

>  <SCORE.INTRA.VDW.0>
-2.81163

>  <SCORE.INTRA.norm>
-0.0593458

>  <SCORE.RESTR>
0

>  <SCORE.RESTR.CAVITY>
0

>  <SCORE.RESTR.norm>
0

>  <SCORE.SYSTEM>
0

>  <SCORE.SYSTEM.CONST>
0

>  <SCORE.SYSTEM.DIHEDRAL>
0

>  <SCORE.SYSTEM.SOLV>
0

>  <SCORE.SYSTEM.norm>
0

>  <SCORE.heavy>
26

>  <SCORE.norm>
-0.500472

>  <RMSD>
7.495

$$$$
ligand
 OpenBabel11021811463D
libRbt.so/2013.1/901 2013/11/27
 26 27  0  0  0  0  0  0  0  0999 V2000
   -9.0881  -45.4530    2.1842 C   0  0  0  0  0  0  0  0  0  0  0  0
   -4.2173  -44.9223    7.4520 C   0  0  0  0  0  0  0  0  0  0  0  0
   -7.3291  -41.0542    8.2354 P   0  0  1  0  0  0  0  0  0  0  0  0
   -9.4327  -39.9153    6.8861 P   0  0  2  0  0  0  0  0  0  0  0  0
   -5.7265  -47.4415    6.3896 C   0  0  0  0  0  0  0  0  0  0  0  0
   -7.4551  -45.8256    5.5329 C   0  0  0  0  0  0  0  0  0  0  0  0
   -6.6224  -46.9230    5.2937 C   0  0  0  0  0  0  0  0  0  0  0  0
   -6.5853  -47.5216    4.0314 C   0  0  0  0  0  0  0  0  0  0  0  0
   -5.7871  -48.5444    3.8081 N   0  0  0  0  0  0  0  0  0  0  0  0
   -7.4066  -47.0570    3.0332 N   0  0  0  0  0  0  0  0  0  0  0  0
   -8.2149  -45.9639    3.2745 C   0  0  0  0  0  0  0  0  0  0  0  0
   -8.2553  -45.3569    4.5156 N   0  0  0  0  0  0  0  0  0  0  0  0
   -6.8312  -41.4349    6.8747 O   0  5  0  0  0  0  0  0  0  0  0  0
  -10.8952  -40.0439    7.0478 O   0  0  0  0  0  0  0  0  0  0  0  0
   -7.1806  -46.1617    9.6880 S   0  0  0  0  0  0  0  0  0  0  0  0
   -7.0594  -47.1052    8.4241 C   0  0  0  0  0  0  0  0  0  0  0  0
   -6.6708  -39.8755    8.8605 O   0  0  0  0  0  0  0  0  0  0  0  0
   -8.9824  -40.3102    5.5378 O   0  5  0  0  0  0  0  0  0  0  0  0
   -6.0280  -46.7383    7.6058 N   0  0  0  0  0  0  0  0  0  0  0  0
   -8.8873  -40.8886    8.0122 O   0  0  0  0  0  0  0  0  0  0  0  0
   -8.8403  -38.5549    7.0642 O   0  0  0  0  0  0  0  0  0  0  0  0
   -5.3827  -45.6287    8.0746 C   0  0  1  0  0  0  0  0  0  0  0  0
   -5.9589  -45.2235    9.2523 C   0  0  2  0  0  0  0  0  0  0  0  0
   -5.6251  -44.0772   10.1744 C   0  0  0  0  0  0  0  0  0  0  0  0
   -5.8365  -42.7171    9.4999 C   0  0  0  0  0  0  0  0  0  0  0  0
   -7.1438  -42.3752    9.0769 O   0  0  0  0  0  0  0  0  0  0  0  0
  1 11  1  0  0  0  0
  3 13  1  6  0  0  0
  3 17  2  0  0  0  0
  3 20  1  0  0  0  0
  3 26  1  0  0  0  0
  4 14  1  1  0  0  0
  4 18  1  0  0  0  0
  4 21  2  0  0  0  0
  4 20  1  0  0  0  0
  5 19  1  0  0  0  0
  5  7  1  0  0  0  0
  6  7  2  0  0  0  0
  6 12  1  0  0  0  0
  7  8  1  0  0  0  0
  8  9  1  0  0  0  0
  8 10  2  0  0  0  0
 10 11  1  0  0  0  0
 11 12  2  0  0  0  0
 15 23  1  0  0  0  0
 15 16  1  0  0  0  0
 16 19  1  0  0  0  0
 19 22  1  0  0  0  0
 22  2  1  1  0  0  0
 22 23  1  0  0  0  0
 23 24  1  1  0  0  0
 24 25  1  0  0  0  0
 25 26  1  0  0  0  0
M  CHG  2  13  -1  18  -1
M  END
>  <CHROM.1>
-54.53932333,83.33646542,6.42748812,-178.80135432,-116.25926855,62.22492417
-172.98924113,76.09120552,-7.35249581,-43.72424110,6.98537503,1.06102996
1.02492185,-2.39337582

>  <Name>
ligand

>  <RI>
0

>  <Rbt.Current_Directory>
/home/itssahil/PROJECTS/Mol_Feturizer/New_Systems/rnas/3D2G

>  <Rbt.Executable>
rbdock ($Id: //depot/dev/client3/rdock/2013.1/src/exe/rbdock.cxx#4 $)

>  <Rbt.Library>
libRbt.so (2013.1, Build901 2013/11/27)

>  <Rbt.Parameter_File>
/export/apps/rDock/src/rDock_2013.1_src/data/scripts/dock_solv.prm

>  <Rbt.Receptor>
prm/pocket_docking_8.prm

>  <SCORE>
-16.1756

>  <SCORE.INTER>
-13.5869

>  <SCORE.INTER.CONST>
1

>  <SCORE.INTER.POLAR>
0

>  <SCORE.INTER.ROT>
8

>  <SCORE.INTER.SOLV>
13.21

>  <SCORE.INTER.VDW>
-22.3946

>  <SCORE.INTER.norm>
-0.522574

>  <SCORE.INTRA>
-2.58867

>  <SCORE.INTRA.DIHEDRAL>
-3.88469

>  <SCORE.INTRA.DIHEDRAL.0>
9.09364

>  <SCORE.INTRA.POLAR>
0

>  <SCORE.INTRA.POLAR.0>
0

>  <SCORE.INTRA.REPUL>
0

>  <SCORE.INTRA.REPUL.0>
0

>  <SCORE.INTRA.SOLV>
-0.13084

>  <SCORE.INTRA.SOLV.lig_0>
-78.5846

>  <SCORE.INTRA.VDW>
-0.580906

>  <SCORE.INTRA.VDW.0>
-2.81163

>  <SCORE.INTRA.norm>
-0.0995643

>  <SCORE.RESTR>
0

>  <SCORE.RESTR.CAVITY>
0

>  <SCORE.RESTR.norm>
0

>  <SCORE.SYSTEM>
0

>  <SCORE.SYSTEM.CONST>
0

>  <SCORE.SYSTEM.DIHEDRAL>
0

>  <SCORE.SYSTEM.SOLV>
0

>  <SCORE.SYSTEM.norm>
0

>  <SCORE.heavy>
26

>  <SCORE.norm>
-0.622139

>  <RMSD>
7.505

$$$$
ligand
 OpenBabel11021811463D
libRbt.so/2013.1/901 2013/11/27
 26 27  0  0  0  0  0  0  0  0999 V2000
   -7.2849  -46.4646    8.4528 C   0  0  0  0  0  0  0  0  0  0  0  0
   -6.9073  -43.6274    2.0161 C   0  0  0  0  0  0  0  0  0  0  0  0
   -8.8619  -39.5516    4.9337 P   0  0  1  0  0  0  0  0  0  0  0  0
   -8.7746  -39.7870    7.6686 P   0  0  2  0  0  0  0  0  0  0  0  0
   -4.6234  -45.1004    3.5544 C   0  0  0  0  0  0  0  0  0  0  0  0
   -6.7235  -45.3889    4.9107 C   0  0  0  0  0  0  0  0  0  0  0  0
   -5.3280  -45.4437    4.8421 C   0  0  0  0  0  0  0  0  0  0  0  0
   -4.5803  -45.8523    5.9498 C   0  0  0  0  0  0  0  0  0  0  0  0
   -3.2677  -45.9172    5.8737 N   0  0  0  0  0  0  0  0  0  0  0  0
   -5.2188  -46.1576    7.1271 N   0  0  0  0  0  0  0  0  0  0  0  0
   -6.5978  -46.1145    7.1811 C   0  0  0  0  0  0  0  0  0  0  0  0
   -7.3502  -45.7203    6.0907 N   0  0  0  0  0  0  0  0  0  0  0  0
  -10.2619  -40.0848    4.9248 O   0  5  0  0  0  0  0  0  0  0  0  0
   -8.0776  -40.7465    8.5491 O   0  0  0  0  0  0  0  0  0  0  0  0
   -4.1113  -41.3105    3.4759 S   0  0  0  0  0  0  0  0  0  0  0  0
   -3.7777  -42.8131    3.8408 C   0  0  0  0  0  0  0  0  0  0  0  0
   -8.7313  -38.0711    4.8667 O   0  0  0  0  0  0  0  0  0  0  0  0
  -10.2421  -39.8968    7.7728 O   0  5  0  0  0  0  0  0  0  0  0  0
   -4.7087  -43.6816    3.3438 N   0  0  0  0  0  0  0  0  0  0  0  0
   -8.2399  -40.2027    6.2353 O   0  0  0  0  0  0  0  0  0  0  0  0
   -8.5188  -38.3331    7.9006 O   0  0  0  0  0  0  0  0  0  0  0  0
   -5.7085  -43.0251    2.6830 C   0  0  1  0  0  0  0  0  0  0  0  0
   -5.4630  -41.6750    2.6996 C   0  0  2  0  0  0  0  0  0  0  0  0
   -6.2363  -40.5212    2.1112 C   0  0  0  0  0  0  0  0  0  0  0  0
   -6.9907  -39.7284    3.1846 C   0  0  0  0  0  0  0  0  0  0  0  0
   -8.1836  -40.2808    3.7107 O   0  0  0  0  0  0  0  0  0  0  0  0
  1 11  1  0  0  0  0
  3 13  1  6  0  0  0
  3 17  2  0  0  0  0
  3 20  1  0  0  0  0
  3 26  1  0  0  0  0
  4 14  1  1  0  0  0
  4 18  1  0  0  0  0
  4 21  2  0  0  0  0
  4 20  1  0  0  0  0
  5 19  1  0  0  0  0
  5  7  1  0  0  0  0
  6  7  2  0  0  0  0
  6 12  1  0  0  0  0
  7  8  1  0  0  0  0
  8  9  1  0  0  0  0
  8 10  2  0  0  0  0
 10 11  1  0  0  0  0
 11 12  2  0  0  0  0
 15 23  1  0  0  0  0
 15 16  1  0  0  0  0
 16 19  1  0  0  0  0
 19 22  1  0  0  0  0
 22  2  1  6  0  0  0
 22 23  1  0  0  0  0
 23 24  1  6  0  0  0
 24 25  1  0  0  0  0
 25 26  1  0  0  0  0
M  CHG  2  13  -1  18  -1
M  END
>  <CHROM.1>
-66.91869601,88.60575177,72.12032778,172.35454206,-75.35449296,-76.64747204
172.73047122,161.60587228,-6.89583013,-42.09213443,5.22773188,0.54706082
-0.88066375,2.42622101

>  <Name>
ligand

>  <RI>
0

>  <Rbt.Current_Directory>
/home/itssahil/PROJECTS/Mol_Feturizer/New_Systems/rnas/3D2G

>  <Rbt.Executable>
rbdock ($Id: //depot/dev/client3/rdock/2013.1/src/exe/rbdock.cxx#4 $)

>  <Rbt.Library>
libRbt.so (2013.1, Build901 2013/11/27)

>  <Rbt.Parameter_File>
/export/apps/rDock/src/rDock_2013.1_src/data/scripts/dock_solv.prm

>  <Rbt.Receptor>
prm/pocket_docking_5.prm

>  <SCORE>
-11.7776

>  <SCORE.INTER>
-9.78033

>  <SCORE.INTER.CONST>
1

>  <SCORE.INTER.POLAR>
0

>  <SCORE.INTER.ROT>
8

>  <SCORE.INTER.SOLV>
20.6872

>  <SCORE.INTER.VDW>
-22.3493

>  <SCORE.INTER.norm>
-0.376166

>  <SCORE.INTRA>
-1.99723

>  <SCORE.INTRA.DIHEDRAL>
-1.81345

>  <SCORE.INTRA.DIHEDRAL.0>
9.09364

>  <SCORE.INTRA.POLAR>
0

>  <SCORE.INTRA.POLAR.0>
0

>  <SCORE.INTRA.REPUL>
0

>  <SCORE.INTRA.REPUL.0>
0

>  <SCORE.INTRA.SOLV>
-0.194067

>  <SCORE.INTRA.SOLV.lig_0>
-78.5846

>  <SCORE.INTRA.VDW>
-0.993468

>  <SCORE.INTRA.VDW.0>
-2.81163

>  <SCORE.INTRA.norm>
-0.0768165

>  <SCORE.RESTR>
0

>  <SCORE.RESTR.CAVITY>
0

>  <SCORE.RESTR.norm>
0

>  <SCORE.SYSTEM>
0

>  <SCORE.SYSTEM.CONST>
0

>  <SCORE.SYSTEM.DIHEDRAL>
0

>  <SCORE.SYSTEM.SOLV>
0

>  <SCORE.SYSTEM.norm>
0

>  <SCORE.heavy>
26

>  <SCORE.norm>
-0.452983

>  <RMSD>
7.532

$$$$
ligand
 OpenBabel11021811463D
libRbt.so/2013.1/901 2013/11/27
 26 27  0  0  0  0  0  0  0  0999 V2000
   -5.1036  -40.1839   10.1466 C   0  0  0  0  0  0  0  0  0  0  0  0
   -4.9641  -42.5831    4.8113 C   0  0  0  0  0  0  0  0  0  0  0  0
   -8.9370  -39.2096    3.9704 P   0  0  1  0  0  0  0  0  0  0  0  0
   -9.3941  -39.8377    6.6047 P   0  0  2  0  0  0  0  0  0  0  0  0
   -6.0429  -44.7442    6.7909 C   0  0  0  0  0  0  0  0  0  0  0  0
   -6.8690  -42.7090    8.0192 C   0  0  0  0  0  0  0  0  0  0  0  0
   -5.8008  -43.5367    7.6604 C   0  0  0  0  0  0  0  0  0  0  0  0
   -4.5123  -43.2749    8.1339 C   0  0  0  0  0  0  0  0  0  0  0  0
   -3.5137  -44.0673    7.8054 N   0  0  0  0  0  0  0  0  0  0  0  0
   -4.2869  -42.1707    8.9193 N   0  0  0  0  0  0  0  0  0  0  0  0
   -5.3503  -41.3674    9.2802 C   0  0  0  0  0  0  0  0  0  0  0  0
   -6.6312  -41.6194    8.8261 N   0  0  0  0  0  0  0  0  0  0  0  0
   -9.8415  -38.7875    2.8532 O   0  5  0  0  0  0  0  0  0  0  0  0
   -8.3437  -38.8576    6.9482 O   0  0  0  0  0  0  0  0  0  0  0  0
   -8.3648  -44.2320    3.7945 S   0  0  0  0  0  0  0  0  0  0  0  0
   -7.8715  -44.8668    5.1569 C   0  0  0  0  0  0  0  0  0  0  0  0
   -7.7372  -38.3579    4.1906 O   0  0  0  0  0  0  0  0  0  0  0  0
   -8.8657  -41.2114    6.5047 O   0  5  0  0  0  0  0  0  0  0  0  0
   -6.6924  -44.3210    5.5811 N   0  0  0  0  0  0  0  0  0  0  0  0
   -9.9159  -39.2903    5.2115 O   0  0  0  0  0  0  0  0  0  0  0  0
  -10.5398  -39.9756    7.5541 O   0  0  0  0  0  0  0  0  0  0  0  0
   -6.2246  -43.3856    4.7017 C   0  0  1  0  0  0  0  0  0  0  0  0
   -7.1014  -43.2590    3.6537 C   0  0  2  0  0  0  0  0  0  0  0  0
   -7.0669  -42.3686    2.4365 C   0  0  0  0  0  0  0  0  0  0  0  0
   -7.4450  -40.9216    2.7725 C   0  0  0  0  0  0  0  0  0  0  0  0
   -8.5700  -40.6988    3.6028 O   0  0  0  0  0  0  0  0  0  0  0  0
  1 11  1  0  0  0  0
  3 13  1  6  0  0  0
  3 17  2  0  0  0  0
  3 20  1  0  0  0  0
  3 26  1  0  0  0  0
  4 14  1  1  0  0  0
  4 18  1  0  0  0  0
  4 21  2  0  0  0  0
  4 20  1  0  0  0  0
  5 19  1  0  0  0  0
  5  7  1  0  0  0  0
  6  7  2  0  0  0  0
  6 12  1  0  0  0  0
  7  8  1  0  0  0  0
  8  9  1  0  0  0  0
  8 10  2  0  0  0  0
 10 11  1  0  0  0  0
 11 12  2  0  0  0  0
 15 23  1  0  0  0  0
 15 16  1  0  0  0  0
 16 19  1  0  0  0  0
 19 22  1  0  0  0  0
 22  2  1  1  0  0  0
 22 23  1  0  0  0  0
 23 24  1  1  0  0  0
 24 25  1  0  0  0  0
 25 26  1  0  0  0  0
M  CHG  2  13  -1  18  -1
M  END
>  <CHROM.1>
174.39278524,-125.54297095,55.48675496,62.00707298,103.39178370,-45.18086204
178.73808988,88.48425509,-7.45412864,-41.56589952,5.80521887,0.12820790,-0.89395727
0.92646217

>  <Name>
ligand

>  <RI>
0

>  <Rbt.Current_Directory>
/home/itssahil/PROJECTS/Mol_Feturizer/New_Systems/rnas/3D2G

>  <Rbt.Executable>
rbdock ($Id: //depot/dev/client3/rdock/2013.1/src/exe/rbdock.cxx#4 $)

>  <Rbt.Library>
libRbt.so (2013.1, Build901 2013/11/27)

>  <Rbt.Parameter_File>
/export/apps/rDock/src/rDock_2013.1_src/data/scripts/dock_solv.prm

>  <Rbt.Receptor>
prm/pocket_docking_4.prm

>  <SCORE>
-7.73279

>  <SCORE.INTER>
-3.62778

>  <SCORE.INTER.CONST>
1

>  <SCORE.INTER.POLAR>
0

>  <SCORE.INTER.ROT>
8

>  <SCORE.INTER.SOLV>
20.8173

>  <SCORE.INTER.VDW>
-18.291

>  <SCORE.INTER.norm>
-0.13953

>  <SCORE.INTRA>
-4.105

>  <SCORE.INTRA.DIHEDRAL>
-2.86547

>  <SCORE.INTRA.DIHEDRAL.0>
9.09364

>  <SCORE.INTRA.POLAR>
0

>  <SCORE.INTRA.POLAR.0>
0

>  <SCORE.INTRA.REPUL>
0

>  <SCORE.INTRA.REPUL.0>
0

>  <SCORE.INTRA.SOLV>
-0.412754

>  <SCORE.INTRA.SOLV.lig_0>
-78.5846

>  <SCORE.INTRA.VDW>
-2.46589

>  <SCORE.INTRA.VDW.0>
-2.81163

>  <SCORE.INTRA.norm>
-0.157885

>  <SCORE.RESTR>
0

>  <SCORE.RESTR.CAVITY>
0

>  <SCORE.RESTR.norm>
0

>  <SCORE.SYSTEM>
0

>  <SCORE.SYSTEM.CONST>
0

>  <SCORE.SYSTEM.DIHEDRAL>
0

>  <SCORE.SYSTEM.SOLV>
0

>  <SCORE.SYSTEM.norm>
0

>  <SCORE.heavy>
26

>  <SCORE.norm>
-0.297415

>  <RMSD>
7.586

$$$$
ligand
 OpenBabel11021811463D
libRbt.so/2013.1/901 2013/11/27
 26 27  0  0  0  0  0  0  0  0999 V2000
   -7.2084  -46.6939    9.4318 C   0  0  0  0  0  0  0  0  0  0  0  0
   -7.0541  -43.6560    2.9252 C   0  0  0  0  0  0  0  0  0  0  0  0
   -6.2125  -39.6194    5.5197 P   0  0  1  0  0  0  0  0  0  0  0  0
   -8.5700  -40.5361    6.5895 P   0  0  2  0  0  0  0  0  0  0  0  0
   -6.0013  -46.4546    3.8260 C   0  0  0  0  0  0  0  0  0  0  0  0
   -7.2328  -45.6051    5.8496 C   0  0  0  0  0  0  0  0  0  0  0  0
   -6.3123  -46.5028    5.3003 C   0  0  0  0  0  0  0  0  0  0  0  0
   -5.7045  -47.4726    6.1022 C   0  0  0  0  0  0  0  0  0  0  0  0
   -4.8507  -48.3252    5.5756 N   0  0  0  0  0  0  0  0  0  0  0  0
   -5.9792  -47.5136    7.4474 N   0  0  0  0  0  0  0  0  0  0  0  0
   -6.9003  -46.6325    7.9780 C   0  0  0  0  0  0  0  0  0  0  0  0
   -7.5153  -45.6738    7.1950 N   0  0  0  0  0  0  0  0  0  0  0  0
   -5.8406  -38.3341    4.8457 O   0  5  0  0  0  0  0  0  0  0  0  0
   -8.3734  -41.7891    5.8324 O   0  0  0  0  0  0  0  0  0  0  0  0
   -3.1745  -43.9183    3.3695 S   0  0  0  0  0  0  0  0  0  0  0  0
   -3.8283  -45.3169    3.7144 C   0  0  0  0  0  0  0  0  0  0  0  0
   -5.4724  -39.9330    6.7716 O   0  0  0  0  0  0  0  0  0  0  0  0
   -9.9963  -40.1871    6.7323 O   0  5  0  0  0  0  0  0  0  0  0  0
   -5.1865  -45.3010    3.5620 N   0  0  0  0  0  0  0  0  0  0  0  0
   -7.7788  -39.4858    5.7042 O   0  0  0  0  0  0  0  0  0  0  0  0
   -8.0617  -40.4970    7.9942 O   0  0  0  0  0  0  0  0  0  0  0  0
   -5.6364  -44.0688    3.1790 C   0  0  1  0  0  0  0  0  0  0  0  0
   -4.5732  -43.2123    3.0407 C   0  0  2  0  0  0  0  0  0  0  0  0
   -4.5179  -41.7616    2.6308 C   0  0  0  0  0  0  0  0  0  0  0  0
   -4.7016  -40.8196    3.8260 C   0  0  0  0  0  0  0  0  0  0  0  0
   -5.9936  -40.7013    4.3932 O   0  0  0  0  0  0  0  0  0  0  0  0
  1 11  1  0  0  0  0
  3 13  1  6  0  0  0
  3 17  2  0  0  0  0
  3 20  1  0  0  0  0
  3 26  1  0  0  0  0
  4 14  1  6  0  0  0
  4 18  1  0  0  0  0
  4 21  2  0  0  0  0
  4 20  1  0  0  0  0
  5 19  1  0  0  0  0
  5  7  1  0  0  0  0
  6  7  2  0  0  0  0
  6 12  1  0  0  0  0
  7  8  1  0  0  0  0
  8  9  1  0  0  0  0
  8 10  2  0  0  0  0
 10 11  1  0  0  0  0
 11 12  2  0  0  0  0
 15 23  1  0  0  0  0
 15 16  1  0  0  0  0
 16 19  1  0  0  0  0
 19 22  1  0  0  0  0
 22  2  1  6  0  0  0
 22 23  1  0  0  0  0
 23 24  1  6  0  0  0
 24 25  1  0  0  0  0
 25 26  1  0  0  0  0
M  CHG  2  13  -1  18  -1
M  END
>  <CHROM.1>
-170.34629088,84.52386335,73.64240911,-64.15442346,-93.30647420,-72.97184132
-173.58538931,58.82138505,-6.27393237,-43.03485176,5.36728293,1.22402647
-0.83983367,2.90768417

>  <Name>
ligand

>  <RI>
0

>  <Rbt.Current_Directory>
/home/itssahil/PROJECTS/Mol_Feturizer/New_Systems/rnas/3D2G

>  <Rbt.Executable>
rbdock ($Id: //depot/dev/client3/rdock/2013.1/src/exe/rbdock.cxx#4 $)

>  <Rbt.Library>
libRbt.so (2013.1, Build901 2013/11/27)

>  <Rbt.Parameter_File>
/export/apps/rDock/src/rDock_2013.1_src/data/scripts/dock_solv.prm

>  <Rbt.Receptor>
prm/pocket_docking_6.prm

>  <SCORE>
-12.5995

>  <SCORE.INTER>
-8.28007

>  <SCORE.INTER.CONST>
1

>  <SCORE.INTER.POLAR>
0

>  <SCORE.INTER.ROT>
8

>  <SCORE.INTER.SOLV>
18.8994

>  <SCORE.INTER.VDW>
-20.7532

>  <SCORE.INTER.norm>
-0.318464

>  <SCORE.INTRA>
-4.31944

>  <SCORE.INTRA.DIHEDRAL>
-2.9055

>  <SCORE.INTRA.DIHEDRAL.0>
9.09364

>  <SCORE.INTRA.POLAR>
0

>  <SCORE.INTRA.POLAR.0>
0

>  <SCORE.INTRA.REPUL>
0

>  <SCORE.INTRA.REPUL.0>
0

>  <SCORE.INTRA.SOLV>
-2.76253

>  <SCORE.INTRA.SOLV.lig_0>
-78.5846

>  <SCORE.INTRA.VDW>
-1.48543

>  <SCORE.INTRA.VDW.0>
-2.81163

>  <SCORE.INTRA.norm>
-0.166132

>  <SCORE.RESTR>
0

>  <SCORE.RESTR.CAVITY>
0

>  <SCORE.RESTR.norm>
0

>  <SCORE.SYSTEM>
0

>  <SCORE.SYSTEM.CONST>
0

>  <SCORE.SYSTEM.DIHEDRAL>
0

>  <SCORE.SYSTEM.SOLV>
0

>  <SCORE.SYSTEM.norm>
0

>  <SCORE.heavy>
26

>  <SCORE.norm>
-0.484597

>  <RMSD>
7.625

$$$$
ligand
 OpenBabel11021811463D
libRbt.so/2013.1/901 2013/11/27
 26 27  0  0  0  0  0  0  0  0999 V2000
   -4.2727  -43.1746    2.9568 C   0  0  0  0  0  0  0  0  0  0  0  0
   -3.7134  -45.9225    9.2647 C   0  0  0  0  0  0  0  0  0  0  0  0
   -6.0643  -41.8071    9.3884 P   0  0  1  0  0  0  0  0  0  0  0  0
   -7.0259  -39.5756    8.1083 P   0  0  2  0  0  0  0  0  0  0  0  0
   -4.7769  -47.4472    6.7554 C   0  0  0  0  0  0  0  0  0  0  0  0
   -5.6080  -45.3034    5.7324 C   0  0  0  0  0  0  0  0  0  0  0  0
   -4.6583  -46.3294    5.7509 C   0  0  0  0  0  0  0  0  0  0  0  0
   -3.5751  -46.3074    4.8682 C   0  0  0  0  0  0  0  0  0  0  0  0
   -2.6757  -47.2681    4.9016 N   0  0  0  0  0  0  0  0  0  0  0  0
   -3.4688  -45.2949    3.9460 N   0  0  0  0  0  0  0  0  0  0  0  0
   -4.4034  -44.2786    3.9448 C   0  0  0  0  0  0  0  0  0  0  0  0
   -5.4750  -44.2833    4.8178 N   0  0  0  0  0  0  0  0  0  0  0  0
   -5.2104  -42.3591    8.2881 O   0  5  0  0  0  0  0  0  0  0  0  0
   -5.8131  -39.6856    7.2723 O   0  0  0  0  0  0  0  0  0  0  0  0
   -7.5722  -46.5742    9.2163 S   0  0  0  0  0  0  0  0  0  0  0  0
   -6.9322  -47.1725    7.8992 C   0  0  0  0  0  0  0  0  0  0  0  0
   -5.3636  -40.9582   10.3893 O   0  0  0  0  0  0  0  0  0  0  0  0
   -6.8491  -38.6318    9.2283 O   0  5  0  0  0  0  0  0  0  0  0  0
   -5.5776  -46.9947    7.8594 N   0  0  0  0  0  0  0  0  0  0  0  0
   -7.2237  -41.0682    8.6042 O   0  0  0  0  0  0  0  0  0  0  0  0
   -8.2750  -39.0945    7.4440 O   0  0  0  0  0  0  0  0  0  0  0  0
   -5.1256  -46.3167    8.9564 C   0  0  1  0  0  0  0  0  0  0  0  0
   -6.1788  -46.0327    9.7890 C   0  0  2  0  0  0  0  0  0  0  0  0
   -6.2251  -45.3234   11.1195 C   0  0  0  0  0  0  0  0  0  0  0  0
   -5.9603  -43.8202   10.9786 C   0  0  0  0  0  0  0  0  0  0  0  0
   -6.7163  -43.0931   10.0274 O   0  0  0  0  0  0  0  0  0  0  0  0
  1 11  1  0  0  0  0
  3 13  1  6  0  0  0
  3 17  2  0  0  0  0
  3 20  1  0  0  0  0
  3 26  1  0  0  0  0
  4 14  1  6  0  0  0
  4 18  1  0  0  0  0
  4 21  2  0  0  0  0
  4 20  1  0  0  0  0
  5 19  1  0  0  0  0
  5  7  1  0  0  0  0
  6  7  2  0  0  0  0
  6 12  1  0  0  0  0
  7  8  1  0  0  0  0
  8  9  1  0  0  0  0
  8 10  2  0  0  0  0
 10 11  1  0  0  0  0
 11 12  2  0  0  0  0
 15 23  1  0  0  0  0
 15 16  1  0  0  0  0
 16 19  1  0  0  0  0
 19 22  1  0  0  0  0
 22  2  1  1  0  0  0
 22 23  1  0  0  0  0
 23 24  1  1  0  0  0
 24 25  1  0  0  0  0
 25 26  1  0  0  0  0
M  CHG  2  13  -1  18  -1
M  END
>  <CHROM.1>
-85.40146085,91.56264078,-21.99720908,56.92506825,-109.84203460,51.19035873
-151.89942777,82.66516106,-5.76787561,-43.67382642,7.82103969,-0.70654160
1.17463737,-0.44024341

>  <Name>
ligand

>  <RI>
0

>  <Rbt.Current_Directory>
/home/itssahil/PROJECTS/Mol_Feturizer/New_Systems/rnas/3D2G

>  <Rbt.Executable>
rbdock ($Id: //depot/dev/client3/rdock/2013.1/src/exe/rbdock.cxx#4 $)

>  <Rbt.Library>
libRbt.so (2013.1, Build901 2013/11/27)

>  <Rbt.Parameter_File>
/export/apps/rDock/src/rDock_2013.1_src/data/scripts/dock_solv.prm

>  <Rbt.Receptor>
prm/pocket_docking_5.prm

>  <SCORE>
-11.1009

>  <SCORE.INTER>
-9.07366

>  <SCORE.INTER.CONST>
1

>  <SCORE.INTER.POLAR>
0

>  <SCORE.INTER.ROT>
8

>  <SCORE.INTER.SOLV>
11.6528

>  <SCORE.INTER.VDW>
-18.8667

>  <SCORE.INTER.norm>
-0.348987

>  <SCORE.INTRA>
-2.0272

>  <SCORE.INTRA.DIHEDRAL>
0.120128

>  <SCORE.INTRA.DIHEDRAL.0>
9.09364

>  <SCORE.INTRA.POLAR>
0

>  <SCORE.INTRA.POLAR.0>
0

>  <SCORE.INTRA.REPUL>
0

>  <SCORE.INTRA.REPUL.0>
0

>  <SCORE.INTRA.SOLV>
-1.64072

>  <SCORE.INTRA.SOLV.lig_0>
-78.5846

>  <SCORE.INTRA.VDW>
-1.26691

>  <SCORE.INTRA.VDW.0>
-2.81163

>  <SCORE.INTRA.norm>
-0.0779694

>  <SCORE.RESTR>
0

>  <SCORE.RESTR.CAVITY>
0

>  <SCORE.RESTR.norm>
0

>  <SCORE.SYSTEM>
0

>  <SCORE.SYSTEM.CONST>
0

>  <SCORE.SYSTEM.DIHEDRAL>
0

>  <SCORE.SYSTEM.SOLV>
0

>  <SCORE.SYSTEM.norm>
0

>  <SCORE.heavy>
26

>  <SCORE.norm>
-0.426956

>  <RMSD>
7.641

$$$$
ligand
 OpenBabel11021811463D
libRbt.so/2013.1/901 2013/11/27
 26 27  0  0  0  0  0  0  0  0999 V2000
   -6.1111  -42.9650   11.5043 C   0  0  0  0  0  0  0  0  0  0  0  0
   -4.3197  -42.0949    4.0218 C   0  0  0  0  0  0  0  0  0  0  0  0
   -8.0856  -38.3288    5.1604 P   0  0  1  0  0  0  0  0  0  0  0  0
   -9.2804  -39.9396    7.0369 P   0  0  2  0  0  0  0  0  0  0  0  0
   -5.0512  -44.3632    6.0397 C   0  0  0  0  0  0  0  0  0  0  0  0
   -5.1925  -42.6604    7.8874 C   0  0  0  0  0  0  0  0  0  0  0  0
   -5.3144  -43.9913    7.4768 C   0  0  0  0  0  0  0  0  0  0  0  0
   -5.7165  -44.9774    8.3818 C   0  0  0  0  0  0  0  0  0  0  0  0
   -5.8448  -46.2260    7.9850 N   0  0  0  0  0  0  0  0  0  0  0  0
   -5.9487  -44.6433    9.6938 N   0  0  0  0  0  0  0  0  0  0  0  0
   -5.8399  -43.3241   10.0867 C   0  0  0  0  0  0  0  0  0  0  0  0
   -5.4513  -42.3374    9.2002 N   0  0  0  0  0  0  0  0  0  0  0  0
   -9.3754  -38.0768    4.4412 O   0  5  0  0  0  0  0  0  0  0  0  0
   -9.6108  -39.7185    8.4595 O   0  0  0  0  0  0  0  0  0  0  0  0
   -8.1155  -43.0364    4.1738 S   0  0  0  0  0  0  0  0  0  0  0  0
   -7.3174  -43.9486    5.1903 C   0  0  0  0  0  0  0  0  0  0  0  0
   -7.0460  -37.2743    5.0165 O   0  0  0  0  0  0  0  0  0  0  0  0
   -8.4141  -41.1175    6.8407 O   0  5  0  0  0  0  0  0  0  0  0  0
   -5.9817  -43.6590    5.2013 N   0  0  0  0  0  0  0  0  0  0  0  0
   -8.5520  -38.5855    6.6510 O   0  0  0  0  0  0  0  0  0  0  0  0
  -10.4176  -40.1861    6.0992 O   0  0  0  0  0  0  0  0  0  0  0  0
   -5.6720  -42.6736    4.3066 C   0  0  1  0  0  0  0  0  0  0  0  0
   -6.8135  -42.2513    3.6727 C   0  0  2  0  0  0  0  0  0  0  0  0
   -7.0269  -41.1912    2.6209 C   0  0  0  0  0  0  0  0  0  0  0  0
   -7.2367  -39.8038    3.2380 C   0  0  0  0  0  0  0  0  0  0  0  0
   -7.6194  -39.7270    4.5991 O   0  0  0  0  0  0  0  0  0  0  0  0
  1 11  1  0  0  0  0
  3 13  1  6  0  0  0
  3 17  2  0  0  0  0
  3 20  1  0  0  0  0
  3 26  1  0  0  0  0
  4 14  1  1  0  0  0
  4 18  1  0  0  0  0
  4 21  2  0  0  0  0
  4 20  1  0  0  0  0
  5 19  1  0  0  0  0
  5  7  1  0  0  0  0
  6  7  2  0  0  0  0
  6 12  1  0  0  0  0
  7  8  1  0  0  0  0
  8  9  1  0  0  0  0
  8 10  2  0  0  0  0
 10 11  1  0  0  0  0
 11 12  2  0  0  0  0
 15 23  1  0  0  0  0
 15 16  1  0  0  0  0
 16 19  1  0  0  0  0
 19 22  1  0  0  0  0
 22  2  1  1  0  0  0
 22 23  1  0  0  0  0
 23 24  1  1  0  0  0
 24 25  1  0  0  0  0
 25 26  1  0  0  0  0
M  CHG  2  13  -1  18  -1
M  END
>  <CHROM.1>
72.82758607,-69.32681771,-60.82515760,-176.30059535,92.68088320,-19.25507713
-169.17232690,67.45874778,-7.24563181,-41.51181576,6.21511033,0.67969106
-1.02155882,1.75740778

>  <Name>
ligand

>  <RI>
0

>  <Rbt.Current_Directory>
/home/itssahil/PROJECTS/Mol_Feturizer/New_Systems/rnas/3D2G

>  <Rbt.Executable>
rbdock ($Id: //depot/dev/client3/rdock/2013.1/src/exe/rbdock.cxx#4 $)

>  <Rbt.Library>
libRbt.so (2013.1, Build901 2013/11/27)

>  <Rbt.Parameter_File>
/export/apps/rDock/src/rDock_2013.1_src/data/scripts/dock_solv.prm

>  <Rbt.Receptor>
prm/pocket_docking_4.prm

>  <SCORE>
-5.86807

>  <SCORE.INTER>
-4.31604

>  <SCORE.INTER.CONST>
1

>  <SCORE.INTER.POLAR>
0

>  <SCORE.INTER.ROT>
8

>  <SCORE.INTER.SOLV>
17.1669

>  <SCORE.INTER.VDW>
-17.533

>  <SCORE.INTER.norm>
-0.166002

>  <SCORE.INTRA>
-1.56258

>  <SCORE.INTRA.DIHEDRAL>
1.16555

>  <SCORE.INTRA.DIHEDRAL.0>
9.09364

>  <SCORE.INTRA.POLAR>
0

>  <SCORE.INTRA.POLAR.0>
0

>  <SCORE.INTRA.REPUL>
0

>  <SCORE.INTRA.REPUL.0>
0

>  <SCORE.INTRA.SOLV>
0.399721

>  <SCORE.INTRA.SOLV.lig_0>
-78.5846

>  <SCORE.INTRA.VDW>
-2.34522

>  <SCORE.INTRA.VDW.0>
-2.81163

>  <SCORE.INTRA.norm>
-0.0600993

>  <SCORE.RESTR>
0.0105535

>  <SCORE.RESTR.CAVITY>
0.0105535

>  <SCORE.RESTR.norm>
0.000405905

>  <SCORE.SYSTEM>
0

>  <SCORE.SYSTEM.CONST>
0

>  <SCORE.SYSTEM.DIHEDRAL>
0

>  <SCORE.SYSTEM.SOLV>
0

>  <SCORE.SYSTEM.norm>
0

>  <SCORE.heavy>
26

>  <SCORE.norm>
-0.225695

>  <RMSD>
7.646

$$$$
ligand
 OpenBabel11021811463D
libRbt.so/2013.1/901 2013/11/27
 26 27  0  0  0  0  0  0  0  0999 V2000
   -5.6110  -47.6040    7.6004 C   0  0  0  0  0  0  0  0  0  0  0  0
   -6.1920  -41.9181    9.1582 C   0  0  0  0  0  0  0  0  0  0  0  0
   -0.7619  -42.1879    9.3500 P   0  0  1  0  0  0  0  0  0  0  0  0
   -2.1219  -44.4656    8.6390 P   0  0  2  0  0  0  0  0  0  0  0  0
   -7.2752  -43.7105   11.4747 C   0  0  0  0  0  0  0  0  0  0  0  0
   -7.5719  -44.8859    9.2693 C   0  0  0  0  0  0  0  0  0  0  0  0
   -6.8519  -44.7410   10.4591 C   0  0  0  0  0  0  0  0  0  0  0  0
   -5.7166  -45.5199   10.6988 C   0  0  0  0  0  0  0  0  0  0  0  0
   -5.0338  -45.3673   11.8139 N   0  0  0  0  0  0  0  0  0  0  0  0
   -5.3332  -46.4656    9.7793 N   0  0  0  0  0  0  0  0  0  0  0  0
   -6.0419  -46.5915    8.6010 C   0  0  0  0  0  0  0  0  0  0  0  0
   -7.1617  -45.8219    8.3472 N   0  0  0  0  0  0  0  0  0  0  0  0
   -0.4609  -42.6318   10.7489 O   0  5  0  0  0  0  0  0  0  0  0  0
   -2.2754  -44.6420   10.0975 O   0  0  0  0  0  0  0  0  0  0  0  0
   -4.5251  -41.3253   12.6492 S   0  0  0  0  0  0  0  0  0  0  0  0
   -5.6237  -42.4550   12.7881 C   0  0  0  0  0  0  0  0  0  0  0  0
    0.1725  -41.1843    8.7729 O   0  0  0  0  0  0  0  0  0  0  0  0
   -1.9491  -45.7508    7.9356 O   0  5  0  0  0  0  0  0  0  0  0  0
   -6.2358  -42.7260   11.5964 N   0  0  0  0  0  0  0  0  0  0  0  0
   -0.8298  -43.5515    8.5494 O   0  0  0  0  0  0  0  0  0  0  0  0
   -3.2505  -43.8178    7.9043 O   0  0  0  0  0  0  0  0  0  0  0  0
   -5.7620  -41.9281   10.5933 C   0  0  1  0  0  0  0  0  0  0  0  0
   -4.7867  -41.0981   11.0863 C   0  0  2  0  0  0  0  0  0  0  0  0
   -3.9439  -40.0481   10.4059 C   0  0  0  0  0  0  0  0  0  0  0  0
   -2.4918  -40.5051   10.2260 C   0  0  0  0  0  0  0  0  0  0  0  0
   -2.2448  -41.6592    9.4437 O   0  0  0  0  0  0  0  0  0  0  0  0
  1 11  1  0  0  0  0
  3 13  1  1  0  0  0
  3 17  2  0  0  0  0
  3 20  1  0  0  0  0
  3 26  1  0  0  0  0
  4 14  1  1  0  0  0
  4 18  1  0  0  0  0
  4 21  2  0  0  0  0
  4 20  1  0  0  0  0
  5 19  1  0  0  0  0
  5  7  1  0  0  0  0
  6  7  2  0  0  0  0
  6 12  1  0  0  0  0
  7  8  1  0  0  0  0
  8  9  1  0  0  0  0
  8 10  2  0  0  0  0
 10 11  1  0  0  0  0
 11 12  2  0  0  0  0
 15 23  1  0  0  0  0
 15 16  1  0  0  0  0
 16 19  1  0  0  0  0
 19 22  1  0  0  0  0
 22  2  1  6  0  0  0
 22 23  1  0  0  0  0
 23 24  1  6  0  0  0
 24 25  1  0  0  0  0
 25 26  1  0  0  0  0
M  CHG  2  13  -1  18  -1
M  END
>  <CHROM.1>
78.11070024,-122.07991945,-115.62190845,-53.93518924,72.42197924,60.84812160
-175.50808856,66.02978728,-3.87119488,-43.43263391,9.90965814,-2.71747119
0.35598157,0.56554737

>  <Name>
ligand

>  <RI>
0

>  <Rbt.Current_Directory>
/home/itssahil/PROJECTS/Mol_Feturizer/New_Systems/rnas/3D2G

>  <Rbt.Executable>
rbdock ($Id: //depot/dev/client3/rdock/2013.1/src/exe/rbdock.cxx#4 $)

>  <Rbt.Library>
libRbt.so (2013.1, Build901 2013/11/27)

>  <Rbt.Parameter_File>
/export/apps/rDock/src/rDock_2013.1_src/data/scripts/dock_solv.prm

>  <Rbt.Receptor>
prm/pocket_docking_8.prm

>  <SCORE>
-12.4408

>  <SCORE.INTER>
-8.90082

>  <SCORE.INTER.CONST>
1

>  <SCORE.INTER.POLAR>
0

>  <SCORE.INTER.ROT>
8

>  <SCORE.INTER.SOLV>
14.5945

>  <SCORE.INTER.VDW>
-19.732

>  <SCORE.INTER.norm>
-0.342339

>  <SCORE.INTRA>
-3.53993

>  <SCORE.INTRA.DIHEDRAL>
-2.93877

>  <SCORE.INTRA.DIHEDRAL.0>
9.09364

>  <SCORE.INTRA.POLAR>
0

>  <SCORE.INTRA.POLAR.0>
0

>  <SCORE.INTRA.REPUL>
0

>  <SCORE.INTRA.REPUL.0>
0

>  <SCORE.INTRA.SOLV>
1.51508

>  <SCORE.INTRA.SOLV.lig_0>
-78.5846

>  <SCORE.INTRA.VDW>
-2.82808

>  <SCORE.INTRA.VDW.0>
-2.81163

>  <SCORE.INTRA.norm>
-0.136151

>  <SCORE.RESTR>
0

>  <SCORE.RESTR.CAVITY>
0

>  <SCORE.RESTR.norm>
0

>  <SCORE.SYSTEM>
0

>  <SCORE.SYSTEM.CONST>
0

>  <SCORE.SYSTEM.DIHEDRAL>
0

>  <SCORE.SYSTEM.SOLV>
0

>  <SCORE.SYSTEM.norm>
0

>  <SCORE.heavy>
26

>  <SCORE.norm>
-0.478491

>  <RMSD>
7.723

$$$$
ligand
 OpenBabel11021811463D
libRbt.so/2013.1/901 2013/11/27
 26 27  0  0  0  0  0  0  0  0999 V2000
   -1.2812  -44.3107    4.5197 C   0  0  0  0  0  0  0  0  0  0  0  0
   -4.3683  -47.5776    8.7432 C   0  0  0  0  0  0  0  0  0  0  0  0
   -4.6824  -42.5922   11.5830 P   0  0  1  0  0  0  0  0  0  0  0  0
   -3.8232  -42.1513    9.0120 P   0  0  2  0  0  0  0  0  0  0  0  0
   -5.8985  -47.3672    6.0290 C   0  0  0  0  0  0  0  0  0  0  0  0
   -4.6342  -45.1934    5.9329 C   0  0  0  0  0  0  0  0  0  0  0  0
   -4.6949  -46.5554    5.6229 C   0  0  0  0  0  0  0  0  0  0  0  0
   -3.6287  -47.1813    4.9712 C   0  0  0  0  0  0  0  0  0  0  0  0
   -3.6854  -48.4675    4.6965 N   0  0  0  0  0  0  0  0  0  0  0  0
   -2.5344  -46.4427    4.5923 N   0  0  0  0  0  0  0  0  0  0  0  0
   -2.4771  -45.1015    4.9155 C   0  0  0  0  0  0  0  0  0  0  0  0
   -3.5206  -44.4716    5.5673 N   0  0  0  0  0  0  0  0  0  0  0  0
   -4.0038  -43.1201   12.8099 O   0  5  0  0  0  0  0  0  0  0  0  0
   -4.1894  -40.7329    9.2014 O   0  0  0  0  0  0  0  0  0  0  0  0
   -7.8552  -45.8094    8.9232 S   0  0  0  0  0  0  0  0  0  0  0  0
   -7.5745  -46.2438    7.4283 C   0  0  0  0  0  0  0  0  0  0  0  0
   -5.3540  -41.2728   11.7303 O   0  0  0  0  0  0  0  0  0  0  0  0
   -4.9071  -42.9292    8.3823 O   0  5  0  0  0  0  0  0  0  0  0  0
   -6.3754  -46.8863    7.2962 N   0  0  0  0  0  0  0  0  0  0  0  0
   -3.5306  -42.6198   10.4978 O   0  0  0  0  0  0  0  0  0  0  0  0
   -2.6397  -42.4442    8.1479 O   0  0  0  0  0  0  0  0  0  0  0  0
   -5.7101  -46.9621    8.4875 C   0  0  1  0  0  0  0  0  0  0  0  0
   -6.4654  -46.3810    9.4749 C   0  0  2  0  0  0  0  0  0  0  0  0
   -6.2038  -46.2123   10.9510 C   0  0  0  0  0  0  0  0  0  0  0  0
   -5.2091  -45.0804   11.2323 C   0  0  0  0  0  0  0  0  0  0  0  0
   -5.6829  -43.7467   11.1913 O   0  0  0  0  0  0  0  0  0  0  0  0
  1 11  1  0  0  0  0
  3 13  1  1  0  0  0
  3 17  2  0  0  0  0
  3 20  1  0  0  0  0
  3 26  1  0  0  0  0
  4 14  1  6  0  0  0
  4 18  1  0  0  0  0
  4 21  2  0  0  0  0
  4 20  1  0  0  0  0
  5 19  1  0  0  0  0
  5  7  1  0  0  0  0
  6  7  2  0  0  0  0
  6 12  1  0  0  0  0
  7  8  1  0  0  0  0
  8  9  1  0  0  0  0
  8 10  2  0  0  0  0
 10 11  1  0  0  0  0
 11 12  2  0  0  0  0
 15 23  1  0  0  0  0
 15 16  1  0  0  0  0
 16 19  1  0  0  0  0
 19 22  1  0  0  0  0
 22  2  1  1  0  0  0
 22 23  1  0  0  0  0
 23 24  1  1  0  0  0
 24 25  1  0  0  0  0
 25 26  1  0  0  0  0
M  CHG  2  13  -1  18  -1
M  END
>  <CHROM.1>
179.16446311,112.11638985,-35.43484438,62.47890866,-103.61843779,78.82882065
175.66582574,-44.07782112,-4.72504995,-44.62710228,8.47144860,-1.43277169
0.76707113,0.85318326

>  <Name>
ligand

>  <RI>
0

>  <Rbt.Current_Directory>
/home/itssahil/PROJECTS/Mol_Feturizer/New_Systems/rnas/3D2G

>  <Rbt.Executable>
rbdock ($Id: //depot/dev/client3/rdock/2013.1/src/exe/rbdock.cxx#4 $)

>  <Rbt.Library>
libRbt.so (2013.1, Build901 2013/11/27)

>  <Rbt.Parameter_File>
/export/apps/rDock/src/rDock_2013.1_src/data/scripts/dock_solv.prm

>  <Rbt.Receptor>
prm/pocket_docking_7.prm

>  <SCORE>
-12.3343

>  <SCORE.INTER>
-8.69104

>  <SCORE.INTER.CONST>
1

>  <SCORE.INTER.POLAR>
0

>  <SCORE.INTER.ROT>
8

>  <SCORE.INTER.SOLV>
6.98275

>  <SCORE.INTER.VDW>
-17.0549

>  <SCORE.INTER.norm>
-0.334271

>  <SCORE.INTRA>
-3.64324

>  <SCORE.INTRA.DIHEDRAL>
-2.7133

>  <SCORE.INTRA.DIHEDRAL.0>
9.09364

>  <SCORE.INTRA.POLAR>
0

>  <SCORE.INTRA.POLAR.0>
0

>  <SCORE.INTRA.REPUL>
0

>  <SCORE.INTRA.REPUL.0>
0

>  <SCORE.INTRA.SOLV>
-0.881183

>  <SCORE.INTRA.SOLV.lig_0>
-78.5846

>  <SCORE.INTRA.VDW>
-1.846

>  <SCORE.INTRA.VDW.0>
-2.81163

>  <SCORE.INTRA.norm>
-0.140125

>  <SCORE.RESTR>
0

>  <SCORE.RESTR.CAVITY>
0

>  <SCORE.RESTR.norm>
0

>  <SCORE.SYSTEM>
0

>  <SCORE.SYSTEM.CONST>
0

>  <SCORE.SYSTEM.DIHEDRAL>
0

>  <SCORE.SYSTEM.SOLV>
0

>  <SCORE.SYSTEM.norm>
0

>  <SCORE.heavy>
26

>  <SCORE.norm>
-0.474395

>  <RMSD>
7.735

$$$$
ligand
 OpenBabel11021811463D
libRbt.so/2013.1/901 2013/11/27
 26 27  0  0  0  0  0  0  0  0999 V2000
   -4.7683  -46.5214   10.3745 C   0  0  0  0  0  0  0  0  0  0  0  0
   -8.0990  -38.9182    7.7569 C   0  0  0  0  0  0  0  0  0  0  0  0
   -8.3321  -39.9918    3.8568 P   0  0  1  0  0  0  0  0  0  0  0  0
   -7.1948  -42.4908    3.9229 P   0  0  2  0  0  0  0  0  0  0  0  0
   -7.6725  -41.8753    8.6660 C   0  0  0  0  0  0  0  0  0  0  0  0
   -7.2683  -44.3587    8.6161 C   0  0  0  0  0  0  0  0  0  0  0  0
   -6.9231  -43.1015    9.1213 C   0  0  0  0  0  0  0  0  0  0  0  0
   -5.8605  -42.9667   10.0190 C   0  0  0  0  0  0  0  0  0  0  0  0
   -5.5303  -41.7781   10.4786 N   0  0  0  0  0  0  0  0  0  0  0  0
   -5.1812  -44.0830   10.4424 N   0  0  0  0  0  0  0  0  0  0  0  0
   -5.5198  -45.3184    9.9271 C   0  0  0  0  0  0  0  0  0  0  0  0
   -6.5629  -45.4651    9.0322 N   0  0  0  0  0  0  0  0  0  0  0  0
   -8.4625  -40.0288    2.3648 O   0  5  0  0  0  0  0  0  0  0  0  0
   -8.3418  -42.8347    4.7877 O   0  0  0  0  0  0  0  0  0  0  0  0
   -5.0782  -40.7615    6.0851 S   0  0  0  0  0  0  0  0  0  0  0  0
   -5.7910  -41.7503    7.0933 C   0  0  0  0  0  0  0  0  0  0  0  0
   -9.5516  -40.3631    4.6238 O   0  0  0  0  0  0  0  0  0  0  0  0
   -5.9630  -43.1987    4.3203 O   0  5  0  0  0  0  0  0  0  0  0  0
   -6.8707  -41.1740    7.7018 N   0  0  0  0  0  0  0  0  0  0  0  0
   -7.0817  -40.9231    4.1293 O   0  0  0  0  0  0  0  0  0  0  0  0
   -7.3175  -42.8006    2.4661 O   0  0  0  0  0  0  0  0  0  0  0  0
   -7.0403  -39.8773    7.3050 C   0  0  1  0  0  0  0  0  0  0  0  0
   -6.0753  -39.5461    6.3874 C   0  0  2  0  0  0  0  0  0  0  0  0
   -5.8225  -38.2623    5.6367 C   0  0  0  0  0  0  0  0  0  0  0  0
   -6.4612  -38.2765    4.2433 C   0  0  0  0  0  0  0  0  0  0  0  0
   -7.8532  -38.5174    4.1469 O   0  0  0  0  0  0  0  0  0  0  0  0
  1 11  1  0  0  0  0
  3 13  1  6  0  0  0
  3 17  2  0  0  0  0
  3 20  1  0  0  0  0
  3 26  1  0  0  0  0
  4 14  1  1  0  0  0
  4 18  1  0  0  0  0
  4 21  2  0  0  0  0
  4 20  1  0  0  0  0
  5 19  1  0  0  0  0
  5  7  1  0  0  0  0
  6  7  2  0  0  0  0
  6 12  1  0  0  0  0
  7  8  1  0  0  0  0
  8  9  1  0  0  0  0
  8 10  2  0  0  0  0
 10 11  1  0  0  0  0
 11 12  2  0  0  0  0
 15 23  1  0  0  0  0
 15 16  1  0  0  0  0
 16 19  1  0  0  0  0
 19 22  1  0  0  0  0
 22  2  1  6  0  0  0
 22 23  1  0  0  0  0
 23 24  1  6  0  0  0
 24 25  1  0  0  0  0
 25 26  1  0  0  0  0
M  CHG  2  13  -1  18  -1
M  END
>  <CHROM.1>
-71.01421187,14.99412265,-102.19238386,-55.30704852,83.97995317,56.32784392
-95.90641230,-93.21408918,-6.84423549,-41.62054486,6.28294906,0.45323139
1.28488289,-2.99319713

>  <Name>
ligand

>  <RI>
0

>  <Rbt.Current_Directory>
/home/itssahil/PROJECTS/Mol_Feturizer/New_Systems/rnas/3D2G

>  <Rbt.Executable>
rbdock ($Id: //depot/dev/client3/rdock/2013.1/src/exe/rbdock.cxx#4 $)

>  <Rbt.Library>
libRbt.so (2013.1, Build901 2013/11/27)

>  <Rbt.Parameter_File>
/export/apps/rDock/src/rDock_2013.1_src/data/scripts/dock_solv.prm

>  <Rbt.Receptor>
prm/pocket_docking_3.prm

>  <SCORE>
-6.90259

>  <SCORE.INTER>
-6.23915

>  <SCORE.INTER.CONST>
1

>  <SCORE.INTER.POLAR>
0

>  <SCORE.INTER.ROT>
8

>  <SCORE.INTER.SOLV>
13.5987

>  <SCORE.INTER.VDW>
-17.6257

>  <SCORE.INTER.norm>
-0.239967

>  <SCORE.INTRA>
-0.663441

>  <SCORE.INTRA.DIHEDRAL>
2.44611

>  <SCORE.INTRA.DIHEDRAL.0>
9.09364

>  <SCORE.INTRA.POLAR>
0

>  <SCORE.INTRA.POLAR.0>
0

>  <SCORE.INTRA.REPUL>
0

>  <SCORE.INTRA.REPUL.0>
0

>  <SCORE.INTRA.SOLV>
1.60664

>  <SCORE.INTRA.SOLV.lig_0>
-78.5846

>  <SCORE.INTRA.VDW>
-2.68982

>  <SCORE.INTRA.VDW.0>
-2.81163

>  <SCORE.INTRA.norm>
-0.025517

>  <SCORE.RESTR>
0

>  <SCORE.RESTR.CAVITY>
0

>  <SCORE.RESTR.norm>
0

>  <SCORE.SYSTEM>
0

>  <SCORE.SYSTEM.CONST>
0

>  <SCORE.SYSTEM.DIHEDRAL>
0

>  <SCORE.SYSTEM.SOLV>
0

>  <SCORE.SYSTEM.norm>
0

>  <SCORE.heavy>
26

>  <SCORE.norm>
-0.265484

>  <RMSD>
7.738

$$$$
ligand
 OpenBabel11021811463D
libRbt.so/2013.1/901 2013/11/27
 26 27  0  0  0  0  0  0  0  0999 V2000
    0.1485  -40.8897    7.8467 C   0  0  0  0  0  0  0  0  0  0  0  0
   -7.2092  -42.6496    8.2340 C   0  0  0  0  0  0  0  0  0  0  0  0
   -6.4432  -39.6656    3.9388 P   0  0  1  0  0  0  0  0  0  0  0  0
   -4.7576  -41.7671    3.4047 P   0  0  2  0  0  0  0  0  0  0  0  0
   -5.0725  -41.4423   10.1652 C   0  0  0  0  0  0  0  0  0  0  0  0
   -3.0249  -40.0703    9.6570 C   0  0  0  0  0  0  0  0  0  0  0  0
   -3.7068  -41.2859    9.5463 C   0  0  0  0  0  0  0  0  0  0  0  0
   -3.1150  -42.3730    8.8974 C   0  0  0  0  0  0  0  0  0  0  0  0
   -3.7559  -43.5197    8.8105 N   0  0  0  0  0  0  0  0  0  0  0  0
   -1.8744  -42.2313    8.3250 N   0  0  0  0  0  0  0  0  0  0  0  0
   -1.2027  -41.0316    8.4519 C   0  0  0  0  0  0  0  0  0  0  0  0
   -1.7725  -39.9509    9.0984 N   0  0  0  0  0  0  0  0  0  0  0  0
   -6.2166  -38.2882    4.4829 O   0  5  0  0  0  0  0  0  0  0  0  0
   -4.8939  -41.6392    1.9395 O   0  0  0  0  0  0  0  0  0  0  0  0
   -7.2269  -38.7461    8.5157 S   0  0  0  0  0  0  0  0  0  0  0  0
   -6.0941  -39.3252    9.4557 C   0  0  0  0  0  0  0  0  0  0  0  0
   -7.1813  -39.7401    2.6492 O   0  0  0  0  0  0  0  0  0  0  0  0
   -5.7465  -42.6991    3.9789 O   0  5  0  0  0  0  0  0  0  0  0  0
   -6.0204  -40.6886    9.3919 N   0  0  0  0  0  0  0  0  0  0  0  0
   -4.9833  -40.2751    3.8906 O   0  0  0  0  0  0  0  0  0  0  0  0
   -3.4550  -42.2776    3.9301 O   0  0  0  0  0  0  0  0  0  0  0  0
   -6.9671  -41.2059    8.5532 C   0  0  1  0  0  0  0  0  0  0  0  0
   -7.7032  -40.1863    8.0041 C   0  0  2  0  0  0  0  0  0  0  0  0
   -8.8453  -40.2095    7.0189 C   0  0  0  0  0  0  0  0  0  0  0  0
   -8.3904  -39.8369    5.6033 C   0  0  0  0  0  0  0  0  0  0  0  0
   -7.1900  -40.4063    5.1139 O   0  0  0  0  0  0  0  0  0  0  0  0
  1 11  1  0  0  0  0
  3 13  1  1  0  0  0
  3 17  2  0  0  0  0
  3 20  1  0  0  0  0
  3 26  1  0  0  0  0
  4 14  1  6  0  0  0
  4 18  1  0  0  0  0
  4 21  2  0  0  0  0
  4 20  1  0  0  0  0
  5 19  1  0  0  0  0
  5  7  1  0  0  0  0
  6  7  2  0  0  0  0
  6 12  1  0  0  0  0
  7  8  1  0  0  0  0
  8  9  1  0  0  0  0
  8 10  2  0  0  0  0
 10 11  1  0  0  0  0
 11 12  2  0  0  0  0
 15 23  1  0  0  0  0
 15 16  1  0  0  0  0
 16 19  1  0  0  0  0
 19 22  1  0  0  0  0
 22  2  1  6  0  0  0
 22 23  1  0  0  0  0
 23 24  1  6  0  0  0
 24 25  1  0  0  0  0
 25 26  1  0  0  0  0
M  CHG  2  13  -1  18  -1
M  END
>  <CHROM.1>
178.23153545,-74.97636088,72.05439856,76.75588281,77.48186164,44.03667997
-157.88557286,56.27968838,-5.26581084,-40.76217890,6.52250258,-1.03251243
0.34036699,-1.64880212

>  <Name>
ligand

>  <RI>
0

>  <Rbt.Current_Directory>
/home/itssahil/PROJECTS/Mol_Feturizer/New_Systems/rnas/3D2G

>  <Rbt.Executable>
rbdock ($Id: //depot/dev/client3/rdock/2013.1/src/exe/rbdock.cxx#4 $)

>  <Rbt.Library>
libRbt.so (2013.1, Build901 2013/11/27)

>  <Rbt.Parameter_File>
/export/apps/rDock/src/rDock_2013.1_src/data/scripts/dock_solv.prm

>  <Rbt.Receptor>
prm/pocket_docking_4.prm

>  <SCORE>
-12.6822

>  <SCORE.INTER>
-10.6804

>  <SCORE.INTER.CONST>
1

>  <SCORE.INTER.POLAR>
0

>  <SCORE.INTER.ROT>
8

>  <SCORE.INTER.SOLV>
12.7588

>  <SCORE.INTER.VDW>
-20.3066

>  <SCORE.INTER.norm>
-0.410786

>  <SCORE.INTRA>
-2.00786

>  <SCORE.INTRA.DIHEDRAL>
-0.158377

>  <SCORE.INTRA.DIHEDRAL.0>
9.09364

>  <SCORE.INTRA.POLAR>
0

>  <SCORE.INTRA.POLAR.0>
0

>  <SCORE.INTRA.REPUL>
0

>  <SCORE.INTRA.REPUL.0>
0

>  <SCORE.INTRA.SOLV>
-1.03298

>  <SCORE.INTRA.SOLV.lig_0>
-78.5846

>  <SCORE.INTRA.VDW>
-1.41218

>  <SCORE.INTRA.VDW.0>
-2.81163

>  <SCORE.INTRA.norm>
-0.0772252

>  <SCORE.RESTR>
0.00612405

>  <SCORE.RESTR.CAVITY>
0.00612405

>  <SCORE.RESTR.norm>
0.00023554

>  <SCORE.SYSTEM>
0

>  <SCORE.SYSTEM.CONST>
0

>  <SCORE.SYSTEM.DIHEDRAL>
0

>  <SCORE.SYSTEM.SOLV>
0

>  <SCORE.SYSTEM.norm>
0

>  <SCORE.heavy>
26

>  <SCORE.norm>
-0.487775

>  <RMSD>
7.776

$$$$
ligand
 OpenBabel11021811463D
libRbt.so/2013.1/901 2013/11/27
 26 27  0  0  0  0  0  0  0  0999 V2000
   -2.5479  -46.7485    5.2024 C   0  0  0  0  0  0  0  0  0  0  0  0
   -4.9604  -46.2552   10.6529 C   0  0  0  0  0  0  0  0  0  0  0  0
   -3.5171  -40.8931   10.0615 P   0  0  1  0  0  0  0  0  0  0  0  0
   -5.2322  -40.6678    7.9283 P   0  0  2  0  0  0  0  0  0  0  0  0
   -7.2188  -46.6705    8.5365 C   0  0  0  0  0  0  0  0  0  0  0  0
   -5.0135  -47.6782    7.8623 C   0  0  0  0  0  0  0  0  0  0  0  0
   -5.9828  -46.6883    7.6736 C   0  0  0  0  0  0  0  0  0  0  0  0
   -5.8332  -45.7346    6.6631 C   0  0  0  0  0  0  0  0  0  0  0  0
   -6.7572  -44.8150    6.4802 N   0  0  0  0  0  0  0  0  0  0  0  0
   -4.7041  -45.7429    5.8808 N   0  0  0  0  0  0  0  0  0  0  0  0
   -3.7594  -46.7329    6.0651 C   0  0  0  0  0  0  0  0  0  0  0  0
   -3.8986  -47.6874    7.0550 N   0  0  0  0  0  0  0  0  0  0  0  0
   -2.7491  -41.9670    9.3533 O   0  5  0  0  0  0  0  0  0  0  0  0
   -5.3453  -39.6480    6.8657 O   0  0  0  0  0  0  0  0  0  0  0  0
   -7.7012  -43.4628   10.5637 S   0  0  0  0  0  0  0  0  0  0  0  0
   -8.0384  -44.5508    9.4660 C   0  0  0  0  0  0  0  0  0  0  0  0
   -2.7502  -40.0960   11.0564 O   0  0  0  0  0  0  0  0  0  0  0  0
   -6.5097  -40.8843    8.6336 O   0  5  0  0  0  0  0  0  0  0  0  0
   -7.1268  -45.5692    9.4546 N   0  0  0  0  0  0  0  0  0  0  0  0
   -4.1220  -40.0427    8.8715 O   0  0  0  0  0  0  0  0  0  0  0  0
   -4.8267  -42.0456    7.5156 O   0  0  0  0  0  0  0  0  0  0  0  0
   -6.1377  -45.3708   10.3765 C   0  0  1  0  0  0  0  0  0  0  0  0
   -6.3716  -44.2038   11.0595 C   0  0  2  0  0  0  0  0  0  0  0  0
   -5.6030  -43.5384   12.1741 C   0  0  0  0  0  0  0  0  0  0  0  0
   -4.4405  -42.6914   11.6442 C   0  0  0  0  0  0  0  0  0  0  0  0
   -4.7283  -41.6715   10.7052 O   0  0  0  0  0  0  0  0  0  0  0  0
  1 11  1  0  0  0  0
  3 13  1  6  0  0  0
  3 17  2  0  0  0  0
  3 20  1  0  0  0  0
  3 26  1  0  0  0  0
  4 14  1  6  0  0  0
  4 18  1  0  0  0  0
  4 21  2  0  0  0  0
  4 20  1  0  0  0  0
  5 19  1  0  0  0  0
  5  7  1  0  0  0  0
  6  7  2  0  0  0  0
  6 12  1  0  0  0  0
  7  8  1  0  0  0  0
  8  9  1  0  0  0  0
  8 10  2  0  0  0  0
 10 11  1  0  0  0  0
 11 12  2  0  0  0  0
 15 23  1  0  0  0  0
 15 16  1  0  0  0  0
 16 19  1  0  0  0  0
 19 22  1  0  0  0  0
 22  2  1  1  0  0  0
 22 23  1  0  0  0  0
 23 24  1  1  0  0  0
 24 25  1  0  0  0  0
 25 26  1  0  0  0  0
M  CHG  2  13  -1  18  -1
M  END
>  <CHROM.1>
67.77644620,119.02247075,107.82476954,-171.46891338,-96.88245061,56.30572085
-174.38552153,60.97585194,-5.20840002,-43.49788761,8.87278858,-1.79411603
0.96433669,0.54792507

>  <Name>
ligand

>  <RI>
0

>  <Rbt.Current_Directory>
/home/itssahil/PROJECTS/Mol_Feturizer/New_Systems/rnas/3D2G

>  <Rbt.Executable>
rbdock ($Id: //depot/dev/client3/rdock/2013.1/src/exe/rbdock.cxx#4 $)

>  <Rbt.Library>
libRbt.so (2013.1, Build901 2013/11/27)

>  <Rbt.Parameter_File>
/export/apps/rDock/src/rDock_2013.1_src/data/scripts/dock_solv.prm

>  <Rbt.Receptor>
prm/pocket_docking_7.prm

>  <SCORE>
-14.3185

>  <SCORE.INTER>
-11.6507

>  <SCORE.INTER.CONST>
1

>  <SCORE.INTER.POLAR>
0

>  <SCORE.INTER.ROT>
8

>  <SCORE.INTER.SOLV>
7.169

>  <SCORE.INTER.VDW>
-19.0901

>  <SCORE.INTER.norm>
-0.448102

>  <SCORE.INTRA>
-2.66786

>  <SCORE.INTRA.DIHEDRAL>
-3.47335

>  <SCORE.INTRA.DIHEDRAL.0>
9.09364

>  <SCORE.INTRA.POLAR>
0

>  <SCORE.INTRA.POLAR.0>
0

>  <SCORE.INTRA.REPUL>
0

>  <SCORE.INTRA.REPUL.0>
0

>  <SCORE.INTRA.SOLV>
2.39262

>  <SCORE.INTRA.SOLV.lig_0>
-78.5846

>  <SCORE.INTRA.VDW>
-2.1275

>  <SCORE.INTRA.VDW.0>
-2.81163

>  <SCORE.INTRA.norm>
-0.10261

>  <SCORE.RESTR>
0

>  <SCORE.RESTR.CAVITY>
0

>  <SCORE.RESTR.norm>
0

>  <SCORE.SYSTEM>
0

>  <SCORE.SYSTEM.CONST>
0

>  <SCORE.SYSTEM.DIHEDRAL>
0

>  <SCORE.SYSTEM.SOLV>
0

>  <SCORE.SYSTEM.norm>
0

>  <SCORE.heavy>
26

>  <SCORE.norm>
-0.550712

>  <RMSD>
7.815

$$$$
ligand
 OpenBabel11021811463D
libRbt.so/2013.1/901 2013/11/27
 26 27  0  0  0  0  0  0  0  0999 V2000
   -7.4429  -46.6251    8.9242 C   0  0  0  0  0  0  0  0  0  0  0  0
   -6.0870  -39.2130    5.9125 C   0  0  0  0  0  0  0  0  0  0  0  0
   -8.0834  -39.8040    2.0823 P   0  0  1  0  0  0  0  0  0  0  0  0
   -6.0786  -41.0793    0.7050 P   0  0  2  0  0  0  0  0  0  0  0  0
   -6.3948  -41.0020    8.4536 C   0  0  0  0  0  0  0  0  0  0  0  0
   -7.4544  -42.9505    9.6426 C   0  0  0  0  0  0  0  0  0  0  0  0
   -6.6623  -42.4792    8.5912 C   0  0  0  0  0  0  0  0  0  0  0  0
   -6.1461  -43.3651    7.6416 C   0  0  0  0  0  0  0  0  0  0  0  0
   -5.4143  -42.9130    6.6450 N   0  0  0  0  0  0  0  0  0  0  0  0
   -6.3809  -44.7125    7.7690 N   0  0  0  0  0  0  0  0  0  0  0  0
   -7.1761  -45.1670    8.8021 C   0  0  0  0  0  0  0  0  0  0  0  0
   -7.7001  -44.3012    9.7435 N   0  0  0  0  0  0  0  0  0  0  0  0
   -6.9640  -39.1131    2.7992 O   0  5  0  0  0  0  0  0  0  0  0  0
   -5.0459  -40.8788    1.7419 O   0  0  0  0  0  0  0  0  0  0  0  0
   -9.7694  -39.8311    7.0851 S   0  0  0  0  0  0  0  0  0  0  0  0
   -8.7835  -40.5912    8.0611 C   0  0  0  0  0  0  0  0  0  0  0  0
   -8.7612  -39.0114    1.0213 O   0  0  0  0  0  0  0  0  0  0  0  0
   -6.0999  -39.9831   -0.2820 O   0  5  0  0  0  0  0  0  0  0  0  0
   -7.4739  -40.4025    7.7184 N   0  0  0  0  0  0  0  0  0  0  0  0
   -7.4075  -41.1393    1.5672 O   0  0  0  0  0  0  0  0  0  0  0  0
   -5.9705  -42.3058   -0.1419 O   0  0  0  0  0  0  0  0  0  0  0  0
   -7.3523  -39.6281    6.5991 C   0  0  1  0  0  0  0  0  0  0  0  0
   -8.5972  -39.2508    6.1621 C   0  0  2  0  0  0  0  0  0  0  0  0
   -9.0185  -38.3949    4.9935 C   0  0  0  0  0  0  0  0  0  0  0  0
   -9.7650  -39.2051    3.9277 C   0  0  0  0  0  0  0  0  0  0  0  0
   -9.0595  -40.2267    3.2468 O   0  0  0  0  0  0  0  0  0  0  0  0
  1 11  1  0  0  0  0
  3 13  1  1  0  0  0
  3 17  2  0  0  0  0
  3 20  1  0  0  0  0
  3 26  1  0  0  0  0
  4 14  1  1  0  0  0
  4 18  1  0  0  0  0
  4 21  2  0  0  0  0
  4 20  1  0  0  0  0
  5 19  1  0  0  0  0
  5  7  1  0  0  0  0
  6  7  2  0  0  0  0
  6 12  1  0  0  0  0
  7  8  1  0  0  0  0
  8  9  1  0  0  0  0
  8 10  2  0  0  0  0
 10 11  1  0  0  0  0
 11 12  2  0  0  0  0
 15 23  1  0  0  0  0
 15 16  1  0  0  0  0
 16 19  1  0  0  0  0
 19 22  1  0  0  0  0
 22  2  1  1  0  0  0
 22 23  1  0  0  0  0
 23 24  1  1  0  0  0
 24 25  1  0  0  0  0
 25 26  1  0  0  0  0
M  CHG  2  13  -1  18  -1
M  END
>  <CHROM.1>
-53.80772938,51.32141283,-85.72650988,79.79228087,-67.66166762,-64.37732005
-78.72300687,69.54655363,-7.41587139,-41.11572704,4.90743916,-1.63278433
0.98085270,-1.13656942

>  <Name>
ligand

>  <RI>
0

>  <Rbt.Current_Directory>
/home/itssahil/PROJECTS/Mol_Feturizer/New_Systems/rnas/3D2G

>  <Rbt.Executable>
rbdock ($Id: //depot/dev/client3/rdock/2013.1/src/exe/rbdock.cxx#4 $)

>  <Rbt.Library>
libRbt.so (2013.1, Build901 2013/11/27)

>  <Rbt.Parameter_File>
/export/apps/rDock/src/rDock_2013.1_src/data/scripts/dock_solv.prm

>  <Rbt.Receptor>
prm/pocket_docking_5.prm

>  <SCORE>
-19.6003

>  <SCORE.INTER>
-18.867

>  <SCORE.INTER.CONST>
1

>  <SCORE.INTER.POLAR>
0

>  <SCORE.INTER.ROT>
8

>  <SCORE.INTER.SOLV>
20.3826

>  <SCORE.INTER.VDW>
-28.3055

>  <SCORE.INTER.norm>
-0.725654

>  <SCORE.INTRA>
-0.733297

>  <SCORE.INTRA.DIHEDRAL>
-1.32464

>  <SCORE.INTRA.DIHEDRAL.0>
9.09364

>  <SCORE.INTRA.POLAR>
0

>  <SCORE.INTRA.POLAR.0>
0

>  <SCORE.INTRA.REPUL>
0

>  <SCORE.INTRA.REPUL.0>
0

>  <SCORE.INTRA.SOLV>
1.84468

>  <SCORE.INTRA.SOLV.lig_0>
-78.5846

>  <SCORE.INTRA.VDW>
-0.993321

>  <SCORE.INTRA.VDW.0>
-2.81163

>  <SCORE.INTRA.norm>
-0.0282037

>  <SCORE.RESTR>
0

>  <SCORE.RESTR.CAVITY>
0

>  <SCORE.RESTR.norm>
0

>  <SCORE.SYSTEM>
0

>  <SCORE.SYSTEM.CONST>
0

>  <SCORE.SYSTEM.DIHEDRAL>
0

>  <SCORE.SYSTEM.SOLV>
0

>  <SCORE.SYSTEM.norm>
0

>  <SCORE.heavy>
26

>  <SCORE.norm>
-0.753858

>  <RMSD>
7.860

$$$$
ligand
 OpenBabel11021811463D
libRbt.so/2013.1/901 2013/11/27
 26 27  0  0  0  0  0  0  0  0999 V2000
   -3.5206  -48.7300    6.1400 C   0  0  0  0  0  0  0  0  0  0  0  0
   -7.2100  -42.8675    9.4312 C   0  0  0  0  0  0  0  0  0  0  0  0
   -2.0465  -42.3812   10.8109 P   0  0  1  0  0  0  0  0  0  0  0  0
   -2.7254  -44.5185    9.2255 P   0  0  2  0  0  0  0  0  0  0  0  0
   -7.5317  -45.9629    9.1723 C   0  0  0  0  0  0  0  0  0  0  0  0
   -5.4479  -47.3684    9.0470 C   0  0  0  0  0  0  0  0  0  0  0  0
   -6.4669  -46.6800    8.3818 C   0  0  0  0  0  0  0  0  0  0  0  0
   -6.5288  -46.6828    6.9856 C   0  0  0  0  0  0  0  0  0  0  0  0
   -7.5000  -46.0460    6.3658 N   0  0  0  0  0  0  0  0  0  0  0  0
   -5.5554  -47.3279    6.2624 N   0  0  0  0  0  0  0  0  0  0  0  0
   -4.5612  -48.0171    6.9281 C   0  0  0  0  0  0  0  0  0  0  0  0
   -4.4928  -48.0298    8.3086 N   0  0  0  0  0  0  0  0  0  0  0  0
   -0.9446  -42.1998   11.8096 O   0  5  0  0  0  0  0  0  0  0  0  0
   -3.5544  -45.1495   10.2726 O   0  0  0  0  0  0  0  0  0  0  0  0
   -5.7894  -44.9515   12.4239 S   0  0  0  0  0  0  0  0  0  0  0  0
   -6.4091  -45.9403   11.3559 C   0  0  0  0  0  0  0  0  0  0  0  0
   -2.2837  -41.2356    9.8917 O   0  0  0  0  0  0  0  0  0  0  0  0
   -2.1064  -45.5124    8.3280 O   0  5  0  0  0  0  0  0  0  0  0  0
   -6.9097  -45.2768   10.2708 N   0  0  0  0  0  0  0  0  0  0  0  0
   -1.6506  -43.7299   10.0833 O   0  0  0  0  0  0  0  0  0  0  0  0
   -3.4077  -43.5796    8.2841 O   0  0  0  0  0  0  0  0  0  0  0  0
   -6.7738  -43.9233   10.4007 C   0  0  1  0  0  0  0  0  0  0  0  0
   -6.1486  -43.6346   11.5877 C   0  0  2  0  0  0  0  0  0  0  0  0
   -5.7510  -42.3152   12.2015 C   0  0  0  0  0  0  0  0  0  0  0  0
   -4.3982  -41.8217   11.6760 C   0  0  0  0  0  0  0  0  0  0  0  0
   -3.3013  -42.7166   11.7056 O   0  0  0  0  0  0  0  0  0  0  0  0
  1 11  1  0  0  0  0
  3 13  1  1  0  0  0
  3 17  2  0  0  0  0
  3 20  1  0  0  0  0
  3 26  1  0  0  0  0
  4 14  1  1  0  0  0
  4 18  1  0  0  0  0
  4 21  2  0  0  0  0
  4 20  1  0  0  0  0
  5 19  1  0  0  0  0
  5  7  1  0  0  0  0
  6  7  2  0  0  0  0
  6 12  1  0  0  0  0
  7  8  1  0  0  0  0
  8  9  1  0  0  0  0
  8 10  2  0  0  0  0
 10 11  1  0  0  0  0
 11 12  2  0  0  0  0
 15 23  1  0  0  0  0
 15 16  1  0  0  0  0
 16 19  1  0  0  0  0
 19 22  1  0  0  0  0
 22  2  1  6  0  0  0
 22 23  1  0  0  0  0
 23 24  1  6  0  0  0
 24 25  1  0  0  0  0
 25 26  1  0  0  0  0
M  CHG  2  13  -1  18  -1
M  END
>  <CHROM.1>
163.22148544,-72.15340073,42.45074564,-75.77680978,95.40446592,-50.70267133
162.76219577,117.60566135,-4.47043235,-44.67553014,9.69888833,-2.02403992
0.26623204,0.79991943

>  <Name>
ligand

>  <RI>
0

>  <Rbt.Current_Directory>
/home/itssahil/PROJECTS/Mol_Feturizer/New_Systems/rnas/3D2G

>  <Rbt.Executable>
rbdock ($Id: //depot/dev/client3/rdock/2013.1/src/exe/rbdock.cxx#4 $)

>  <Rbt.Library>
libRbt.so (2013.1, Build901 2013/11/27)

>  <Rbt.Parameter_File>
/export/apps/rDock/src/rDock_2013.1_src/data/scripts/dock_solv.prm

>  <Rbt.Receptor>
prm/pocket_docking_6.prm

>  <SCORE>
-16.0661

>  <SCORE.INTER>
-11.6694

>  <SCORE.INTER.CONST>
1

>  <SCORE.INTER.POLAR>
0

>  <SCORE.INTER.ROT>
8

>  <SCORE.INTER.SOLV>
14.6629

>  <SCORE.INTER.VDW>
-21.6006

>  <SCORE.INTER.norm>
-0.448824

>  <SCORE.INTRA>
-4.39664

>  <SCORE.INTRA.DIHEDRAL>
0.105149

>  <SCORE.INTRA.DIHEDRAL.0>
9.09364

>  <SCORE.INTRA.POLAR>
0

>  <SCORE.INTRA.POLAR.0>
0

>  <SCORE.INTRA.REPUL>
0

>  <SCORE.INTRA.REPUL.0>
0

>  <SCORE.INTRA.SOLV>
-1.49907

>  <SCORE.INTRA.SOLV.lig_0>
-78.5846

>  <SCORE.INTRA.VDW>
-3.69968

>  <SCORE.INTRA.VDW.0>
-2.81163

>  <SCORE.INTRA.norm>
-0.169102

>  <SCORE.RESTR>
0

>  <SCORE.RESTR.CAVITY>
0

>  <SCORE.RESTR.norm>
0

>  <SCORE.SYSTEM>
0

>  <SCORE.SYSTEM.CONST>
0

>  <SCORE.SYSTEM.DIHEDRAL>
0

>  <SCORE.SYSTEM.SOLV>
0

>  <SCORE.SYSTEM.norm>
0

>  <SCORE.heavy>
26

>  <SCORE.norm>
-0.617926

>  <RMSD>
7.866

$$$$
ligand
 OpenBabel11021811463D
libRbt.so/2013.1/901 2013/11/27
 26 27  0  0  0  0  0  0  0  0999 V2000
   -7.3759  -46.2345    7.6493 C   0  0  0  0  0  0  0  0  0  0  0  0
   -6.4153  -44.1460    0.3634 C   0  0  0  0  0  0  0  0  0  0  0  0
   -8.3709  -39.2125    3.0571 P   0  0  1  0  0  0  0  0  0  0  0  0
   -6.6620  -38.5235    5.0939 P   0  0  2  0  0  0  0  0  0  0  0  0
   -4.6659  -45.3045    2.6764 C   0  0  0  0  0  0  0  0  0  0  0  0
   -6.6780  -45.0507    4.1665 C   0  0  0  0  0  0  0  0  0  0  0  0
   -5.3781  -45.5329    3.9852 C   0  0  0  0  0  0  0  0  0  0  0  0
   -4.7456  -46.2606    4.9969 C   0  0  0  0  0  0  0  0  0  0  0  0
   -3.5277  -46.7257    4.8139 N   0  0  0  0  0  0  0  0  0  0  0  0
   -5.3885  -46.4631    6.1937 N   0  0  0  0  0  0  0  0  0  0  0  0
   -6.6772  -45.9957    6.3582 C   0  0  0  0  0  0  0  0  0  0  0  0
   -7.3180  -45.2819    5.3630 N   0  0  0  0  0  0  0  0  0  0  0  0
   -8.6783  -40.4396    3.8596 O   0  5  0  0  0  0  0  0  0  0  0  0
   -6.2849  -37.1926    5.6118 O   0  0  0  0  0  0  0  0  0  0  0  0
   -4.4167  -41.4950    2.4358 S   0  0  0  0  0  0  0  0  0  0  0  0
   -4.1190  -42.9353    3.0184 C   0  0  0  0  0  0  0  0  0  0  0  0
   -9.4692  -38.7159    2.1850 O   0  0  0  0  0  0  0  0  0  0  0  0
   -5.5593  -39.1698    4.3573 O   0  5  0  0  0  0  0  0  0  0  0  0
   -4.7744  -43.9151    2.3265 N   0  0  0  0  0  0  0  0  0  0  0  0
   -7.8920  -38.1781    4.1553 O   0  0  0  0  0  0  0  0  0  0  0  0
   -7.0647  -39.5591    6.0931 O   0  0  0  0  0  0  0  0  0  0  0  0
   -5.5451  -43.3955    1.3248 C   0  0  1  0  0  0  0  0  0  0  0  0
   -5.4115  -42.0300    1.3014 C   0  0  2  0  0  0  0  0  0  0  0  0
   -6.0265  -40.9908    0.3973 C   0  0  0  0  0  0  0  0  0  0  0  0
   -7.2554  -40.3311    1.0332 C   0  0  0  0  0  0  0  0  0  0  0  0
   -7.0817  -39.6187    2.2445 O   0  0  0  0  0  0  0  0  0  0  0  0
  1 11  1  0  0  0  0
  3 13  1  1  0  0  0
  3 17  2  0  0  0  0
  3 20  1  0  0  0  0
  3 26  1  0  0  0  0
  4 14  1  1  0  0  0
  4 18  1  0  0  0  0
  4 21  2  0  0  0  0
  4 20  1  0  0  0  0
  5 19  1  0  0  0  0
  5  7  1  0  0  0  0
  6  7  2  0  0  0  0
  6 12  1  0  0  0  0
  7  8  1  0  0  0  0
  8  9  1  0  0  0  0
  8 10  2  0  0  0  0
 10 11  1  0  0  0  0
 11 12  2  0  0  0  0
 15 23  1  0  0  0  0
 15 16  1  0  0  0  0
 16 19  1  0  0  0  0
 19 22  1  0  0  0  0
 22  2  1  6  0  0  0
 22 23  1  0  0  0  0
 23 24  1  6  0  0  0
 24 25  1  0  0  0  0
 25 26  1  0  0  0  0
M  CHG  2  13  -1  18  -1
M  END
>  <CHROM.1>
57.69491364,69.80635662,49.45365018,162.06838678,-82.55557484,61.21276724
-166.94841707,84.08448862,-6.35043119,-41.91533403,3.65493512,0.77760867
-1.18277578,2.24430278

>  <Name>
ligand

>  <RI>
0

>  <Rbt.Current_Directory>
/home/itssahil/PROJECTS/Mol_Feturizer/New_Systems/rnas/3D2G

>  <Rbt.Executable>
rbdock ($Id: //depot/dev/client3/rdock/2013.1/src/exe/rbdock.cxx#4 $)

>  <Rbt.Library>
libRbt.so (2013.1, Build901 2013/11/27)

>  <Rbt.Parameter_File>
/export/apps/rDock/src/rDock_2013.1_src/data/scripts/dock_solv.prm

>  <Rbt.Receptor>
prm/pocket_docking_7.prm

>  <SCORE>
-15.5376

>  <SCORE.INTER>
-12.8164

>  <SCORE.INTER.CONST>
1

>  <SCORE.INTER.POLAR>
0

>  <SCORE.INTER.ROT>
8

>  <SCORE.INTER.SOLV>
15.6394

>  <SCORE.INTER.VDW>
-22.6907

>  <SCORE.INTER.norm>
-0.492937

>  <SCORE.INTRA>
-2.7212

>  <SCORE.INTRA.DIHEDRAL>
-2.35071

>  <SCORE.INTRA.DIHEDRAL.0>
9.09364

>  <SCORE.INTRA.POLAR>
0

>  <SCORE.INTRA.POLAR.0>
0

>  <SCORE.INTRA.REPUL>
0

>  <SCORE.INTRA.REPUL.0>
0

>  <SCORE.INTRA.SOLV>
-0.307047

>  <SCORE.INTRA.SOLV.lig_0>
-78.5846

>  <SCORE.INTRA.VDW>
-1.39233

>  <SCORE.INTRA.VDW.0>
-2.81163

>  <SCORE.INTRA.norm>
-0.104662

>  <SCORE.RESTR>
0

>  <SCORE.RESTR.CAVITY>
0

>  <SCORE.RESTR.norm>
0

>  <SCORE.SYSTEM>
0

>  <SCORE.SYSTEM.CONST>
0

>  <SCORE.SYSTEM.DIHEDRAL>
0

>  <SCORE.SYSTEM.SOLV>
0

>  <SCORE.SYSTEM.norm>
0

>  <SCORE.heavy>
26

>  <SCORE.norm>
-0.597599

>  <RMSD>
7.876

$$$$
ligand
 OpenBabel11021811463D
libRbt.so/2013.1/901 2013/11/27
 26 27  0  0  0  0  0  0  0  0999 V2000
   -5.6177  -37.6241   11.9642 C   0  0  0  0  0  0  0  0  0  0  0  0
   -4.7162  -46.0391   10.8044 C   0  0  0  0  0  0  0  0  0  0  0  0
   -5.6025  -44.9642    5.2694 P   0  0  1  0  0  0  0  0  0  0  0  0
   -2.9884  -45.6338    4.7582 P   0  0  2  0  0  0  0  0  0  0  0  0
   -5.3161  -43.3474   12.2697 C   0  0  0  0  0  0  0  0  0  0  0  0
   -5.9286  -41.1201   13.2683 C   0  0  0  0  0  0  0  0  0  0  0  0
   -5.4113  -41.8449   12.1905 C   0  0  0  0  0  0  0  0  0  0  0  0
   -4.9447  -41.1834   11.0513 C   0  0  0  0  0  0  0  0  0  0  0  0
   -4.4439  -41.8708   10.0464 N   0  0  0  0  0  0  0  0  0  0  0  0
   -5.0379  -39.8152   10.9724 N   0  0  0  0  0  0  0  0  0  0  0  0
   -5.5368  -39.1069   12.0475 C   0  0  0  0  0  0  0  0  0  0  0  0
   -5.9939  -39.7477   13.1837 N   0  0  0  0  0  0  0  0  0  0  0  0
   -6.3290  -43.6540    5.2781 O   0  5  0  0  0  0  0  0  0  0  0  0
   -1.7947  -44.8067    4.4886 O   0  0  0  0  0  0  0  0  0  0  0  0
   -7.9332  -44.1624    9.6017 S   0  0  0  0  0  0  0  0  0  0  0  0
   -7.2506  -43.3257   10.7578 C   0  0  0  0  0  0  0  0  0  0  0  0
   -6.1038  -45.9774    4.3022 O   0  0  0  0  0  0  0  0  0  0  0  0
   -3.3381  -46.4998    3.6162 O   0  5  0  0  0  0  0  0  0  0  0  0
   -6.1063  -43.9178   11.2140 N   0  0  0  0  0  0  0  0  0  0  0  0
   -4.0958  -44.5357    5.0425 O   0  0  0  0  0  0  0  0  0  0  0  0
   -2.9166  -46.5874    5.9066 O   0  0  0  0  0  0  0  0  0  0  0  0
   -5.8605  -45.0998   10.5738 C   0  0  1  0  0  0  0  0  0  0  0  0
   -6.8382  -45.3296    9.6387 C   0  0  2  0  0  0  0  0  0  0  0  0
   -7.0297  -46.4666    8.6659 C   0  0  0  0  0  0  0  0  0  0  0  0
   -6.9276  -45.9997    7.2095 C   0  0  0  0  0  0  0  0  0  0  0  0
   -5.7007  -45.4483    6.7672 O   0  0  0  0  0  0  0  0  0  0  0  0
  1 11  1  0  0  0  0
  3 13  1  6  0  0  0
  3 17  2  0  0  0  0
  3 20  1  0  0  0  0
  3 26  1  0  0  0  0
  4 14  1  6  0  0  0
  4 18  1  0  0  0  0
  4 21  2  0  0  0  0
  4 20  1  0  0  0  0
  5 19  1  0  0  0  0
  5  7  1  0  0  0  0
  6  7  2  0  0  0  0
  6 12  1  0  0  0  0
  7  8  1  0  0  0  0
  8  9  1  0  0  0  0
  8 10  2  0  0  0  0
 10 11  1  0  0  0  0
 11 12  2  0  0  0  0
 15 23  1  0  0  0  0
 15 16  1  0  0  0  0
 16 19  1  0  0  0  0
 19 22  1  0  0  0  0
 22  2  1  6  0  0  0
 22 23  1  0  0  0  0
 23 24  1  6  0  0  0
 24 25  1  0  0  0  0
 25 26  1  0  0  0  0
M  CHG  2  13  -1  18  -1
M  END
>  <CHROM.1>
-171.21991791,-32.63359153,119.82124450,174.91461412,63.77716542,62.33217711
-179.76483962,77.15177879,-5.34259477,-43.86842350,8.39977512,-1.85329232
-0.83667311,-2.37367979

>  <Name>
ligand

>  <RI>
0

>  <Rbt.Current_Directory>
/home/itssahil/PROJECTS/Mol_Feturizer/New_Systems/rnas/3D2G

>  <Rbt.Executable>
rbdock ($Id: //depot/dev/client3/rdock/2013.1/src/exe/rbdock.cxx#4 $)

>  <Rbt.Library>
libRbt.so (2013.1, Build901 2013/11/27)

>  <Rbt.Parameter_File>
/export/apps/rDock/src/rDock_2013.1_src/data/scripts/dock_solv.prm

>  <Rbt.Receptor>
prm/pocket_docking_7.prm

>  <SCORE>
-16.6012

>  <SCORE.INTER>
-14.8675

>  <SCORE.INTER.CONST>
1

>  <SCORE.INTER.POLAR>
0

>  <SCORE.INTER.ROT>
8

>  <SCORE.INTER.SOLV>
3.46682

>  <SCORE.INTER.VDW>
-20.0006

>  <SCORE.INTER.norm>
-0.571827

>  <SCORE.INTRA>
-1.73367

>  <SCORE.INTRA.DIHEDRAL>
-3.35207

>  <SCORE.INTRA.DIHEDRAL.0>
9.09364

>  <SCORE.INTRA.POLAR>
0

>  <SCORE.INTRA.POLAR.0>
0

>  <SCORE.INTRA.REPUL>
0

>  <SCORE.INTRA.REPUL.0>
0

>  <SCORE.INTRA.SOLV>
1.08039

>  <SCORE.INTRA.SOLV.lig_0>
-78.5846

>  <SCORE.INTRA.VDW>
-0.597832

>  <SCORE.INTRA.VDW.0>
-2.81163

>  <SCORE.INTRA.norm>
-0.0666797

>  <SCORE.RESTR>
0

>  <SCORE.RESTR.CAVITY>
0

>  <SCORE.RESTR.norm>
0

>  <SCORE.SYSTEM>
0

>  <SCORE.SYSTEM.CONST>
0

>  <SCORE.SYSTEM.DIHEDRAL>
0

>  <SCORE.SYSTEM.SOLV>
0

>  <SCORE.SYSTEM.norm>
0

>  <SCORE.heavy>
26

>  <SCORE.norm>
-0.638506

>  <RMSD>
7.894

$$$$
ligand
 OpenBabel11021811463D
libRbt.so/2013.1/901 2013/11/27
 26 27  0  0  0  0  0  0  0  0999 V2000
   -7.1497  -46.1235    7.4633 C   0  0  0  0  0  0  0  0  0  0  0  0
   -4.3679  -41.2945    3.0191 C   0  0  0  0  0  0  0  0  0  0  0  0
   -8.2295  -39.2388    3.9838 P   0  0  1  0  0  0  0  0  0  0  0  0
   -8.3617  -37.9125    6.3852 P   0  0  2  0  0  0  0  0  0  0  0  0
   -4.0683  -44.4019    2.9378 C   0  0  0  0  0  0  0  0  0  0  0  0
   -6.1728  -45.3608    3.9302 C   0  0  0  0  0  0  0  0  0  0  0  0
   -4.8886  -44.8428    4.1233 C   0  0  0  0  0  0  0  0  0  0  0  0
   -4.3421  -44.7653    5.4073 C   0  0  0  0  0  0  0  0  0  0  0  0
   -3.1262  -44.2915    5.5806 N   0  0  0  0  0  0  0  0  0  0  0  0
   -5.0901  -45.1582    6.4903 N   0  0  0  0  0  0  0  0  0  0  0  0
   -6.3516  -45.6818    6.2885 C   0  0  0  0  0  0  0  0  0  0  0  0
   -6.9011  -45.7721    5.0235 N   0  0  0  0  0  0  0  0  0  0  0  0
   -8.6286  -40.5465    4.5962 O   0  5  0  0  0  0  0  0  0  0  0  0
   -9.1668  -36.8659    5.7233 O   0  0  0  0  0  0  0  0  0  0  0  0
   -6.4552  -43.1027    0.2458 S   0  0  0  0  0  0  0  0  0  0  0  0
   -5.6399  -44.1836    1.0639 C   0  0  0  0  0  0  0  0  0  0  0  0
   -9.3246  -38.4616    3.3433 O   0  0  0  0  0  0  0  0  0  0  0  0
   -7.5112  -37.3674    7.4603 O   0  5  0  0  0  0  0  0  0  0  0  0
   -4.8993  -43.6197    2.0648 N   0  0  0  0  0  0  0  0  0  0  0  0
   -7.5108  -38.4895    5.1785 O   0  0  0  0  0  0  0  0  0  0  0  0
   -9.1010  -39.0232    7.0581 O   0  0  0  0  0  0  0  0  0  0  0  0
   -5.0294  -42.2595    2.0832 C   0  0  1  0  0  0  0  0  0  0  0  0
   -5.8919  -41.8655    1.0913 C   0  0  2  0  0  0  0  0  0  0  0  0
   -6.3837  -40.4959    0.6938 C   0  0  0  0  0  0  0  0  0  0  0  0
   -7.4670  -39.9760    1.6457 C   0  0  0  0  0  0  0  0  0  0  0  0
   -7.0911  -39.6408    2.9690 O   0  0  0  0  0  0  0  0  0  0  0  0
  1 11  1  0  0  0  0
  3 13  1  1  0  0  0
  3 17  2  0  0  0  0
  3 20  1  0  0  0  0
  3 26  1  0  0  0  0
  4 14  1  6  0  0  0
  4 18  1  0  0  0  0
  4 21  2  0  0  0  0
  4 20  1  0  0  0  0
  5 19  1  0  0  0  0
  5  7  1  0  0  0  0
  6  7  2  0  0  0  0
  6 12  1  0  0  0  0
  7  8  1  0  0  0  0
  8  9  1  0  0  0  0
  8 10  2  0  0  0  0
 10 11  1  0  0  0  0
 11 12  2  0  0  0  0
 15 23  1  0  0  0  0
 15 16  1  0  0  0  0
 16 19  1  0  0  0  0
 19 22  1  0  0  0  0
 22  2  1  1  0  0  0
 22 23  1  0  0  0  0
 23 24  1  1  0  0  0
 24 25  1  0  0  0  0
 25 26  1  0  0  0  0
M  CHG  2  13  -1  18  -1
M  END
>  <CHROM.1>
-72.73000510,-89.16841639,45.53597918,-65.11108794,102.08926855,68.82550969
-174.25087574,89.67880131,-6.74049420,-41.55211791,4.06063332,0.08496591
-1.12930052,1.92109403

>  <Name>
ligand

>  <RI>
0

>  <Rbt.Current_Directory>
/home/itssahil/PROJECTS/Mol_Feturizer/New_Systems/rnas/3D2G

>  <Rbt.Executable>
rbdock ($Id: //depot/dev/client3/rdock/2013.1/src/exe/rbdock.cxx#4 $)

>  <Rbt.Library>
libRbt.so (2013.1, Build901 2013/11/27)

>  <Rbt.Parameter_File>
/export/apps/rDock/src/rDock_2013.1_src/data/scripts/dock_solv.prm

>  <Rbt.Receptor>
prm/pocket_docking_7.prm

>  <SCORE>
-12.0707

>  <SCORE.INTER>
-9.03481

>  <SCORE.INTER.CONST>
1

>  <SCORE.INTER.POLAR>
0

>  <SCORE.INTER.ROT>
8

>  <SCORE.INTER.SOLV>
14.3678

>  <SCORE.INTER.VDW>
-19.7458

>  <SCORE.INTER.norm>
-0.347493

>  <SCORE.INTRA>
-3.03592

>  <SCORE.INTRA.DIHEDRAL>
-3.01402

>  <SCORE.INTRA.DIHEDRAL.0>
9.09364

>  <SCORE.INTRA.POLAR>
0

>  <SCORE.INTRA.POLAR.0>
0

>  <SCORE.INTRA.REPUL>
0

>  <SCORE.INTRA.REPUL.0>
0

>  <SCORE.INTRA.SOLV>
-1.10442

>  <SCORE.INTRA.SOLV.lig_0>
-78.5846

>  <SCORE.INTRA.VDW>
-0.976701

>  <SCORE.INTRA.VDW.0>
-2.81163

>  <SCORE.INTRA.norm>
-0.116766

>  <SCORE.RESTR>
0

>  <SCORE.RESTR.CAVITY>
0

>  <SCORE.RESTR.norm>
0

>  <SCORE.SYSTEM>
0

>  <SCORE.SYSTEM.CONST>
0

>  <SCORE.SYSTEM.DIHEDRAL>
0

>  <SCORE.SYSTEM.SOLV>
0

>  <SCORE.SYSTEM.norm>
0

>  <SCORE.heavy>
26

>  <SCORE.norm>
-0.464259

>  <RMSD>
7.912

$$$$
ligand
 OpenBabel11021811463D
libRbt.so/2013.1/901 2013/11/27
 26 27  0  0  0  0  0  0  0  0999 V2000
   -6.9738  -35.0862   11.2631 C   0  0  0  0  0  0  0  0  0  0  0  0
   -4.4498  -40.0304   10.2958 C   0  0  0  0  0  0  0  0  0  0  0  0
   -2.0077  -42.2108    8.3354 P   0  0  1  0  0  0  0  0  0  0  0  0
   -0.3249  -43.3861    6.5107 P   0  0  2  0  0  0  0  0  0  0  0  0
   -4.1671  -39.6232   13.3791 C   0  0  0  0  0  0  0  0  0  0  0  0
   -6.2608  -38.5543   12.4806 C   0  0  0  0  0  0  0  0  0  0  0  0
   -4.9067  -38.4395   12.8096 C   0  0  0  0  0  0  0  0  0  0  0  0
   -4.2404  -37.2214   12.6501 C   0  0  0  0  0  0  0  0  0  0  0  0
   -2.9695  -37.1156   12.9768 N   0  0  0  0  0  0  0  0  0  0  0  0
   -4.9091  -36.1434   12.1235 N   0  0  0  0  0  0  0  0  0  0  0  0
   -6.2497  -36.2623   11.8151 C   0  0  0  0  0  0  0  0  0  0  0  0
   -6.9233  -37.4585   11.9758 N   0  0  0  0  0  0  0  0  0  0  0  0
   -1.5823  -43.0350    9.5119 O   0  5  0  0  0  0  0  0  0  0  0  0
   -0.5306  -44.5015    5.5644 O   0  0  0  0  0  0  0  0  0  0  0  0
   -5.4639  -43.1098   12.4880 S   0  0  0  0  0  0  0  0  0  0  0  0
   -4.9914  -41.9354   13.4367 C   0  0  0  0  0  0  0  0  0  0  0  0
   -1.3417  -40.8879    8.1955 O   0  0  0  0  0  0  0  0  0  0  0  0
    0.6721  -43.7103    7.5486 O   0  5  0  0  0  0  0  0  0  0  0  0
   -4.6380  -40.8176   12.7339 N   0  0  0  0  0  0  0  0  0  0  0  0
   -1.7782  -43.1889    7.1123 O   0  0  0  0  0  0  0  0  0  0  0  0
    0.1686  -42.0924    5.9486 O   0  0  0  0  0  0  0  0  0  0  0  0
   -4.7548  -41.0115   11.3863 C   0  0  1  0  0  0  0  0  0  0  0  0
   -5.2175  -42.2799   11.1414 C   0  0  2  0  0  0  0  0  0  0  0  0
   -5.5296  -42.9866    9.8457 C   0  0  0  0  0  0  0  0  0  0  0  0
   -4.2715  -43.2221    9.0023 C   0  0  0  0  0  0  0  0  0  0  0  0
   -3.5700  -42.0923    8.5159 O   0  0  0  0  0  0  0  0  0  0  0  0
  1 11  1  0  0  0  0
  3 13  1  1  0  0  0
  3 17  2  0  0  0  0
  3 20  1  0  0  0  0
  3 26  1  0  0  0  0
  4 14  1  6  0  0  0
  4 18  1  0  0  0  0
  4 21  2  0  0  0  0
  4 20  1  0  0  0  0
  5 19  1  0  0  0  0
  5  7  1  0  0  0  0
  6  7  2  0  0  0  0
  6 12  1  0  0  0  0
  7  8  1  0  0  0  0
  8  9  1  0  0  0  0
  8 10  2  0  0  0  0
 10 11  1  0  0  0  0
 11 12  2  0  0  0  0
 15 23  1  0  0  0  0
 15 16  1  0  0  0  0
 16 19  1  0  0  0  0
 19 22  1  0  0  0  0
 22  2  1  1  0  0  0
 22 23  1  0  0  0  0
 23 24  1  1  0  0  0
 24 25  1  0  0  0  0
 25 26  1  0  0  0  0
M  CHG  2  13  -1  18  -1
M  END
>  <CHROM.1>
-80.13395213,-132.18232392,37.30152544,171.65157383,-114.34688108,-63.97129251
148.80612734,-37.88792934,-3.47783561,-41.01230414,10.04634043,-2.49073892
-0.84025299,-3.12096375

>  <Name>
ligand

>  <RI>
0

>  <Rbt.Current_Directory>
/home/itssahil/PROJECTS/Mol_Feturizer/New_Systems/rnas/3D2G

>  <Rbt.Executable>
rbdock ($Id: //depot/dev/client3/rdock/2013.1/src/exe/rbdock.cxx#4 $)

>  <Rbt.Library>
libRbt.so (2013.1, Build901 2013/11/27)

>  <Rbt.Parameter_File>
/export/apps/rDock/src/rDock_2013.1_src/data/scripts/dock_solv.prm

>  <Rbt.Receptor>
prm/blind_docking_80.prm

>  <SCORE>
-6.848

>  <SCORE.INTER>
-8.07693

>  <SCORE.INTER.CONST>
1

>  <SCORE.INTER.POLAR>
0

>  <SCORE.INTER.ROT>
8

>  <SCORE.INTER.SOLV>
15.6119

>  <SCORE.INTER.VDW>
-19.5219

>  <SCORE.INTER.norm>
-0.310651

>  <SCORE.INTRA>
1.2279

>  <SCORE.INTRA.DIHEDRAL>
0.116269

>  <SCORE.INTRA.DIHEDRAL.0>
9.09364

>  <SCORE.INTRA.POLAR>
0

>  <SCORE.INTRA.POLAR.0>
0

>  <SCORE.INTRA.REPUL>
0

>  <SCORE.INTRA.REPUL.0>
0

>  <SCORE.INTRA.SOLV>
1.08861

>  <SCORE.INTRA.SOLV.lig_0>
-78.5846

>  <SCORE.INTRA.VDW>
0.625462

>  <SCORE.INTRA.VDW.0>
-2.81163

>  <SCORE.INTRA.norm>
0.0472269

>  <SCORE.RESTR>
0.00102528

>  <SCORE.RESTR.CAVITY>
0.00102528

>  <SCORE.RESTR.norm>
3.94339e-05

>  <SCORE.SYSTEM>
0

>  <SCORE.SYSTEM.CONST>
0

>  <SCORE.SYSTEM.DIHEDRAL>
0

>  <SCORE.SYSTEM.SOLV>
0

>  <SCORE.SYSTEM.norm>
0

>  <SCORE.heavy>
26

>  <SCORE.norm>
-0.263385

>  <RMSD>
7.920

$$$$
ligand
 OpenBabel11021811463D
libRbt.so/2013.1/901 2013/11/27
 26 27  0  0  0  0  0  0  0  0999 V2000
   -7.4456  -45.2099    5.3401 C   0  0  0  0  0  0  0  0  0  0  0  0
   -2.6641  -45.4367    9.0785 C   0  0  0  0  0  0  0  0  0  0  0  0
   -4.3485  -41.2730    9.7155 P   0  0  1  0  0  0  0  0  0  0  0  0
   -6.0325  -40.4772    7.6972 P   0  0  2  0  0  0  0  0  0  0  0  0
   -5.1628  -46.8042   10.3587 C   0  0  0  0  0  0  0  0  0  0  0  0
   -6.7438  -45.3811    9.0139 C   0  0  0  0  0  0  0  0  0  0  0  0
   -5.7768  -46.3904    9.0456 C   0  0  0  0  0  0  0  0  0  0  0  0
   -5.3453  -46.9947    7.8616 C   0  0  0  0  0  0  0  0  0  0  0  0
   -4.4229  -47.9333    7.8967 N   0  0  0  0  0  0  0  0  0  0  0  0
   -5.9089  -46.6260    6.6644 N   0  0  0  0  0  0  0  0  0  0  0  0
   -6.8526  -45.6184    6.6415 C   0  0  0  0  0  0  0  0  0  0  0  0
   -7.2824  -45.0063    7.8039 N   0  0  0  0  0  0  0  0  0  0  0  0
   -5.1304  -40.8720   10.9289 O   0  5  0  0  0  0  0  0  0  0  0  0
   -6.1112  -39.2285    6.9121 O   0  0  0  0  0  0  0  0  0  0  0  0
   -3.8842  -43.8676   12.4500 S   0  0  0  0  0  0  0  0  0  0  0  0
   -4.8309  -45.0774   12.0725 C   0  0  0  0  0  0  0  0  0  0  0  0
   -4.5116  -42.6850    9.2763 O   0  0  0  0  0  0  0  0  0  0  0  0
   -7.2667  -40.7345    8.4633 O   0  5  0  0  0  0  0  0  0  0  0  0
   -4.4492  -45.6852   10.9093 N   0  0  0  0  0  0  0  0  0  0  0  0
   -4.7868  -40.2001    8.6375 O   0  0  0  0  0  0  0  0  0  0  0  0
   -5.8221  -41.7496    6.9422 O   0  0  0  0  0  0  0  0  0  0  0  0
   -3.3625  -45.0714   10.3527 C   0  0  1  0  0  0  0  0  0  0  0  0
   -2.9635  -44.0284   11.1503 C   0  0  2  0  0  0  0  0  0  0  0  0
   -1.8249  -43.0498   11.0037 C   0  0  0  0  0  0  0  0  0  0  0  0
   -2.2832  -41.6010   11.2050 C   0  0  0  0  0  0  0  0  0  0  0  0
   -2.8610  -40.9222   10.1049 O   0  0  0  0  0  0  0  0  0  0  0  0
  1 11  1  0  0  0  0
  3 13  1  1  0  0  0
  3 17  2  0  0  0  0
  3 20  1  0  0  0  0
  3 26  1  0  0  0  0
  4 14  1  6  0  0  0
  4 18  1  0  0  0  0
  4 21  2  0  0  0  0
  4 20  1  0  0  0  0
  5 19  1  0  0  0  0
  5  7  1  0  0  0  0
  6  7  2  0  0  0  0
  6 12  1  0  0  0  0
  7  8  1  0  0  0  0
  8  9  1  0  0  0  0
  8 10  2  0  0  0  0
 10 11  1  0  0  0  0
 11 12  2  0  0  0  0
 15 23  1  0  0  0  0
 15 16  1  0  0  0  0
 16 19  1  0  0  0  0
 19 22  1  0  0  0  0
 22  2  1  1  0  0  0
 22 23  1  0  0  0  0
 23 24  1  1  0  0  0
 24 25  1  0  0  0  0
 25 26  1  0  0  0  0
M  CHG  2  13  -1  18  -1
M  END
>  <CHROM.1>
-90.23944179,114.62133758,-63.10098427,177.79710770,-49.23193612,-83.05188496
76.38470798,62.42157726,-4.90573175,-43.39040015,9.21139814,1.65901413,0.93274640
3.11975039

>  <Name>
ligand

>  <RI>
0

>  <Rbt.Current_Directory>
/home/itssahil/PROJECTS/Mol_Feturizer/New_Systems/rnas/3D2G

>  <Rbt.Executable>
rbdock ($Id: //depot/dev/client3/rdock/2013.1/src/exe/rbdock.cxx#4 $)

>  <Rbt.Library>
libRbt.so (2013.1, Build901 2013/11/27)

>  <Rbt.Parameter_File>
/export/apps/rDock/src/rDock_2013.1_src/data/scripts/dock_solv.prm

>  <Rbt.Receptor>
prm/pocket_docking_4.prm

>  <SCORE>
-9.58114

>  <SCORE.INTER>
-10.3141

>  <SCORE.INTER.CONST>
1

>  <SCORE.INTER.POLAR>
0

>  <SCORE.INTER.ROT>
8

>  <SCORE.INTER.SOLV>
10.3422

>  <SCORE.INTER.VDW>
-19.2568

>  <SCORE.INTER.norm>
-0.396695

>  <SCORE.INTRA>
0.714451

>  <SCORE.INTRA.DIHEDRAL>
-0.0857493

>  <SCORE.INTRA.DIHEDRAL.0>
9.09364

>  <SCORE.INTRA.POLAR>
0

>  <SCORE.INTRA.POLAR.0>
0

>  <SCORE.INTRA.REPUL>
0

>  <SCORE.INTRA.REPUL.0>
0

>  <SCORE.INTRA.SOLV>
5.56981

>  <SCORE.INTRA.SOLV.lig_0>
-78.5846

>  <SCORE.INTRA.VDW>
-2.02758

>  <SCORE.INTRA.VDW.0>
-2.81163

>  <SCORE.INTRA.norm>
0.0274789

>  <SCORE.RESTR>
0.0184926

>  <SCORE.RESTR.CAVITY>
0.0184926

>  <SCORE.RESTR.norm>
0.000711253

>  <SCORE.SYSTEM>
0

>  <SCORE.SYSTEM.CONST>
0

>  <SCORE.SYSTEM.DIHEDRAL>
0

>  <SCORE.SYSTEM.SOLV>
0

>  <SCORE.SYSTEM.norm>
0

>  <SCORE.heavy>
26

>  <SCORE.norm>
-0.368505

>  <RMSD>
7.956

$$$$
ligand
 OpenBabel11021811463D
libRbt.so/2013.1/901 2013/11/27
 26 27  0  0  0  0  0  0  0  0999 V2000
   -3.0716  -48.8922    6.9990 C   0  0  0  0  0  0  0  0  0  0  0  0
   -6.0538  -45.1307   11.8334 C   0  0  0  0  0  0  0  0  0  0  0  0
   -1.7007  -42.6112   10.6658 P   0  0  1  0  0  0  0  0  0  0  0  0
   -0.5297  -42.7747    8.1869 P   0  0  2  0  0  0  0  0  0  0  0  0
   -7.5032  -45.9866    9.2029 C   0  0  0  0  0  0  0  0  0  0  0  0
   -5.3761  -47.3017    9.4845 C   0  0  0  0  0  0  0  0  0  0  0  0
   -6.3291  -46.7389    8.6301 C   0  0  0  0  0  0  0  0  0  0  0  0
   -6.2226  -46.9011    7.2461 C   0  0  0  0  0  0  0  0  0  0  0  0
   -7.1320  -46.3823    6.4480 N   0  0  0  0  0  0  0  0  0  0  0  0
   -5.1495  -47.5786    6.7206 N   0  0  0  0  0  0  0  0  0  0  0  0
   -4.2213  -48.1432    7.5727 C   0  0  0  0  0  0  0  0  0  0  0  0
   -4.3189  -47.9979    8.9438 N   0  0  0  0  0  0  0  0  0  0  0  0
   -0.9453  -43.8227   11.1198 O   0  5  0  0  0  0  0  0  0  0  0  0
    0.2427  -43.9374    8.6702 O   0  0  0  0  0  0  0  0  0  0  0  0
   -6.7027  -42.2467    9.2684 S   0  0  0  0  0  0  0  0  0  0  0  0
   -7.2619  -43.6013    8.6728 C   0  0  0  0  0  0  0  0  0  0  0  0
   -1.1179  -41.2993   11.0568 O   0  0  0  0  0  0  0  0  0  0  0  0
    0.2115  -41.5084    8.3403 O   0  5  0  0  0  0  0  0  0  0  0  0
   -7.0834  -44.6517    9.5290 N   0  0  0  0  0  0  0  0  0  0  0  0
   -1.8221  -42.8308    9.1031 O   0  0  0  0  0  0  0  0  0  0  0  0
   -0.9310  -42.7688    6.7475 O   0  0  0  0  0  0  0  0  0  0  0  0
   -6.4383  -44.2675   10.6707 C   0  0  1  0  0  0  0  0  0  0  0  0
   -6.1788  -42.9208   10.6226 C   0  0  2  0  0  0  0  0  0  0  0  0
   -5.5092  -42.0058   11.6176 C   0  0  0  0  0  0  0  0  0  0  0  0
   -4.0426  -41.7417   11.2586 C   0  0  0  0  0  0  0  0  0  0  0  0
   -3.1460  -42.8376   11.2549 O   0  0  0  0  0  0  0  0  0  0  0  0
  1 11  1  0  0  0  0
  3 13  1  1  0  0  0
  3 17  2  0  0  0  0
  3 20  1  0  0  0  0
  3 26  1  0  0  0  0
  4 14  1  1  0  0  0
  4 18  1  0  0  0  0
  4 21  2  0  0  0  0
  4 20  1  0  0  0  0
  5 19  1  0  0  0  0
  5  7  1  0  0  0  0
  6  7  2  0  0  0  0
  6 12  1  0  0  0  0
  7  8  1  0  0  0  0
  8  9  1  0  0  0  0
  8 10  2  0  0  0  0
 10 11  1  0  0  0  0
 11 12  2  0  0  0  0
 15 23  1  0  0  0  0
 15 16  1  0  0  0  0
 16 19  1  0  0  0  0
 19 22  1  0  0  0  0
 22  2  1  1  0  0  0
 22 23  1  0  0  0  0
 23 24  1  1  0  0  0
 24 25  1  0  0  0  0
 25 26  1  0  0  0  0
M  CHG  2  13  -1  18  -1
M  END
>  <CHROM.1>
-67.59388340,95.38982994,81.24463935,64.83775665,-81.29993704,-63.27439579
170.38619474,166.58860051,-3.86614548,-44.16478027,9.26108164,-2.52102930
0.22956264,0.57405978

>  <Name>
ligand

>  <RI>
0

>  <Rbt.Current_Directory>
/home/itssahil/PROJECTS/Mol_Feturizer/New_Systems/rnas/3D2G

>  <Rbt.Executable>
rbdock ($Id: //depot/dev/client3/rdock/2013.1/src/exe/rbdock.cxx#4 $)

>  <Rbt.Library>
libRbt.so (2013.1, Build901 2013/11/27)

>  <Rbt.Parameter_File>
/export/apps/rDock/src/rDock_2013.1_src/data/scripts/dock_solv.prm

>  <Rbt.Receptor>
prm/pocket_docking_5.prm

>  <SCORE>
-12.6415

>  <SCORE.INTER>
-9.20949

>  <SCORE.INTER.CONST>
1

>  <SCORE.INTER.POLAR>
0

>  <SCORE.INTER.ROT>
8

>  <SCORE.INTER.SOLV>
18.9342

>  <SCORE.INTER.VDW>
-21.3844

>  <SCORE.INTER.norm>
-0.354211

>  <SCORE.INTRA>
-3.43205

>  <SCORE.INTRA.DIHEDRAL>
-2.87532

>  <SCORE.INTRA.DIHEDRAL.0>
9.09364

>  <SCORE.INTRA.POLAR>
0

>  <SCORE.INTRA.POLAR.0>
0

>  <SCORE.INTRA.REPUL>
0

>  <SCORE.INTRA.REPUL.0>
0

>  <SCORE.INTRA.SOLV>
-1.68581

>  <SCORE.INTRA.SOLV.lig_0>
-78.5846

>  <SCORE.INTRA.VDW>
-1.15149

>  <SCORE.INTRA.VDW.0>
-2.81163

>  <SCORE.INTRA.norm>
-0.132002

>  <SCORE.RESTR>
0

>  <SCORE.RESTR.CAVITY>
0

>  <SCORE.RESTR.norm>
0

>  <SCORE.SYSTEM>
0

>  <SCORE.SYSTEM.CONST>
0

>  <SCORE.SYSTEM.DIHEDRAL>
0

>  <SCORE.SYSTEM.SOLV>
0

>  <SCORE.SYSTEM.norm>
0

>  <SCORE.heavy>
26

>  <SCORE.norm>
-0.486213

>  <RMSD>
7.957

$$$$
ligand
 OpenBabel11021811463D
libRbt.so/2013.1/901 2013/11/27
 26 27  0  0  0  0  0  0  0  0999 V2000
   -7.0963  -43.4088   11.4716 C   0  0  0  0  0  0  0  0  0  0  0  0
   -5.0447  -43.7712    4.7640 C   0  0  0  0  0  0  0  0  0  0  0  0
   -9.2136  -39.5502    4.3507 P   0  0  1  0  0  0  0  0  0  0  0  0
   -9.3778  -39.9687    7.0601 P   0  0  2  0  0  0  0  0  0  0  0  0
   -6.4927  -46.0092    6.3910 C   0  0  0  0  0  0  0  0  0  0  0  0
   -7.0850  -43.9912    7.7731 C   0  0  0  0  0  0  0  0  0  0  0  0
   -6.6399  -45.3157    7.7214 C   0  0  0  0  0  0  0  0  0  0  0  0
   -6.3658  -46.0168    8.8988 C   0  0  0  0  0  0  0  0  0  0  0  0
   -5.9624  -47.2688    8.8439 N   0  0  0  0  0  0  0  0  0  0  0  0
   -6.4907  -45.3851   10.1121 N   0  0  0  0  0  0  0  0  0  0  0  0
   -6.9446  -44.0818   10.1540 C   0  0  0  0  0  0  0  0  0  0  0  0
   -7.2275  -43.3792    8.9977 N   0  0  0  0  0  0  0  0  0  0  0  0
  -10.2286  -39.1665    3.3178 O   0  5  0  0  0  0  0  0  0  0  0  0
  -10.5225  -39.9468    7.9934 O   0  0  0  0  0  0  0  0  0  0  0  0
   -8.8087  -44.3322    3.8502 S   0  0  0  0  0  0  0  0  0  0  0  0
   -8.3992  -45.3471    4.9925 C   0  0  0  0  0  0  0  0  0  0  0  0
   -8.0512  -38.6321    4.4902 O   0  0  0  0  0  0  0  0  0  0  0  0
   -8.3733  -38.9377    7.3833 O   0  5  0  0  0  0  0  0  0  0  0  0
   -7.0958  -45.1929    5.3739 N   0  0  0  0  0  0  0  0  0  0  0  0
  -10.0824  -39.7064    5.6645 O   0  0  0  0  0  0  0  0  0  0  0  0
   -8.5735  -41.2263    6.9912 O   0  0  0  0  0  0  0  0  0  0  0  0
   -6.4697  -44.2193    4.6476 C   0  0  1  0  0  0  0  0  0  0  0  0
   -7.3553  -43.6679    3.7562 C   0  0  2  0  0  0  0  0  0  0  0  0
   -7.1816  -42.5634    2.7434 C   0  0  0  0  0  0  0  0  0  0  0  0
   -7.5207  -41.1882    3.3294 C   0  0  0  0  0  0  0  0  0  0  0  0
   -8.7920  -41.0096    3.9268 O   0  0  0  0  0  0  0  0  0  0  0  0
  1 11  1  0  0  0  0
  3 13  1  6  0  0  0
  3 17  2  0  0  0  0
  3 20  1  0  0  0  0
  3 26  1  0  0  0  0
  4 14  1  1  0  0  0
  4 18  1  0  0  0  0
  4 21  2  0  0  0  0
  4 20  1  0  0  0  0
  5 19  1  0  0  0  0
  5  7  1  0  0  0  0
  6  7  2  0  0  0  0
  6 12  1  0  0  0  0
  7  8  1  0  0  0  0
  8  9  1  0  0  0  0
  8 10  2  0  0  0  0
 10 11  1  0  0  0  0
 11 12  2  0  0  0  0
 15 23  1  0  0  0  0
 15 16  1  0  0  0  0
 16 19  1  0  0  0  0
 19 22  1  0  0  0  0
 22  2  1  1  0  0  0
 22 23  1  0  0  0  0
 23 24  1  1  0  0  0
 24 25  1  0  0  0  0
 25 26  1  0  0  0  0
M  CHG  2  13  -1  18  -1
M  END
>  <CHROM.1>
-173.78193078,-92.36732431,-10.39326767,176.02424601,88.70223054,-54.73908790
-171.82832347,106.25306370,-7.98249127,-42.47741064,6.15580915,0.46716088
-1.15149226,1.50168078

>  <Name>
ligand

>  <RI>
0

>  <Rbt.Current_Directory>
/home/itssahil/PROJECTS/Mol_Feturizer/New_Systems/rnas/3D2G

>  <Rbt.Executable>
rbdock ($Id: //depot/dev/client3/rdock/2013.1/src/exe/rbdock.cxx#4 $)

>  <Rbt.Library>
libRbt.so (2013.1, Build901 2013/11/27)

>  <Rbt.Parameter_File>
/export/apps/rDock/src/rDock_2013.1_src/data/scripts/dock_solv.prm

>  <Rbt.Receptor>
prm/pocket_docking_6.prm

>  <SCORE>
-14.5347

>  <SCORE.INTER>
-12.0092

>  <SCORE.INTER.CONST>
1

>  <SCORE.INTER.POLAR>
0

>  <SCORE.INTER.ROT>
8

>  <SCORE.INTER.SOLV>
22.6898

>  <SCORE.INTER.VDW>
-24.5027

>  <SCORE.INTER.norm>
-0.461891

>  <SCORE.INTRA>
-2.5255

>  <SCORE.INTRA.DIHEDRAL>
-1.62075

>  <SCORE.INTRA.DIHEDRAL.0>
9.09364

>  <SCORE.INTRA.POLAR>
0

>  <SCORE.INTRA.POLAR.0>
0

>  <SCORE.INTRA.REPUL>
0

>  <SCORE.INTRA.REPUL.0>
0

>  <SCORE.INTRA.SOLV>
-0.550186

>  <SCORE.INTRA.SOLV.lig_0>
-78.5846

>  <SCORE.INTRA.VDW>
-1.44004

>  <SCORE.INTRA.VDW.0>
-2.81163

>  <SCORE.INTRA.norm>
-0.0971348

>  <SCORE.RESTR>
0

>  <SCORE.RESTR.CAVITY>
0

>  <SCORE.RESTR.norm>
0

>  <SCORE.SYSTEM>
0

>  <SCORE.SYSTEM.CONST>
0

>  <SCORE.SYSTEM.DIHEDRAL>
0

>  <SCORE.SYSTEM.SOLV>
0

>  <SCORE.SYSTEM.norm>
0

>  <SCORE.heavy>
26

>  <SCORE.norm>
-0.559026

>  <RMSD>
7.974

$$$$
ligand
 OpenBabel11021811463D
libRbt.so/2013.1/901 2013/11/27
 26 27  0  0  0  0  0  0  0  0999 V2000
   -7.7922  -34.1602   10.9125 C   0  0  0  0  0  0  0  0  0  0  0  0
   -3.2402  -39.6593   10.6306 C   0  0  0  0  0  0  0  0  0  0  0  0
   -0.8290  -42.5624   10.3622 P   0  0  1  0  0  0  0  0  0  0  0  0
   -0.6247  -43.9942    8.0274 P   0  0  2  0  0  0  0  0  0  0  0  0
   -3.9988  -37.8804   13.0827 C   0  0  0  0  0  0  0  0  0  0  0  0
   -6.2388  -37.3693   12.0559 C   0  0  0  0  0  0  0  0  0  0  0  0
   -4.9943  -36.9107   12.4985 C   0  0  0  0  0  0  0  0  0  0  0  0
   -4.6790  -35.5505   12.4389 C   0  0  0  0  0  0  0  0  0  0  0  0
   -3.5117  -35.1231   12.8721 N   0  0  0  0  0  0  0  0  0  0  0  0
   -5.5805  -34.6657   11.8994 N   0  0  0  0  0  0  0  0  0  0  0  0
   -6.8124  -35.1256   11.4782 C   0  0  0  0  0  0  0  0  0  0  0  0
   -7.1408  -36.4669   11.5392 N   0  0  0  0  0  0  0  0  0  0  0  0
   -0.7652  -42.9548   11.8066 O   0  5  0  0  0  0  0  0  0  0  0  0
    0.4308  -43.0441    7.6215 O   0  0  0  0  0  0  0  0  0  0  0  0
   -5.6401  -41.3323   13.2305 S   0  0  0  0  0  0  0  0  0  0  0  0
   -5.2876  -39.8704   13.7212 C   0  0  0  0  0  0  0  0  0  0  0  0
    0.0583  -41.4396    9.9553 O   0  0  0  0  0  0  0  0  0  0  0  0
   -1.9532  -43.6055    7.5170 O   0  5  0  0  0  0  0  0  0  0  0  0
   -4.4632  -39.2194   12.8466 N   0  0  0  0  0  0  0  0  0  0  0  0
   -0.5433  -43.9249    9.6090 O   0  0  0  0  0  0  0  0  0  0  0  0
   -0.4816  -45.4117    7.5762 O   0  0  0  0  0  0  0  0  0  0  0  0
   -4.1291  -40.0113   11.7842 C   0  0  1  0  0  0  0  0  0  0  0  0
   -4.7464  -41.2308   11.9061 C   0  0  2  0  0  0  0  0  0  0  0  0
   -4.7236  -42.4454   11.0118 C   0  0  0  0  0  0  0  0  0  0  0  0
   -3.3090  -43.0131   10.8502 C   0  0  0  0  0  0  0  0  0  0  0  0
   -2.3573  -42.2468   10.1347 O   0  0  0  0  0  0  0  0  0  0  0  0
  1 11  1  0  0  0  0
  3 13  1  1  0  0  0
  3 17  2  0  0  0  0
  3 20  1  0  0  0  0
  3 26  1  0  0  0  0
  4 14  1  6  0  0  0
  4 18  1  0  0  0  0
  4 21  2  0  0  0  0
  4 20  1  0  0  0  0
  5 19  1  0  0  0  0
  5  7  1  0  0  0  0
  6  7  2  0  0  0  0
  6 12  1  0  0  0  0
  7  8  1  0  0  0  0
  8  9  1  0  0  0  0
  8 10  2  0  0  0  0
 10 11  1  0  0  0  0
 11 12  2  0  0  0  0
 15 23  1  0  0  0  0
 15 16  1  0  0  0  0
 16 19  1  0  0  0  0
 19 22  1  0  0  0  0
 22  2  1  6  0  0  0
 22 23  1  0  0  0  0
 23 24  1  6  0  0  0
 24 25  1  0  0  0  0
 25 26  1  0  0  0  0
M  CHG  2  13  -1  18  -1
M  END
>  <CHROM.1>
175.36230347,-88.85303790,10.49269692,61.79747517,-119.72927830,-68.20514008
160.03617626,-34.22402202,-3.30703891,-40.45657102,10.89132237,-2.40913671
-0.76912411,2.90675607

>  <Name>
ligand

>  <RI>
0

>  <Rbt.Current_Directory>
/home/itssahil/PROJECTS/Mol_Feturizer/New_Systems/rnas/3D2G

>  <Rbt.Executable>
rbdock ($Id: //depot/dev/client3/rdock/2013.1/src/exe/rbdock.cxx#4 $)

>  <Rbt.Library>
libRbt.so (2013.1, Build901 2013/11/27)

>  <Rbt.Parameter_File>
/export/apps/rDock/src/rDock_2013.1_src/data/scripts/dock_solv.prm

>  <Rbt.Receptor>
prm/blind_docking_60.prm

>  <SCORE>
-12.4799

>  <SCORE.INTER>
-11.385

>  <SCORE.INTER.CONST>
1

>  <SCORE.INTER.POLAR>
0

>  <SCORE.INTER.ROT>
8

>  <SCORE.INTER.SOLV>
16.2717

>  <SCORE.INTER.VDW>
-21.9472

>  <SCORE.INTER.norm>
-0.437883

>  <SCORE.INTRA>
-1.09957

>  <SCORE.INTRA.DIHEDRAL>
-1.78173

>  <SCORE.INTRA.DIHEDRAL.0>
9.09364

>  <SCORE.INTRA.POLAR>
0

>  <SCORE.INTRA.POLAR.0>
0

>  <SCORE.INTRA.REPUL>
0

>  <SCORE.INTRA.REPUL.0>
0

>  <SCORE.INTRA.SOLV>
-1.65177

>  <SCORE.INTRA.SOLV.lig_0>
-78.5846

>  <SCORE.INTRA.VDW>
0.617178

>  <SCORE.INTRA.VDW.0>
-2.81163

>  <SCORE.INTRA.norm>
-0.0422911

>  <SCORE.RESTR>
0.00466197

>  <SCORE.RESTR.CAVITY>
0.00466197

>  <SCORE.RESTR.norm>
0.000179306

>  <SCORE.SYSTEM>
0

>  <SCORE.SYSTEM.CONST>
0

>  <SCORE.SYSTEM.DIHEDRAL>
0

>  <SCORE.SYSTEM.SOLV>
0

>  <SCORE.SYSTEM.norm>
0

>  <SCORE.heavy>
26

>  <SCORE.norm>
-0.479995

>  <RMSD>
7.978

$$$$
ligand
 OpenBabel11021811463D
libRbt.so/2013.1/901 2013/11/27
 26 27  0  0  0  0  0  0  0  0999 V2000
   -1.2690  -48.5680    5.2923 C   0  0  0  0  0  0  0  0  0  0  0  0
   -6.2715  -43.2836    7.3193 C   0  0  0  0  0  0  0  0  0  0  0  0
   -5.3951  -42.1816   12.1710 P   0  0  1  0  0  0  0  0  0  0  0  0
   -4.9315  -40.5140   10.0386 P   0  0  2  0  0  0  0  0  0  0  0  0
   -6.3397  -45.8988    5.6138 C   0  0  0  0  0  0  0  0  0  0  0  0
   -4.7987  -47.7801    6.2615 C   0  0  0  0  0  0  0  0  0  0  0  0
   -5.0056  -46.5974    5.5450 C   0  0  0  0  0  0  0  0  0  0  0  0
   -3.9950  -46.0759    4.7327 C   0  0  0  0  0  0  0  0  0  0  0  0
   -4.2017  -44.9705    4.0482 N   0  0  0  0  0  0  0  0  0  0  0  0
   -2.7755  -46.7053    4.6745 N   0  0  0  0  0  0  0  0  0  0  0  0
   -2.5853  -47.8804    5.3741 C   0  0  0  0  0  0  0  0  0  0  0  0
   -3.5789  -48.4119    6.1746 N   0  0  0  0  0  0  0  0  0  0  0  0
   -3.9924  -42.6894   12.0323 O   0  5  0  0  0  0  0  0  0  0  0  0
   -5.2293  -39.3858   10.9443 O   0  0  0  0  0  0  0  0  0  0  0  0
   -7.5896  -46.4616    9.1850 S   0  0  0  0  0  0  0  0  0  0  0  0
   -7.2207  -46.8535    7.6975 C   0  0  0  0  0  0  0  0  0  0  0  0
   -5.6112  -41.1525   13.2235 O   0  0  0  0  0  0  0  0  0  0  0  0
   -5.3624  -40.2473    8.6531 O   0  5  0  0  0  0  0  0  0  0  0  0
   -6.7345  -45.7891    6.9910 N   0  0  0  0  0  0  0  0  0  0  0  0
   -5.7467  -41.6989   10.7052 O   0  0  0  0  0  0  0  0  0  0  0  0
   -3.4989  -40.9104    9.8854 O   0  0  0  0  0  0  0  0  0  0  0  0
   -6.7202  -44.6487    7.7436 C   0  0  1  0  0  0  0  0  0  0  0  0
   -7.1849  -44.9232    9.0053 C   0  0  2  0  0  0  0  0  0  0  0  0
   -7.3579  -44.0338   10.2115 C   0  0  0  0  0  0  0  0  0  0  0  0
   -6.3856  -44.3993   11.3387 C   0  0  0  0  0  0  0  0  0  0  0  0
   -6.2375  -43.4922   12.4159 O   0  0  0  0  0  0  0  0  0  0  0  0
  1 11  1  0  0  0  0
  3 13  1  1  0  0  0
  3 17  2  0  0  0  0
  3 20  1  0  0  0  0
  3 26  1  0  0  0  0
  4 14  1  1  0  0  0
  4 18  1  0  0  0  0
  4 21  2  0  0  0  0
  4 20  1  0  0  0  0
  5 19  1  0  0  0  0
  5  7  1  0  0  0  0
  6  7  2  0  0  0  0
  6 12  1  0  0  0  0
  7  8  1  0  0  0  0
  8  9  1  0  0  0  0
  8 10  2  0  0  0  0
 10 11  1  0  0  0  0
 11 12  2  0  0  0  0
 15 23  1  0  0  0  0
 15 16  1  0  0  0  0
 16 19  1  0  0  0  0
 19 22  1  0  0  0  0
 22  2  1  1  0  0  0
 22 23  1  0  0  0  0
 23 24  1  1  0  0  0
 24 25  1  0  0  0  0
 25 26  1  0  0  0  0
M  CHG  2  13  -1  18  -1
M  END
>  <CHROM.1>
-63.12634338,-75.93868649,48.17430752,-62.09519084,67.36223519,167.23291013
-75.41218367,-69.61241455,-5.31204966,-44.11977815,8.75573190,-1.36743644
0.75677123,0.64955777

>  <Name>
ligand

>  <RI>
0

>  <Rbt.Current_Directory>
/home/itssahil/PROJECTS/Mol_Feturizer/New_Systems/rnas/3D2G

>  <Rbt.Executable>
rbdock ($Id: //depot/dev/client3/rdock/2013.1/src/exe/rbdock.cxx#4 $)

>  <Rbt.Library>
libRbt.so (2013.1, Build901 2013/11/27)

>  <Rbt.Parameter_File>
/export/apps/rDock/src/rDock_2013.1_src/data/scripts/dock_solv.prm

>  <Rbt.Receptor>
prm/pocket_docking_7.prm

>  <SCORE>
-12.699

>  <SCORE.INTER>
-11.6755

>  <SCORE.INTER.CONST>
1

>  <SCORE.INTER.POLAR>
0

>  <SCORE.INTER.ROT>
8

>  <SCORE.INTER.SOLV>
8.35332

>  <SCORE.INTER.VDW>
-19.5014

>  <SCORE.INTER.norm>
-0.449057

>  <SCORE.INTRA>
-1.0235

>  <SCORE.INTRA.DIHEDRAL>
-1.80398

>  <SCORE.INTRA.DIHEDRAL.0>
9.09364

>  <SCORE.INTRA.POLAR>
0

>  <SCORE.INTRA.POLAR.0>
0

>  <SCORE.INTRA.REPUL>
0

>  <SCORE.INTRA.REPUL.0>
0

>  <SCORE.INTRA.SOLV>
0.430709

>  <SCORE.INTRA.SOLV.lig_0>
-78.5846

>  <SCORE.INTRA.VDW>
-0.336864

>  <SCORE.INTRA.VDW.0>
-2.81163

>  <SCORE.INTRA.norm>
-0.0393654

>  <SCORE.RESTR>
0

>  <SCORE.RESTR.CAVITY>
0

>  <SCORE.RESTR.norm>
0

>  <SCORE.SYSTEM>
0

>  <SCORE.SYSTEM.CONST>
0

>  <SCORE.SYSTEM.DIHEDRAL>
0

>  <SCORE.SYSTEM.SOLV>
0

>  <SCORE.SYSTEM.norm>
0

>  <SCORE.heavy>
26

>  <SCORE.norm>
-0.488422

>  <RMSD>
7.988

$$$$
ligand
 OpenBabel11021811463D
libRbt.so/2013.1/901 2013/11/27
 26 27  0  0  0  0  0  0  0  0999 V2000
   -8.0572  -45.7459    4.7251 C   0  0  0  0  0  0  0  0  0  0  0  0
   -3.0832  -44.8104   10.2617 C   0  0  0  0  0  0  0  0  0  0  0  0
   -4.9899  -40.4467    9.7917 P   0  0  1  0  0  0  0  0  0  0  0  0
   -5.3423  -38.5195   11.7165 P   0  0  2  0  0  0  0  0  0  0  0  0
   -4.9648  -47.1328    9.3569 C   0  0  0  0  0  0  0  0  0  0  0  0
   -7.1537  -46.5247    8.2742 C   0  0  0  0  0  0  0  0  0  0  0  0
   -5.7857  -46.7818    8.1421 C   0  0  0  0  0  0  0  0  0  0  0  0
   -5.1632  -46.6785    6.8952 C   0  0  0  0  0  0  0  0  0  0  0  0
   -3.8716  -46.9062    6.7804 N   0  0  0  0  0  0  0  0  0  0  0  0
   -5.9099  -46.3674    5.7851 N   0  0  0  0  0  0  0  0  0  0  0  0
   -7.2572  -46.1011    5.9276 C   0  0  0  0  0  0  0  0  0  0  0  0
   -7.8842  -46.1912    7.1561 N   0  0  0  0  0  0  0  0  0  0  0  0
   -5.7615  -40.8086    8.5596 O   0  5  0  0  0  0  0  0  0  0  0  0
   -5.8047  -39.5291   12.6905 O   0  0  0  0  0  0  0  0  0  0  0  0
   -6.4900  -45.0427   12.1742 S   0  0  0  0  0  0  0  0  0  0  0  0
   -6.4262  -46.1961   11.0935 C   0  0  0  0  0  0  0  0  0  0  0  0
   -3.5278  -40.2441    9.6051 O   0  0  0  0  0  0  0  0  0  0  0  0
   -5.9787  -37.2056   11.9284 O   0  5  0  0  0  0  0  0  0  0  0  0
   -5.2496  -46.1844   10.3980 N   0  0  0  0  0  0  0  0  0  0  0  0
   -5.7602  -39.1752   10.3350 O   0  0  0  0  0  0  0  0  0  0  0  0
   -3.8828  -38.1989   11.7021 O   0  0  0  0  0  0  0  0  0  0  0  0
   -4.4398  -45.1576   10.7945 C   0  0  1  0  0  0  0  0  0  0  0  0
   -5.0508  -44.4502   11.7992 C   0  0  2  0  0  0  0  0  0  0  0  0
   -4.5890  -43.2488   12.5859 C   0  0  0  0  0  0  0  0  0  0  0  0
   -4.3051  -42.0443   11.6813 C   0  0  0  0  0  0  0  0  0  0  0  0
   -5.3213  -41.6212   10.7907 O   0  0  0  0  0  0  0  0  0  0  0  0
  1 11  1  0  0  0  0
  3 13  1  6  0  0  0
  3 17  2  0  0  0  0
  3 20  1  0  0  0  0
  3 26  1  0  0  0  0
  4 14  1  1  0  0  0
  4 18  1  0  0  0  0
  4 21  2  0  0  0  0
  4 20  1  0  0  0  0
  5 19  1  0  0  0  0
  5  7  1  0  0  0  0
  6  7  2  0  0  0  0
  6 12  1  0  0  0  0
  7  8  1  0  0  0  0
  8  9  1  0  0  0  0
  8 10  2  0  0  0  0
 10 11  1  0  0  0  0
 11 12  2  0  0  0  0
 15 23  1  0  0  0  0
 15 16  1  0  0  0  0
 16 19  1  0  0  0  0
 19 22  1  0  0  0  0
 22  2  1  1  0  0  0
 22 23  1  0  0  0  0
 23 24  1  1  0  0  0
 24 25  1  0  0  0  0
 25 26  1  0  0  0  0
M  CHG  2  13  -1  18  -1
M  END
>  <CHROM.1>
175.09200155,73.39483110,-48.37718372,-70.96015028,-121.06379212,53.39797019
-175.80670409,145.25684873,-5.45906726,-43.04496043,9.90031087,2.12094608
1.33944559,3.07574499

>  <Name>
ligand

>  <RI>
0

>  <Rbt.Current_Directory>
/home/itssahil/PROJECTS/Mol_Feturizer/New_Systems/rnas/3D2G

>  <Rbt.Executable>
rbdock ($Id: //depot/dev/client3/rdock/2013.1/src/exe/rbdock.cxx#4 $)

>  <Rbt.Library>
libRbt.so (2013.1, Build901 2013/11/27)

>  <Rbt.Parameter_File>
/export/apps/rDock/src/rDock_2013.1_src/data/scripts/dock_solv.prm

>  <Rbt.Receptor>
prm/pocket_docking_8.prm

>  <SCORE>
-19.7489

>  <SCORE.INTER>
-16.7275

>  <SCORE.INTER.CONST>
1

>  <SCORE.INTER.POLAR>
0

>  <SCORE.INTER.ROT>
8

>  <SCORE.INTER.SOLV>
13.2792

>  <SCORE.INTER.VDW>
-24.5114

>  <SCORE.INTER.norm>
-0.643364

>  <SCORE.INTRA>
-3.02146

>  <SCORE.INTRA.DIHEDRAL>
-2.28022

>  <SCORE.INTRA.DIHEDRAL.0>
9.09364

>  <SCORE.INTRA.POLAR>
0

>  <SCORE.INTRA.POLAR.0>
0

>  <SCORE.INTRA.REPUL>
0

>  <SCORE.INTRA.REPUL.0>
0

>  <SCORE.INTRA.SOLV>
-1.98951

>  <SCORE.INTRA.SOLV.lig_0>
-78.5846

>  <SCORE.INTRA.VDW>
-0.886597

>  <SCORE.INTRA.VDW.0>
-2.81163

>  <SCORE.INTRA.norm>
-0.11621

>  <SCORE.RESTR>
0

>  <SCORE.RESTR.CAVITY>
0

>  <SCORE.RESTR.norm>
0

>  <SCORE.SYSTEM>
0

>  <SCORE.SYSTEM.CONST>
0

>  <SCORE.SYSTEM.DIHEDRAL>
0

>  <SCORE.SYSTEM.SOLV>
0

>  <SCORE.SYSTEM.norm>
0

>  <SCORE.heavy>
26

>  <SCORE.norm>
-0.759574

>  <RMSD>
7.997

$$$$
ligand
 OpenBabel11021811463D
libRbt.so/2013.1/901 2013/11/27
 26 27  0  0  0  0  0  0  0  0999 V2000
   -0.0039  -40.1798    8.2205 C   0  0  0  0  0  0  0  0  0  0  0  0
   -6.7536  -42.8844    9.9159 C   0  0  0  0  0  0  0  0  0  0  0  0
   -5.1374  -46.3465    7.8554 P   0  0  1  0  0  0  0  0  0  0  0  0
   -2.5186  -45.5246    7.9515 P   0  0  2  0  0  0  0  0  0  0  0  0
   -4.8851  -40.7301   11.1887 C   0  0  0  0  0  0  0  0  0  0  0  0
   -3.3506  -41.4432    9.3259 C   0  0  0  0  0  0  0  0  0  0  0  0
   -3.5987  -40.6003   10.4135 C   0  0  0  0  0  0  0  0  0  0  0  0
   -2.6780  -39.6097   10.7658 C   0  0  0  0  0  0  0  0  0  0  0  0
   -2.9250  -38.8088   11.7810 N   0  0  0  0  0  0  0  0  0  0  0  0
   -1.5012  -39.4945   10.0669 N   0  0  0  0  0  0  0  0  0  0  0  0
   -1.2714  -40.3217    8.9856 C   0  0  0  0  0  0  0  0  0  0  0  0
   -2.1771  -41.3001    8.6208 N   0  0  0  0  0  0  0  0  0  0  0  0
   -6.3042  -45.6196    7.2601 O   0  5  0  0  0  0  0  0  0  0  0  0
   -2.3574  -46.8834    8.5077 O   0  0  0  0  0  0  0  0  0  0  0  0
   -4.6263  -44.1081   12.9645 S   0  0  0  0  0  0  0  0  0  0  0  0
   -4.2956  -42.5870   12.6831 C   0  0  0  0  0  0  0  0  0  0  0  0
   -5.1578  -47.8279    7.7187 O   0  0  0  0  0  0  0  0  0  0  0  0
   -2.5601  -44.4912    9.0036 O   0  5  0  0  0  0  0  0  0  0  0  0
   -5.0206  -42.0884   11.6372 N   0  0  0  0  0  0  0  0  0  0  0  0
   -3.8935  -45.6459    7.1719 O   0  0  0  0  0  0  0  0  0  0  0  0
   -1.4545  -45.0325    7.0248 O   0  0  0  0  0  0  0  0  0  0  0  0
   -5.8255  -43.0426   11.0813 C   0  0  1  0  0  0  0  0  0  0  0  0
   -5.6771  -44.2246   11.7625 C   0  0  2  0  0  0  0  0  0  0  0  0
   -6.3355  -45.5680   11.5686 C   0  0  0  0  0  0  0  0  0  0  0  0
   -6.3391  -45.9988   10.0975 C   0  0  0  0  0  0  0  0  0  0  0  0
   -5.1374  -45.8717    9.3594 O   0  0  0  0  0  0  0  0  0  0  0  0
  1 11  1  0  0  0  0
  3 13  1  6  0  0  0
  3 17  2  0  0  0  0
  3 20  1  0  0  0  0
  3 26  1  0  0  0  0
  4 14  1  1  0  0  0
  4 18  1  0  0  0  0
  4 21  2  0  0  0  0
  4 20  1  0  0  0  0
  5 19  1  0  0  0  0
  5  7  1  0  0  0  0
  6  7  2  0  0  0  0
  6 12  1  0  0  0  0
  7  8  1  0  0  0  0
  8  9  1  0  0  0  0
  8 10  2  0  0  0  0
 10 11  1  0  0  0  0
 11 12  2  0  0  0  0
 15 23  1  0  0  0  0
 15 16  1  0  0  0  0
 16 19  1  0  0  0  0
 19 22  1  0  0  0  0
 22  2  1  1  0  0  0
 22 23  1  0  0  0  0
 23 24  1  1  0  0  0
 24 25  1  0  0  0  0
 25 26  1  0  0  0  0
M  CHG  2  13  -1  18  -1
M  END
>  <CHROM.1>
148.81885805,75.54924917,54.91216274,45.76970169,-133.89557359,46.66388818
178.64962084,52.73889641,-3.93692987,-43.69549445,9.62630879,-1.16933434
-0.71286378,-2.51756707

>  <Name>
ligand

>  <RI>
0

>  <Rbt.Current_Directory>
/home/itssahil/PROJECTS/Mol_Feturizer/New_Systems/rnas/3D2G

>  <Rbt.Executable>
rbdock ($Id: //depot/dev/client3/rdock/2013.1/src/exe/rbdock.cxx#4 $)

>  <Rbt.Library>
libRbt.so (2013.1, Build901 2013/11/27)

>  <Rbt.Parameter_File>
/export/apps/rDock/src/rDock_2013.1_src/data/scripts/dock_solv.prm

>  <Rbt.Receptor>
prm/pocket_docking_8.prm

>  <SCORE>
-12.419

>  <SCORE.INTER>
-8.94821

>  <SCORE.INTER.CONST>
1

>  <SCORE.INTER.POLAR>
0

>  <SCORE.INTER.ROT>
8

>  <SCORE.INTER.SOLV>
9.3926

>  <SCORE.INTER.VDW>
-18.0297

>  <SCORE.INTER.norm>
-0.344162

>  <SCORE.INTRA>
-3.4708

>  <SCORE.INTRA.DIHEDRAL>
-2.42475

>  <SCORE.INTRA.DIHEDRAL.0>
9.09364

>  <SCORE.INTRA.POLAR>
0

>  <SCORE.INTRA.POLAR.0>
0

>  <SCORE.INTRA.REPUL>
0

>  <SCORE.INTRA.REPUL.0>
0

>  <SCORE.INTRA.SOLV>
-2.12929

>  <SCORE.INTRA.SOLV.lig_0>
-78.5846

>  <SCORE.INTRA.VDW>
-1.19378

>  <SCORE.INTRA.VDW.0>
-2.81163

>  <SCORE.INTRA.norm>
-0.133492

>  <SCORE.RESTR>
0

>  <SCORE.RESTR.CAVITY>
0

>  <SCORE.RESTR.norm>
0

>  <SCORE.SYSTEM>
0

>  <SCORE.SYSTEM.CONST>
0

>  <SCORE.SYSTEM.DIHEDRAL>
0

>  <SCORE.SYSTEM.SOLV>
0

>  <SCORE.SYSTEM.norm>
0

>  <SCORE.heavy>
26

>  <SCORE.norm>
-0.477654

>  <RMSD>
8.012

$$$$
ligand
 OpenBabel11021811463D
libRbt.so/2013.1/901 2013/11/27
 26 27  0  0  0  0  0  0  0  0999 V2000
   -6.6799  -44.2046   10.4705 C   0  0  0  0  0  0  0  0  0  0  0  0
   -5.7625  -37.3476    5.6781 C   0  0  0  0  0  0  0  0  0  0  0  0
   -7.2949  -35.0808   11.1011 P   0  0  1  0  0  0  0  0  0  0  0  0
   -4.7877  -34.2339   11.8355 P   0  0  2  0  0  0  0  0  0  0  0  0
   -6.6609  -40.2759    6.2867 C   0  0  0  0  0  0  0  0  0  0  0  0
   -5.9068  -41.0870    8.5465 C   0  0  0  0  0  0  0  0  0  0  0  0
   -6.6501  -41.3101    7.3834 C   0  0  0  0  0  0  0  0  0  0  0  0
   -7.4164  -42.4706    7.2448 C   0  0  0  0  0  0  0  0  0  0  0  0
   -8.1267  -42.6671    6.1539 N   0  0  0  0  0  0  0  0  0  0  0  0
   -7.4020  -43.4187    8.2385 N   0  0  0  0  0  0  0  0  0  0  0  0
   -6.6765  -43.1831    9.3894 C   0  0  0  0  0  0  0  0  0  0  0  0
   -5.9210  -42.0360    9.5435 N   0  0  0  0  0  0  0  0  0  0  0  0
   -6.6946  -36.1868   11.9141 O   0  5  0  0  0  0  0  0  0  0  0  0
   -3.9749  -33.1156   11.3151 O   0  0  0  0  0  0  0  0  0  0  0  0
   -8.9270  -37.6856    7.9560 S   0  0  0  0  0  0  0  0  0  0  0  0
   -8.4192  -39.1310    7.5620 C   0  0  0  0  0  0  0  0  0  0  0  0
   -8.6684  -34.6618   11.4902 O   0  0  0  0  0  0  0  0  0  0  0  0
   -4.2582  -35.5482   11.4247 O   0  5  0  0  0  0  0  0  0  0  0  0
   -7.3007  -39.0868    6.7777 N   0  0  0  0  0  0  0  0  0  0  0  0
   -6.2098  -33.9331   11.2028 O   0  0  0  0  0  0  0  0  0  0  0  0
   -4.9115  -34.3589   13.3194 O   0  0  0  0  0  0  0  0  0  0  0  0
   -6.9240  -37.8010    6.5088 C   0  0  1  0  0  0  0  0  0  0  0  0
   -7.7813  -36.9296    7.1323 C   0  0  2  0  0  0  0  0  0  0  0  0
   -7.8052  -35.4217    7.1700 C   0  0  0  0  0  0  0  0  0  0  0  0
   -7.8603  -34.8839    8.6044 C   0  0  0  0  0  0  0  0  0  0  0  0
   -7.2185  -35.6280    9.6239 O   0  0  0  0  0  0  0  0  0  0  0  0
  1 11  1  0  0  0  0
  3 13  1  1  0  0  0
  3 17  2  0  0  0  0
  3 20  1  0  0  0  0
  3 26  1  0  0  0  0
  4 14  1  6  0  0  0
  4 18  1  0  0  0  0
  4 21  2  0  0  0  0
  4 20  1  0  0  0  0
  5 19  1  0  0  0  0
  5  7  1  0  0  0  0
  6  7  2  0  0  0  0
  6 12  1  0  0  0  0
  7  8  1  0  0  0  0
  8  9  1  0  0  0  0
  8 10  2  0  0  0  0
 10 11  1  0  0  0  0
 11 12  2  0  0  0  0
 15 23  1  0  0  0  0
 15 16  1  0  0  0  0
 16 19  1  0  0  0  0
 19 22  1  0  0  0  0
 22  2  1  1  0  0  0
 22 23  1  0  0  0  0
 23 24  1  1  0  0  0
 24 25  1  0  0  0  0
 25 26  1  0  0  0  0
M  CHG  2  13  -1  18  -1
M  END
>  <CHROM.1>
9.80237116,-40.81780658,-65.46016441,160.83750523,52.09262218,32.13627762
-179.17562631,172.41299802,-6.77135784,-37.66874575,9.27260904,-1.91693674
-1.10038883,0.13907177

>  <Name>
ligand

>  <RI>
0

>  <Rbt.Current_Directory>
/home/itssahil/PROJECTS/Mol_Feturizer/New_Systems/rnas/3D2G

>  <Rbt.Executable>
rbdock ($Id: //depot/dev/client3/rdock/2013.1/src/exe/rbdock.cxx#4 $)

>  <Rbt.Library>
libRbt.so (2013.1, Build901 2013/11/27)

>  <Rbt.Parameter_File>
/export/apps/rDock/src/rDock_2013.1_src/data/scripts/dock_solv.prm

>  <Rbt.Receptor>
prm/blind_docking_100.prm

>  <SCORE>
-6.54431

>  <SCORE.INTER>
-9.35742

>  <SCORE.INTER.CONST>
1

>  <SCORE.INTER.POLAR>
0

>  <SCORE.INTER.ROT>
8

>  <SCORE.INTER.SOLV>
20.9441

>  <SCORE.INTER.VDW>
-22.153

>  <SCORE.INTER.norm>
-0.359901

>  <SCORE.INTRA>
1.54625

>  <SCORE.INTRA.DIHEDRAL>
1.20927

>  <SCORE.INTRA.DIHEDRAL.0>
9.09364

>  <SCORE.INTRA.POLAR>
0

>  <SCORE.INTRA.POLAR.0>
0

>  <SCORE.INTRA.REPUL>
0

>  <SCORE.INTRA.REPUL.0>
0

>  <SCORE.INTRA.SOLV>
-0.336869

>  <SCORE.INTRA.SOLV.lig_0>
-78.5846

>  <SCORE.INTRA.VDW>
1.11004

>  <SCORE.INTRA.VDW.0>
-2.81163

>  <SCORE.INTRA.norm>
0.059471

>  <SCORE.RESTR>
1.26687

>  <SCORE.RESTR.CAVITY>
1.26687

>  <SCORE.RESTR.norm>
0.0487257

>  <SCORE.SYSTEM>
0

>  <SCORE.SYSTEM.CONST>
0

>  <SCORE.SYSTEM.DIHEDRAL>
0

>  <SCORE.SYSTEM.SOLV>
0

>  <SCORE.SYSTEM.norm>
0

>  <SCORE.heavy>
26

>  <SCORE.norm>
-0.251704

>  <RMSD>
8.022

$$$$
ligand
 OpenBabel11021811463D
libRbt.so/2013.1/901 2013/11/27
 26 27  0  0  0  0  0  0  0  0999 V2000
   -5.4947  -46.5836   10.2813 C   0  0  0  0  0  0  0  0  0  0  0  0
   -4.7595  -42.8632    4.9432 C   0  0  0  0  0  0  0  0  0  0  0  0
   -8.5050  -39.2792    7.0615 P   0  0  1  0  0  0  0  0  0  0  0  0
   -7.9161  -36.6261    6.6655 P   0  0  2  0  0  0  0  0  0  0  0  0
   -6.7254  -45.2869    4.8276 C   0  0  0  0  0  0  0  0  0  0  0  0
   -6.8904  -44.8110    7.2933 C   0  0  0  0  0  0  0  0  0  0  0  0
   -6.3942  -45.6136    6.2615 C   0  0  0  0  0  0  0  0  0  0  0  0
   -5.6228  -46.7423    6.5513 C   0  0  0  0  0  0  0  0  0  0  0  0
   -5.1721  -47.5030    5.5760 N   0  0  0  0  0  0  0  0  0  0  0  0
   -5.3121  -47.0379    7.8562 N   0  0  0  0  0  0  0  0  0  0  0  0
   -5.8184  -46.2478    8.8690 C   0  0  0  0  0  0  0  0  0  0  0  0
   -6.5897  -45.1335    8.5973 N   0  0  0  0  0  0  0  0  0  0  0  0
   -9.2713  -39.9577    8.1556 O   0  5  0  0  0  0  0  0  0  0  0  0
   -9.1218  -36.5564    5.8151 O   0  0  0  0  0  0  0  0  0  0  0  0
   -8.5349  -41.9330    4.4979 S   0  0  0  0  0  0  0  0  0  0  0  0
   -8.3972  -43.5072    4.5689 C   0  0  0  0  0  0  0  0  0  0  0  0
   -9.1361  -39.3063    5.7145 O   0  0  0  0  0  0  0  0  0  0  0  0
   -6.6927  -36.8806    5.8812 O   0  5  0  0  0  0  0  0  0  0  0  0
   -7.1004  -43.9025    4.7428 N   0  0  0  0  0  0  0  0  0  0  0  0
   -8.2666  -37.8257    7.6407 O   0  0  0  0  0  0  0  0  0  0  0  0
   -7.5691  -35.4113    7.4637 O   0  0  0  0  0  0  0  0  0  0  0  0
   -6.2486  -42.8345    4.7803 C   0  0  1  0  0  0  0  0  0  0  0  0
   -6.9633  -41.6702    4.6512 C   0  0  2  0  0  0  0  0  0  0  0  0
   -6.5151  -40.2298    4.6422 C   0  0  0  0  0  0  0  0  0  0  0  0
   -6.1867  -39.7217    6.0507 C   0  0  0  0  0  0  0  0  0  0  0  0
   -7.1027  -40.0004    7.0938 O   0  0  0  0  0  0  0  0  0  0  0  0
  1 11  1  0  0  0  0
  3 13  1  1  0  0  0
  3 17  2  0  0  0  0
  3 20  1  0  0  0  0
  3 26  1  0  0  0  0
  4 14  1  6  0  0  0
  4 18  1  0  0  0  0
  4 21  2  0  0  0  0
  4 20  1  0  0  0  0
  5 19  1  0  0  0  0
  5  7  1  0  0  0  0
  6  7  2  0  0  0  0
  6 12  1  0  0  0  0
  7  8  1  0  0  0  0
  8  9  1  0  0  0  0
  8 10  2  0  0  0  0
 10 11  1  0  0  0  0
 11 12  2  0  0  0  0
 15 23  1  0  0  0  0
 15 16  1  0  0  0  0
 16 19  1  0  0  0  0
 19 22  1  0  0  0  0
 22  2  1  1  0  0  0
 22 23  1  0  0  0  0
 23 24  1  1  0  0  0
 24 25  1  0  0  0  0
 25 26  1  0  0  0  0
M  CHG  2  13  -1  18  -1
M  END
>  <CHROM.1>
-160.07266001,-105.95857567,21.46490468,62.08445404,102.89019996,-46.55215838
-68.88563045,171.35366018,-7.21705977,-41.51429232,6.38688116,-0.30043159
-1.31882845,1.21776357

>  <Name>
ligand

>  <RI>
0

>  <Rbt.Current_Directory>
/home/itssahil/PROJECTS/Mol_Feturizer/New_Systems/rnas/3D2G

>  <Rbt.Executable>
rbdock ($Id: //depot/dev/client3/rdock/2013.1/src/exe/rbdock.cxx#4 $)

>  <Rbt.Library>
libRbt.so (2013.1, Build901 2013/11/27)

>  <Rbt.Parameter_File>
/export/apps/rDock/src/rDock_2013.1_src/data/scripts/dock_solv.prm

>  <Rbt.Receptor>
prm/pocket_docking_5.prm

>  <SCORE>
-12.0502

>  <SCORE.INTER>
-9.69305

>  <SCORE.INTER.CONST>
1

>  <SCORE.INTER.POLAR>
0

>  <SCORE.INTER.ROT>
8

>  <SCORE.INTER.SOLV>
17.432

>  <SCORE.INTER.VDW>
-21.206

>  <SCORE.INTER.norm>
-0.372809

>  <SCORE.INTRA>
-2.35711

>  <SCORE.INTRA.DIHEDRAL>
-2.08121

>  <SCORE.INTRA.DIHEDRAL.0>
9.09364

>  <SCORE.INTRA.POLAR>
0

>  <SCORE.INTRA.POLAR.0>
0

>  <SCORE.INTRA.REPUL>
0

>  <SCORE.INTRA.REPUL.0>
0

>  <SCORE.INTRA.SOLV>
0.308981

>  <SCORE.INTRA.SOLV.lig_0>
-78.5846

>  <SCORE.INTRA.VDW>
-1.471

>  <SCORE.INTRA.VDW.0>
-2.81163

>  <SCORE.INTRA.norm>
-0.0906582

>  <SCORE.RESTR>
0

>  <SCORE.RESTR.CAVITY>
0

>  <SCORE.RESTR.norm>
0

>  <SCORE.SYSTEM>
0

>  <SCORE.SYSTEM.CONST>
0

>  <SCORE.SYSTEM.DIHEDRAL>
0

>  <SCORE.SYSTEM.SOLV>
0

>  <SCORE.SYSTEM.norm>
0

>  <SCORE.heavy>
26

>  <SCORE.norm>
-0.463468

>  <RMSD>
8.022

$$$$
ligand
 OpenBabel11021811463D
libRbt.so/2013.1/901 2013/11/27
 26 27  0  0  0  0  0  0  0  0999 V2000
   -4.9300  -44.9949    3.7960 C   0  0  0  0  0  0  0  0  0  0  0  0
   -7.6639  -43.6563   10.0750 C   0  0  0  0  0  0  0  0  0  0  0  0
   -4.0606  -39.4766   11.3775 P   0  0  1  0  0  0  0  0  0  0  0  0
   -2.7508  -37.1266   11.9293 P   0  0  2  0  0  0  0  0  0  0  0  0
   -7.0770  -46.4912    8.9040 C   0  0  0  0  0  0  0  0  0  0  0  0
   -7.0589  -45.0010    6.8761 C   0  0  0  0  0  0  0  0  0  0  0  0
   -6.5272  -46.1013    7.5555 C   0  0  0  0  0  0  0  0  0  0  0  0
   -5.4612  -46.8222    7.0106 C   0  0  0  0  0  0  0  0  0  0  0  0
   -4.9546  -47.8474    7.6629 N   0  0  0  0  0  0  0  0  0  0  0  0
   -4.9636  -46.4749    5.7783 N   0  0  0  0  0  0  0  0  0  0  0  0
   -5.4854  -45.3782    5.1215 C   0  0  0  0  0  0  0  0  0  0  0  0
   -6.5341  -44.6511    5.6526 N   0  0  0  0  0  0  0  0  0  0  0  0
   -5.3328  -38.7315   11.1115 O   0  5  0  0  0  0  0  0  0  0  0  0
   -1.9134  -37.4944   10.7694 O   0  0  0  0  0  0  0  0  0  0  0  0
   -4.5690  -45.4922   11.6140 S   0  0  0  0  0  0  0  0  0  0  0  0
   -5.2280  -46.4235   10.5182 C   0  0  0  0  0  0  0  0  0  0  0  0
   -3.2624  -39.8461   10.1777 O   0  0  0  0  0  0  0  0  0  0  0  0
   -1.9761  -36.4470   12.9850 O   0  5  0  0  0  0  0  0  0  0  0  0
   -6.3089  -45.8337    9.9249 N   0  0  0  0  0  0  0  0  0  0  0  0
   -3.3029  -38.5359   12.4004 O   0  0  0  0  0  0  0  0  0  0  0  0
   -3.8921  -36.1940   11.6827 O   0  0  0  0  0  0  0  0  0  0  0  0
   -6.5628  -44.5992   10.4532 C   0  0  1  0  0  0  0  0  0  0  0  0
   -5.6314  -44.3106   11.4188 C   0  0  2  0  0  0  0  0  0  0  0  0
   -5.4522  -43.0907   12.2878 C   0  0  0  0  0  0  0  0  0  0  0  0
   -4.9312  -41.8893   11.4909 C   0  0  0  0  0  0  0  0  0  0  0  0
   -4.5367  -40.7320   12.2050 O   0  0  0  0  0  0  0  0  0  0  0  0
  1 11  1  0  0  0  0
  3 13  1  6  0  0  0
  3 17  2  0  0  0  0
  3 20  1  0  0  0  0
  3 26  1  0  0  0  0
  4 14  1  6  0  0  0
  4 18  1  0  0  0  0
  4 21  2  0  0  0  0
  4 20  1  0  0  0  0
  5 19  1  0  0  0  0
  5  7  1  0  0  0  0
  6  7  2  0  0  0  0
  6 12  1  0  0  0  0
  7  8  1  0  0  0  0
  8  9  1  0  0  0  0
  8 10  2  0  0  0  0
 10 11  1  0  0  0  0
 11 12  2  0  0  0  0
 15 23  1  0  0  0  0
 15 16  1  0  0  0  0
 16 19  1  0  0  0  0
 19 22  1  0  0  0  0
 22  2  1  6  0  0  0
 22 23  1  0  0  0  0
 23 24  1  6  0  0  0
 24 25  1  0  0  0  0
 25 26  1  0  0  0  0
M  CHG  2  13  -1  18  -1
M  END
>  <CHROM.1>
-68.19575125,-92.82311497,-91.91987093,-54.61028168,107.44151375,-171.25893826
-177.39204289,88.05853818,-4.78626648,-42.34558221,9.98678713,-2.58848470
1.24444855,1.47696895

>  <Name>
ligand

>  <RI>
0

>  <Rbt.Current_Directory>
/home/itssahil/PROJECTS/Mol_Feturizer/New_Systems/rnas/3D2G

>  <Rbt.Executable>
rbdock ($Id: //depot/dev/client3/rdock/2013.1/src/exe/rbdock.cxx#4 $)

>  <Rbt.Library>
libRbt.so (2013.1, Build901 2013/11/27)

>  <Rbt.Parameter_File>
/export/apps/rDock/src/rDock_2013.1_src/data/scripts/dock_solv.prm

>  <Rbt.Receptor>
prm/pocket_docking_8.prm

>  <SCORE>
-12.7091

>  <SCORE.INTER>
-9.81814

>  <SCORE.INTER.CONST>
1

>  <SCORE.INTER.POLAR>
0

>  <SCORE.INTER.ROT>
8

>  <SCORE.INTER.SOLV>
15.0239

>  <SCORE.INTER.VDW>
-20.4867

>  <SCORE.INTER.norm>
-0.377621

>  <SCORE.INTRA>
-2.89097

>  <SCORE.INTRA.DIHEDRAL>
-3.32058

>  <SCORE.INTRA.DIHEDRAL.0>
9.09364

>  <SCORE.INTRA.POLAR>
0

>  <SCORE.INTRA.POLAR.0>
0

>  <SCORE.INTRA.REPUL>
0

>  <SCORE.INTRA.REPUL.0>
0

>  <SCORE.INTRA.SOLV>
-0.941194

>  <SCORE.INTRA.SOLV.lig_0>
-78.5846

>  <SCORE.INTRA.VDW>
-0.76008

>  <SCORE.INTRA.VDW.0>
-2.81163

>  <SCORE.INTRA.norm>
-0.111191

>  <SCORE.RESTR>
0

>  <SCORE.RESTR.CAVITY>
0

>  <SCORE.RESTR.norm>
0

>  <SCORE.SYSTEM>
0

>  <SCORE.SYSTEM.CONST>
0

>  <SCORE.SYSTEM.DIHEDRAL>
0

>  <SCORE.SYSTEM.SOLV>
0

>  <SCORE.SYSTEM.norm>
0

>  <SCORE.heavy>
26

>  <SCORE.norm>
-0.488812

>  <RMSD>
8.025

$$$$
ligand
 OpenBabel11021811463D
libRbt.so/2013.1/901 2013/11/27
 26 27  0  0  0  0  0  0  0  0999 V2000
   -7.9295  -45.9992    3.8453 C   0  0  0  0  0  0  0  0  0  0  0  0
   -3.9156  -44.5721    8.6143 C   0  0  0  0  0  0  0  0  0  0  0  0
   -6.9695  -40.7135    8.3309 P   0  0  1  0  0  0  0  0  0  0  0  0
   -9.2897  -39.8144    7.1686 P   0  0  2  0  0  0  0  0  0  0  0  0
   -5.3755  -47.3258    8.8109 C   0  0  0  0  0  0  0  0  0  0  0  0
   -7.1312  -46.0854    7.5024 C   0  0  0  0  0  0  0  0  0  0  0  0
   -6.0600  -46.9839    7.5119 C   0  0  0  0  0  0  0  0  0  0  0  0
   -5.5921  -47.5404    6.3184 C   0  0  0  0  0  0  0  0  0  0  0  0
   -4.5728  -48.3733    6.3324 N   0  0  0  0  0  0  0  0  0  0  0  0
   -6.2190  -47.2375    5.1343 N   0  0  0  0  0  0  0  0  0  0  0  0
   -7.2667  -46.3382    5.1329 C   0  0  0  0  0  0  0  0  0  0  0  0
   -7.7342  -45.7738    6.3048 N   0  0  0  0  0  0  0  0  0  0  0  0
   -6.3226  -41.2346    7.0841 O   0  5  0  0  0  0  0  0  0  0  0  0
   -9.2470  -38.6259    8.0447 O   0  0  0  0  0  0  0  0  0  0  0  0
   -6.3946  -44.9386   11.6206 S   0  0  0  0  0  0  0  0  0  0  0  0
   -6.3992  -46.2803   10.7827 C   0  0  0  0  0  0  0  0  0  0  0  0
   -6.5792  -39.3365    8.7371 O   0  0  0  0  0  0  0  0  0  0  0  0
  -10.6706  -40.2320    6.8599 O   0  5  0  0  0  0  0  0  0  0  0  0
   -5.5376  -46.2274    9.7229 N   0  0  0  0  0  0  0  0  0  0  0  0
   -8.5137  -40.8926    8.0337 O   0  0  0  0  0  0  0  0  0  0  0  0
   -8.6545  -39.6960    5.8212 O   0  0  0  0  0  0  0  0  0  0  0  0
   -4.9137  -45.0144    9.6405 C   0  0  1  0  0  0  0  0  0  0  0  0
   -5.3297  -44.2110   10.6722 C   0  0  2  0  0  0  0  0  0  0  0  0
   -4.9452  -42.8009   11.0454 C   0  0  0  0  0  0  0  0  0  0  0  0
   -5.2851  -41.7999    9.9354 C   0  0  0  0  0  0  0  0  0  0  0  0
   -6.6022  -41.7977    9.4157 O   0  0  0  0  0  0  0  0  0  0  0  0
  1 11  1  0  0  0  0
  3 13  1  6  0  0  0
  3 17  2  0  0  0  0
  3 20  1  0  0  0  0
  3 26  1  0  0  0  0
  4 14  1  1  0  0  0
  4 18  1  0  0  0  0
  4 21  2  0  0  0  0
  4 20  1  0  0  0  0
  5 19  1  0  0  0  0
  5  7  1  0  0  0  0
  6  7  2  0  0  0  0
  6 12  1  0  0  0  0
  7  8  1  0  0  0  0
  8  9  1  0  0  0  0
  8 10  2  0  0  0  0
 10 11  1  0  0  0  0
 11 12  2  0  0  0  0
 15 23  1  0  0  0  0
 15 16  1  0  0  0  0
 16 19  1  0  0  0  0
 19 22  1  0  0  0  0
 22  2  1  1  0  0  0
 22 23  1  0  0  0  0
 23 24  1  1  0  0  0
 24 25  1  0  0  0  0
 25 26  1  0  0  0  0
M  CHG  2  13  -1  18  -1
M  END
>  <CHROM.1>
-81.82276492,105.85145336,-26.43423718,-66.57184306,-119.68483328,51.92317340
176.67267426,76.10258797,-6.83992452,-43.41083741,8.12471989,0.78650371,1.02508258
-2.46816184

>  <Name>
ligand

>  <RI>
0

>  <Rbt.Current_Directory>
/home/itssahil/PROJECTS/Mol_Feturizer/New_Systems/rnas/3D2G

>  <Rbt.Executable>
rbdock ($Id: //depot/dev/client3/rdock/2013.1/src/exe/rbdock.cxx#4 $)

>  <Rbt.Library>
libRbt.so (2013.1, Build901 2013/11/27)

>  <Rbt.Parameter_File>
/export/apps/rDock/src/rDock_2013.1_src/data/scripts/dock_solv.prm

>  <Rbt.Receptor>
prm/pocket_docking_6.prm

>  <SCORE>
-17.7555

>  <SCORE.INTER>
-14.2974

>  <SCORE.INTER.CONST>
1

>  <SCORE.INTER.POLAR>
0

>  <SCORE.INTER.ROT>
8

>  <SCORE.INTER.SOLV>
16.857

>  <SCORE.INTER.VDW>
-24.0839

>  <SCORE.INTER.norm>
-0.549899

>  <SCORE.INTRA>
-3.45812

>  <SCORE.INTRA.DIHEDRAL>
-3.53557

>  <SCORE.INTRA.DIHEDRAL.0>
9.09364

>  <SCORE.INTRA.POLAR>
0

>  <SCORE.INTRA.POLAR.0>
0

>  <SCORE.INTRA.REPUL>
0

>  <SCORE.INTRA.REPUL.0>
0

>  <SCORE.INTRA.SOLV>
-1.56563

>  <SCORE.INTRA.SOLV.lig_0>
-78.5846

>  <SCORE.INTRA.VDW>
-0.907511

>  <SCORE.INTRA.VDW.0>
-2.81163

>  <SCORE.INTRA.norm>
-0.133004

>  <SCORE.RESTR>
0

>  <SCORE.RESTR.CAVITY>
0

>  <SCORE.RESTR.norm>
0

>  <SCORE.SYSTEM>
0

>  <SCORE.SYSTEM.CONST>
0

>  <SCORE.SYSTEM.DIHEDRAL>
0

>  <SCORE.SYSTEM.SOLV>
0

>  <SCORE.SYSTEM.norm>
0

>  <SCORE.heavy>
26

>  <SCORE.norm>
-0.682904

>  <RMSD>
8.041

$$$$
ligand
 OpenBabel11021811463D
libRbt.so/2013.1/901 2013/11/27
 26 27  0  0  0  0  0  0  0  0999 V2000
    0.0938  -41.8060    7.5817 C   0  0  0  0  0  0  0  0  0  0  0  0
   -5.7461  -45.6914    5.9350 C   0  0  0  0  0  0  0  0  0  0  0  0
   -6.7872  -43.5666   11.0877 P   0  0  1  0  0  0  0  0  0  0  0  0
   -4.4670  -44.3192   12.3501 P   0  0  2  0  0  0  0  0  0  0  0  0
   -2.7928  -46.6136    6.3593 C   0  0  0  0  0  0  0  0  0  0  0  0
   -1.3169  -45.2610    7.8843 C   0  0  0  0  0  0  0  0  0  0  0  0
   -2.0439  -45.3485    6.6932 C   0  0  0  0  0  0  0  0  0  0  0  0
   -2.0512  -44.2835    5.7884 C   0  0  0  0  0  0  0  0  0  0  0  0
   -2.7247  -44.3784    4.6613 N   0  0  0  0  0  0  0  0  0  0  0  0
   -1.3769  -43.1263    6.0936 N   0  0  0  0  0  0  0  0  0  0  0  0
   -0.6501  -43.0545    7.2653 C   0  0  0  0  0  0  0  0  0  0  0  0
   -0.6272  -44.1034    8.1652 N   0  0  0  0  0  0  0  0  0  0  0  0
   -8.1380  -43.1760   11.6046 O   0  5  0  0  0  0  0  0  0  0  0  0
   -4.1695  -44.5422   13.7796 O   0  0  0  0  0  0  0  0  0  0  0  0
   -5.0234  -47.4663    9.3474 S   0  0  0  0  0  0  0  0  0  0  0  0
   -3.6862  -47.4068    8.5044 C   0  0  0  0  0  0  0  0  0  0  0  0
   -6.2021  -42.6670   10.0572 O   0  0  0  0  0  0  0  0  0  0  0  0
   -3.4937  -43.4132   11.7112 O   0  5  0  0  0  0  0  0  0  0  0  0
   -3.8637  -46.7805    7.3026 N   0  0  0  0  0  0  0  0  0  0  0  0
   -5.9231  -43.6949   12.4076 O   0  0  0  0  0  0  0  0  0  0  0  0
   -4.4657  -45.5157   11.4548 O   0  0  0  0  0  0  0  0  0  0  0  0
   -5.1615  -46.3919    7.1234 C   0  0  1  0  0  0  0  0  0  0  0  0
   -5.9016  -46.7335    8.2273 C   0  0  2  0  0  0  0  0  0  0  0  0
   -7.3616  -46.5238    8.5436 C   0  0  0  0  0  0  0  0  0  0  0  0
   -7.6042  -45.2065    9.2892 C   0  0  0  0  0  0  0  0  0  0  0  0
   -7.0066  -45.0371   10.5616 O   0  0  0  0  0  0  0  0  0  0  0  0
  1 11  1  0  0  0  0
  3 13  1  1  0  0  0
  3 17  2  0  0  0  0
  3 20  1  0  0  0  0
  3 26  1  0  0  0  0
  4 14  1  1  0  0  0
  4 18  1  0  0  0  0
  4 21  2  0  0  0  0
  4 20  1  0  0  0  0
  5 19  1  0  0  0  0
  5  7  1  0  0  0  0
  6  7  2  0  0  0  0
  6 12  1  0  0  0  0
  7  8  1  0  0  0  0
  8  9  1  0  0  0  0
  8 10  2  0  0  0  0
 10 11  1  0  0  0  0
 11 12  2  0  0  0  0
 15 23  1  0  0  0  0
 15 16  1  0  0  0  0
 16 19  1  0  0  0  0
 19 22  1  0  0  0  0
 22  2  1  1  0  0  0
 22 23  1  0  0  0  0
 23 24  1  1  0  0  0
 24 25  1  0  0  0  0
 25 26  1  0  0  0  0
M  CHG  2  13  -1  18  -1
M  END
>  <CHROM.1>
170.26485296,-86.65438531,66.62055001,-167.15442203,88.07037546,-62.22278137
157.62343503,80.02068282,-4.40969499,-44.83460265,9.22654686,-0.74937618
0.48310051,1.05645244

>  <Name>
ligand

>  <RI>
0

>  <Rbt.Current_Directory>
/home/itssahil/PROJECTS/Mol_Feturizer/New_Systems/rnas/3D2G

>  <Rbt.Executable>
rbdock ($Id: //depot/dev/client3/rdock/2013.1/src/exe/rbdock.cxx#4 $)

>  <Rbt.Library>
libRbt.so (2013.1, Build901 2013/11/27)

>  <Rbt.Parameter_File>
/export/apps/rDock/src/rDock_2013.1_src/data/scripts/dock_solv.prm

>  <Rbt.Receptor>
prm/pocket_docking_8.prm

>  <SCORE>
-13.4085

>  <SCORE.INTER>
-11.3402

>  <SCORE.INTER.CONST>
1

>  <SCORE.INTER.POLAR>
0

>  <SCORE.INTER.ROT>
8

>  <SCORE.INTER.SOLV>
18.4532

>  <SCORE.INTER.VDW>
-22.6445

>  <SCORE.INTER.norm>
-0.436161

>  <SCORE.INTRA>
-2.06828

>  <SCORE.INTRA.DIHEDRAL>
-1.19776

>  <SCORE.INTRA.DIHEDRAL.0>
9.09364

>  <SCORE.INTRA.POLAR>
0

>  <SCORE.INTRA.POLAR.0>
0

>  <SCORE.INTRA.REPUL>
0

>  <SCORE.INTRA.REPUL.0>
0

>  <SCORE.INTRA.SOLV>
1.10849

>  <SCORE.INTRA.SOLV.lig_0>
-78.5846

>  <SCORE.INTRA.VDW>
-2.02364

>  <SCORE.INTRA.VDW.0>
-2.81163

>  <SCORE.INTRA.norm>
-0.0795491

>  <SCORE.RESTR>
0

>  <SCORE.RESTR.CAVITY>
0

>  <SCORE.RESTR.norm>
0

>  <SCORE.SYSTEM>
0

>  <SCORE.SYSTEM.CONST>
0

>  <SCORE.SYSTEM.DIHEDRAL>
0

>  <SCORE.SYSTEM.SOLV>
0

>  <SCORE.SYSTEM.norm>
0

>  <SCORE.heavy>
26

>  <SCORE.norm>
-0.51571

>  <RMSD>
8.084

$$$$
ligand
 OpenBabel11021811463D
libRbt.so/2013.1/901 2013/11/27
 26 27  0  0  0  0  0  0  0  0999 V2000
   -6.4514  -43.9466   11.7216 C   0  0  0  0  0  0  0  0  0  0  0  0
   -5.2179  -43.8821    5.2807 C   0  0  0  0  0  0  0  0  0  0  0  0
   -9.7036  -39.8701    5.0364 P   0  0  1  0  0  0  0  0  0  0  0  0
   -8.7031  -40.0586    7.5872 P   0  0  2  0  0  0  0  0  0  0  0  0
   -6.5697  -46.4021    6.5355 C   0  0  0  0  0  0  0  0  0  0  0  0
   -7.2680  -44.5782    8.1226 C   0  0  0  0  0  0  0  0  0  0  0  0
   -6.5318  -45.7441    7.8913 C   0  0  0  0  0  0  0  0  0  0  0  0
   -5.7887  -46.3280    8.9208 C   0  0  0  0  0  0  0  0  0  0  0  0
   -5.1105  -47.4347    8.7008 N   0  0  0  0  0  0  0  0  0  0  0  0
   -5.7452  -45.7263   10.1549 N   0  0  0  0  0  0  0  0  0  0  0  0
   -6.4869  -44.5833   10.3779 C   0  0  0  0  0  0  0  0  0  0  0  0
   -7.2330  -43.9999    9.3712 N   0  0  0  0  0  0  0  0  0  0  0  0
  -10.9355  -40.2431    5.8029 O   0  5  0  0  0  0  0  0  0  0  0  0
   -8.4599  -41.4712    7.2303 O   0  0  0  0  0  0  0  0  0  0  0  0
   -8.8908  -44.5640    4.1136 S   0  0  0  0  0  0  0  0  0  0  0  0
   -8.4582  -45.6897    5.1373 C   0  0  0  0  0  0  0  0  0  0  0  0
   -9.9025  -38.9127    3.9151 O   0  0  0  0  0  0  0  0  0  0  0  0
   -9.9713  -39.8773    8.3188 O   0  5  0  0  0  0  0  0  0  0  0  0
   -7.1862  -45.5017    5.6008 N   0  0  0  0  0  0  0  0  0  0  0  0
   -8.7218  -39.3558    6.1664 O   0  0  0  0  0  0  0  0  0  0  0  0
   -7.6970  -39.3909    8.4675 O   0  0  0  0  0  0  0  0  0  0  0  0
   -6.6012  -44.4033    5.0364 C   0  0  1  0  0  0  0  0  0  0  0  0
   -7.4857  -43.7996    4.1783 C   0  0  2  0  0  0  0  0  0  0  0  0
   -7.3488  -42.5641    3.3237 C   0  0  0  0  0  0  0  0  0  0  0  0
   -7.8081  -41.3015    4.0618 C   0  0  0  0  0  0  0  0  0  0  0  0
   -9.1334  -41.2607    4.5585 O   0  0  0  0  0  0  0  0  0  0  0  0
  1 11  1  0  0  0  0
  3 13  1  1  0  0  0
  3 17  2  0  0  0  0
  3 20  1  0  0  0  0
  3 26  1  0  0  0  0
  4 14  1  6  0  0  0
  4 18  1  0  0  0  0
  4 21  2  0  0  0  0
  4 20  1  0  0  0  0
  5 19  1  0  0  0  0
  5  7  1  0  0  0  0
  6  7  2  0  0  0  0
  6 12  1  0  0  0  0
  7  8  1  0  0  0  0
  8  9  1  0  0  0  0
  8 10  2  0  0  0  0
 10 11  1  0  0  0  0
 11 12  2  0  0  0  0
 15 23  1  0  0  0  0
 15 16  1  0  0  0  0
 16 19  1  0  0  0  0
 19 22  1  0  0  0  0
 22  2  1  1  0  0  0
 22 23  1  0  0  0  0
 23 24  1  1  0  0  0
 24 25  1  0  0  0  0
 25 26  1  0  0  0  0
M  CHG  2  13  -1  18  -1
M  END
>  <CHROM.1>
36.95112242,-105.68411945,12.08862444,54.85734319,88.75544051,-57.63109943
-167.12969671,-165.92298053,-7.91490984,-42.75750148,6.58789613,0.03520201
-1.11438817,1.12734577

>  <Name>
ligand

>  <RI>
0

>  <Rbt.Current_Directory>
/home/itssahil/PROJECTS/Mol_Feturizer/New_Systems/rnas/3D2G

>  <Rbt.Executable>
rbdock ($Id: //depot/dev/client3/rdock/2013.1/src/exe/rbdock.cxx#4 $)

>  <Rbt.Library>
libRbt.so (2013.1, Build901 2013/11/27)

>  <Rbt.Parameter_File>
/export/apps/rDock/src/rDock_2013.1_src/data/scripts/dock_solv.prm

>  <Rbt.Receptor>
prm/pocket_docking_8.prm

>  <SCORE>
-14.5671

>  <SCORE.INTER>
-10.4525

>  <SCORE.INTER.CONST>
1

>  <SCORE.INTER.POLAR>
0

>  <SCORE.INTER.ROT>
8

>  <SCORE.INTER.SOLV>
30.4626

>  <SCORE.INTER.VDW>
-26.0559

>  <SCORE.INTER.norm>
-0.402021

>  <SCORE.INTRA>
-4.11459

>  <SCORE.INTRA.DIHEDRAL>
-2.79429

>  <SCORE.INTRA.DIHEDRAL.0>
9.09364

>  <SCORE.INTRA.POLAR>
0

>  <SCORE.INTRA.POLAR.0>
0

>  <SCORE.INTRA.REPUL>
0

>  <SCORE.INTRA.REPUL.0>
0

>  <SCORE.INTRA.SOLV>
-3.02079

>  <SCORE.INTRA.SOLV.lig_0>
-78.5846

>  <SCORE.INTRA.VDW>
-1.20705

>  <SCORE.INTRA.VDW.0>
-2.81163

>  <SCORE.INTRA.norm>
-0.158254

>  <SCORE.RESTR>
0

>  <SCORE.RESTR.CAVITY>
0

>  <SCORE.RESTR.norm>
0

>  <SCORE.SYSTEM>
0

>  <SCORE.SYSTEM.CONST>
0

>  <SCORE.SYSTEM.DIHEDRAL>
0

>  <SCORE.SYSTEM.SOLV>
0

>  <SCORE.SYSTEM.norm>
0

>  <SCORE.heavy>
26

>  <SCORE.norm>
-0.560275

>  <RMSD>
8.105

$$$$
ligand
 OpenBabel11021811463D
libRbt.so/2013.1/901 2013/11/27
 26 27  0  0  0  0  0  0  0  0999 V2000
   -5.3239  -48.5019    6.3163 C   0  0  0  0  0  0  0  0  0  0  0  0
   -4.4037  -44.2940   13.1143 C   0  0  0  0  0  0  0  0  0  0  0  0
   -0.8537  -41.8992    9.7723 P   0  0  1  0  0  0  0  0  0  0  0  0
   -0.7150  -43.8628    7.8572 P   0  0  2  0  0  0  0  0  0  0  0  0
   -6.4270  -45.7370   11.2232 C   0  0  0  0  0  0  0  0  0  0  0  0
   -4.9474  -47.1983    9.8060 C   0  0  0  0  0  0  0  0  0  0  0  0
   -6.1243  -46.4540    9.9322 C   0  0  0  0  0  0  0  0  0  0  0  0
   -7.0440  -46.4002    8.8813 C   0  0  0  0  0  0  0  0  0  0  0  0
   -8.1578  -45.7107    9.0123 N   0  0  0  0  0  0  0  0  0  0  0  0
   -6.7672  -47.0454    7.7006 N   0  0  0  0  0  0  0  0  0  0  0  0
   -5.6094  -47.7896    7.5904 C   0  0  0  0  0  0  0  0  0  0  0  0
   -4.6951  -47.8585    8.6248 N   0  0  0  0  0  0  0  0  0  0  0  0
    0.1721  -41.4846   10.7824 O   0  5  0  0  0  0  0  0  0  0  0  0
    0.0075  -42.9294    6.9692 O   0  0  0  0  0  0  0  0  0  0  0  0
   -5.8122  -42.1053   10.1915 S   0  0  0  0  0  0  0  0  0  0  0  0
   -6.4392  -43.5546   10.0981 C   0  0  0  0  0  0  0  0  0  0  0  0
   -1.1034  -40.9341    8.6679 O   0  0  0  0  0  0  0  0  0  0  0  0
   -2.1710  -43.8463    7.6198 O   0  5  0  0  0  0  0  0  0  0  0  0
   -6.0017  -44.3697   11.1043 N   0  0  0  0  0  0  0  0  0  0  0  0
   -0.3331  -43.3156    9.2951 O   0  0  0  0  0  0  0  0  0  0  0  0
   -0.3646  -45.3122    7.7591 O   0  0  0  0  0  0  0  0  0  0  0  0
   -5.1087  -43.7313   11.9181 C   0  0  1  0  0  0  0  0  0  0  0  0
   -4.9331  -42.4405   11.4867 C   0  0  2  0  0  0  0  0  0  0  0  0
   -4.0781  -41.3229   12.0306 C   0  0  0  0  0  0  0  0  0  0  0  0
   -2.8495  -41.0602   11.1525 C   0  0  0  0  0  0  0  0  0  0  0  0
   -2.1381  -42.1744   10.6452 O   0  0  0  0  0  0  0  0  0  0  0  0
  1 11  1  0  0  0  0
  3 13  1  1  0  0  0
  3 17  2  0  0  0  0
  3 20  1  0  0  0  0
  3 26  1  0  0  0  0
  4 14  1  6  0  0  0
  4 18  1  0  0  0  0
  4 21  2  0  0  0  0
  4 20  1  0  0  0  0
  5 19  1  0  0  0  0
  5  7  1  0  0  0  0
  6  7  2  0  0  0  0
  6 12  1  0  0  0  0
  7  8  1  0  0  0  0
  8  9  1  0  0  0  0
  8 10  2  0  0  0  0
 10 11  1  0  0  0  0
 11 12  2  0  0  0  0
 15 23  1  0  0  0  0
 15 16  1  0  0  0  0
 16 19  1  0  0  0  0
 19 22  1  0  0  0  0
 22  2  1  1  0  0  0
 22 23  1  0  0  0  0
 23 24  1  1  0  0  0
 24 25  1  0  0  0  0
 25 26  1  0  0  0  0
M  CHG  2  13  -1  18  -1
M  END
>  <CHROM.1>
-154.28089844,55.40285868,96.22639157,67.10691740,-74.10735407,-42.24821661
-178.49200799,74.82343317,-3.59867139,-44.00080185,9.52301730,-2.62665445
0.42527821,0.68980449

>  <Name>
ligand

>  <RI>
0

>  <Rbt.Current_Directory>
/home/itssahil/PROJECTS/Mol_Feturizer/New_Systems/rnas/3D2G

>  <Rbt.Executable>
rbdock ($Id: //depot/dev/client3/rdock/2013.1/src/exe/rbdock.cxx#4 $)

>  <Rbt.Library>
libRbt.so (2013.1, Build901 2013/11/27)

>  <Rbt.Parameter_File>
/export/apps/rDock/src/rDock_2013.1_src/data/scripts/dock_solv.prm

>  <Rbt.Receptor>
prm/pocket_docking_7.prm

>  <SCORE>
-10.5401

>  <SCORE.INTER>
-8.31321

>  <SCORE.INTER.CONST>
1

>  <SCORE.INTER.POLAR>
0

>  <SCORE.INTER.ROT>
8

>  <SCORE.INTER.SOLV>
21.2526

>  <SCORE.INTER.VDW>
-21.5597

>  <SCORE.INTER.norm>
-0.319739

>  <SCORE.INTRA>
-2.22694

>  <SCORE.INTRA.DIHEDRAL>
-1.18035

>  <SCORE.INTRA.DIHEDRAL.0>
9.09364

>  <SCORE.INTRA.POLAR>
0

>  <SCORE.INTRA.POLAR.0>
0

>  <SCORE.INTRA.REPUL>
0

>  <SCORE.INTRA.REPUL.0>
0

>  <SCORE.INTRA.SOLV>
-1.4118

>  <SCORE.INTRA.SOLV.lig_0>
-78.5846

>  <SCORE.INTRA.VDW>
-0.930864

>  <SCORE.INTRA.VDW.0>
-2.81163

>  <SCORE.INTRA.norm>
-0.0856515

>  <SCORE.RESTR>
0

>  <SCORE.RESTR.CAVITY>
0

>  <SCORE.RESTR.norm>
0

>  <SCORE.SYSTEM>
0

>  <SCORE.SYSTEM.CONST>
0

>  <SCORE.SYSTEM.DIHEDRAL>
0

>  <SCORE.SYSTEM.SOLV>
0

>  <SCORE.SYSTEM.norm>
0

>  <SCORE.heavy>
26

>  <SCORE.norm>
-0.40539

>  <RMSD>
8.115

$$$$
ligand
 OpenBabel11021811463D
libRbt.so/2013.1/901 2013/11/27
 26 27  0  0  0  0  0  0  0  0999 V2000
   -8.2213  -34.4295   11.8129 C   0  0  0  0  0  0  0  0  0  0  0  0
   -2.4600  -40.9601   11.6046 C   0  0  0  0  0  0  0  0  0  0  0  0
   -5.5641  -45.0132   10.6287 P   0  0  1  0  0  0  0  0  0  0  0  0
   -6.8786  -46.4526    8.6940 P   0  0  2  0  0  0  0  0  0  0  0  0
   -3.9005  -38.2060   11.9081 C   0  0  0  0  0  0  0  0  0  0  0  0
   -6.2082  -37.5212   11.1740 C   0  0  0  0  0  0  0  0  0  0  0  0
   -5.0338  -37.2127   11.8672 C   0  0  0  0  0  0  0  0  0  0  0  0
   -4.9159  -36.0029   12.5568 C   0  0  0  0  0  0  0  0  0  0  0  0
   -3.8136  -35.7254   13.2209 N   0  0  0  0  0  0  0  0  0  0  0  0
   -5.9432  -35.0921   12.5145 N   0  0  0  0  0  0  0  0  0  0  0  0
   -7.1046  -35.4116   11.8394 C   0  0  0  0  0  0  0  0  0  0  0  0
   -7.2381  -36.6079   11.1601 N   0  0  0  0  0  0  0  0  0  0  0  0
   -5.6641  -43.7629    9.8093 O   0  5  0  0  0  0  0  0  0  0  0  0
   -7.2555  -45.1033    8.2259 O   0  0  0  0  0  0  0  0  0  0  0  0
   -5.9194  -41.0758   13.4314 S   0  0  0  0  0  0  0  0  0  0  0  0
   -5.5997  -39.5800   13.0279 C   0  0  0  0  0  0  0  0  0  0  0  0
   -6.5930  -45.1765   11.6908 O   0  0  0  0  0  0  0  0  0  0  0  0
   -7.9382  -47.0783    9.5077 O   0  5  0  0  0  0  0  0  0  0  0  0
   -4.4084  -39.4693   12.3670 N   0  0  0  0  0  0  0  0  0  0  0  0
   -5.5679  -46.1579    9.5356 O   0  0  0  0  0  0  0  0  0  0  0  0
   -6.5881  -47.4835    7.6518 O   0  0  0  0  0  0  0  0  0  0  0  0
   -3.7822  -40.6783   12.2505 C   0  0  1  0  0  0  0  0  0  0  0  0
   -4.5578  -41.6560   12.8214 C   0  0  2  0  0  0  0  0  0  0  0  0
   -4.3397  -43.1431   12.9498 C   0  0  0  0  0  0  0  0  0  0  0  0
   -3.6299  -43.7276   11.7233 C   0  0  0  0  0  0  0  0  0  0  0  0
   -4.0963  -44.9592   11.2031 O   0  0  0  0  0  0  0  0  0  0  0  0
  1 11  1  0  0  0  0
  3 13  1  6  0  0  0
  3 17  2  0  0  0  0
  3 20  1  0  0  0  0
  3 26  1  0  0  0  0
  4 14  1  6  0  0  0
  4 18  1  0  0  0  0
  4 21  2  0  0  0  0
  4 20  1  0  0  0  0
  5 19  1  0  0  0  0
  5  7  1  0  0  0  0
  6  7  2  0  0  0  0
  6 12  1  0  0  0  0
  7  8  1  0  0  0  0
  8  9  1  0  0  0  0
  8 10  2  0  0  0  0
 10 11  1  0  0  0  0
 11 12  2  0  0  0  0
 15 23  1  0  0  0  0
 15 16  1  0  0  0  0
 16 19  1  0  0  0  0
 19 22  1  0  0  0  0
 22  2  1  6  0  0  0
 22 23  1  0  0  0  0
 23 24  1  6  0  0  0
 24 25  1  0  0  0  0
 25 26  1  0  0  0  0
M  CHG  2  13  -1  18  -1
M  END
>  <CHROM.1>
-68.83925815,-18.14470090,-53.00558969,49.70296930,143.81686876,-137.40599336
63.34817050,44.48330070,-5.61403495,-41.67388942,11.22189279,1.49867015,-0.62386214
0.24360769

>  <Name>
ligand

>  <RI>
0

>  <Rbt.Current_Directory>
/home/itssahil/PROJECTS/Mol_Feturizer/New_Systems/rnas/3D2G

>  <Rbt.Executable>
rbdock ($Id: //depot/dev/client3/rdock/2013.1/src/exe/rbdock.cxx#4 $)

>  <Rbt.Library>
libRbt.so (2013.1, Build901 2013/11/27)

>  <Rbt.Parameter_File>
/export/apps/rDock/src/rDock_2013.1_src/data/scripts/dock_solv.prm

>  <Rbt.Receptor>
prm/pocket_docking_8.prm

>  <SCORE>
-13.0071

>  <SCORE.INTER>
-15.8947

>  <SCORE.INTER.CONST>
1

>  <SCORE.INTER.POLAR>
0

>  <SCORE.INTER.ROT>
8

>  <SCORE.INTER.SOLV>
23.978

>  <SCORE.INTER.VDW>
-27.5225

>  <SCORE.INTER.norm>
-0.611336

>  <SCORE.INTRA>
2.88762

>  <SCORE.INTRA.DIHEDRAL>
1.06143

>  <SCORE.INTRA.DIHEDRAL.0>
9.09364

>  <SCORE.INTRA.POLAR>
0

>  <SCORE.INTRA.POLAR.0>
0

>  <SCORE.INTRA.REPUL>
0

>  <SCORE.INTRA.REPUL.0>
0

>  <SCORE.INTRA.SOLV>
-0.858774

>  <SCORE.INTRA.SOLV.lig_0>
-78.5846

>  <SCORE.INTRA.VDW>
2.78629

>  <SCORE.INTRA.VDW.0>
-2.81163

>  <SCORE.INTRA.norm>
0.111062

>  <SCORE.RESTR>
0

>  <SCORE.RESTR.CAVITY>
0

>  <SCORE.RESTR.norm>
0

>  <SCORE.SYSTEM>
0

>  <SCORE.SYSTEM.CONST>
0

>  <SCORE.SYSTEM.DIHEDRAL>
0

>  <SCORE.SYSTEM.SOLV>
0

>  <SCORE.SYSTEM.norm>
0

>  <SCORE.heavy>
26

>  <SCORE.norm>
-0.500274

>  <RMSD>
8.152

$$$$
ligand
 OpenBabel11021811463D
libRbt.so/2013.1/901 2013/11/27
 26 27  0  0  0  0  0  0  0  0999 V2000
   -8.4847  -36.6968    8.3625 C   0  0  0  0  0  0  0  0  0  0  0  0
   -2.8280  -37.6902   12.7032 C   0  0  0  0  0  0  0  0  0  0  0  0
   -0.9188  -39.7065    9.5772 P   0  0  1  0  0  0  0  0  0  0  0  0
   -3.0480  -41.1244    8.5777 P   0  0  2  0  0  0  0  0  0  0  0  0
   -5.0696  -35.5192   12.8223 C   0  0  0  0  0  0  0  0  0  0  0  0
   -6.0753  -37.1515   11.1921 C   0  0  0  0  0  0  0  0  0  0  0  0
   -5.9539  -35.8334   11.6425 C   0  0  0  0  0  0  0  0  0  0  0  0
   -6.6775  -34.8066   11.0301 C   0  0  0  0  0  0  0  0  0  0  0  0
   -6.5711  -33.5701   11.4692 N   0  0  0  0  0  0  0  0  0  0  0  0
   -7.4775  -35.0882    9.9495 N   0  0  0  0  0  0  0  0  0  0  0  0
   -7.6022  -36.3948    9.5210 C   0  0  0  0  0  0  0  0  0  0  0  0
   -6.8990  -37.4214   10.1227 N   0  0  0  0  0  0  0  0  0  0  0  0
   -0.7383  -40.9972   10.3160 O   0  5  0  0  0  0  0  0  0  0  0  0
   -1.9872  -41.6062    7.6697 O   0  0  0  0  0  0  0  0  0  0  0  0
   -1.7909  -34.1446   11.4109 S   0  0  0  0  0  0  0  0  0  0  0  0
   -3.3038  -34.1029   11.8710 C   0  0  0  0  0  0  0  0  0  0  0  0
    0.0471  -39.4494    8.4752 O   0  0  0  0  0  0  0  0  0  0  0  0
   -4.3310  -40.9190    7.8792 O   0  5  0  0  0  0  0  0  0  0  0  0
   -3.7280  -35.3097   12.3527 N   0  0  0  0  0  0  0  0  0  0  0  0
   -2.4320  -39.7669    9.1170 O   0  0  0  0  0  0  0  0  0  0  0  0
   -3.4170  -42.0036    9.7283 O   0  0  0  0  0  0  0  0  0  0  0  0
   -2.7426  -36.2541   12.2849 C   0  0  1  0  0  0  0  0  0  0  0  0
   -1.6023  -35.6941   11.7660 C   0  0  2  0  0  0  0  0  0  0  0  0
   -0.2420  -36.2881   11.4972 C   0  0  0  0  0  0  0  0  0  0  0  0
   -0.2887  -37.3574   10.3998 C   0  0  0  0  0  0  0  0  0  0  0  0
   -0.8494  -38.6184   10.7168 O   0  0  0  0  0  0  0  0  0  0  0  0
  1 11  1  0  0  0  0
  3 13  1  1  0  0  0
  3 17  2  0  0  0  0
  3 20  1  0  0  0  0
  3 26  1  0  0  0  0
  4 14  1  6  0  0  0
  4 18  1  0  0  0  0
  4 21  2  0  0  0  0
  4 20  1  0  0  0  0
  5 19  1  0  0  0  0
  5  7  1  0  0  0  0
  6  7  2  0  0  0  0
  6 12  1  0  0  0  0
  7  8  1  0  0  0  0
  8  9  1  0  0  0  0
  8 10  2  0  0  0  0
 10 11  1  0  0  0  0
 11 12  2  0  0  0  0
 15 23  1  0  0  0  0
 15 16  1  0  0  0  0
 16 19  1  0  0  0  0
 19 22  1  0  0  0  0
 22  2  1  1  0  0  0
 22 23  1  0  0  0  0
 23 24  1  1  0  0  0
 24 25  1  0  0  0  0
 25 26  1  0  0  0  0
M  CHG  2  13  -1  18  -1
M  END
>  <CHROM.1>
-40.86151150,84.13811113,86.66340959,-44.69526154,-114.59290253,-74.12026021
178.92322404,147.08175819,-3.35134163,-37.69821539,10.33251285,2.15928267
-0.19245671,0.49403231

>  <Name>
ligand

>  <RI>
0

>  <Rbt.Current_Directory>
/home/itssahil/PROJECTS/Mol_Feturizer/New_Systems/rnas/3D2G

>  <Rbt.Executable>
rbdock ($Id: //depot/dev/client3/rdock/2013.1/src/exe/rbdock.cxx#4 $)

>  <Rbt.Library>
libRbt.so (2013.1, Build901 2013/11/27)

>  <Rbt.Parameter_File>
/export/apps/rDock/src/rDock_2013.1_src/data/scripts/dock_solv.prm

>  <Rbt.Receptor>
prm/blind_docking_60.prm

>  <SCORE>
-14.2379

>  <SCORE.INTER>
-12.8423

>  <SCORE.INTER.CONST>
1

>  <SCORE.INTER.POLAR>
0

>  <SCORE.INTER.ROT>
8

>  <SCORE.INTER.SOLV>
18.2455

>  <SCORE.INTER.VDW>
-23.5767

>  <SCORE.INTER.norm>
-0.493936

>  <SCORE.INTRA>
-1.39555

>  <SCORE.INTRA.DIHEDRAL>
-0.696839

>  <SCORE.INTRA.DIHEDRAL.0>
9.09364

>  <SCORE.INTRA.POLAR>
0

>  <SCORE.INTRA.POLAR.0>
0

>  <SCORE.INTRA.REPUL>
0

>  <SCORE.INTRA.REPUL.0>
0

>  <SCORE.INTRA.SOLV>
-1.28761

>  <SCORE.INTRA.SOLV.lig_0>
-78.5846

>  <SCORE.INTRA.VDW>
-0.403319

>  <SCORE.INTRA.VDW.0>
-2.81163

>  <SCORE.INTRA.norm>
-0.0536748

>  <SCORE.RESTR>
0

>  <SCORE.RESTR.CAVITY>
0

>  <SCORE.RESTR.norm>
0

>  <SCORE.SYSTEM>
0

>  <SCORE.SYSTEM.CONST>
0

>  <SCORE.SYSTEM.DIHEDRAL>
0

>  <SCORE.SYSTEM.SOLV>
0

>  <SCORE.SYSTEM.norm>
0

>  <SCORE.heavy>
26

>  <SCORE.norm>
-0.54761

>  <RMSD>
8.161

$$$$
ligand
 OpenBabel11021811463D
libRbt.so/2013.1/901 2013/11/27
 26 27  0  0  0  0  0  0  0  0999 V2000
   -6.1748  -45.3306   11.5965 C   0  0  0  0  0  0  0  0  0  0  0  0
   -4.9505  -44.1914    5.1712 C   0  0  0  0  0  0  0  0  0  0  0  0
   -6.9775  -39.7064    6.6365 P   0  0  1  0  0  0  0  0  0  0  0  0
   -6.1920  -37.6195    5.0332 P   0  0  2  0  0  0  0  0  0  0  0  0
   -6.6167  -46.6867    6.0372 C   0  0  0  0  0  0  0  0  0  0  0  0
   -7.6439  -45.9227    8.2039 C   0  0  0  0  0  0  0  0  0  0  0  0
   -6.5051  -46.3155    7.4941 C   0  0  0  0  0  0  0  0  0  0  0  0
   -5.2667  -46.4040    8.1355 C   0  0  0  0  0  0  0  0  0  0  0  0
   -4.2013  -46.7899    7.4654 N   0  0  0  0  0  0  0  0  0  0  0  0
   -5.1601  -46.0583    9.4606 N   0  0  0  0  0  0  0  0  0  0  0  0
   -6.2926  -45.6855   10.1569 C   0  0  0  0  0  0  0  0  0  0  0  0
   -7.5253  -45.6018    9.5372 N   0  0  0  0  0  0  0  0  0  0  0  0
   -6.2285  -40.6368    7.5408 O   0  5  0  0  0  0  0  0  0  0  0  0
   -6.6571  -38.3566    3.8406 O   0  0  0  0  0  0  0  0  0  0  0  0
   -8.7150  -44.1404    4.1020 S   0  0  0  0  0  0  0  0  0  0  0  0
   -8.4211  -45.4810    4.8886 C   0  0  0  0  0  0  0  0  0  0  0  0
   -8.0934  -38.9494    7.2651 O   0  0  0  0  0  0  0  0  0  0  0  0
   -5.0305  -36.7583    4.7403 O   0  5  0  0  0  0  0  0  0  0  0  0
   -7.1226  -45.5563    5.3087 N   0  0  0  0  0  0  0  0  0  0  0  0
   -5.8320  -38.7970    6.0317 O   0  0  0  0  0  0  0  0  0  0  0  0
   -7.1607  -36.6852    5.6826 O   0  0  0  0  0  0  0  0  0  0  0  0
   -6.4010  -44.4649    4.9142 C   0  0  1  0  0  0  0  0  0  0  0  0
   -7.2128  -43.6006    4.2236 C   0  0  2  0  0  0  0  0  0  0  0  0
   -6.9228  -42.2617    3.5919 C   0  0  0  0  0  0  0  0  0  0  0  0
   -6.4752  -41.2233    4.6268 C   0  0  0  0  0  0  0  0  0  0  0  0
   -7.4597  -40.6437    5.4633 O   0  0  0  0  0  0  0  0  0  0  0  0
  1 11  1  0  0  0  0
  3 13  1  1  0  0  0
  3 17  2  0  0  0  0
  3 20  1  0  0  0  0
  3 26  1  0  0  0  0
  4 14  1  6  0  0  0
  4 18  1  0  0  0  0
  4 21  2  0  0  0  0
  4 20  1  0  0  0  0
  5 19  1  0  0  0  0
  5  7  1  0  0  0  0
  6  7  2  0  0  0  0
  6 12  1  0  0  0  0
  7  8  1  0  0  0  0
  8  9  1  0  0  0  0
  8 10  2  0  0  0  0
 10 11  1  0  0  0  0
 11 12  2  0  0  0  0
 15 23  1  0  0  0  0
 15 16  1  0  0  0  0
 16 19  1  0  0  0  0
 19 22  1  0  0  0  0
 22  2  1  1  0  0  0
 22 23  1  0  0  0  0
 23 24  1  1  0  0  0
 24 25  1  0  0  0  0
 25 26  1  0  0  0  0
M  CHG  2  13  -1  18  -1
M  END
>  <CHROM.1>
-178.14717684,-103.12435482,59.89054574,-68.37084714,117.74575237,-76.18828396
172.93474509,-65.59654477,-6.66674451,-42.34337995,6.25400052,-1.50998399
-1.31420074,-0.25769072

>  <Name>
ligand

>  <RI>
0

>  <Rbt.Current_Directory>
/home/itssahil/PROJECTS/Mol_Feturizer/New_Systems/rnas/3D2G

>  <Rbt.Executable>
rbdock ($Id: //depot/dev/client3/rdock/2013.1/src/exe/rbdock.cxx#4 $)

>  <Rbt.Library>
libRbt.so (2013.1, Build901 2013/11/27)

>  <Rbt.Parameter_File>
/export/apps/rDock/src/rDock_2013.1_src/data/scripts/dock_solv.prm

>  <Rbt.Receptor>
prm/pocket_docking_8.prm

>  <SCORE>
-15.9017

>  <SCORE.INTER>
-12.6046

>  <SCORE.INTER.CONST>
1

>  <SCORE.INTER.POLAR>
0

>  <SCORE.INTER.ROT>
8

>  <SCORE.INTER.SOLV>
15.0149

>  <SCORE.INTER.VDW>
-22.3414

>  <SCORE.INTER.norm>
-0.484792

>  <SCORE.INTRA>
-3.29715

>  <SCORE.INTRA.DIHEDRAL>
-2.84488

>  <SCORE.INTRA.DIHEDRAL.0>
9.09364

>  <SCORE.INTRA.POLAR>
0

>  <SCORE.INTRA.POLAR.0>
0

>  <SCORE.INTRA.REPUL>
0

>  <SCORE.INTRA.REPUL.0>
0

>  <SCORE.INTRA.SOLV>
-1.59229

>  <SCORE.INTRA.SOLV.lig_0>
-78.5846

>  <SCORE.INTRA.VDW>
-1.07857

>  <SCORE.INTRA.VDW.0>
-2.81163

>  <SCORE.INTRA.norm>
-0.126814

>  <SCORE.RESTR>
0

>  <SCORE.RESTR.CAVITY>
0

>  <SCORE.RESTR.norm>
0

>  <SCORE.SYSTEM>
0

>  <SCORE.SYSTEM.CONST>
0

>  <SCORE.SYSTEM.DIHEDRAL>
0

>  <SCORE.SYSTEM.SOLV>
0

>  <SCORE.SYSTEM.norm>
0

>  <SCORE.heavy>
26

>  <SCORE.norm>
-0.611605

>  <RMSD>
8.166

$$$$
ligand
 OpenBabel11021811463D
libRbt.so/2013.1/901 2013/11/27
 26 27  0  0  0  0  0  0  0  0999 V2000
   -5.7495  -37.5715   11.8580 C   0  0  0  0  0  0  0  0  0  0  0  0
   -4.6381  -46.0181   10.9102 C   0  0  0  0  0  0  0  0  0  0  0  0
   -7.0627  -44.8296    5.2265 P   0  0  1  0  0  0  0  0  0  0  0  0
   -7.5939  -42.1520    5.5288 P   0  0  2  0  0  0  0  0  0  0  0  0
   -5.2471  -43.2739   12.2705 C   0  0  0  0  0  0  0  0  0  0  0  0
   -5.9866  -41.0571   13.2045 C   0  0  0  0  0  0  0  0  0  0  0  0
   -5.3950  -41.7775   12.1625 C   0  0  0  0  0  0  0  0  0  0  0  0
   -4.9034  -41.1155   11.0341 C   0  0  0  0  0  0  0  0  0  0  0  0
   -4.3330  -41.7980   10.0636 N   0  0  0  0  0  0  0  0  0  0  0  0
   -5.0443  -39.7532   10.9287 N   0  0  0  0  0  0  0  0  0  0  0  0
   -5.6168  -39.0487   11.9691 C   0  0  0  0  0  0  0  0  0  0  0  0
   -6.0996  -39.6897   13.0945 N   0  0  0  0  0  0  0  0  0  0  0  0
   -7.7579  -45.9291    4.4835 O   0  5  0  0  0  0  0  0  0  0  0  0
   -7.7093  -42.4562    6.9697 O   0  0  0  0  0  0  0  0  0  0  0  0
   -7.8810  -44.2173    9.6620 S   0  0  0  0  0  0  0  0  0  0  0  0
   -7.1951  -43.3289   10.7768 C   0  0  0  0  0  0  0  0  0  0  0  0
   -5.6076  -44.6817    4.9538 O   0  0  0  0  0  0  0  0  0  0  0  0
   -8.5309  -41.0947    5.1039 O   0  5  0  0  0  0  0  0  0  0  0  0
   -6.0419  -43.8930   11.2461 N   0  0  0  0  0  0  0  0  0  0  0  0
   -7.9265  -43.5532    4.8662 O   0  0  0  0  0  0  0  0  0  0  0  0
   -6.2714  -41.6614    5.0355 O   0  0  0  0  0  0  0  0  0  0  0  0
   -5.7921  -45.0981   10.6522 C   0  0  1  0  0  0  0  0  0  0  0  0
   -6.7761  -45.3734    9.7362 C   0  0  2  0  0  0  0  0  0  0  0  0
   -6.9668  -46.5504    8.8122 C   0  0  0  0  0  0  0  0  0  0  0  0
   -6.6378  -46.1976    7.3572 C   0  0  0  0  0  0  0  0  0  0  0  0
   -7.3709  -45.1562    6.7383 O   0  0  0  0  0  0  0  0  0  0  0  0
  1 11  1  0  0  0  0
  3 13  1  6  0  0  0
  3 17  2  0  0  0  0
  3 20  1  0  0  0  0
  3 26  1  0  0  0  0
  4 14  1  1  0  0  0
  4 18  1  0  0  0  0
  4 21  2  0  0  0  0
  4 20  1  0  0  0  0
  5 19  1  0  0  0  0
  5  7  1  0  0  0  0
  6  7  2  0  0  0  0
  6 12  1  0  0  0  0
  7  8  1  0  0  0  0
  8  9  1  0  0  0  0
  8 10  2  0  0  0  0
 10 11  1  0  0  0  0
 11 12  2  0  0  0  0
 15 23  1  0  0  0  0
 15 16  1  0  0  0  0
 16 19  1  0  0  0  0
 19 22  1  0  0  0  0
 22  2  1  6  0  0  0
 22 23  1  0  0  0  0
 23 24  1  6  0  0  0
 24 25  1  0  0  0  0
 25 26  1  0  0  0  0
M  CHG  2  13  -1  18  -1
M  END
>  <CHROM.1>
175.97799552,-30.60698141,115.91089693,-57.75854942,73.89516964,-59.22408592
-177.96704163,77.06141537,-6.56975552,-43.09940213,8.57075695,0.44035582
-1.31817354,-0.02509279

>  <Name>
ligand

>  <RI>
0

>  <Rbt.Current_Directory>
/home/itssahil/PROJECTS/Mol_Feturizer/New_Systems/rnas/3D2G

>  <Rbt.Executable>
rbdock ($Id: //depot/dev/client3/rdock/2013.1/src/exe/rbdock.cxx#4 $)

>  <Rbt.Library>
libRbt.so (2013.1, Build901 2013/11/27)

>  <Rbt.Parameter_File>
/export/apps/rDock/src/rDock_2013.1_src/data/scripts/dock_solv.prm

>  <Rbt.Receptor>
prm/pocket_docking_8.prm

>  <SCORE>
-21.6885

>  <SCORE.INTER>
-18.0707

>  <SCORE.INTER.CONST>
1

>  <SCORE.INTER.POLAR>
0

>  <SCORE.INTER.ROT>
8

>  <SCORE.INTER.SOLV>
8.78018

>  <SCORE.INTER.VDW>
-23.9072

>  <SCORE.INTER.norm>
-0.695028

>  <SCORE.INTRA>
-3.6178

>  <SCORE.INTRA.DIHEDRAL>
-3.74671

>  <SCORE.INTRA.DIHEDRAL.0>
9.09364

>  <SCORE.INTRA.POLAR>
0

>  <SCORE.INTRA.POLAR.0>
0

>  <SCORE.INTRA.REPUL>
0

>  <SCORE.INTRA.REPUL.0>
0

>  <SCORE.INTRA.SOLV>
-1.38899

>  <SCORE.INTRA.SOLV.lig_0>
-78.5846

>  <SCORE.INTRA.VDW>
-1.04995

>  <SCORE.INTRA.VDW.0>
-2.81163

>  <SCORE.INTRA.norm>
-0.139146

>  <SCORE.RESTR>
0

>  <SCORE.RESTR.CAVITY>
0

>  <SCORE.RESTR.norm>
0

>  <SCORE.SYSTEM>
0

>  <SCORE.SYSTEM.CONST>
0

>  <SCORE.SYSTEM.DIHEDRAL>
0

>  <SCORE.SYSTEM.SOLV>
0

>  <SCORE.SYSTEM.norm>
0

>  <SCORE.heavy>
26

>  <SCORE.norm>
-0.834174

>  <RMSD>
8.195

$$$$
ligand
 OpenBabel11021811463D
libRbt.so/2013.1/901 2013/11/27
 26 27  0  0  0  0  0  0  0  0999 V2000
   -5.7322  -37.5753   11.9615 C   0  0  0  0  0  0  0  0  0  0  0  0
   -4.8034  -46.1246   10.8512 C   0  0  0  0  0  0  0  0  0  0  0  0
   -4.3638  -46.8668    6.1918 P   0  0  1  0  0  0  0  0  0  0  0  0
   -5.9528  -47.7913    4.1514 P   0  0  2  0  0  0  0  0  0  0  0  0
   -5.1183  -43.2800   12.1008 C   0  0  0  0  0  0  0  0  0  0  0  0
   -5.9586  -41.1323   13.1083 C   0  0  0  0  0  0  0  0  0  0  0  0
   -5.2955  -41.7834   12.0636 C   0  0  0  0  0  0  0  0  0  0  0  0
   -4.7602  -41.0517   10.9999 C   0  0  0  0  0  0  0  0  0  0  0  0
   -4.1230  -41.6692   10.0274 N   0  0  0  0  0  0  0  0  0  0  0  0
   -4.9273  -39.6890   10.9587 N   0  0  0  0  0  0  0  0  0  0  0  0
   -5.5708  -39.0533   12.0019 C   0  0  0  0  0  0  0  0  0  0  0  0
   -6.0977  -39.7636   13.0642 N   0  0  0  0  0  0  0  0  0  0  0  0
   -3.0291  -47.4316    6.5715 O   0  5  0  0  0  0  0  0  0  0  0  0
   -6.9696  -46.8611    4.6831 O   0  0  0  0  0  0  0  0  0  0  0  0
   -7.9452  -44.1157    9.6631 S   0  0  0  0  0  0  0  0  0  0  0  0
   -7.1351  -43.2387   10.7008 C   0  0  0  0  0  0  0  0  0  0  0  0
   -4.3343  -45.5910    5.4270 O   0  0  0  0  0  0  0  0  0  0  0  0
   -6.5529  -49.0252    3.6096 O   0  5  0  0  0  0  0  0  0  0  0  0
   -6.0104  -43.8758   11.1449 N   0  0  0  0  0  0  0  0  0  0  0  0
   -5.0562  -48.0684    5.4290 O   0  0  0  0  0  0  0  0  0  0  0  0
   -5.0955  -47.3017    3.0296 O   0  0  0  0  0  0  0  0  0  0  0  0
   -5.8894  -45.1233   10.6004 C   0  0  1  0  0  0  0  0  0  0  0  0
   -6.9364  -45.3561    9.7444 C   0  0  2  0  0  0  0  0  0  0  0  0
   -7.2678  -46.5536    8.8890 C   0  0  0  0  0  0  0  0  0  0  0  0
   -6.5140  -46.5325    7.5544 C   0  0  0  0  0  0  0  0  0  0  0  0
   -5.1125  -46.7338    7.5735 O   0  0  0  0  0  0  0  0  0  0  0  0
  1 11  1  0  0  0  0
  3 13  1  1  0  0  0
  3 17  2  0  0  0  0
  3 20  1  0  0  0  0
  3 26  1  0  0  0  0
  4 14  1  1  0  0  0
  4 18  1  0  0  0  0
  4 21  2  0  0  0  0
  4 20  1  0  0  0  0
  5 19  1  0  0  0  0
  5  7  1  0  0  0  0
  6  7  2  0  0  0  0
  6 12  1  0  0  0  0
  7  8  1  0  0  0  0
  8  9  1  0  0  0  0
  8 10  2  0  0  0  0
 10 11  1  0  0  0  0
 11 12  2  0  0  0  0
 15 23  1  0  0  0  0
 15 16  1  0  0  0  0
 16 19  1  0  0  0  0
 19 22  1  0  0  0  0
 22  2  1  6  0  0  0
 22 23  1  0  0  0  0
 23 24  1  6  0  0  0
 24 25  1  0  0  0  0
 25 26  1  0  0  0  0
M  CHG  2  13  -1  18  -1
M  END
>  <CHROM.1>
-141.67337491,-22.51214615,106.63565775,-57.36180195,96.03868422,69.24150911
173.51860921,-165.05438124,-5.67000423,-44.68226280,8.46182551,-1.61210115
-0.95511410,-2.38226044

>  <Name>
ligand

>  <RI>
0

>  <Rbt.Current_Directory>
/home/itssahil/PROJECTS/Mol_Feturizer/New_Systems/rnas/3D2G

>  <Rbt.Executable>
rbdock ($Id: //depot/dev/client3/rdock/2013.1/src/exe/rbdock.cxx#4 $)

>  <Rbt.Library>
libRbt.so (2013.1, Build901 2013/11/27)

>  <Rbt.Parameter_File>
/export/apps/rDock/src/rDock_2013.1_src/data/scripts/dock_solv.prm

>  <Rbt.Receptor>
prm/pocket_docking_8.prm

>  <SCORE>
-15.8626

>  <SCORE.INTER>
-13.7875

>  <SCORE.INTER.CONST>
1

>  <SCORE.INTER.POLAR>
0

>  <SCORE.INTER.ROT>
8

>  <SCORE.INTER.SOLV>
4.00096

>  <SCORE.INTER.VDW>
-19.4587

>  <SCORE.INTER.norm>
-0.53029

>  <SCORE.INTRA>
-2.07501

>  <SCORE.INTRA.DIHEDRAL>
-1.64042

>  <SCORE.INTRA.DIHEDRAL.0>
9.09364

>  <SCORE.INTRA.POLAR>
0

>  <SCORE.INTRA.POLAR.0>
0

>  <SCORE.INTRA.REPUL>
0

>  <SCORE.INTRA.REPUL.0>
0

>  <SCORE.INTRA.SOLV>
-1.50335

>  <SCORE.INTRA.SOLV.lig_0>
-78.5846

>  <SCORE.INTRA.VDW>
-0.503122

>  <SCORE.INTRA.VDW.0>
-2.81163

>  <SCORE.INTRA.norm>
-0.079808

>  <SCORE.RESTR>
0

>  <SCORE.RESTR.CAVITY>
0

>  <SCORE.RESTR.norm>
0

>  <SCORE.SYSTEM>
0

>  <SCORE.SYSTEM.CONST>
0

>  <SCORE.SYSTEM.DIHEDRAL>
0

>  <SCORE.SYSTEM.SOLV>
0

>  <SCORE.SYSTEM.norm>
0

>  <SCORE.heavy>
26

>  <SCORE.norm>
-0.610098

>  <RMSD>
8.203

$$$$
ligand
 OpenBabel11021811463D
libRbt.so/2013.1/901 2013/11/27
 26 27  0  0  0  0  0  0  0  0999 V2000
   -4.2776  -39.9653   12.6792 C   0  0  0  0  0  0  0  0  0  0  0  0
   -8.3037  -39.5682    6.9392 C   0  0  0  0  0  0  0  0  0  0  0  0
   -7.4909  -40.3086    0.8858 P   0  0  1  0  0  0  0  0  0  0  0  0
   -5.5471  -42.2014    0.4593 P   0  0  2  0  0  0  0  0  0  0  0  0
   -6.8644  -42.1162    8.0293 C   0  0  0  0  0  0  0  0  0  0  0  0
   -5.8982  -40.1777    9.3106 C   0  0  0  0  0  0  0  0  0  0  0  0
   -6.1725  -41.5470    9.2416 C   0  0  0  0  0  0  0  0  0  0  0  0
   -5.8437  -42.3893   10.3072 C   0  0  0  0  0  0  0  0  0  0  0  0
   -6.1192  -43.6750   10.2427 N   0  0  0  0  0  0  0  0  0  0  0  0
   -5.2055  -41.8753   11.4096 N   0  0  0  0  0  0  0  0  0  0  0  0
   -4.9517  -40.5196   11.4748 C   0  0  0  0  0  0  0  0  0  0  0  0
   -5.2791  -39.6736   10.4319 N   0  0  0  0  0  0  0  0  0  0  0  0
   -6.7098  -39.4919   -0.0977 O   0  5  0  0  0  0  0  0  0  0  0  0
   -5.0916  -41.9169    1.8353 O   0  0  0  0  0  0  0  0  0  0  0  0
   -5.1443  -40.6946    4.9226 S   0  0  0  0  0  0  0  0  0  0  0  0
   -5.3641  -41.6887    6.1332 C   0  0  0  0  0  0  0  0  0  0  0  0
   -8.9592  -40.0692    0.9063 O   0  0  0  0  0  0  0  0  0  0  0  0
   -4.8024  -41.4227   -0.5484 O   0  5  0  0  0  0  0  0  0  0  0  0
   -6.4665  -41.3627    6.8725 N   0  0  0  0  0  0  0  0  0  0  0  0
   -7.0775  -41.7933    0.5253 O   0  0  0  0  0  0  0  0  0  0  0  0
   -5.4204  -43.6085   -0.0276 O   0  0  0  0  0  0  0  0  0  0  0  0
   -7.0810  -40.2402    6.3931 C   0  0  1  0  0  0  0  0  0  0  0  0
   -6.4094  -39.7838    5.2868 C   0  0  2  0  0  0  0  0  0  0  0  0
   -6.6748  -38.6042    4.3847 C   0  0  0  0  0  0  0  0  0  0  0  0
   -7.4065  -39.0152    3.1020 C   0  0  0  0  0  0  0  0  0  0  0  0
   -6.7993  -39.9826    2.2652 O   0  0  0  0  0  0  0  0  0  0  0  0
  1 11  1  0  0  0  0
  3 13  1  6  0  0  0
  3 17  2  0  0  0  0
  3 20  1  0  0  0  0
  3 26  1  0  0  0  0
  4 14  1  1  0  0  0
  4 18  1  0  0  0  0
  4 21  2  0  0  0  0
  4 20  1  0  0  0  0
  5 19  1  0  0  0  0
  5  7  1  0  0  0  0
  6  7  2  0  0  0  0
  6 12  1  0  0  0  0
  7  8  1  0  0  0  0
  8  9  1  0  0  0  0
  8 10  2  0  0  0  0
 10 11  1  0  0  0  0
 11 12  2  0  0  0  0
 15 23  1  0  0  0  0
 15 16  1  0  0  0  0
 16 19  1  0  0  0  0
 19 22  1  0  0  0  0
 22  2  1  6  0  0  0
 22 23  1  0  0  0  0
 23 24  1  6  0  0  0
 24 25  1  0  0  0  0
 25 26  1  0  0  0  0
M  CHG  2  13  -1  18  -1
M  END
>  <CHROM.1>
53.23503291,88.76646127,32.81149798,60.38278129,80.73587156,-57.94463442
-174.68082376,98.68777017,-6.20121514,-40.93324224,4.86270585,1.40876553
-0.99123240,1.43267668

>  <Name>
ligand

>  <RI>
0

>  <Rbt.Current_Directory>
/home/itssahil/PROJECTS/Mol_Feturizer/New_Systems/rnas/3D2G

>  <Rbt.Executable>
rbdock ($Id: //depot/dev/client3/rdock/2013.1/src/exe/rbdock.cxx#4 $)

>  <Rbt.Library>
libRbt.so (2013.1, Build901 2013/11/27)

>  <Rbt.Parameter_File>
/export/apps/rDock/src/rDock_2013.1_src/data/scripts/dock_solv.prm

>  <Rbt.Receptor>
prm/pocket_docking_7.prm

>  <SCORE>
-13.9752

>  <SCORE.INTER>
-10.346

>  <SCORE.INTER.CONST>
1

>  <SCORE.INTER.POLAR>
0

>  <SCORE.INTER.ROT>
8

>  <SCORE.INTER.SOLV>
22.2711

>  <SCORE.INTER.VDW>
-23.2544

>  <SCORE.INTER.norm>
-0.397923

>  <SCORE.INTRA>
-3.6292

>  <SCORE.INTRA.DIHEDRAL>
-2.69266

>  <SCORE.INTRA.DIHEDRAL.0>
9.09364

>  <SCORE.INTRA.POLAR>
0

>  <SCORE.INTRA.POLAR.0>
0

>  <SCORE.INTRA.REPUL>
0

>  <SCORE.INTRA.REPUL.0>
0

>  <SCORE.INTRA.SOLV>
-2.93059

>  <SCORE.INTRA.SOLV.lig_0>
-78.5846

>  <SCORE.INTRA.VDW>
-0.817574

>  <SCORE.INTRA.VDW.0>
-2.81163

>  <SCORE.INTRA.norm>
-0.139585

>  <SCORE.RESTR>
0

>  <SCORE.RESTR.CAVITY>
0

>  <SCORE.RESTR.norm>
0

>  <SCORE.SYSTEM>
0

>  <SCORE.SYSTEM.CONST>
0

>  <SCORE.SYSTEM.DIHEDRAL>
0

>  <SCORE.SYSTEM.SOLV>
0

>  <SCORE.SYSTEM.norm>
0

>  <SCORE.heavy>
26

>  <SCORE.norm>
-0.537507

>  <RMSD>
8.225

$$$$
ligand
 OpenBabel11021811463D
libRbt.so/2013.1/901 2013/11/27
 26 27  0  0  0  0  0  0  0  0999 V2000
   -1.4878  -38.8311   10.3140 C   0  0  0  0  0  0  0  0  0  0  0  0
   -4.0530  -44.1868   12.6923 C   0  0  0  0  0  0  0  0  0  0  0  0
   -3.7011  -45.7488    7.1655 P   0  0  1  0  0  0  0  0  0  0  0  0
   -4.8324  -48.1145    6.3492 P   0  0  2  0  0  0  0  0  0  0  0  0
   -5.8968  -41.6666   12.6507 C   0  0  0  0  0  0  0  0  0  0  0  0
   -3.6789  -40.4950   12.8536 C   0  0  0  0  0  0  0  0  0  0  0  0
   -4.7424  -40.9090   12.0458 C   0  0  0  0  0  0  0  0  0  0  0  0
   -4.7260  -40.6591   10.6709 C   0  0  0  0  0  0  0  0  0  0  0  0
   -5.7229  -41.0657    9.9134 N   0  0  0  0  0  0  0  0  0  0  0  0
   -3.6798  -39.9616   10.1181 N   0  0  0  0  0  0  0  0  0  0  0  0
   -2.6273  -39.5694   10.9212 C   0  0  0  0  0  0  0  0  0  0  0  0
   -2.6264  -39.8174   12.2810 N   0  0  0  0  0  0  0  0  0  0  0  0
   -2.3634  -45.4087    7.7482 O   0  5  0  0  0  0  0  0  0  0  0  0
   -5.7713  -47.9713    7.4805 O   0  0  0  0  0  0  0  0  0  0  0  0
   -7.1923  -44.4510   10.3701 S   0  0  0  0  0  0  0  0  0  0  0  0
   -7.1927  -43.0363   11.0779 C   0  0  0  0  0  0  0  0  0  0  0  0
   -4.1303  -44.9255    6.0029 O   0  0  0  0  0  0  0  0  0  0  0  0
   -4.5071  -49.5257    6.0679 O   0  5  0  0  0  0  0  0  0  0  0  0
   -6.1089  -42.8694   11.8937 N   0  0  0  0  0  0  0  0  0  0  0  0
   -3.5734  -47.2960    6.8570 O   0  0  0  0  0  0  0  0  0  0  0  0
   -5.2738  -47.5896    5.0214 O   0  0  0  0  0  0  0  0  0  0  0  0
   -5.3160  -43.9822   11.9127 C   0  0  1  0  0  0  0  0  0  0  0  0
   -5.8425  -44.9375   11.0800 C   0  0  2  0  0  0  0  0  0  0  0  0
   -5.3582  -46.3234   10.7329 C   0  0  0  0  0  0  0  0  0  0  0  0
   -4.3370  -46.3054    9.5898 C   0  0  0  0  0  0  0  0  0  0  0  0
   -4.6797  -45.6254    8.3961 O   0  0  0  0  0  0  0  0  0  0  0  0
  1 11  1  0  0  0  0
  3 13  1  1  0  0  0
  3 17  2  0  0  0  0
  3 20  1  0  0  0  0
  3 26  1  0  0  0  0
  4 14  1  1  0  0  0
  4 18  1  0  0  0  0
  4 21  2  0  0  0  0
  4 20  1  0  0  0  0
  5 19  1  0  0  0  0
  5  7  1  0  0  0  0
  6  7  2  0  0  0  0
  6 12  1  0  0  0  0
  7  8  1  0  0  0  0
  8  9  1  0  0  0  0
  8 10  2  0  0  0  0
 10 11  1  0  0  0  0
 11 12  2  0  0  0  0
 15 23  1  0  0  0  0
 15 16  1  0  0  0  0
 16 19  1  0  0  0  0
 19 22  1  0  0  0  0
 22  2  1  6  0  0  0
 22 23  1  0  0  0  0
 23 24  1  6  0  0  0
 24 25  1  0  0  0  0
 25 26  1  0  0  0  0
M  CHG  2  13  -1  18  -1
M  END
>  <CHROM.1>
174.04043395,-108.73793977,-127.87783990,-61.70256552,94.12988855,-52.06899175
-173.07057974,-50.63232177,-4.65172236,-44.31953303,9.34217913,-1.49548319
-0.73801061,-2.46032995

>  <Name>
ligand

>  <RI>
0

>  <Rbt.Current_Directory>
/home/itssahil/PROJECTS/Mol_Feturizer/New_Systems/rnas/3D2G

>  <Rbt.Executable>
rbdock ($Id: //depot/dev/client3/rdock/2013.1/src/exe/rbdock.cxx#4 $)

>  <Rbt.Library>
libRbt.so (2013.1, Build901 2013/11/27)

>  <Rbt.Parameter_File>
/export/apps/rDock/src/rDock_2013.1_src/data/scripts/dock_solv.prm

>  <Rbt.Receptor>
prm/pocket_docking_6.prm

>  <SCORE>
-11.7574

>  <SCORE.INTER>
-8.61984

>  <SCORE.INTER.CONST>
1

>  <SCORE.INTER.POLAR>
0

>  <SCORE.INTER.ROT>
8

>  <SCORE.INTER.SOLV>
7.67455

>  <SCORE.INTER.VDW>
-17.2381

>  <SCORE.INTER.norm>
-0.331532

>  <SCORE.INTRA>
-3.13753

>  <SCORE.INTRA.DIHEDRAL>
-3.68151

>  <SCORE.INTRA.DIHEDRAL.0>
9.09364

>  <SCORE.INTRA.POLAR>
0

>  <SCORE.INTRA.POLAR.0>
0

>  <SCORE.INTRA.REPUL>
0

>  <SCORE.INTRA.REPUL.0>
0

>  <SCORE.INTRA.SOLV>
-0.616923

>  <SCORE.INTRA.SOLV.lig_0>
-78.5846

>  <SCORE.INTRA.VDW>
-0.988311

>  <SCORE.INTRA.VDW.0>
-2.81163

>  <SCORE.INTRA.norm>
-0.120674

>  <SCORE.RESTR>
0

>  <SCORE.RESTR.CAVITY>
0

>  <SCORE.RESTR.norm>
0

>  <SCORE.SYSTEM>
0

>  <SCORE.SYSTEM.CONST>
0

>  <SCORE.SYSTEM.DIHEDRAL>
0

>  <SCORE.SYSTEM.SOLV>
0

>  <SCORE.SYSTEM.norm>
0

>  <SCORE.heavy>
26

>  <SCORE.norm>
-0.452206

>  <RMSD>
8.234

$$$$
ligand
 OpenBabel11021811463D
libRbt.so/2013.1/901 2013/11/27
 26 27  0  0  0  0  0  0  0  0999 V2000
    0.0922  -40.4886    7.5803 C   0  0  0  0  0  0  0  0  0  0  0  0
   -5.4286  -40.0471    9.5951 C   0  0  0  0  0  0  0  0  0  0  0  0
   -7.0942  -41.1036    4.2125 P   0  0  1  0  0  0  0  0  0  0  0  0
   -7.4641  -43.8163    4.4307 P   0  0  2  0  0  0  0  0  0  0  0  0
   -4.1645  -42.6524   10.7642 C   0  0  0  0  0  0  0  0  0  0  0  0
   -2.7203  -42.6900    8.7036 C   0  0  0  0  0  0  0  0  0  0  0  0
   -3.0383  -42.0978    9.9296 C   0  0  0  0  0  0  0  0  0  0  0  0
   -2.3435  -40.9686   10.3717 C   0  0  0  0  0  0  0  0  0  0  0  0
   -2.6585  -40.4061   11.5194 N   0  0  0  0  0  0  0  0  0  0  0  0
   -1.3112  -40.4660    9.6176 N   0  0  0  0  0  0  0  0  0  0  0  0
   -1.0140  -41.0487    8.4017 C   0  0  0  0  0  0  0  0  0  0  0  0
   -1.6986  -42.1606    7.9483 N   0  0  0  0  0  0  0  0  0  0  0  0
   -5.9420  -40.2851    3.7156 O   0  5  0  0  0  0  0  0  0  0  0  0
   -8.8687  -43.4500    4.1571 O   0  0  0  0  0  0  0  0  0  0  0  0
   -7.3963  -43.3446    8.8386 S   0  0  0  0  0  0  0  0  0  0  0  0
   -6.1092  -43.6962    9.6882 C   0  0  0  0  0  0  0  0  0  0  0  0
   -8.4379  -40.6992    3.7184 O   0  0  0  0  0  0  0  0  0  0  0  0
   -7.2042  -43.9978    5.8715 O   0  5  0  0  0  0  0  0  0  0  0  0
   -5.3819  -42.5829   10.0042 N   0  0  0  0  0  0  0  0  0  0  0  0
   -6.6753  -42.5806    3.8275 O   0  0  0  0  0  0  0  0  0  0  0  0
   -6.9559  -45.0842    3.8248 O   0  0  0  0  0  0  0  0  0  0  0  0
   -5.9382  -41.4512    9.4778 C   0  0  1  0  0  0  0  0  0  0  0  0
   -7.0860  -41.7746    8.7988 C   0  0  2  0  0  0  0  0  0  0  0  0
   -8.0731  -40.9094    8.0552 C   0  0  0  0  0  0  0  0  0  0  0  0
   -8.1217  -41.2478    6.5610 C   0  0  0  0  0  0  0  0  0  0  0  0
   -6.9649  -41.0052    5.7812 O   0  0  0  0  0  0  0  0  0  0  0  0
  1 11  1  0  0  0  0
  3 13  1  6  0  0  0
  3 17  2  0  0  0  0
  3 20  1  0  0  0  0
  3 26  1  0  0  0  0
  4 14  1  6  0  0  0
  4 18  1  0  0  0  0
  4 21  2  0  0  0  0
  4 20  1  0  0  0  0
  5 19  1  0  0  0  0
  5  7  1  0  0  0  0
  6  7  2  0  0  0  0
  6 12  1  0  0  0  0
  7  8  1  0  0  0  0
  8  9  1  0  0  0  0
  8 10  2  0  0  0  0
 10 11  1  0  0  0  0
 11 12  2  0  0  0  0
 15 23  1  0  0  0  0
 15 16  1  0  0  0  0
 16 19  1  0  0  0  0
 19 22  1  0  0  0  0
 22  2  1  1  0  0  0
 22 23  1  0  0  0  0
 23 24  1  1  0  0  0
 24 25  1  0  0  0  0
 25 26  1  0  0  0  0
M  CHG  2  13  -1  18  -1
M  END
>  <CHROM.1>
167.28088764,119.74390408,-59.87088676,49.98602550,-63.78409051,-65.23834562
-169.12071121,157.86459066,-5.65369472,-42.03771367,7.15424841,-0.75668274
-0.33899828,-1.46474876

>  <Name>
ligand

>  <RI>
0

>  <Rbt.Current_Directory>
/home/itssahil/PROJECTS/Mol_Feturizer/New_Systems/rnas/3D2G

>  <Rbt.Executable>
rbdock ($Id: //depot/dev/client3/rdock/2013.1/src/exe/rbdock.cxx#4 $)

>  <Rbt.Library>
libRbt.so (2013.1, Build901 2013/11/27)

>  <Rbt.Parameter_File>
/export/apps/rDock/src/rDock_2013.1_src/data/scripts/dock_solv.prm

>  <Rbt.Receptor>
prm/pocket_docking_4.prm

>  <SCORE>
-6.06585

>  <SCORE.INTER>
-3.79312

>  <SCORE.INTER.CONST>
1

>  <SCORE.INTER.POLAR>
0

>  <SCORE.INTER.ROT>
8

>  <SCORE.INTER.SOLV>
11.0259

>  <SCORE.INTER.VDW>
-15.1374

>  <SCORE.INTER.norm>
-0.145889

>  <SCORE.INTRA>
-2.27273

>  <SCORE.INTRA.DIHEDRAL>
-1.94748

>  <SCORE.INTRA.DIHEDRAL.0>
9.09364

>  <SCORE.INTRA.POLAR>
0

>  <SCORE.INTRA.POLAR.0>
0

>  <SCORE.INTRA.REPUL>
0

>  <SCORE.INTRA.REPUL.0>
0

>  <SCORE.INTRA.SOLV>
-0.226555

>  <SCORE.INTRA.SOLV.lig_0>
-78.5846

>  <SCORE.INTRA.VDW>
-1.18571

>  <SCORE.INTRA.VDW.0>
-2.81163

>  <SCORE.INTRA.norm>
-0.0874126

>  <SCORE.RESTR>
0

>  <SCORE.RESTR.CAVITY>
0

>  <SCORE.RESTR.norm>
0

>  <SCORE.SYSTEM>
0

>  <SCORE.SYSTEM.CONST>
0

>  <SCORE.SYSTEM.DIHEDRAL>
0

>  <SCORE.SYSTEM.SOLV>
0

>  <SCORE.SYSTEM.norm>
0

>  <SCORE.heavy>
26

>  <SCORE.norm>
-0.233302

>  <RMSD>
8.238

$$$$
ligand
 OpenBabel11021811463D
libRbt.so/2013.1/901 2013/11/27
 26 27  0  0  0  0  0  0  0  0999 V2000
   -0.7332  -42.8379    5.5037 C   0  0  0  0  0  0  0  0  0  0  0  0
   -7.0707  -43.0176    8.3313 C   0  0  0  0  0  0  0  0  0  0  0  0
   -7.8079  -38.7811    4.1554 P   0  0  1  0  0  0  0  0  0  0  0  0
   -7.0637  -40.6424    2.2780 P   0  0  2  0  0  0  0  0  0  0  0  0
   -4.5055  -41.9142    9.7293 C   0  0  0  0  0  0  0  0  0  0  0  0
   -3.9570  -42.7020    7.4030 C   0  0  0  0  0  0  0  0  0  0  0  0
   -3.5177  -42.1726    8.6202 C   0  0  0  0  0  0  0  0  0  0  0  0
   -2.1719  -41.8440    8.8048 C   0  0  0  0  0  0  0  0  0  0  0  0
   -1.7675  -41.3310    9.9477 N   0  0  0  0  0  0  0  0  0  0  0  0
   -1.2679  -42.0861    7.7993 N   0  0  0  0  0  0  0  0  0  0  0  0
   -1.7134  -42.5957    6.5958 C   0  0  0  0  0  0  0  0  0  0  0  0
   -3.0429  -42.9172    6.3966 N   0  0  0  0  0  0  0  0  0  0  0  0
   -7.0911  -37.6288    4.7903 O   0  5  0  0  0  0  0  0  0  0  0  0
   -8.2103  -40.1795    1.4702 O   0  0  0  0  0  0  0  0  0  0  0  0
   -6.9001  -39.1229    8.6776 S   0  0  0  0  0  0  0  0  0  0  0  0
   -5.5978  -39.7544    9.3160 C   0  0  0  0  0  0  0  0  0  0  0  0
   -9.1213  -38.4641    3.5327 O   0  0  0  0  0  0  0  0  0  0  0  0
   -7.4022  -41.8128    3.1099 O   0  5  0  0  0  0  0  0  0  0  0  0
   -5.5837  -41.1173    9.2129 N   0  0  0  0  0  0  0  0  0  0  0  0
   -6.7321  -39.3602    3.1491 O   0  0  0  0  0  0  0  0  0  0  0  0
   -5.8400  -41.0830    1.5421 O   0  0  0  0  0  0  0  0  0  0  0  0
   -6.7158  -41.5890    8.6102 C   0  0  1  0  0  0  0  0  0  0  0  0
   -7.5275  -40.5372    8.2666 C   0  0  2  0  0  0  0  0  0  0  0  0
   -8.8683  -40.5064    7.5759 C   0  0  0  0  0  0  0  0  0  0  0  0
   -8.8642  -39.5797    6.3549 C   0  0  0  0  0  0  0  0  0  0  0  0
   -7.9243  -39.8312    5.3263 O   0  0  0  0  0  0  0  0  0  0  0  0
  1 11  1  0  0  0  0
  3 13  1  1  0  0  0
  3 17  2  0  0  0  0
  3 20  1  0  0  0  0
  3 26  1  0  0  0  0
  4 14  1  6  0  0  0
  4 18  1  0  0  0  0
  4 21  2  0  0  0  0
  4 20  1  0  0  0  0
  5 19  1  0  0  0  0
  5  7  1  0  0  0  0
  6  7  2  0  0  0  0
  6 12  1  0  0  0  0
  7  8  1  0  0  0  0
  8  9  1  0  0  0  0
  8 10  2  0  0  0  0
 10 11  1  0  0  0  0
 11 12  2  0  0  0  0
 15 23  1  0  0  0  0
 15 16  1  0  0  0  0
 16 19  1  0  0  0  0
 19 22  1  0  0  0  0
 22  2  1  6  0  0  0
 22 23  1  0  0  0  0
 23 24  1  6  0  0  0
 24 25  1  0  0  0  0
 25 26  1  0  0  0  0
M  CHG  2  13  -1  18  -1
M  END
>  <CHROM.1>
178.24580557,-94.37790812,-52.46009543,61.75394113,53.03734843,57.55235716
-172.95490989,74.01695106,-5.94447835,-40.67591546,6.08072357,-0.78042468
0.47795878,-1.59817491

>  <Name>
ligand

>  <RI>
0

>  <Rbt.Current_Directory>
/home/itssahil/PROJECTS/Mol_Feturizer/New_Systems/rnas/3D2G

>  <Rbt.Executable>
rbdock ($Id: //depot/dev/client3/rdock/2013.1/src/exe/rbdock.cxx#4 $)

>  <Rbt.Library>
libRbt.so (2013.1, Build901 2013/11/27)

>  <Rbt.Parameter_File>
/export/apps/rDock/src/rDock_2013.1_src/data/scripts/dock_solv.prm

>  <Rbt.Receptor>
prm/pocket_docking_4.prm

>  <SCORE>
-11.4672

>  <SCORE.INTER>
-7.8262

>  <SCORE.INTER.CONST>
1

>  <SCORE.INTER.POLAR>
0

>  <SCORE.INTER.ROT>
8

>  <SCORE.INTER.SOLV>
12.3471

>  <SCORE.INTER.VDW>
-18.2665

>  <SCORE.INTER.norm>
-0.301008

>  <SCORE.INTRA>
-3.641

>  <SCORE.INTRA.DIHEDRAL>
-3.3503

>  <SCORE.INTRA.DIHEDRAL.0>
9.09364

>  <SCORE.INTRA.POLAR>
0

>  <SCORE.INTRA.POLAR.0>
0

>  <SCORE.INTRA.REPUL>
0

>  <SCORE.INTRA.REPUL.0>
0

>  <SCORE.INTRA.SOLV>
-2.96868

>  <SCORE.INTRA.SOLV.lig_0>
-78.5846

>  <SCORE.INTRA.VDW>
-0.481506

>  <SCORE.INTRA.VDW.0>
-2.81163

>  <SCORE.INTRA.norm>
-0.140038

>  <SCORE.RESTR>
0

>  <SCORE.RESTR.CAVITY>
0

>  <SCORE.RESTR.norm>
0

>  <SCORE.SYSTEM>
0

>  <SCORE.SYSTEM.CONST>
0

>  <SCORE.SYSTEM.DIHEDRAL>
0

>  <SCORE.SYSTEM.SOLV>
0

>  <SCORE.SYSTEM.norm>
0

>  <SCORE.heavy>
26

>  <SCORE.norm>
-0.441046

>  <RMSD>
8.242

$$$$
ligand
 OpenBabel11021811463D
libRbt.so/2013.1/901 2013/11/27
 26 27  0  0  0  0  0  0  0  0999 V2000
   -8.0938  -33.1680   11.4492 C   0  0  0  0  0  0  0  0  0  0  0  0
   -5.2352  -38.8680   11.0219 C   0  0  0  0  0  0  0  0  0  0  0  0
   -4.7357  -44.5760   12.4073 P   0  0  1  0  0  0  0  0  0  0  0  0
   -4.1720  -44.6070    9.7195 P   0  0  2  0  0  0  0  0  0  0  0  0
   -3.4451  -36.4927   11.9736 C   0  0  0  0  0  0  0  0  0  0  0  0
   -5.9416  -36.1784   12.0183 C   0  0  0  0  0  0  0  0  0  0  0  0
   -4.6710  -35.6283   11.8234 C   0  0  0  0  0  0  0  0  0  0  0  0
   -4.5254  -34.2704   11.5270 C   0  0  0  0  0  0  0  0  0  0  0  0
   -3.3254  -33.7552   11.3605 N   0  0  0  0  0  0  0  0  0  0  0  0
   -5.6407  -33.4820   11.3811 N   0  0  0  0  0  0  0  0  0  0  0  0
   -6.8904  -34.0307   11.5896 C   0  0  0  0  0  0  0  0  0  0  0  0
   -7.0486  -35.3702   11.8916 N   0  0  0  0  0  0  0  0  0  0  0  0
   -5.7841  -45.5631   11.9936 O   0  5  0  0  0  0  0  0  0  0  0  0
   -4.8511  -45.9104    9.5716 O   0  0  0  0  0  0  0  0  0  0  0  0
   -3.8329  -39.1861   14.6619 S   0  0  0  0  0  0  0  0  0  0  0  0
   -3.3169  -37.8319   14.0276 C   0  0  0  0  0  0  0  0  0  0  0  0
   -4.1535  -44.7776   13.7615 O   0  0  0  0  0  0  0  0  0  0  0  0
   -3.0516  -44.4499    8.7728 O   0  5  0  0  0  0  0  0  0  0  0  0
   -3.7860  -37.6479   12.7571 N   0  0  0  0  0  0  0  0  0  0  0  0
   -3.6842  -44.6561   11.2270 O   0  0  0  0  0  0  0  0  0  0  0  0
   -4.9911  -43.3777    9.4937 O   0  0  0  0  0  0  0  0  0  0  0  0
   -4.5582  -38.6984   12.3476 C   0  0  1  0  0  0  0  0  0  0  0  0
   -4.6485  -39.6247   13.3561 C   0  0  2  0  0  0  0  0  0  0  0  0
   -5.3804  -40.9418   13.4273 C   0  0  0  0  0  0  0  0  0  0  0  0
   -4.7228  -42.0125   12.5493 C   0  0  0  0  0  0  0  0  0  0  0  0
   -5.4616  -43.1841   12.2553 O   0  0  0  0  0  0  0  0  0  0  0  0
  1 11  1  0  0  0  0
  3 13  1  6  0  0  0
  3 17  2  0  0  0  0
  3 20  1  0  0  0  0
  3 26  1  0  0  0  0
  4 14  1  6  0  0  0
  4 18  1  0  0  0  0
  4 21  2  0  0  0  0
  4 20  1  0  0  0  0
  5 19  1  0  0  0  0
  5  7  1  0  0  0  0
  6  7  2  0  0  0  0
  6 12  1  0  0  0  0
  7  8  1  0  0  0  0
  8  9  1  0  0  0  0
  8 10  2  0  0  0  0
 10 11  1  0  0  0  0
 11 12  2  0  0  0  0
 15 23  1  0  0  0  0
 15 16  1  0  0  0  0
 16 19  1  0  0  0  0
 19 22  1  0  0  0  0
 22  2  1  1  0  0  0
 22 23  1  0  0  0  0
 23 24  1  1  0  0  0
 24 25  1  0  0  0  0
 25 26  1  0  0  0  0
M  CHG  2  13  -1  18  -1
M  END
>  <CHROM.1>
47.28797562,-110.23546839,-20.33756159,-69.81968366,-109.17185497,-164.87540246
-133.60409298,-178.76903392,-4.76545218,-40.19096652,11.86769377,1.94768389
-1.31916974,0.45830748

>  <Name>
ligand

>  <RI>
0

>  <Rbt.Current_Directory>
/home/itssahil/PROJECTS/Mol_Feturizer/New_Systems/rnas/3D2G

>  <Rbt.Executable>
rbdock ($Id: //depot/dev/client3/rdock/2013.1/src/exe/rbdock.cxx#4 $)

>  <Rbt.Library>
libRbt.so (2013.1, Build901 2013/11/27)

>  <Rbt.Parameter_File>
/export/apps/rDock/src/rDock_2013.1_src/data/scripts/dock_solv.prm

>  <Rbt.Receptor>
prm/blind_docking_80.prm

>  <SCORE>
-9.90196

>  <SCORE.INTER>
-11.564

>  <SCORE.INTER.CONST>
1

>  <SCORE.INTER.POLAR>
0

>  <SCORE.INTER.ROT>
8

>  <SCORE.INTER.SOLV>
18.6758

>  <SCORE.INTER.VDW>
-22.8679

>  <SCORE.INTER.norm>
-0.444768

>  <SCORE.INTRA>
1.37851

>  <SCORE.INTRA.DIHEDRAL>
3.08446

>  <SCORE.INTRA.DIHEDRAL.0>
9.09364

>  <SCORE.INTRA.POLAR>
0

>  <SCORE.INTRA.POLAR.0>
0

>  <SCORE.INTRA.REPUL>
0

>  <SCORE.INTRA.REPUL.0>
0

>  <SCORE.INTRA.SOLV>
-1.74882

>  <SCORE.INTRA.SOLV.lig_0>
-78.5846

>  <SCORE.INTRA.VDW>
0.710693

>  <SCORE.INTRA.VDW.0>
-2.81163

>  <SCORE.INTRA.norm>
0.0530197

>  <SCORE.RESTR>
0.283503

>  <SCORE.RESTR.CAVITY>
0.283503

>  <SCORE.RESTR.norm>
0.010904

>  <SCORE.SYSTEM>
0

>  <SCORE.SYSTEM.CONST>
0

>  <SCORE.SYSTEM.DIHEDRAL>
0

>  <SCORE.SYSTEM.SOLV>
0

>  <SCORE.SYSTEM.norm>
0

>  <SCORE.heavy>
26

>  <SCORE.norm>
-0.380845

>  <RMSD>
8.272

$$$$
ligand
 OpenBabel11021811463D
libRbt.so/2013.1/901 2013/11/27
 26 27  0  0  0  0  0  0  0  0999 V2000
   -5.4811  -46.8336    3.4121 C   0  0  0  0  0  0  0  0  0  0  0  0
   -7.3397  -46.3809    9.2830 C   0  0  0  0  0  0  0  0  0  0  0  0
   -6.1262  -41.4068    8.8397 P   0  0  1  0  0  0  0  0  0  0  0  0
   -8.1758  -40.0588    7.6047 P   0  0  2  0  0  0  0  0  0  0  0  0
   -4.5344  -47.7241    9.0023 C   0  0  0  0  0  0  0  0  0  0  0  0
   -5.9242  -48.0413    6.9284 C   0  0  0  0  0  0  0  0  0  0  0  0
   -4.7819  -47.5060    7.5314 C   0  0  0  0  0  0  0  0  0  0  0  0
   -3.8839  -46.7355    6.7877 C   0  0  0  0  0  0  0  0  0  0  0  0
   -2.8186  -46.2209    7.3651 N   0  0  0  0  0  0  0  0  0  0  0  0
   -4.1020  -46.5420    5.4454 N   0  0  0  0  0  0  0  0  0  0  0  0
   -5.2401  -47.0624    4.8619 C   0  0  0  0  0  0  0  0  0  0  0  0
   -6.1410  -47.8191    5.5873 N   0  0  0  0  0  0  0  0  0  0  0  0
   -5.4550  -41.2846    7.5058 O   0  5  0  0  0  0  0  0  0  0  0  0
   -9.3242  -39.3786    8.2374 O   0  0  0  0  0  0  0  0  0  0  0  0
   -4.4017  -44.5015   11.0587 S   0  0  0  0  0  0  0  0  0  0  0  0
   -3.8339  -45.8030   10.3616 C   0  0  0  0  0  0  0  0  0  0  0  0
   -5.2233  -41.4099   10.0221 O   0  0  0  0  0  0  0  0  0  0  0  0
   -8.5518  -41.3565    7.0124 O   0  5  0  0  0  0  0  0  0  0  0  0
   -4.8083  -46.5008    9.7044 N   0  0  0  0  0  0  0  0  0  0  0  0
   -7.1737  -40.2204    8.8224 O   0  0  0  0  0  0  0  0  0  0  0  0
   -7.4935  -39.3496    6.4802 O   0  0  0  0  0  0  0  0  0  0  0  0
   -6.0326  -45.9100    9.8439 C   0  0  1  0  0  0  0  0  0  0  0  0
   -5.9104  -44.7676   10.5944 C   0  0  2  0  0  0  0  0  0  0  0  0
   -6.9392  -43.7524   11.0262 C   0  0  0  0  0  0  0  0  0  0  0  0
   -7.7063  -43.1692    9.8340 C   0  0  0  0  0  0  0  0  0  0  0  0
   -6.9652  -42.7357    8.7081 O   0  0  0  0  0  0  0  0  0  0  0  0
  1 11  1  0  0  0  0
  3 13  1  6  0  0  0
  3 17  2  0  0  0  0
  3 20  1  0  0  0  0
  3 26  1  0  0  0  0
  4 14  1  1  0  0  0
  4 18  1  0  0  0  0
  4 21  2  0  0  0  0
  4 20  1  0  0  0  0
  5 19  1  0  0  0  0
  5  7  1  0  0  0  0
  6  7  2  0  0  0  0
  6 12  1  0  0  0  0
  7  8  1  0  0  0  0
  8  9  1  0  0  0  0
  8 10  2  0  0  0  0
 10 11  1  0  0  0  0
 11 12  2  0  0  0  0
 15 23  1  0  0  0  0
 15 16  1  0  0  0  0
 16 19  1  0  0  0  0
 19 22  1  0  0  0  0
 22  2  1  6  0  0  0
 22 23  1  0  0  0  0
 23 24  1  6  0  0  0
 24 25  1  0  0  0  0
 25 26  1  0  0  0  0
M  CHG  2  13  -1  18  -1
M  END
>  <CHROM.1>
51.63268008,-115.15359461,-105.55957347,152.52586337,124.21570363,-47.12810824
-72.57046712,178.26671599,-6.04133152,-43.86203887,8.27090426,0.51128060
1.11202597,-1.99591754

>  <Name>
ligand

>  <RI>
0

>  <Rbt.Current_Directory>
/home/itssahil/PROJECTS/Mol_Feturizer/New_Systems/rnas/3D2G

>  <Rbt.Executable>
rbdock ($Id: //depot/dev/client3/rdock/2013.1/src/exe/rbdock.cxx#4 $)

>  <Rbt.Library>
libRbt.so (2013.1, Build901 2013/11/27)

>  <Rbt.Parameter_File>
/export/apps/rDock/src/rDock_2013.1_src/data/scripts/dock_solv.prm

>  <Rbt.Receptor>
prm/pocket_docking_7.prm

>  <SCORE>
-12.9147

>  <SCORE.INTER>
-11.2847

>  <SCORE.INTER.CONST>
1

>  <SCORE.INTER.POLAR>
0

>  <SCORE.INTER.ROT>
8

>  <SCORE.INTER.SOLV>
9.79561

>  <SCORE.INTER.VDW>
-19.7217

>  <SCORE.INTER.norm>
-0.434027

>  <SCORE.INTRA>
-1.63002

>  <SCORE.INTRA.DIHEDRAL>
-2.07147

>  <SCORE.INTRA.DIHEDRAL.0>
9.09364

>  <SCORE.INTRA.POLAR>
0

>  <SCORE.INTRA.POLAR.0>
0

>  <SCORE.INTRA.REPUL>
0

>  <SCORE.INTRA.REPUL.0>
0

>  <SCORE.INTRA.SOLV>
2.15071

>  <SCORE.INTRA.SOLV.lig_0>
-78.5846

>  <SCORE.INTRA.VDW>
-1.66964

>  <SCORE.INTRA.VDW.0>
-2.81163

>  <SCORE.INTRA.norm>
-0.0626932

>  <SCORE.RESTR>
0

>  <SCORE.RESTR.CAVITY>
0

>  <SCORE.RESTR.norm>
0

>  <SCORE.SYSTEM>
0

>  <SCORE.SYSTEM.CONST>
0

>  <SCORE.SYSTEM.DIHEDRAL>
0

>  <SCORE.SYSTEM.SOLV>
0

>  <SCORE.SYSTEM.norm>
0

>  <SCORE.heavy>
26

>  <SCORE.norm>
-0.49672

>  <RMSD>
8.284

$$$$
ligand
 OpenBabel11021811463D
libRbt.so/2013.1/901 2013/11/27
 26 27  0  0  0  0  0  0  0  0999 V2000
   -4.6441  -38.1453   11.8991 C   0  0  0  0  0  0  0  0  0  0  0  0
   -4.7755  -46.4637   10.5898 C   0  0  0  0  0  0  0  0  0  0  0  0
   -7.1230  -44.6158    5.0211 P   0  0  1  0  0  0  0  0  0  0  0  0
   -4.5960  -44.9118    3.9867 P   0  0  2  0  0  0  0  0  0  0  0  0
   -5.2186  -43.8459   12.2341 C   0  0  0  0  0  0  0  0  0  0  0  0
   -5.5963  -41.5382   13.1641 C   0  0  0  0  0  0  0  0  0  0  0  0
   -5.0837  -42.3471   12.1454 C   0  0  0  0  0  0  0  0  0  0  0  0
   -4.4111  -41.7781   11.0605 C   0  0  0  0  0  0  0  0  0  0  0  0
   -3.9167  -42.5464   10.1127 N   0  0  0  0  0  0  0  0  0  0  0  0
   -4.2939  -40.4123   10.9724 N   0  0  0  0  0  0  0  0  0  0  0  0
   -4.7907  -39.6226   11.9903 C   0  0  0  0  0  0  0  0  0  0  0  0
   -5.4505  -40.1724   13.0732 N   0  0  0  0  0  0  0  0  0  0  0  0
   -7.9185  -43.3592    4.8409 O   0  5  0  0  0  0  0  0  0  0  0  0
   -3.3930  -44.0584    4.0645 O   0  0  0  0  0  0  0  0  0  0  0  0
   -7.8907  -44.3390    9.5417 S   0  0  0  0  0  0  0  0  0  0  0  0
   -7.1570  -43.6190   10.7441 C   0  0  0  0  0  0  0  0  0  0  0  0
   -7.4746  -45.7417    4.1144 O   0  0  0  0  0  0  0  0  0  0  0  0
   -5.0745  -45.0786    2.6012 O   0  5  0  0  0  0  0  0  0  0  0  0
   -6.0446  -44.3014   11.1502 N   0  0  0  0  0  0  0  0  0  0  0  0
   -5.6277  -44.1141    4.8880 O   0  0  0  0  0  0  0  0  0  0  0  0
   -4.4734  -46.3163    4.4821 O   0  0  0  0  0  0  0  0  0  0  0  0
   -5.8676  -45.4502   10.4316 C   0  0  1  0  0  0  0  0  0  0  0  0
   -6.8614  -45.5641    9.4922 C   0  0  2  0  0  0  0  0  0  0  0  0
   -7.1202  -46.6221    8.4486 C   0  0  0  0  0  0  0  0  0  0  0  0
   -6.7326  -46.1494    7.0429 C   0  0  0  0  0  0  0  0  0  0  0  0
   -7.3340  -44.9687    6.5437 O   0  0  0  0  0  0  0  0  0  0  0  0
  1 11  1  0  0  0  0
  3 13  1  6  0  0  0
  3 17  2  0  0  0  0
  3 20  1  0  0  0  0
  3 26  1  0  0  0  0
  4 14  1  1  0  0  0
  4 18  1  0  0  0  0
  4 21  2  0  0  0  0
  4 20  1  0  0  0  0
  5 19  1  0  0  0  0
  5  7  1  0  0  0  0
  6  7  2  0  0  0  0
  6 12  1  0  0  0  0
  7  8  1  0  0  0  0
  8  9  1  0  0  0  0
  8 10  2  0  0  0  0
 10 11  1  0  0  0  0
 11 12  2  0  0  0  0
 15 23  1  0  0  0  0
 15 16  1  0  0  0  0
 16 19  1  0  0  0  0
 19 22  1  0  0  0  0
 22  2  1  6  0  0  0
 22 23  1  0  0  0  0
 23 24  1  6  0  0  0
 24 25  1  0  0  0  0
 25 26  1  0  0  0  0
M  CHG  2  13  -1  18  -1
M  END
>  <CHROM.1>
-134.07975661,-40.02186325,116.13744569,175.82132420,75.11978289,-56.96230998
-169.99148537,178.20273298,-5.83243807,-43.86873390,8.12965578,-1.42870962
-1.04309509,-1.88838785

>  <Name>
ligand

>  <RI>
0

>  <Rbt.Current_Directory>
/home/itssahil/PROJECTS/Mol_Feturizer/New_Systems/rnas/3D2G

>  <Rbt.Executable>
rbdock ($Id: //depot/dev/client3/rdock/2013.1/src/exe/rbdock.cxx#4 $)

>  <Rbt.Library>
libRbt.so (2013.1, Build901 2013/11/27)

>  <Rbt.Parameter_File>
/export/apps/rDock/src/rDock_2013.1_src/data/scripts/dock_solv.prm

>  <Rbt.Receptor>
prm/pocket_docking_5.prm

>  <SCORE>
-14.0804

>  <SCORE.INTER>
-13.327

>  <SCORE.INTER.CONST>
1

>  <SCORE.INTER.POLAR>
0

>  <SCORE.INTER.ROT>
8

>  <SCORE.INTER.SOLV>
5.61366

>  <SCORE.INTER.VDW>
-19.6892

>  <SCORE.INTER.norm>
-0.512578

>  <SCORE.INTRA>
-0.753406

>  <SCORE.INTRA.DIHEDRAL>
-1.1509

>  <SCORE.INTRA.DIHEDRAL.0>
9.09364

>  <SCORE.INTRA.POLAR>
0

>  <SCORE.INTRA.POLAR.0>
0

>  <SCORE.INTRA.REPUL>
0

>  <SCORE.INTRA.REPUL.0>
0

>  <SCORE.INTRA.SOLV>
1.90522

>  <SCORE.INTRA.SOLV.lig_0>
-78.5846

>  <SCORE.INTRA.VDW>
-1.13057

>  <SCORE.INTRA.VDW.0>
-2.81163

>  <SCORE.INTRA.norm>
-0.0289772

>  <SCORE.RESTR>
0

>  <SCORE.RESTR.CAVITY>
0

>  <SCORE.RESTR.norm>
0

>  <SCORE.SYSTEM>
0

>  <SCORE.SYSTEM.CONST>
0

>  <SCORE.SYSTEM.DIHEDRAL>
0

>  <SCORE.SYSTEM.SOLV>
0

>  <SCORE.SYSTEM.norm>
0

>  <SCORE.heavy>
26

>  <SCORE.norm>
-0.541555

>  <RMSD>
8.290

$$$$
ligand
 OpenBabel11021811463D
libRbt.so/2013.1/901 2013/11/27
 26 27  0  0  0  0  0  0  0  0999 V2000
   -5.9866  -37.3771   11.8845 C   0  0  0  0  0  0  0  0  0  0  0  0
   -4.6046  -45.9379   11.0619 C   0  0  0  0  0  0  0  0  0  0  0  0
   -6.2457  -45.5345    5.4325 P   0  0  1  0  0  0  0  0  0  0  0  0
   -8.2618  -44.8881    3.6832 P   0  0  2  0  0  0  0  0  0  0  0  0
   -4.9621  -43.0195   12.1144 C   0  0  0  0  0  0  0  0  0  0  0  0
   -5.9171  -40.9146   13.1094 C   0  0  0  0  0  0  0  0  0  0  0  0
   -5.2469  -41.5404   12.0539 C   0  0  0  0  0  0  0  0  0  0  0  0
   -4.8036  -40.7969   10.9568 C   0  0  0  0  0  0  0  0  0  0  0  0
   -4.1590  -41.3894    9.9738 N   0  0  0  0  0  0  0  0  0  0  0  0
   -5.0690  -39.4506   10.8947 N   0  0  0  0  0  0  0  0  0  0  0  0
   -5.7187  -38.8387   11.9483 C   0  0  0  0  0  0  0  0  0  0  0  0
   -6.1552  -39.5604   13.0434 N   0  0  0  0  0  0  0  0  0  0  0  0
   -6.3728  -46.9400    4.9297 O   0  5  0  0  0  0  0  0  0  0  0  0
   -9.4873  -44.0813    3.8543 O   0  0  0  0  0  0  0  0  0  0  0  0
   -7.8114  -44.0858    9.7957 S   0  0  0  0  0  0  0  0  0  0  0  0
   -7.0034  -43.1204   10.7536 C   0  0  0  0  0  0  0  0  0  0  0  0
   -5.1237  -44.7408    4.8627 O   0  0  0  0  0  0  0  0  0  0  0  0
   -8.5492  -46.2370    3.1595 O   0  5  0  0  0  0  0  0  0  0  0  0
   -5.8569  -43.7004   11.2199 N   0  0  0  0  0  0  0  0  0  0  0  0
   -7.6806  -44.9257    5.1575 O   0  0  0  0  0  0  0  0  0  0  0  0
   -7.2231  -44.3661    2.7442 O   0  0  0  0  0  0  0  0  0  0  0  0
   -5.7173  -44.9804   10.7622 C   0  0  1  0  0  0  0  0  0  0  0  0
   -6.7735  -45.2954    9.9447 C   0  0  2  0  0  0  0  0  0  0  0  0
   -7.0926  -46.5572    9.1820 C   0  0  0  0  0  0  0  0  0  0  0  0
   -7.2297  -46.2996    7.6771 C   0  0  0  0  0  0  0  0  0  0  0  0
   -6.1362  -45.7123    6.9958 O   0  0  0  0  0  0  0  0  0  0  0  0
  1 11  1  0  0  0  0
  3 13  1  6  0  0  0
  3 17  2  0  0  0  0
  3 20  1  0  0  0  0
  3 26  1  0  0  0  0
  4 14  1  6  0  0  0
  4 18  1  0  0  0  0
  4 21  2  0  0  0  0
  4 20  1  0  0  0  0
  5 19  1  0  0  0  0
  5  7  1  0  0  0  0
  6  7  2  0  0  0  0
  6 12  1  0  0  0  0
  7  8  1  0  0  0  0
  8  9  1  0  0  0  0
  8 10  2  0  0  0  0
 10 11  1  0  0  0  0
 11 12  2  0  0  0  0
 15 23  1  0  0  0  0
 15 16  1  0  0  0  0
 16 19  1  0  0  0  0
 19 22  1  0  0  0  0
 22  2  1  6  0  0  0
 22 23  1  0  0  0  0
 23 24  1  6  0  0  0
 24 25  1  0  0  0  0
 25 26  1  0  0  0  0
M  CHG  2  13  -1  18  -1
M  END
>  <CHROM.1>
-58.92989349,-18.19222679,105.74548000,-171.93968284,57.60527035,57.05456710
176.13446271,-62.03450804,-6.52896043,-43.73415304,8.23033125,0.65346058
-1.30217955,0.11777364

>  <Name>
ligand

>  <RI>
0

>  <Rbt.Current_Directory>
/home/itssahil/PROJECTS/Mol_Feturizer/New_Systems/rnas/3D2G

>  <Rbt.Executable>
rbdock ($Id: //depot/dev/client3/rdock/2013.1/src/exe/rbdock.cxx#4 $)

>  <Rbt.Library>
libRbt.so (2013.1, Build901 2013/11/27)

>  <Rbt.Parameter_File>
/export/apps/rDock/src/rDock_2013.1_src/data/scripts/dock_solv.prm

>  <Rbt.Receptor>
prm/pocket_docking_8.prm

>  <SCORE>
-18.6052

>  <SCORE.INTER>
-17.7409

>  <SCORE.INTER.CONST>
1

>  <SCORE.INTER.POLAR>
0

>  <SCORE.INTER.ROT>
8

>  <SCORE.INTER.SOLV>
8.14566

>  <SCORE.INTER.VDW>
-23.4758

>  <SCORE.INTER.norm>
-0.682343

>  <SCORE.INTRA>
-0.864306

>  <SCORE.INTRA.DIHEDRAL>
-3.40747

>  <SCORE.INTRA.DIHEDRAL.0>
9.09364

>  <SCORE.INTRA.POLAR>
0

>  <SCORE.INTRA.POLAR.0>
0

>  <SCORE.INTRA.REPUL>
0

>  <SCORE.INTRA.REPUL.0>
0

>  <SCORE.INTRA.SOLV>
0.874838

>  <SCORE.INTRA.SOLV.lig_0>
-78.5846

>  <SCORE.INTRA.VDW>
0.40201

>  <SCORE.INTRA.VDW.0>
-2.81163

>  <SCORE.INTRA.norm>
-0.0332426

>  <SCORE.RESTR>
0

>  <SCORE.RESTR.CAVITY>
0

>  <SCORE.RESTR.norm>
0

>  <SCORE.SYSTEM>
0

>  <SCORE.SYSTEM.CONST>
0

>  <SCORE.SYSTEM.DIHEDRAL>
0

>  <SCORE.SYSTEM.SOLV>
0

>  <SCORE.SYSTEM.norm>
0

>  <SCORE.heavy>
26

>  <SCORE.norm>
-0.715586

>  <RMSD>
8.346

$$$$
ligand
 OpenBabel11021811463D
libRbt.so/2013.1/901 2013/11/27
 26 27  0  0  0  0  0  0  0  0999 V2000
    0.2519  -46.4814    7.2243 C   0  0  0  0  0  0  0  0  0  0  0  0
   -5.9526  -43.3713    7.3281 C   0  0  0  0  0  0  0  0  0  0  0  0
   -4.7550  -42.5889   12.2544 P   0  0  1  0  0  0  0  0  0  0  0  0
   -4.9353  -39.8486   12.2894 P   0  0  2  0  0  0  0  0  0  0  0  0
   -5.3415  -46.1254    5.9888 C   0  0  0  0  0  0  0  0  0  0  0  0
   -3.4593  -46.9181    7.4592 C   0  0  0  0  0  0  0  0  0  0  0  0
   -3.8749  -46.2109    6.3270 C   0  0  0  0  0  0  0  0  0  0  0  0
   -2.9362  -45.6126    5.4820 C   0  0  0  0  0  0  0  0  0  0  0  0
   -3.3332  -44.9617    4.4087 N   0  0  0  0  0  0  0  0  0  0  0  0
   -1.5998  -45.6813    5.7919 N   0  0  0  0  0  0  0  0  0  0  0  0
   -1.1979  -46.3940    6.9041 C   0  0  0  0  0  0  0  0  0  0  0  0
   -2.1149  -46.9979    7.7438 N   0  0  0  0  0  0  0  0  0  0  0  0
   -3.6588  -43.5321   11.8627 O   0  5  0  0  0  0  0  0  0  0  0  0
   -5.4555  -39.6115   10.9274 O   0  0  0  0  0  0  0  0  0  0  0  0
   -7.4132  -46.4925    9.1834 S   0  0  0  0  0  0  0  0  0  0  0  0
   -6.6394  -46.9766    7.8914 C   0  0  0  0  0  0  0  0  0  0  0  0
   -5.3692  -42.8267   13.5884 O   0  0  0  0  0  0  0  0  0  0  0  0
   -4.1225  -38.7202   12.7817 O   0  5  0  0  0  0  0  0  0  0  0  0
   -6.0862  -45.9337    7.2026 N   0  0  0  0  0  0  0  0  0  0  0  0
   -4.0780  -41.1674   12.0924 O   0  0  0  0  0  0  0  0  0  0  0  0
   -5.9366  -40.0555   13.3793 O   0  0  0  0  0  0  0  0  0  0  0  0
   -6.3698  -44.7336    7.7914 C   0  0  1  0  0  0  0  0  0  0  0  0
   -7.1171  -44.9409    8.9235 C   0  0  2  0  0  0  0  0  0  0  0  0
   -7.6750  -43.9684    9.9328 C   0  0  0  0  0  0  0  0  0  0  0  0
   -6.7327  -43.7755   11.1264 C   0  0  0  0  0  0  0  0  0  0  0  0
   -5.7912  -42.7193   11.0726 O   0  0  0  0  0  0  0  0  0  0  0  0
  1 11  1  0  0  0  0
  3 13  1  6  0  0  0
  3 17  2  0  0  0  0
  3 20  1  0  0  0  0
  3 26  1  0  0  0  0
  4 14  1  6  0  0  0
  4 18  1  0  0  0  0
  4 21  2  0  0  0  0
  4 20  1  0  0  0  0
  5 19  1  0  0  0  0
  5  7  1  0  0  0  0
  6  7  2  0  0  0  0
  6 12  1  0  0  0  0
  7  8  1  0  0  0  0
  8  9  1  0  0  0  0
  8 10  2  0  0  0  0
 10 11  1  0  0  0  0
 11 12  2  0  0  0  0
 15 23  1  0  0  0  0
 15 16  1  0  0  0  0
 16 19  1  0  0  0  0
 19 22  1  0  0  0  0
 22  2  1  1  0  0  0
 22 23  1  0  0  0  0
 23 24  1  1  0  0  0
 24 25  1  0  0  0  0
 25 26  1  0  0  0  0
M  CHG  2  13  -1  18  -1
M  END
>  <CHROM.1>
174.72366642,-94.68781330,40.50832995,-88.81912137,85.94866372,92.26859675
-175.64123095,84.47751358,-4.81655527,-43.81712070,9.53044786,-1.37265560
0.25911169,0.77018649

>  <Name>
ligand

>  <RI>
0

>  <Rbt.Current_Directory>
/home/itssahil/PROJECTS/Mol_Feturizer/New_Systems/rnas/3D2G

>  <Rbt.Executable>
rbdock ($Id: //depot/dev/client3/rdock/2013.1/src/exe/rbdock.cxx#4 $)

>  <Rbt.Library>
libRbt.so (2013.1, Build901 2013/11/27)

>  <Rbt.Parameter_File>
/export/apps/rDock/src/rDock_2013.1_src/data/scripts/dock_solv.prm

>  <Rbt.Receptor>
prm/pocket_docking_8.prm

>  <SCORE>
-13.637

>  <SCORE.INTER>
-11.8004

>  <SCORE.INTER.CONST>
1

>  <SCORE.INTER.POLAR>
0

>  <SCORE.INTER.ROT>
8

>  <SCORE.INTER.SOLV>
12.689

>  <SCORE.INTER.VDW>
-21.0299

>  <SCORE.INTER.norm>
-0.45386

>  <SCORE.INTRA>
-1.83665

>  <SCORE.INTRA.DIHEDRAL>
0.584384

>  <SCORE.INTRA.DIHEDRAL.0>
9.09364

>  <SCORE.INTRA.POLAR>
0

>  <SCORE.INTRA.POLAR.0>
0

>  <SCORE.INTRA.REPUL>
0

>  <SCORE.INTRA.REPUL.0>
0

>  <SCORE.INTRA.SOLV>
-2.05734

>  <SCORE.INTRA.SOLV.lig_0>
-78.5846

>  <SCORE.INTRA.VDW>
-1.10017

>  <SCORE.INTRA.VDW.0>
-2.81163

>  <SCORE.INTRA.norm>
-0.0706402

>  <SCORE.RESTR>
0

>  <SCORE.RESTR.CAVITY>
0

>  <SCORE.RESTR.norm>
0

>  <SCORE.SYSTEM>
0

>  <SCORE.SYSTEM.CONST>
0

>  <SCORE.SYSTEM.DIHEDRAL>
0

>  <SCORE.SYSTEM.SOLV>
0

>  <SCORE.SYSTEM.norm>
0

>  <SCORE.heavy>
26

>  <SCORE.norm>
-0.5245

>  <RMSD>
8.348

$$$$
ligand
 OpenBabel11021811463D
libRbt.so/2013.1/901 2013/11/27
 26 27  0  0  0  0  0  0  0  0999 V2000
   -0.5862  -42.7584   11.3133 C   0  0  0  0  0  0  0  0  0  0  0  0
   -6.9647  -43.1892    8.5291 C   0  0  0  0  0  0  0  0  0  0  0  0
   -4.3110  -43.6600    5.7780 P   0  0  1  0  0  0  0  0  0  0  0  0
   -2.0851  -44.0918    7.3278 P   0  0  2  0  0  0  0  0  0  0  0  0
   -6.1660  -44.0991   11.4077 C   0  0  0  0  0  0  0  0  0  0  0  0
   -3.7647  -44.7058   10.9616 C   0  0  0  0  0  0  0  0  0  0  0  0
   -4.6975  -43.7583   11.3939 C   0  0  0  0  0  0  0  0  0  0  0  0
   -4.2824  -42.4804   11.7784 C   0  0  0  0  0  0  0  0  0  0  0  0
   -5.1674  -41.5876   12.1691 N   0  0  0  0  0  0  0  0  0  0  0  0
   -2.9444  -42.1695   11.7751 N   0  0  0  0  0  0  0  0  0  0  0  0
   -2.0320  -43.1069   11.3330 C   0  0  0  0  0  0  0  0  0  0  0  0
   -2.4295  -44.3716   10.9418 N   0  0  0  0  0  0  0  0  0  0  0  0
   -4.2572  -42.2044    6.1281 O   0  5  0  0  0  0  0  0  0  0  0  0
   -2.1052  -42.7124    7.8559 O   0  0  0  0  0  0  0  0  0  0  0  0
   -6.7145  -47.0602    9.0492 S   0  0  0  0  0  0  0  0  0  0  0  0
   -6.3630  -46.3338   10.4098 C   0  0  0  0  0  0  0  0  0  0  0  0
   -3.7234  -44.0330    4.4631 O   0  0  0  0  0  0  0  0  0  0  0  0
   -1.2438  -44.2167    6.1224 O   0  5  0  0  0  0  0  0  0  0  0  0
   -6.4488  -44.9739   10.3036 N   0  0  0  0  0  0  0  0  0  0  0  0
   -3.6185  -44.3523    7.0216 O   0  0  0  0  0  0  0  0  0  0  0  0
   -1.5611  -45.1630    8.2283 O   0  0  0  0  0  0  0  0  0  0  0  0
   -6.7875  -44.5875    9.0373 C   0  0  1  0  0  0  0  0  0  0  0  0
   -6.9622  -45.6964    8.2482 C   0  0  2  0  0  0  0  0  0  0  0  0
   -7.3486  -45.8267    6.7958 C   0  0  0  0  0  0  0  0  0  0  0  0
   -6.2242  -45.3704    5.8592 C   0  0  0  0  0  0  0  0  0  0  0  0
   -5.8463  -44.0059    5.8813 O   0  0  0  0  0  0  0  0  0  0  0  0
  1 11  1  0  0  0  0
  3 13  1  1  0  0  0
  3 17  2  0  0  0  0
  3 20  1  0  0  0  0
  3 26  1  0  0  0  0
  4 14  1  1  0  0  0
  4 18  1  0  0  0  0
  4 21  2  0  0  0  0
  4 20  1  0  0  0  0
  5 19  1  0  0  0  0
  5  7  1  0  0  0  0
  6  7  2  0  0  0  0
  6 12  1  0  0  0  0
  7  8  1  0  0  0  0
  8  9  1  0  0  0  0
  8 10  2  0  0  0  0
 10 11  1  0  0  0  0
 11 12  2  0  0  0  0
 15 23  1  0  0  0  0
 15 16  1  0  0  0  0
 16 19  1  0  0  0  0
 19 22  1  0  0  0  0
 22  2  1  1  0  0  0
 22 23  1  0  0  0  0
 23 24  1  1  0  0  0
 24 25  1  0  0  0  0
 25 26  1  0  0  0  0
M  CHG  2  13  -1  18  -1
M  END
>  <CHROM.1>
-65.20121811,89.46269391,-34.00135181,73.58354784,-109.59480775,-65.10611395
140.14649493,-168.15979735,-4.34775227,-44.18236368,8.54686912,-1.26852690
-0.42092726,-1.69217096

>  <Name>
ligand

>  <RI>
0

>  <Rbt.Current_Directory>
/home/itssahil/PROJECTS/Mol_Feturizer/New_Systems/rnas/3D2G

>  <Rbt.Executable>
rbdock ($Id: //depot/dev/client3/rdock/2013.1/src/exe/rbdock.cxx#4 $)

>  <Rbt.Library>
libRbt.so (2013.1, Build901 2013/11/27)

>  <Rbt.Parameter_File>
/export/apps/rDock/src/rDock_2013.1_src/data/scripts/dock_solv.prm

>  <Rbt.Receptor>
prm/pocket_docking_5.prm

>  <SCORE>
-10.9456

>  <SCORE.INTER>
-8.736

>  <SCORE.INTER.CONST>
1

>  <SCORE.INTER.POLAR>
0

>  <SCORE.INTER.ROT>
8

>  <SCORE.INTER.SOLV>
7.23759

>  <SCORE.INTER.VDW>
-17.1699

>  <SCORE.INTER.norm>
-0.336

>  <SCORE.INTRA>
-2.20958

>  <SCORE.INTRA.DIHEDRAL>
1.50928

>  <SCORE.INTRA.DIHEDRAL.0>
9.09364

>  <SCORE.INTRA.POLAR>
0

>  <SCORE.INTRA.POLAR.0>
0

>  <SCORE.INTRA.REPUL>
0

>  <SCORE.INTRA.REPUL.0>
0

>  <SCORE.INTRA.SOLV>
0.340309

>  <SCORE.INTRA.SOLV.lig_0>
-78.5846

>  <SCORE.INTRA.VDW>
-3.13437

>  <SCORE.INTRA.VDW.0>
-2.81163

>  <SCORE.INTRA.norm>
-0.0849838

>  <SCORE.RESTR>
0

>  <SCORE.RESTR.CAVITY>
0

>  <SCORE.RESTR.norm>
0

>  <SCORE.SYSTEM>
0

>  <SCORE.SYSTEM.CONST>
0

>  <SCORE.SYSTEM.DIHEDRAL>
0

>  <SCORE.SYSTEM.SOLV>
0

>  <SCORE.SYSTEM.norm>
0

>  <SCORE.heavy>
26

>  <SCORE.norm>
-0.420984

>  <RMSD>
8.358

$$$$
ligand
 OpenBabel11021811463D
libRbt.so/2013.1/901 2013/11/27
 26 27  0  0  0  0  0  0  0  0999 V2000
   -8.7828  -35.2574   11.6032 C   0  0  0  0  0  0  0  0  0  0  0  0
   -3.1635  -39.0936   12.6951 C   0  0  0  0  0  0  0  0  0  0  0  0
   -4.6434  -41.8595    9.5883 P   0  0  1  0  0  0  0  0  0  0  0  0
   -5.8690  -42.9369   11.7973 P   0  0  2  0  0  0  0  0  0  0  0  0
   -3.2998  -36.0036   13.1261 C   0  0  0  0  0  0  0  0  0  0  0  0
   -5.4858  -36.9043   12.2639 C   0  0  0  0  0  0  0  0  0  0  0  0
   -4.7363  -35.8119   12.7111 C   0  0  0  0  0  0  0  0  0  0  0  0
   -5.3208  -34.5466   12.8132 C   0  0  0  0  0  0  0  0  0  0  0  0
   -4.6142  -33.5254   13.2503 N   0  0  0  0  0  0  0  0  0  0  0  0
   -6.6269  -34.3669   12.4278 N   0  0  0  0  0  0  0  0  0  0  0  0
   -7.3633  -35.4542   12.0012 C   0  0  0  0  0  0  0  0  0  0  0  0
   -6.8004  -36.7128   11.9034 N   0  0  0  0  0  0  0  0  0  0  0  0
   -3.9941  -42.4851    8.3918 O   0  5  0  0  0  0  0  0  0  0  0  0
   -7.2188  -43.0640   11.2111 O   0  0  0  0  0  0  0  0  0  0  0  0
   -1.2434  -36.9499   10.0427 S   0  0  0  0  0  0  0  0  0  0  0  0
   -1.9204  -35.9820   11.0949 C   0  0  0  0  0  0  0  0  0  0  0  0
   -5.8302  -41.0065    9.3102 O   0  0  0  0  0  0  0  0  0  0  0  0
   -5.6725  -41.6399   12.4722 O   0  5  0  0  0  0  0  0  0  0  0  0
   -2.5959  -36.6687   12.0647 N   0  0  0  0  0  0  0  0  0  0  0  0
   -4.9378  -43.1009   10.5249 O   0  0  0  0  0  0  0  0  0  0  0  0
   -5.4782  -43.9329   12.8406 O   0  0  0  0  0  0  0  0  0  0  0  0
   -2.5389  -38.0185   11.8592 C   0  0  1  0  0  0  0  0  0  0  0  0
   -1.7934  -38.2830   10.7379 C   0  0  2  0  0  0  0  0  0  0  0  0
   -1.4153  -39.5900   10.0864 C   0  0  0  0  0  0  0  0  0  0  0  0
   -2.6228  -40.2820    9.4439 C   0  0  0  0  0  0  0  0  0  0  0  0
   -3.4654  -41.0636   10.2711 O   0  0  0  0  0  0  0  0  0  0  0  0
  1 11  1  0  0  0  0
  3 13  1  6  0  0  0
  3 17  2  0  0  0  0
  3 20  1  0  0  0  0
  3 26  1  0  0  0  0
  4 14  1  6  0  0  0
  4 18  1  0  0  0  0
  4 21  2  0  0  0  0
  4 20  1  0  0  0  0
  5 19  1  0  0  0  0
  5  7  1  0  0  0  0
  6  7  2  0  0  0  0
  6 12  1  0  0  0  0
  7  8  1  0  0  0  0
  8  9  1  0  0  0  0
  8 10  2  0  0  0  0
 10 11  1  0  0  0  0
 11 12  2  0  0  0  0
 15 23  1  0  0  0  0
 15 16  1  0  0  0  0
 16 19  1  0  0  0  0
 19 22  1  0  0  0  0
 22  2  1  1  0  0  0
 22 23  1  0  0  0  0
 23 24  1  1  0  0  0
 24 25  1  0  0  0  0
 25 26  1  0  0  0  0
M  CHG  2  13  -1  18  -1
M  END
>  <CHROM.1>
-168.57487266,92.84490165,52.75610391,83.01574763,-110.97364079,-82.93882249
-175.55520825,45.34109657,-4.47770200,-39.05827346,11.25174613,1.50613842
0.31824496,0.21813892

>  <Name>
ligand

>  <RI>
0

>  <Rbt.Current_Directory>
/home/itssahil/PROJECTS/Mol_Feturizer/New_Systems/rnas/3D2G

>  <Rbt.Executable>
rbdock ($Id: //depot/dev/client3/rdock/2013.1/src/exe/rbdock.cxx#4 $)

>  <Rbt.Library>
libRbt.so (2013.1, Build901 2013/11/27)

>  <Rbt.Parameter_File>
/export/apps/rDock/src/rDock_2013.1_src/data/scripts/dock_solv.prm

>  <Rbt.Receptor>
prm/blind_docking_80.prm

>  <SCORE>
-16.1748

>  <SCORE.INTER>
-14.1799

>  <SCORE.INTER.CONST>
1

>  <SCORE.INTER.POLAR>
0

>  <SCORE.INTER.ROT>
8

>  <SCORE.INTER.SOLV>
12.4186

>  <SCORE.INTER.VDW>
-22.5262

>  <SCORE.INTER.norm>
-0.545383

>  <SCORE.INTRA>
-2.00178

>  <SCORE.INTRA.DIHEDRAL>
-0.715367

>  <SCORE.INTRA.DIHEDRAL.0>
9.09364

>  <SCORE.INTRA.POLAR>
0

>  <SCORE.INTRA.POLAR.0>
0

>  <SCORE.INTRA.REPUL>
0

>  <SCORE.INTRA.REPUL.0>
0

>  <SCORE.INTRA.SOLV>
-1.81858

>  <SCORE.INTRA.SOLV.lig_0>
-78.5846

>  <SCORE.INTRA.VDW>
-0.734804

>  <SCORE.INTRA.VDW.0>
-2.81163

>  <SCORE.INTRA.norm>
-0.0769915

>  <SCORE.RESTR>
0.0068954

>  <SCORE.RESTR.CAVITY>
0.0068954

>  <SCORE.RESTR.norm>
0.000265208

>  <SCORE.SYSTEM>
0

>  <SCORE.SYSTEM.CONST>
0

>  <SCORE.SYSTEM.DIHEDRAL>
0

>  <SCORE.SYSTEM.SOLV>
0

>  <SCORE.SYSTEM.norm>
0

>  <SCORE.heavy>
26

>  <SCORE.norm>
-0.622109

>  <RMSD>
8.359

$$$$
ligand
 OpenBabel11021811463D
libRbt.so/2013.1/901 2013/11/27
 26 27  0  0  0  0  0  0  0  0999 V2000
   -5.7070  -46.6136    3.2014 C   0  0  0  0  0  0  0  0  0  0  0  0
   -7.2026  -46.4602    9.6037 C   0  0  0  0  0  0  0  0  0  0  0  0
   -7.1785  -41.8942    8.4584 P   0  0  1  0  0  0  0  0  0  0  0  0
   -8.7398  -39.8380    7.5218 P   0  0  2  0  0  0  0  0  0  0  0  0
   -4.4644  -47.6633    8.7053 C   0  0  0  0  0  0  0  0  0  0  0  0
   -6.1332  -47.3388    6.8498 C   0  0  0  0  0  0  0  0  0  0  0  0
   -4.7976  -47.4020    7.2585 C   0  0  0  0  0  0  0  0  0  0  0  0
   -3.7656  -47.1865    6.3411 C   0  0  0  0  0  0  0  0  0  0  0  0
   -2.5105  -47.2316    6.7355 N   0  0  0  0  0  0  0  0  0  0  0  0
   -4.0657  -46.9567    5.0205 N   0  0  0  0  0  0  0  0  0  0  0  0
   -5.3876  -46.8817    4.6290 C   0  0  0  0  0  0  0  0  0  0  0  0
   -6.4184  -47.0844    5.5274 N   0  0  0  0  0  0  0  0  0  0  0  0
   -7.0230  -42.0608    6.9777 O   0  5  0  0  0  0  0  0  0  0  0  0
   -9.3398  -40.5895    6.4006 O   0  0  0  0  0  0  0  0  0  0  0  0
   -4.0451  -44.4092   10.6717 S   0  0  0  0  0  0  0  0  0  0  0  0
   -3.5798  -45.6900    9.8683 C   0  0  0  0  0  0  0  0  0  0  0  0
   -5.9878  -41.3709    9.1808 O   0  0  0  0  0  0  0  0  0  0  0  0
   -7.5041  -39.1359    7.1265 O   0  5  0  0  0  0  0  0  0  0  0  0
   -4.6384  -46.4456    9.4478 N   0  0  0  0  0  0  0  0  0  0  0  0
   -8.4680  -40.9847    8.5821 O   0  0  0  0  0  0  0  0  0  0  0  0
   -9.5664  -38.7601    8.1447 O   0  0  0  0  0  0  0  0  0  0  0  0
   -5.8299  -45.9157    9.8565 C   0  0  1  0  0  0  0  0  0  0  0  0
   -5.6033  -44.7581   10.5576 C   0  0  2  0  0  0  0  0  0  0  0  0
   -6.5615  -43.7903   11.2063 C   0  0  0  0  0  0  0  0  0  0  0  0
   -7.7964  -43.5338   10.3351 C   0  0  0  0  0  0  0  0  0  0  0  0
   -7.6064  -43.3316    8.9466 O   0  0  0  0  0  0  0  0  0  0  0  0
  1 11  1  0  0  0  0
  3 13  1  6  0  0  0
  3 17  2  0  0  0  0
  3 20  1  0  0  0  0
  3 26  1  0  0  0  0
  4 14  1  6  0  0  0
  4 18  1  0  0  0  0
  4 21  2  0  0  0  0
  4 20  1  0  0  0  0
  5 19  1  0  0  0  0
  5  7  1  0  0  0  0
  6  7  2  0  0  0  0
  6 12  1  0  0  0  0
  7  8  1  0  0  0  0
  8  9  1  0  0  0  0
  8 10  2  0  0  0  0
 10 11  1  0  0  0  0
 11 12  2  0  0  0  0
 15 23  1  0  0  0  0
 15 16  1  0  0  0  0
 16 19  1  0  0  0  0
 19 22  1  0  0  0  0
 22  2  1  6  0  0  0
 22 23  1  0  0  0  0
 23 24  1  6  0  0  0
 24 25  1  0  0  0  0
 25 26  1  0  0  0  0
M  CHG  2  13  -1  18  -1
M  END
>  <CHROM.1>
-36.54567556,-104.36402282,-78.46525036,81.41828181,138.44755205,-43.49209163
-81.68249678,177.96347784,-6.30539575,-43.90270298,8.07865093,0.39226535
1.00748919,-1.91373300

>  <Name>
ligand

>  <RI>
0

>  <Rbt.Current_Directory>
/home/itssahil/PROJECTS/Mol_Feturizer/New_Systems/rnas/3D2G

>  <Rbt.Executable>
rbdock ($Id: //depot/dev/client3/rdock/2013.1/src/exe/rbdock.cxx#4 $)

>  <Rbt.Library>
libRbt.so (2013.1, Build901 2013/11/27)

>  <Rbt.Parameter_File>
/export/apps/rDock/src/rDock_2013.1_src/data/scripts/dock_solv.prm

>  <Rbt.Receptor>
prm/pocket_docking_6.prm

>  <SCORE>
-12.0212

>  <SCORE.INTER>
-12.3866

>  <SCORE.INTER.CONST>
1

>  <SCORE.INTER.POLAR>
0

>  <SCORE.INTER.ROT>
8

>  <SCORE.INTER.SOLV>
15.0877

>  <SCORE.INTER.VDW>
-22.2203

>  <SCORE.INTER.norm>
-0.476407

>  <SCORE.INTRA>
0.365385

>  <SCORE.INTRA.DIHEDRAL>
0.734991

>  <SCORE.INTRA.DIHEDRAL.0>
9.09364

>  <SCORE.INTRA.POLAR>
0

>  <SCORE.INTRA.POLAR.0>
0

>  <SCORE.INTRA.REPUL>
0

>  <SCORE.INTRA.REPUL.0>
0

>  <SCORE.INTRA.SOLV>
-0.237264

>  <SCORE.INTRA.SOLV.lig_0>
-78.5846

>  <SCORE.INTRA.VDW>
0.116521

>  <SCORE.INTRA.VDW.0>
-2.81163

>  <SCORE.INTRA.norm>
0.0140533

>  <SCORE.RESTR>
0

>  <SCORE.RESTR.CAVITY>
0

>  <SCORE.RESTR.norm>
0

>  <SCORE.SYSTEM>
0

>  <SCORE.SYSTEM.CONST>
0

>  <SCORE.SYSTEM.DIHEDRAL>
0

>  <SCORE.SYSTEM.SOLV>
0

>  <SCORE.SYSTEM.norm>
0

>  <SCORE.heavy>
26

>  <SCORE.norm>
-0.462354

>  <RMSD>
8.360

$$$$
ligand
 OpenBabel11021811463D
libRbt.so/2013.1/901 2013/11/27
 26 27  0  0  0  0  0  0  0  0999 V2000
   -0.8070  -38.2257    9.9244 C   0  0  0  0  0  0  0  0  0  0  0  0
   -6.6030  -42.9653   10.1608 C   0  0  0  0  0  0  0  0  0  0  0  0
   -2.8917  -45.8383    7.8917 P   0  0  1  0  0  0  0  0  0  0  0  0
   -0.6287  -47.3510    7.5261 P   0  0  2  0  0  0  0  0  0  0  0  0
   -5.3504  -40.9236   12.1645 C   0  0  0  0  0  0  0  0  0  0  0  0
   -3.6799  -40.5955   10.3112 C   0  0  0  0  0  0  0  0  0  0  0  0
   -4.1488  -40.2287   11.5763 C   0  0  0  0  0  0  0  0  0  0  0  0
   -3.5343  -39.1937   12.2864 C   0  0  0  0  0  0  0  0  0  0  0  0
   -3.9908  -38.8425   13.4702 N   0  0  0  0  0  0  0  0  0  0  0  0
   -2.4341  -38.5644   11.7570 N   0  0  0  0  0  0  0  0  0  0  0  0
   -1.9871  -38.9236   10.5010 C   0  0  0  0  0  0  0  0  0  0  0  0
   -2.5905  -39.9396    9.7840 N   0  0  0  0  0  0  0  0  0  0  0  0
   -3.0286  -44.3955    7.5123 O   0  5  0  0  0  0  0  0  0  0  0  0
   -1.2147  -48.3712    8.4192 O   0  0  0  0  0  0  0  0  0  0  0  0
   -4.1782  -44.5054   12.8190 S   0  0  0  0  0  0  0  0  0  0  0  0
   -4.2663  -42.9424   13.0465 C   0  0  0  0  0  0  0  0  0  0  0  0
   -3.5410  -46.8142    6.9756 O   0  0  0  0  0  0  0  0  0  0  0  0
    0.8412  -47.2899    7.6357 O   0  5  0  0  0  0  0  0  0  0  0  0
   -5.1144  -42.3409   12.1593 N   0  0  0  0  0  0  0  0  0  0  0  0
   -1.3264  -46.0224    8.0371 O   0  0  0  0  0  0  0  0  0  0  0  0
   -0.8602  -47.5104    6.0584 O   0  0  0  0  0  0  0  0  0  0  0  0
   -5.6472  -43.2419   11.2809 C   0  0  1  0  0  0  0  0  0  0  0  0
   -5.1803  -44.4994   11.5706 C   0  0  2  0  0  0  0  0  0  0  0  0
   -5.4630  -45.8331   10.9248 C   0  0  0  0  0  0  0  0  0  0  0  0
   -4.8853  -45.9189    9.5075 C   0  0  0  0  0  0  0  0  0  0  0  0
   -3.4779  -45.8903    9.3549 O   0  0  0  0  0  0  0  0  0  0  0  0
  1 11  1  0  0  0  0
  3 13  1  6  0  0  0
  3 17  2  0  0  0  0
  3 20  1  0  0  0  0
  3 26  1  0  0  0  0
  4 14  1  1  0  0  0
  4 18  1  0  0  0  0
  4 21  2  0  0  0  0
  4 20  1  0  0  0  0
  5 19  1  0  0  0  0
  5  7  1  0  0  0  0
  6  7  2  0  0  0  0
  6 12  1  0  0  0  0
  7  8  1  0  0  0  0
  8  9  1  0  0  0  0
  8 10  2  0  0  0  0
 10 11  1  0  0  0  0
 11 12  2  0  0  0  0
 15 23  1  0  0  0  0
 15 16  1  0  0  0  0
 16 19  1  0  0  0  0
 19 22  1  0  0  0  0
 22  2  1  1  0  0  0
 22 23  1  0  0  0  0
 23 24  1  1  0  0  0
 24 25  1  0  0  0  0
 25 26  1  0  0  0  0
M  CHG  2  13  -1  18  -1
M  END
>  <CHROM.1>
-140.77191067,74.75981775,54.33633278,-64.65350329,-112.49140474,65.77262430
-174.20763392,79.69656939,-3.14605979,-43.82679172,9.89833343,-1.90804320
-0.65674463,-2.80760302

>  <Name>
ligand

>  <RI>
0

>  <Rbt.Current_Directory>
/home/itssahil/PROJECTS/Mol_Feturizer/New_Systems/rnas/3D2G

>  <Rbt.Executable>
rbdock ($Id: //depot/dev/client3/rdock/2013.1/src/exe/rbdock.cxx#4 $)

>  <Rbt.Library>
libRbt.so (2013.1, Build901 2013/11/27)

>  <Rbt.Parameter_File>
/export/apps/rDock/src/rDock_2013.1_src/data/scripts/dock_solv.prm

>  <Rbt.Receptor>
prm/pocket_docking_6.prm

>  <SCORE>
-13.1687

>  <SCORE.INTER>
-9.88486

>  <SCORE.INTER.CONST>
1

>  <SCORE.INTER.POLAR>
0

>  <SCORE.INTER.ROT>
8

>  <SCORE.INTER.SOLV>
11.8538

>  <SCORE.INTER.VDW>
-19.4745

>  <SCORE.INTER.norm>
-0.380187

>  <SCORE.INTRA>
-3.28385

>  <SCORE.INTRA.DIHEDRAL>
-1.89574

>  <SCORE.INTRA.DIHEDRAL.0>
9.09364

>  <SCORE.INTRA.POLAR>
0

>  <SCORE.INTRA.POLAR.0>
0

>  <SCORE.INTRA.REPUL>
0

>  <SCORE.INTRA.REPUL.0>
0

>  <SCORE.INTRA.SOLV>
-2.61729

>  <SCORE.INTRA.SOLV.lig_0>
-78.5846

>  <SCORE.INTRA.VDW>
-1.02733

>  <SCORE.INTRA.VDW.0>
-2.81163

>  <SCORE.INTRA.norm>
-0.126302

>  <SCORE.RESTR>
0

>  <SCORE.RESTR.CAVITY>
0

>  <SCORE.RESTR.norm>
0

>  <SCORE.SYSTEM>
0

>  <SCORE.SYSTEM.CONST>
0

>  <SCORE.SYSTEM.DIHEDRAL>
0

>  <SCORE.SYSTEM.SOLV>
0

>  <SCORE.SYSTEM.norm>
0

>  <SCORE.heavy>
26

>  <SCORE.norm>
-0.506489

>  <RMSD>
8.362

$$$$
ligand
 OpenBabel11021811463D
libRbt.so/2013.1/901 2013/11/27
 26 27  0  0  0  0  0  0  0  0999 V2000
   -0.6478  -42.6728   11.3456 C   0  0  0  0  0  0  0  0  0  0  0  0
   -7.0594  -43.2095    8.5701 C   0  0  0  0  0  0  0  0  0  0  0  0
   -4.3787  -43.5868    5.2401 P   0  0  1  0  0  0  0  0  0  0  0  0
   -2.5743  -44.1552    7.2312 P   0  0  2  0  0  0  0  0  0  0  0  0
   -6.1774  -44.2093   11.3941 C   0  0  0  0  0  0  0  0  0  0  0  0
   -3.7553  -44.7220   10.9424 C   0  0  0  0  0  0  0  0  0  0  0  0
   -4.7218  -43.8172   11.3921 C   0  0  0  0  0  0  0  0  0  0  0  0
   -4.3524  -42.5343   11.8054 C   0  0  0  0  0  0  0  0  0  0  0  0
   -5.2690  -41.6816   12.2125 N   0  0  0  0  0  0  0  0  0  0  0  0
   -3.0261  -42.1769   11.8128 N   0  0  0  0  0  0  0  0  0  0  0  0
   -2.0805  -43.0720   11.3534 C   0  0  0  0  0  0  0  0  0  0  0  0
   -2.4326  -44.3410   10.9338 N   0  0  0  0  0  0  0  0  0  0  0  0
   -4.9019  -42.3568    5.9167 O   0  5  0  0  0  0  0  0  0  0  0  0
   -3.4290  -43.2599    8.0372 O   0  0  0  0  0  0  0  0  0  0  0  0
   -6.6158  -47.0833    8.9082 S   0  0  0  0  0  0  0  0  0  0  0  0
   -6.2806  -46.4033   10.2966 C   0  0  0  0  0  0  0  0  0  0  0  0
   -4.5201  -43.6226    3.7596 O   0  0  0  0  0  0  0  0  0  0  0  0
   -1.1459  -44.0244    7.5762 O   0  5  0  0  0  0  0  0  0  0  0  0
   -6.4333  -45.0457   10.2542 N   0  0  0  0  0  0  0  0  0  0  0  0
   -2.8840  -43.6690    5.7545 O   0  0  0  0  0  0  0  0  0  0  0  0
   -2.8241  -45.6243    7.3418 O   0  0  0  0  0  0  0  0  0  0  0  0
   -6.8080  -44.6191    9.0112 C   0  0  1  0  0  0  0  0  0  0  0  0
   -6.9402  -45.6983    8.1739 C   0  0  2  0  0  0  0  0  0  0  0  0
   -7.3402  -45.7810    6.7218 C   0  0  0  0  0  0  0  0  0  0  0  0
   -6.5669  -44.7807    5.8551 C   0  0  0  0  0  0  0  0  0  0  0  0
   -5.1547  -44.7581    5.9565 O   0  0  0  0  0  0  0  0  0  0  0  0
  1 11  1  0  0  0  0
  3 13  1  1  0  0  0
  3 17  2  0  0  0  0
  3 20  1  0  0  0  0
  3 26  1  0  0  0  0
  4 14  1  1  0  0  0
  4 18  1  0  0  0  0
  4 21  2  0  0  0  0
  4 20  1  0  0  0  0
  5 19  1  0  0  0  0
  5  7  1  0  0  0  0
  6  7  2  0  0  0  0
  6 12  1  0  0  0  0
  7  8  1  0  0  0  0
  8  9  1  0  0  0  0
  8 10  2  0  0  0  0
 10 11  1  0  0  0  0
 11 12  2  0  0  0  0
 15 23  1  0  0  0  0
 15 16  1  0  0  0  0
 16 19  1  0  0  0  0
 19 22  1  0  0  0  0
 22  2  1  1  0  0  0
 22 23  1  0  0  0  0
 23 24  1  1  0  0  0
 24 25  1  0  0  0  0
 25 26  1  0  0  0  0
M  CHG  2  13  -1  18  -1
M  END
>  <CHROM.1>
75.26562581,88.46314798,-35.23818495,-53.22478245,-131.92756525,51.22338126
-170.66033671,61.29796281,-4.50158147,-44.19789144,8.43209951,-1.34210348
-0.46389436,-1.63342211

>  <Name>
ligand

>  <RI>
0

>  <Rbt.Current_Directory>
/home/itssahil/PROJECTS/Mol_Feturizer/New_Systems/rnas/3D2G

>  <Rbt.Executable>
rbdock ($Id: //depot/dev/client3/rdock/2013.1/src/exe/rbdock.cxx#4 $)

>  <Rbt.Library>
libRbt.so (2013.1, Build901 2013/11/27)

>  <Rbt.Parameter_File>
/export/apps/rDock/src/rDock_2013.1_src/data/scripts/dock_solv.prm

>  <Rbt.Receptor>
prm/pocket_docking_7.prm

>  <SCORE>
-13.325

>  <SCORE.INTER>
-8.74488

>  <SCORE.INTER.CONST>
1

>  <SCORE.INTER.POLAR>
0

>  <SCORE.INTER.ROT>
8

>  <SCORE.INTER.SOLV>
6.76795

>  <SCORE.INTER.VDW>
-17.0192

>  <SCORE.INTER.norm>
-0.336341

>  <SCORE.INTRA>
-4.58011

>  <SCORE.INTRA.DIHEDRAL>
-2.8933

>  <SCORE.INTRA.DIHEDRAL.0>
9.09364

>  <SCORE.INTRA.POLAR>
0

>  <SCORE.INTRA.POLAR.0>
0

>  <SCORE.INTRA.REPUL>
0

>  <SCORE.INTRA.REPUL.0>
0

>  <SCORE.INTRA.SOLV>
-0.768016

>  <SCORE.INTRA.SOLV.lig_0>
-78.5846

>  <SCORE.INTRA.VDW>
-2.74946

>  <SCORE.INTRA.VDW.0>
-2.81163

>  <SCORE.INTRA.norm>
-0.176158

>  <SCORE.RESTR>
0

>  <SCORE.RESTR.CAVITY>
0

>  <SCORE.RESTR.norm>
0

>  <SCORE.SYSTEM>
0

>  <SCORE.SYSTEM.CONST>
0

>  <SCORE.SYSTEM.DIHEDRAL>
0

>  <SCORE.SYSTEM.SOLV>
0

>  <SCORE.SYSTEM.norm>
0

>  <SCORE.heavy>
26

>  <SCORE.norm>
-0.5125

>  <RMSD>
8.363

$$$$
ligand
 OpenBabel11021811463D
libRbt.so/2013.1/901 2013/11/27
 26 27  0  0  0  0  0  0  0  0999 V2000
   -6.2988  -45.3545   11.4670 C   0  0  0  0  0  0  0  0  0  0  0  0
   -5.0807  -44.2394    4.6570 C   0  0  0  0  0  0  0  0  0  0  0  0
   -9.1237  -39.9226    5.5329 P   0  0  1  0  0  0  0  0  0  0  0  0
   -7.7732  -37.8012    6.6368 P   0  0  2  0  0  0  0  0  0  0  0  0
   -6.4082  -46.7745    5.9072 C   0  0  0  0  0  0  0  0  0  0  0  0
   -7.5875  -46.1948    8.0535 C   0  0  0  0  0  0  0  0  0  0  0  0
   -6.3864  -46.3876    7.3641 C   0  0  0  0  0  0  0  0  0  0  0  0
   -5.1621  -46.2614    8.0260 C   0  0  0  0  0  0  0  0  0  0  0  0
   -4.0352  -46.4599    7.3750 N   0  0  0  0  0  0  0  0  0  0  0  0
   -5.1386  -45.9005    9.3512 N   0  0  0  0  0  0  0  0  0  0  0  0
   -6.3299  -45.7264   10.0273 C   0  0  0  0  0  0  0  0  0  0  0  0
   -7.5480  -45.8564    9.3872 N   0  0  0  0  0  0  0  0  0  0  0  0
   -9.7652  -40.2860    6.8371 O   0  5  0  0  0  0  0  0  0  0  0  0
   -6.3485  -37.4187    6.5597 O   0  0  0  0  0  0  0  0  0  0  0  0
   -8.9357  -44.5698    4.0682 S   0  0  0  0  0  0  0  0  0  0  0  0
   -8.4346  -45.8128    4.9084 C   0  0  0  0  0  0  0  0  0  0  0  0
   -9.9490  -39.0945    4.6128 O   0  0  0  0  0  0  0  0  0  0  0  0
   -8.2725  -37.8203    8.0249 O   0  5  0  0  0  0  0  0  0  0  0  0
   -7.0938  -45.7518    5.1666 N   0  0  0  0  0  0  0  0  0  0  0  0
   -7.7655  -39.2439    5.9797 O   0  0  0  0  0  0  0  0  0  0  0  0
   -8.7568  -36.9284    5.9270 O   0  0  0  0  0  0  0  0  0  0  0  0
   -6.5221  -44.6449    4.6051 C   0  0  1  0  0  0  0  0  0  0  0  0
   -7.4825  -43.9070    3.9600 C   0  0  2  0  0  0  0  0  0  0  0  0
   -7.3875  -42.6075    3.1998 C   0  0  0  0  0  0  0  0  0  0  0  0
   -7.5660  -41.3917    4.1162 C   0  0  0  0  0  0  0  0  0  0  0  0
   -8.7338  -41.3197    4.9137 O   0  0  0  0  0  0  0  0  0  0  0  0
  1 11  1  0  0  0  0
  3 13  1  1  0  0  0
  3 17  2  0  0  0  0
  3 20  1  0  0  0  0
  3 26  1  0  0  0  0
  4 14  1  6  0  0  0
  4 18  1  0  0  0  0
  4 21  2  0  0  0  0
  4 20  1  0  0  0  0
  5 19  1  0  0  0  0
  5  7  1  0  0  0  0
  6  7  2  0  0  0  0
  6 12  1  0  0  0  0
  7  8  1  0  0  0  0
  8  9  1  0  0  0  0
  8 10  2  0  0  0  0
 10 11  1  0  0  0  0
 11 12  2  0  0  0  0
 15 23  1  0  0  0  0
 15 16  1  0  0  0  0
 16 19  1  0  0  0  0
 19 22  1  0  0  0  0
 22  2  1  1  0  0  0
 22 23  1  0  0  0  0
 23 24  1  1  0  0  0
 24 25  1  0  0  0  0
 25 26  1  0  0  0  0
M  CHG  2  13  -1  18  -1
M  END
>  <CHROM.1>
-72.31858439,-92.58697700,59.61483612,-165.63018269,90.99901034,-54.94196949
-163.02115233,-147.21945823,-7.51440999,-42.50686779,6.27103684,-0.74905997
-1.20059675,0.59160874

>  <Name>
ligand

>  <RI>
0

>  <Rbt.Current_Directory>
/home/itssahil/PROJECTS/Mol_Feturizer/New_Systems/rnas/3D2G

>  <Rbt.Executable>
rbdock ($Id: //depot/dev/client3/rdock/2013.1/src/exe/rbdock.cxx#4 $)

>  <Rbt.Library>
libRbt.so (2013.1, Build901 2013/11/27)

>  <Rbt.Parameter_File>
/export/apps/rDock/src/rDock_2013.1_src/data/scripts/dock_solv.prm

>  <Rbt.Receptor>
prm/pocket_docking_7.prm

>  <SCORE>
-13.0163

>  <SCORE.INTER>
-11.6307

>  <SCORE.INTER.CONST>
1

>  <SCORE.INTER.POLAR>
0

>  <SCORE.INTER.ROT>
8

>  <SCORE.INTER.SOLV>
15.9213

>  <SCORE.INTER.VDW>
-21.9942

>  <SCORE.INTER.norm>
-0.447333

>  <SCORE.INTRA>
-1.38561

>  <SCORE.INTRA.DIHEDRAL>
-1.28639

>  <SCORE.INTRA.DIHEDRAL.0>
9.09364

>  <SCORE.INTRA.POLAR>
0

>  <SCORE.INTRA.POLAR.0>
0

>  <SCORE.INTRA.REPUL>
0

>  <SCORE.INTRA.REPUL.0>
0

>  <SCORE.INTRA.SOLV>
0.594168

>  <SCORE.INTRA.SOLV.lig_0>
-78.5846

>  <SCORE.INTRA.VDW>
-1.0395

>  <SCORE.INTRA.VDW.0>
-2.81163

>  <SCORE.INTRA.norm>
-0.0532928

>  <SCORE.RESTR>
0

>  <SCORE.RESTR.CAVITY>
0

>  <SCORE.RESTR.norm>
0

>  <SCORE.SYSTEM>
0

>  <SCORE.SYSTEM.CONST>
0

>  <SCORE.SYSTEM.DIHEDRAL>
0

>  <SCORE.SYSTEM.SOLV>
0

>  <SCORE.SYSTEM.norm>
0

>  <SCORE.heavy>
26

>  <SCORE.norm>
-0.500626

>  <RMSD>
8.372

$$$$
ligand
 OpenBabel11021811463D
libRbt.so/2013.1/901 2013/11/27
 26 27  0  0  0  0  0  0  0  0999 V2000
   -4.0726  -38.3017   12.0950 C   0  0  0  0  0  0  0  0  0  0  0  0
   -4.8220  -46.4416   10.5559 C   0  0  0  0  0  0  0  0  0  0  0  0
   -5.7919  -44.2323    5.3995 P   0  0  1  0  0  0  0  0  0  0  0  0
   -4.0050  -42.5138    4.2175 P   0  0  2  0  0  0  0  0  0  0  0  0
   -5.2026  -43.9223   12.3616 C   0  0  0  0  0  0  0  0  0  0  0  0
   -5.6009  -41.5592   13.1301 C   0  0  0  0  0  0  0  0  0  0  0  0
   -4.9209  -42.4432   12.2869 C   0  0  0  0  0  0  0  0  0  0  0  0
   -3.9512  -41.9698   11.3987 C   0  0  0  0  0  0  0  0  0  0  0  0
   -3.3032  -42.8093   10.6188 N   0  0  0  0  0  0  0  0  0  0  0  0
   -3.6983  -40.6219   11.3221 N   0  0  0  0  0  0  0  0  0  0  0  0
   -4.3643  -39.7583   12.1689 C   0  0  0  0  0  0  0  0  0  0  0  0
   -5.3196  -40.2137   13.0580 N   0  0  0  0  0  0  0  0  0  0  0  0
   -6.7577  -43.1201    5.6727 O   0  5  0  0  0  0  0  0  0  0  0  0
   -4.8990  -41.3647    4.4666 O   0  0  0  0  0  0  0  0  0  0  0  0
   -7.8904  -44.1862    9.6527 S   0  0  0  0  0  0  0  0  0  0  0  0
   -7.1383  -43.5594   10.8952 C   0  0  0  0  0  0  0  0  0  0  0  0
   -6.0601  -45.0388    4.1784 O   0  0  0  0  0  0  0  0  0  0  0  0
   -4.2287  -43.1188    2.8907 O   0  5  0  0  0  0  0  0  0  0  0  0
   -6.0408  -44.2906   11.2543 N   0  0  0  0  0  0  0  0  0  0  0  0
   -4.3904  -43.4966    5.4001 O   0  0  0  0  0  0  0  0  0  0  0  0
   -2.5335  -42.2543    4.2361 O   0  0  0  0  0  0  0  0  0  0  0  0
   -5.8912  -45.3960   10.4648 C   0  0  1  0  0  0  0  0  0  0  0  0
   -6.8891  -45.4286    9.5235 C   0  0  2  0  0  0  0  0  0  0  0  0
   -7.1739  -46.4135    8.4168 C   0  0  0  0  0  0  0  0  0  0  0  0
   -7.0391  -45.7740    7.0302 C   0  0  0  0  0  0  0  0  0  0  0  0
   -5.8377  -45.0913    6.7213 O   0  0  0  0  0  0  0  0  0  0  0  0
  1 11  1  0  0  0  0
  3 13  1  1  0  0  0
  3 17  2  0  0  0  0
  3 20  1  0  0  0  0
  3 26  1  0  0  0  0
  4 14  1  1  0  0  0
  4 18  1  0  0  0  0
  4 21  2  0  0  0  0
  4 20  1  0  0  0  0
  5 19  1  0  0  0  0
  5  7  1  0  0  0  0
  6  7  2  0  0  0  0
  6 12  1  0  0  0  0
  7  8  1  0  0  0  0
  8  9  1  0  0  0  0
  8 10  2  0  0  0  0
 10 11  1  0  0  0  0
 11 12  2  0  0  0  0
 15 23  1  0  0  0  0
 15 16  1  0  0  0  0
 16 19  1  0  0  0  0
 19 22  1  0  0  0  0
 22  2  1  6  0  0  0
 22 23  1  0  0  0  0
 23 24  1  6  0  0  0
 24 25  1  0  0  0  0
 25 26  1  0  0  0  0
M  CHG  2  13  -1  18  -1
M  END
>  <CHROM.1>
-70.50296434,-45.62100564,102.83869148,70.68234534,63.99023979,52.95340185
-169.89237564,66.79134723,-5.35664299,-43.27294135,8.32533939,-1.61805054
-1.01024854,-1.81473554

>  <Name>
ligand

>  <RI>
0

>  <Rbt.Current_Directory>
/home/itssahil/PROJECTS/Mol_Feturizer/New_Systems/rnas/3D2G

>  <Rbt.Executable>
rbdock ($Id: //depot/dev/client3/rdock/2013.1/src/exe/rbdock.cxx#4 $)

>  <Rbt.Library>
libRbt.so (2013.1, Build901 2013/11/27)

>  <Rbt.Parameter_File>
/export/apps/rDock/src/rDock_2013.1_src/data/scripts/dock_solv.prm

>  <Rbt.Receptor>
prm/pocket_docking_5.prm

>  <SCORE>
-15.0952

>  <SCORE.INTER>
-12.8554

>  <SCORE.INTER.CONST>
1

>  <SCORE.INTER.POLAR>
0

>  <SCORE.INTER.ROT>
8

>  <SCORE.INTER.SOLV>
8.4337

>  <SCORE.INTER.VDW>
-20.3148

>  <SCORE.INTER.norm>
-0.494439

>  <SCORE.INTRA>
-2.24066

>  <SCORE.INTRA.DIHEDRAL>
-2.89765

>  <SCORE.INTRA.DIHEDRAL.0>
9.09364

>  <SCORE.INTRA.POLAR>
0

>  <SCORE.INTRA.POLAR.0>
0

>  <SCORE.INTRA.REPUL>
0

>  <SCORE.INTRA.REPUL.0>
0

>  <SCORE.INTRA.SOLV>
-0.0397037

>  <SCORE.INTRA.SOLV.lig_0>
-78.5846

>  <SCORE.INTRA.VDW>
-0.771984

>  <SCORE.INTRA.VDW.0>
-2.81163

>  <SCORE.INTRA.norm>
-0.0861793

>  <SCORE.RESTR>
0.000850387

>  <SCORE.RESTR.CAVITY>
0.000850387

>  <SCORE.RESTR.norm>
3.27072e-05

>  <SCORE.SYSTEM>
0

>  <SCORE.SYSTEM.CONST>
0

>  <SCORE.SYSTEM.DIHEDRAL>
0

>  <SCORE.SYSTEM.SOLV>
0

>  <SCORE.SYSTEM.norm>
0

>  <SCORE.heavy>
26

>  <SCORE.norm>
-0.580585

>  <RMSD>
8.374

$$$$
ligand
 OpenBabel11021811463D
libRbt.so/2013.1/901 2013/11/27
 26 27  0  0  0  0  0  0  0  0999 V2000
   -3.3680  -48.3504    6.1735 C   0  0  0  0  0  0  0  0  0  0  0  0
   -7.5771  -43.3543   10.8149 C   0  0  0  0  0  0  0  0  0  0  0  0
   -2.1048  -40.7876   10.5363 P   0  0  1  0  0  0  0  0  0  0  0  0
   -1.4800  -41.7863    8.0553 P   0  0  2  0  0  0  0  0  0  0  0  0
   -6.6359  -46.3065   10.4260 C   0  0  0  0  0  0  0  0  0  0  0  0
   -4.6340  -47.5987    9.6161 C   0  0  0  0  0  0  0  0  0  0  0  0
   -5.7653  -46.8345    9.3143 C   0  0  0  0  0  0  0  0  0  0  0  0
   -6.1184  -46.5870    7.9849 C   0  0  0  0  0  0  0  0  0  0  0  0
   -7.1937  -45.8802    7.7073 N   0  0  0  0  0  0  0  0  0  0  0  0
   -5.3226  -47.0594    6.9699 N   0  0  0  0  0  0  0  0  0  0  0  0
   -4.2156  -47.8253    7.2772 C   0  0  0  0  0  0  0  0  0  0  0  0
   -3.8594  -48.0849    8.5873 N   0  0  0  0  0  0  0  0  0  0  0  0
   -0.7526  -41.3603   10.8329 O   0  5  0  0  0  0  0  0  0  0  0  0
   -2.3423  -42.2317    6.9418 O   0  0  0  0  0  0  0  0  0  0  0  0
   -4.1418  -44.2444   12.4653 S   0  0  0  0  0  0  0  0  0  0  0  0
   -4.7186  -45.5320   11.7500 C   0  0  0  0  0  0  0  0  0  0  0  0
   -2.1739  -39.3047   10.4389 O   0  0  0  0  0  0  0  0  0  0  0  0
   -0.4668  -42.7961    8.4162 O   0  5  0  0  0  0  0  0  0  0  0  0
   -5.9141  -45.2861   11.1347 N   0  0  0  0  0  0  0  0  0  0  0  0
   -2.5331  -41.5484    9.2160 O   0  0  0  0  0  0  0  0  0  0  0  0
   -0.6731  -40.5464    7.8438 O   0  0  0  0  0  0  0  0  0  0  0  0
   -6.3210  -43.9950   11.3214 C   0  0  1  0  0  0  0  0  0  0  0  0
   -5.3846  -43.3192   12.0627 C   0  0  2  0  0  0  0  0  0  0  0  0
   -5.3403  -41.8864   12.5324 C   0  0  0  0  0  0  0  0  0  0  0  0
   -4.3865  -41.0343   11.6874 C   0  0  0  0  0  0  0  0  0  0  0  0
   -3.0101  -41.3670   11.6904 O   0  0  0  0  0  0  0  0  0  0  0  0
  1 11  1  0  0  0  0
  3 13  1  1  0  0  0
  3 17  2  0  0  0  0
  3 20  1  0  0  0  0
  3 26  1  0  0  0  0
  4 14  1  6  0  0  0
  4 18  1  0  0  0  0
  4 21  2  0  0  0  0
  4 20  1  0  0  0  0
  5 19  1  0  0  0  0
  5  7  1  0  0  0  0
  6  7  2  0  0  0  0
  6 12  1  0  0  0  0
  7  8  1  0  0  0  0
  8  9  1  0  0  0  0
  8 10  2  0  0  0  0
 10 11  1  0  0  0  0
 11 12  2  0  0  0  0
 15 23  1  0  0  0  0
 15 16  1  0  0  0  0
 16 19  1  0  0  0  0
 19 22  1  0  0  0  0
 22  2  1  6  0  0  0
 22 23  1  0  0  0  0
 23 24  1  6  0  0  0
 24 25  1  0  0  0  0
 25 26  1  0  0  0  0
M  CHG  2  13  -1  18  -1
M  END
>  <CHROM.1>
-42.01157080,-59.34640380,69.60690198,-167.92128171,76.67767982,-62.97315370
162.68460393,-178.63244997,-3.79579249,-43.67465535,9.74858421,-2.31061784
0.73187359,0.73833878

>  <Name>
ligand

>  <RI>
0

>  <Rbt.Current_Directory>
/home/itssahil/PROJECTS/Mol_Feturizer/New_Systems/rnas/3D2G

>  <Rbt.Executable>
rbdock ($Id: //depot/dev/client3/rdock/2013.1/src/exe/rbdock.cxx#4 $)

>  <Rbt.Library>
libRbt.so (2013.1, Build901 2013/11/27)

>  <Rbt.Parameter_File>
/export/apps/rDock/src/rDock_2013.1_src/data/scripts/dock_solv.prm

>  <Rbt.Receptor>
prm/pocket_docking_6.prm

>  <SCORE>
-11.6437

>  <SCORE.INTER>
-10.4364

>  <SCORE.INTER.CONST>
1

>  <SCORE.INTER.POLAR>
0

>  <SCORE.INTER.ROT>
8

>  <SCORE.INTER.SOLV>
15.9284

>  <SCORE.INTER.VDW>
-21.2004

>  <SCORE.INTER.norm>
-0.401401

>  <SCORE.INTRA>
-1.20724

>  <SCORE.INTRA.DIHEDRAL>
-1.40716

>  <SCORE.INTRA.DIHEDRAL.0>
9.09364

>  <SCORE.INTRA.POLAR>
0

>  <SCORE.INTRA.POLAR.0>
0

>  <SCORE.INTRA.REPUL>
0

>  <SCORE.INTRA.REPUL.0>
0

>  <SCORE.INTRA.SOLV>
0.338406

>  <SCORE.INTRA.SOLV.lig_0>
-78.5846

>  <SCORE.INTRA.VDW>
-0.672864

>  <SCORE.INTRA.VDW.0>
-2.81163

>  <SCORE.INTRA.norm>
-0.0464322

>  <SCORE.RESTR>
0

>  <SCORE.RESTR.CAVITY>
0

>  <SCORE.RESTR.norm>
0

>  <SCORE.SYSTEM>
0

>  <SCORE.SYSTEM.CONST>
0

>  <SCORE.SYSTEM.DIHEDRAL>
0

>  <SCORE.SYSTEM.SOLV>
0

>  <SCORE.SYSTEM.norm>
0

>  <SCORE.heavy>
26

>  <SCORE.norm>
-0.447834

>  <RMSD>
8.407

$$$$
ligand
 OpenBabel11021811463D
libRbt.so/2013.1/901 2013/11/27
 26 27  0  0  0  0  0  0  0  0999 V2000
   -5.9503  -35.2068   11.7620 C   0  0  0  0  0  0  0  0  0  0  0  0
   -4.6375  -40.6263    9.4400 C   0  0  0  0  0  0  0  0  0  0  0  0
   -8.3902  -39.4302    7.4052 P   0  0  1  0  0  0  0  0  0  0  0  0
   -6.6801  -38.8812    5.3274 P   0  0  2  0  0  0  0  0  0  0  0  0
   -4.5079  -40.7044   12.5592 C   0  0  0  0  0  0  0  0  0  0  0  0
   -6.2236  -38.8638   12.5172 C   0  0  0  0  0  0  0  0  0  0  0  0
   -4.8962  -39.2647   12.3377 C   0  0  0  0  0  0  0  0  0  0  0  0
   -3.9157  -38.3314   11.9904 C   0  0  0  0  0  0  0  0  0  0  0  0
   -2.6648  -38.7124   11.8385 N   0  0  0  0  0  0  0  0  0  0  0  0
   -4.2678  -37.0205   11.7794 N   0  0  0  0  0  0  0  0  0  0  0  0
   -5.5783  -36.6313   11.9732 C   0  0  0  0  0  0  0  0  0  0  0  0
   -6.5567  -37.5421   12.3249 N   0  0  0  0  0  0  0  0  0  0  0  0
   -7.9119  -38.1575    8.0345 O   0  5  0  0  0  0  0  0  0  0  0  0
   -6.9140  -38.6813    3.8827 O   0  0  0  0  0  0  0  0  0  0  0  0
   -6.9524  -43.2831   11.1430 S   0  0  0  0  0  0  0  0  0  0  0  0
   -6.1563  -42.4999   12.2633 C   0  0  0  0  0  0  0  0  0  0  0  0
   -9.7799  -39.8389    7.7443 O   0  0  0  0  0  0  0  0  0  0  0  0
   -5.7472  -39.9925    5.5942 O   0  5  0  0  0  0  0  0  0  0  0  0
   -5.3383  -41.5399   11.7366 N   0  0  0  0  0  0  0  0  0  0  0  0
   -8.1421  -39.1808    5.8620 O   0  0  0  0  0  0  0  0  0  0  0  0
   -6.0875  -37.7409    6.0901 O   0  0  0  0  0  0  0  0  0  0  0  0
   -5.3948  -41.5230   10.3713 C   0  0  1  0  0  0  0  0  0  0  0  0
   -6.2831  -42.4735    9.9349 C   0  0  2  0  0  0  0  0  0  0  0  0
   -6.7205  -42.8542    8.5423 C   0  0  0  0  0  0  0  0  0  0  0  0
   -7.7144  -41.8450    7.9564 C   0  0  0  0  0  0  0  0  0  0  0  0
   -7.3139  -40.4905    7.8575 O   0  0  0  0  0  0  0  0  0  0  0  0
  1 11  1  0  0  0  0
  3 13  1  1  0  0  0
  3 17  2  0  0  0  0
  3 20  1  0  0  0  0
  3 26  1  0  0  0  0
  4 14  1  6  0  0  0
  4 18  1  0  0  0  0
  4 21  2  0  0  0  0
  4 20  1  0  0  0  0
  5 19  1  0  0  0  0
  5  7  1  0  0  0  0
  6  7  2  0  0  0  0
  6 12  1  0  0  0  0
  7  8  1  0  0  0  0
  8  9  1  0  0  0  0
  8 10  2  0  0  0  0
 10 11  1  0  0  0  0
 11 12  2  0  0  0  0
 15 23  1  0  0  0  0
 15 16  1  0  0  0  0
 16 19  1  0  0  0  0
 19 22  1  0  0  0  0
 22  2  1  1  0  0  0
 22 23  1  0  0  0  0
 23 24  1  1  0  0  0
 24 25  1  0  0  0  0
 25 26  1  0  0  0  0
M  CHG  2  13  -1  18  -1
M  END
>  <CHROM.1>
59.53312169,-120.07389349,55.08269098,-178.49659349,102.71623125,57.72781914
-173.35449898,152.90494247,-6.38458553,-39.74617912,9.19141194,-0.51810760
-1.16146206,-0.51074717

>  <Name>
ligand

>  <RI>
0

>  <Rbt.Current_Directory>
/home/itssahil/PROJECTS/Mol_Feturizer/New_Systems/rnas/3D2G

>  <Rbt.Executable>
rbdock ($Id: //depot/dev/client3/rdock/2013.1/src/exe/rbdock.cxx#4 $)

>  <Rbt.Library>
libRbt.so (2013.1, Build901 2013/11/27)

>  <Rbt.Parameter_File>
/export/apps/rDock/src/rDock_2013.1_src/data/scripts/dock_solv.prm

>  <Rbt.Receptor>
prm/pocket_docking_8.prm

>  <SCORE>
-16.1952

>  <SCORE.INTER>
-14.2523

>  <SCORE.INTER.CONST>
1

>  <SCORE.INTER.POLAR>
0

>  <SCORE.INTER.ROT>
8

>  <SCORE.INTER.SOLV>
19.2817

>  <SCORE.INTER.VDW>
-24.8621

>  <SCORE.INTER.norm>
-0.548167

>  <SCORE.INTRA>
-1.94286

>  <SCORE.INTRA.DIHEDRAL>
-2.73444

>  <SCORE.INTRA.DIHEDRAL.0>
9.09364

>  <SCORE.INTRA.POLAR>
0

>  <SCORE.INTRA.POLAR.0>
0

>  <SCORE.INTRA.REPUL>
0

>  <SCORE.INTRA.REPUL.0>
0

>  <SCORE.INTRA.SOLV>
1.56557

>  <SCORE.INTRA.SOLV.lig_0>
-78.5846

>  <SCORE.INTRA.VDW>
-1.35843

>  <SCORE.INTRA.VDW.0>
-2.81163

>  <SCORE.INTRA.norm>
-0.0747255

>  <SCORE.RESTR>
0

>  <SCORE.RESTR.CAVITY>
0

>  <SCORE.RESTR.norm>
0

>  <SCORE.SYSTEM>
0

>  <SCORE.SYSTEM.CONST>
0

>  <SCORE.SYSTEM.DIHEDRAL>
0

>  <SCORE.SYSTEM.SOLV>
0

>  <SCORE.SYSTEM.norm>
0

>  <SCORE.heavy>
26

>  <SCORE.norm>
-0.622892

>  <RMSD>
8.462

$$$$
ligand
 OpenBabel11021811463D
libRbt.so/2013.1/901 2013/11/27
 26 27  0  0  0  0  0  0  0  0999 V2000
   -4.3538  -40.2204   12.9290 C   0  0  0  0  0  0  0  0  0  0  0  0
   -7.5657  -46.5380    8.9523 C   0  0  0  0  0  0  0  0  0  0  0  0
   -4.1197  -44.3720    4.7394 P   0  0  1  0  0  0  0  0  0  0  0  0
   -1.3964  -44.3356    4.3860 P   0  0  2  0  0  0  0  0  0  0  0  0
   -6.3769  -45.4290   11.6186 C   0  0  0  0  0  0  0  0  0  0  0  0
   -5.1944  -43.8596   13.1908 C   0  0  0  0  0  0  0  0  0  0  0  0
   -5.8555  -44.0602   11.9753 C   0  0  0  0  0  0  0  0  0  0  0  0
   -6.0041  -43.0076   11.0681 C   0  0  0  0  0  0  0  0  0  0  0  0
   -6.6134  -43.2070    9.9183 N   0  0  0  0  0  0  0  0  0  0  0  0
   -5.5378  -41.7572   11.3937 N   0  0  0  0  0  0  0  0  0  0  0  0
   -4.8736  -41.5721   12.5899 C   0  0  0  0  0  0  0  0  0  0  0  0
   -4.7121  -42.6062   13.4927 N   0  0  0  0  0  0  0  0  0  0  0  0
   -5.0940  -43.3616    5.2631 O   0  5  0  0  0  0  0  0  0  0  0  0
   -1.6933  -44.7792    3.0088 O   0  0  0  0  0  0  0  0  0  0  0  0
   -3.6587  -46.5669    9.1796 S   0  0  0  0  0  0  0  0  0  0  0  0
   -4.2481  -45.9643   10.5182 C   0  0  0  0  0  0  0  0  0  0  0  0
   -4.4426  -44.9558    3.4096 O   0  0  0  0  0  0  0  0  0  0  0  0
   -1.0818  -45.4650    5.2815 O   0  5  0  0  0  0  0  0  0  0  0  0
   -5.6148  -45.9413   10.5135 N   0  0  0  0  0  0  0  0  0  0  0  0
   -2.7395  -43.5993    4.7945 O   0  0  0  0  0  0  0  0  0  0  0  0
   -0.2369  -43.4116    4.5736 O   0  0  0  0  0  0  0  0  0  0  0  0
   -6.1230  -46.4180    9.3380 C   0  0  1  0  0  0  0  0  0  0  0  0
   -5.0953  -46.8006    8.5130 C   0  0  2  0  0  0  0  0  0  0  0  0
   -5.1081  -47.3969    7.1274 C   0  0  0  0  0  0  0  0  0  0  0  0
   -5.1736  -46.3193    6.0391 C   0  0  0  0  0  0  0  0  0  0  0  0
   -4.0628  -45.4550    5.8846 O   0  0  0  0  0  0  0  0  0  0  0  0
  1 11  1  0  0  0  0
  3 13  1  1  0  0  0
  3 17  2  0  0  0  0
  3 20  1  0  0  0  0
  3 26  1  0  0  0  0
  4 14  1  6  0  0  0
  4 18  1  0  0  0  0
  4 21  2  0  0  0  0
  4 20  1  0  0  0  0
  5 19  1  0  0  0  0
  5  7  1  0  0  0  0
  6  7  2  0  0  0  0
  6 12  1  0  0  0  0
  7  8  1  0  0  0  0
  8  9  1  0  0  0  0
  8 10  2  0  0  0  0
 10 11  1  0  0  0  0
 11 12  2  0  0  0  0
 15 23  1  0  0  0  0
 15 16  1  0  0  0  0
 16 19  1  0  0  0  0
 19 22  1  0  0  0  0
 22  2  1  1  0  0  0
 22 23  1  0  0  0  0
 23 24  1  1  0  0  0
 24 25  1  0  0  0  0
 25 26  1  0  0  0  0
M  CHG  2  13  -1  18  -1
M  END
>  <CHROM.1>
177.04109062,51.04240540,-112.06049997,57.04406203,-94.39775624,66.55483447
178.46580202,73.34598332,-4.24287098,-44.58237065,7.96384438,-2.19327943
-0.90649932,-2.23539374

>  <Name>
ligand

>  <RI>
0

>  <Rbt.Current_Directory>
/home/itssahil/PROJECTS/Mol_Feturizer/New_Systems/rnas/3D2G

>  <Rbt.Executable>
rbdock ($Id: //depot/dev/client3/rdock/2013.1/src/exe/rbdock.cxx#4 $)

>  <Rbt.Library>
libRbt.so (2013.1, Build901 2013/11/27)

>  <Rbt.Parameter_File>
/export/apps/rDock/src/rDock_2013.1_src/data/scripts/dock_solv.prm

>  <Rbt.Receptor>
prm/pocket_docking_7.prm

>  <SCORE>
-17.4202

>  <SCORE.INTER>
-13.9888

>  <SCORE.INTER.CONST>
1

>  <SCORE.INTER.POLAR>
0

>  <SCORE.INTER.ROT>
8

>  <SCORE.INTER.SOLV>
9.0159

>  <SCORE.INTER.VDW>
-21.2645

>  <SCORE.INTER.norm>
-0.538032

>  <SCORE.INTRA>
-3.43139

>  <SCORE.INTRA.DIHEDRAL>
-3.90967

>  <SCORE.INTRA.DIHEDRAL.0>
9.09364

>  <SCORE.INTRA.POLAR>
0

>  <SCORE.INTRA.POLAR.0>
0

>  <SCORE.INTRA.REPUL>
0

>  <SCORE.INTRA.REPUL.0>
0

>  <SCORE.INTRA.SOLV>
-0.260368

>  <SCORE.INTRA.SOLV.lig_0>
-78.5846

>  <SCORE.INTRA.VDW>
-1.34637

>  <SCORE.INTRA.VDW.0>
-2.81163

>  <SCORE.INTRA.norm>
-0.131977

>  <SCORE.RESTR>
0

>  <SCORE.RESTR.CAVITY>
0

>  <SCORE.RESTR.norm>
0

>  <SCORE.SYSTEM>
0

>  <SCORE.SYSTEM.CONST>
0

>  <SCORE.SYSTEM.DIHEDRAL>
0

>  <SCORE.SYSTEM.SOLV>
0

>  <SCORE.SYSTEM.norm>
0

>  <SCORE.heavy>
26

>  <SCORE.norm>
-0.670009

>  <RMSD>
8.464

$$$$
ligand
 OpenBabel11021811463D
libRbt.so/2013.1/901 2013/11/27
 26 27  0  0  0  0  0  0  0  0999 V2000
   -7.0445  -35.4262   11.0629 C   0  0  0  0  0  0  0  0  0  0  0  0
   -2.3308  -40.9394   11.1093 C   0  0  0  0  0  0  0  0  0  0  0  0
   -5.6498  -41.9505    8.5805 P   0  0  1  0  0  0  0  0  0  0  0  0
   -7.4497  -40.0256    7.8071 P   0  0  2  0  0  0  0  0  0  0  0  0
   -3.7308  -39.4475   13.4687 C   0  0  0  0  0  0  0  0  0  0  0  0
   -5.8715  -38.7407   12.3502 C   0  0  0  0  0  0  0  0  0  0  0  0
   -4.6007  -38.3993   12.8229 C   0  0  0  0  0  0  0  0  0  0  0  0
   -4.1435  -37.0815   12.7360 C   0  0  0  0  0  0  0  0  0  0  0  0
   -2.9524  -36.7634   13.1975 N   0  0  0  0  0  0  0  0  0  0  0  0
   -4.9302  -36.1259   12.1404 N   0  0  0  0  0  0  0  0  0  0  0  0
   -6.1893  -36.4693   11.6896 C   0  0  0  0  0  0  0  0  0  0  0  0
   -6.6574  -37.7669   11.7769 N   0  0  0  0  0  0  0  0  0  0  0  0
   -6.3139  -42.4722    9.8180 O   0  5  0  0  0  0  0  0  0  0  0  0
   -7.5932  -38.6071    8.1932 O   0  0  0  0  0  0  0  0  0  0  0  0
   -5.3209  -42.8529   12.7571 S   0  0  0  0  0  0  0  0  0  0  0  0
   -5.1250  -41.4685   13.4968 C   0  0  0  0  0  0  0  0  0  0  0  0
   -5.9259  -42.7058    7.3288 O   0  0  0  0  0  0  0  0  0  0  0  0
   -8.5984  -40.8425    8.2427 O   0  5  0  0  0  0  0  0  0  0  0  0
   -4.1035  -40.7377   12.9577 N   0  0  0  0  0  0  0  0  0  0  0  0
   -6.1062  -40.4354    8.5419 O   0  0  0  0  0  0  0  0  0  0  0  0
   -7.3408  -40.3314    6.3484 O   0  0  0  0  0  0  0  0  0  0  0  0
   -3.4915  -41.4051   11.9343 C   0  0  1  0  0  0  0  0  0  0  0  0
   -4.1080  -42.6156   11.7396 C   0  0  2  0  0  0  0  0  0  0  0  0
   -3.8369  -43.7153   10.7432 C   0  0  0  0  0  0  0  0  0  0  0  0
   -3.5207  -43.1620    9.3491 C   0  0  0  0  0  0  0  0  0  0  0  0
   -4.1196  -41.9387    8.9622 O   0  0  0  0  0  0  0  0  0  0  0  0
  1 11  1  0  0  0  0
  3 13  1  1  0  0  0
  3 17  2  0  0  0  0
  3 20  1  0  0  0  0
  3 26  1  0  0  0  0
  4 14  1  1  0  0  0
  4 18  1  0  0  0  0
  4 21  2  0  0  0  0
  4 20  1  0  0  0  0
  5 19  1  0  0  0  0
  5  7  1  0  0  0  0
  6  7  2  0  0  0  0
  6 12  1  0  0  0  0
  7  8  1  0  0  0  0
  8  9  1  0  0  0  0
  8 10  2  0  0  0  0
 10 11  1  0  0  0  0
 11 12  2  0  0  0  0
 15 23  1  0  0  0  0
 15 16  1  0  0  0  0
 16 19  1  0  0  0  0
 19 22  1  0  0  0  0
 22  2  1  6  0  0  0
 22 23  1  0  0  0  0
 23 24  1  6  0  0  0
 24 25  1  0  0  0  0
 25 26  1  0  0  0  0
M  CHG  2  13  -1  18  -1
M  END
>  <CHROM.1>
-88.89102194,-85.52371453,26.12978156,171.38498131,138.41442671,-30.66751464
-74.70421973,58.50212790,-5.43354974,-40.32909976,10.47954441,1.10827346
-0.93825247,0.47635761

>  <Name>
ligand

>  <RI>
0

>  <Rbt.Current_Directory>
/home/itssahil/PROJECTS/Mol_Feturizer/New_Systems/rnas/3D2G

>  <Rbt.Executable>
rbdock ($Id: //depot/dev/client3/rdock/2013.1/src/exe/rbdock.cxx#4 $)

>  <Rbt.Library>
libRbt.so (2013.1, Build901 2013/11/27)

>  <Rbt.Parameter_File>
/export/apps/rDock/src/rDock_2013.1_src/data/scripts/dock_solv.prm

>  <Rbt.Receptor>
prm/pocket_docking_8.prm

>  <SCORE>
-11.8041

>  <SCORE.INTER>
-12.4825

>  <SCORE.INTER.CONST>
1

>  <SCORE.INTER.POLAR>
0

>  <SCORE.INTER.ROT>
8

>  <SCORE.INTER.SOLV>
12.4853

>  <SCORE.INTER.VDW>
-21.4168

>  <SCORE.INTER.norm>
-0.480096

>  <SCORE.INTRA>
0.67837

>  <SCORE.INTRA.DIHEDRAL>
0.276331

>  <SCORE.INTRA.DIHEDRAL.0>
9.09364

>  <SCORE.INTRA.POLAR>
0

>  <SCORE.INTRA.POLAR.0>
0

>  <SCORE.INTRA.REPUL>
0

>  <SCORE.INTRA.REPUL.0>
0

>  <SCORE.INTRA.SOLV>
1.67283

>  <SCORE.INTRA.SOLV.lig_0>
-78.5846

>  <SCORE.INTRA.VDW>
-0.29621

>  <SCORE.INTRA.VDW.0>
-2.81163

>  <SCORE.INTRA.norm>
0.0260911

>  <SCORE.RESTR>
0

>  <SCORE.RESTR.CAVITY>
0

>  <SCORE.RESTR.norm>
0

>  <SCORE.SYSTEM>
0

>  <SCORE.SYSTEM.CONST>
0

>  <SCORE.SYSTEM.DIHEDRAL>
0

>  <SCORE.SYSTEM.SOLV>
0

>  <SCORE.SYSTEM.norm>
0

>  <SCORE.heavy>
26

>  <SCORE.norm>
-0.454005

>  <RMSD>
8.468

$$$$
ligand
 OpenBabel11021811463D
libRbt.so/2013.1/901 2013/11/27
 26 27  0  0  0  0  0  0  0  0999 V2000
   -5.8350  -40.6020   13.3418 C   0  0  0  0  0  0  0  0  0  0  0  0
   -3.7378  -46.1294    8.1178 C   0  0  0  0  0  0  0  0  0  0  0  0
   -5.9959  -43.9492    4.8910 P   0  0  1  0  0  0  0  0  0  0  0  0
   -3.3473  -44.3795    4.3056 P   0  0  2  0  0  0  0  0  0  0  0  0
   -4.4579  -45.7150   11.1281 C   0  0  0  0  0  0  0  0  0  0  0  0
   -5.0673  -44.2577   13.0873 C   0  0  0  0  0  0  0  0  0  0  0  0
   -4.8339  -44.3778   11.7140 C   0  0  0  0  0  0  0  0  0  0  0  0
   -4.9091  -43.2570   10.8825 C   0  0  0  0  0  0  0  0  0  0  0  0
   -4.6725  -43.3738    9.5927 N   0  0  0  0  0  0  0  0  0  0  0  0
   -5.2598  -42.0390   11.4118 N   0  0  0  0  0  0  0  0  0  0  0  0
   -5.4743  -41.9273   12.7712 C   0  0  0  0  0  0  0  0  0  0  0  0
   -5.3950  -43.0257   13.6064 N   0  0  0  0  0  0  0  0  0  0  0  0
   -5.7188  -42.5388    5.3134 O   0  5  0  0  0  0  0  0  0  0  0  0
   -3.8439  -44.6415    2.9394 O   0  0  0  0  0  0  0  0  0  0  0  0
   -7.5201  -46.5925    9.0105 S   0  0  0  0  0  0  0  0  0  0  0  0
   -6.7200  -46.2350   10.3274 C   0  0  0  0  0  0  0  0  0  0  0  0
   -6.4961  -44.1234    3.5007 O   0  0  0  0  0  0  0  0  0  0  0  0
   -2.2028  -45.2407    4.6592 O   0  5  0  0  0  0  0  0  0  0  0  0
   -5.3891  -46.0413   10.0837 N   0  0  0  0  0  0  0  0  0  0  0  0
   -4.6274  -44.6866    5.1887 O   0  0  0  0  0  0  0  0  0  0  0  0
   -2.8486  -43.0022    4.6014 O   0  0  0  0  0  0  0  0  0  0  0  0
   -5.0842  -46.2366    8.7660 C   0  0  1  0  0  0  0  0  0  0  0  0
   -6.2245  -46.5523    8.0709 C   0  0  2  0  0  0  0  0  0  0  0  0
   -6.4419  -46.8467    6.6075 C   0  0  0  0  0  0  0  0  0  0  0  0
   -7.3839  -45.8311    5.9510 C   0  0  0  0  0  0  0  0  0  0  0  0
   -7.0175  -44.4636    5.9768 O   0  0  0  0  0  0  0  0  0  0  0  0
  1 11  1  0  0  0  0
  3 13  1  1  0  0  0
  3 17  2  0  0  0  0
  3 20  1  0  0  0  0
  3 26  1  0  0  0  0
  4 14  1  6  0  0  0
  4 18  1  0  0  0  0
  4 21  2  0  0  0  0
  4 20  1  0  0  0  0
  5 19  1  0  0  0  0
  5  7  1  0  0  0  0
  6  7  2  0  0  0  0
  6 12  1  0  0  0  0
  7  8  1  0  0  0  0
  8  9  1  0  0  0  0
  8 10  2  0  0  0  0
 10 11  1  0  0  0  0
 11 12  2  0  0  0  0
 15 23  1  0  0  0  0
 15 16  1  0  0  0  0
 16 19  1  0  0  0  0
 19 22  1  0  0  0  0
 22  2  1  6  0  0  0
 22 23  1  0  0  0  0
 23 24  1  6  0  0  0
 24 25  1  0  0  0  0
 25 26  1  0  0  0  0
M  CHG  2  13  -1  18  -1
M  END
>  <CHROM.1>
-69.97878358,-63.39892084,124.47930337,-54.77813175,61.37657871,59.00073055
81.90642346,-173.45408691,-5.27255580,-44.50668842,7.83667559,-1.76449119
-0.97050417,-1.84794996

>  <Name>
ligand

>  <RI>
0

>  <Rbt.Current_Directory>
/home/itssahil/PROJECTS/Mol_Feturizer/New_Systems/rnas/3D2G

>  <Rbt.Executable>
rbdock ($Id: //depot/dev/client3/rdock/2013.1/src/exe/rbdock.cxx#4 $)

>  <Rbt.Library>
libRbt.so (2013.1, Build901 2013/11/27)

>  <Rbt.Parameter_File>
/export/apps/rDock/src/rDock_2013.1_src/data/scripts/dock_solv.prm

>  <Rbt.Receptor>
prm/pocket_docking_7.prm

>  <SCORE>
-14.8141

>  <SCORE.INTER>
-13.5965

>  <SCORE.INTER.CONST>
1

>  <SCORE.INTER.POLAR>
0

>  <SCORE.INTER.ROT>
8

>  <SCORE.INTER.SOLV>
5.27141

>  <SCORE.INTER.VDW>
-19.7548

>  <SCORE.INTER.norm>
-0.522941

>  <SCORE.INTRA>
-1.21763

>  <SCORE.INTRA.DIHEDRAL>
-1.63605

>  <SCORE.INTRA.DIHEDRAL.0>
9.09364

>  <SCORE.INTRA.POLAR>
0

>  <SCORE.INTRA.POLAR.0>
0

>  <SCORE.INTRA.REPUL>
0

>  <SCORE.INTRA.REPUL.0>
0

>  <SCORE.INTRA.SOLV>
2.71811

>  <SCORE.INTRA.SOLV.lig_0>
-78.5846

>  <SCORE.INTRA.VDW>
-1.75866

>  <SCORE.INTRA.VDW.0>
-2.81163

>  <SCORE.INTRA.norm>
-0.0468318

>  <SCORE.RESTR>
0

>  <SCORE.RESTR.CAVITY>
0

>  <SCORE.RESTR.norm>
0

>  <SCORE.SYSTEM>
0

>  <SCORE.SYSTEM.CONST>
0

>  <SCORE.SYSTEM.DIHEDRAL>
0

>  <SCORE.SYSTEM.SOLV>
0

>  <SCORE.SYSTEM.norm>
0

>  <SCORE.heavy>
26

>  <SCORE.norm>
-0.569773

>  <RMSD>
8.472

$$$$
ligand
 OpenBabel11021811463D
libRbt.so/2013.1/901 2013/11/27
 26 27  0  0  0  0  0  0  0  0999 V2000
   -0.4863  -42.5528   11.1750 C   0  0  0  0  0  0  0  0  0  0  0  0
   -4.0280  -41.7828    3.8366 C   0  0  0  0  0  0  0  0  0  0  0  0
   -7.2836  -41.3654    7.7099 P   0  0  1  0  0  0  0  0  0  0  0  0
   -8.8530  -39.1350    7.3862 P   0  0  2  0  0  0  0  0  0  0  0  0
   -2.0589  -43.3219    5.7092 C   0  0  0  0  0  0  0  0  0  0  0  0
   -2.0929  -41.9850    7.8411 C   0  0  0  0  0  0  0  0  0  0  0  0
   -1.6382  -43.1064    7.1407 C   0  0  0  0  0  0  0  0  0  0  0  0
   -0.8249  -44.0525    7.7705 C   0  0  0  0  0  0  0  0  0  0  0  0
   -0.4133  -45.1145    7.1103 N   0  0  0  0  0  0  0  0  0  0  0  0
   -0.4328  -43.8548    9.0720 N   0  0  0  0  0  0  0  0  0  0  0  0
   -0.8985  -42.7519    9.7599 C   0  0  0  0  0  0  0  0  0  0  0  0
   -1.7102  -41.8127    9.1521 N   0  0  0  0  0  0  0  0  0  0  0  0
   -5.8582  -41.5799    7.3018 O   0  5  0  0  0  0  0  0  0  0  0  0
   -9.7487  -39.9817    8.2002 O   0  0  0  0  0  0  0  0  0  0  0  0
   -5.6899  -44.4185    6.2049 S   0  0  0  0  0  0  0  0  0  0  0  0
   -4.1275  -44.4159    6.4529 C   0  0  0  0  0  0  0  0  0  0  0  0
   -7.6874  -41.9801    9.0032 O   0  0  0  0  0  0  0  0  0  0  0  0
   -9.2122  -39.1553    5.9554 O   0  5  0  0  0  0  0  0  0  0  0  0
   -3.4839  -43.5011    5.6674 N   0  0  0  0  0  0  0  0  0  0  0  0
   -7.4362  -39.7908    7.6607 O   0  0  0  0  0  0  0  0  0  0  0  0
   -8.8059  -37.6770    7.7106 O   0  0  0  0  0  0  0  0  0  0  0  0
   -4.3538  -42.8424    4.8446 C   0  0  1  0  0  0  0  0  0  0  0  0
   -5.6313  -43.2888    5.0722 C   0  0  2  0  0  0  0  0  0  0  0  0
   -6.9455  -42.8869    4.4502 C   0  0  0  0  0  0  0  0  0  0  0  0
   -7.5907  -41.7056    5.1837 C   0  0  0  0  0  0  0  0  0  0  0  0
   -8.1043  -41.9248    6.4849 O   0  0  0  0  0  0  0  0  0  0  0  0
  1 11  1  0  0  0  0
  3 13  1  6  0  0  0
  3 17  2  0  0  0  0
  3 20  1  0  0  0  0
  3 26  1  0  0  0  0
  4 14  1  1  0  0  0
  4 18  1  0  0  0  0
  4 21  2  0  0  0  0
  4 20  1  0  0  0  0
  5 19  1  0  0  0  0
  5  7  1  0  0  0  0
  6  7  2  0  0  0  0
  6 12  1  0  0  0  0
  7  8  1  0  0  0  0
  8  9  1  0  0  0  0
  8 10  2  0  0  0  0
 10 11  1  0  0  0  0
 11 12  2  0  0  0  0
 15 23  1  0  0  0  0
 15 16  1  0  0  0  0
 16 19  1  0  0  0  0
 19 22  1  0  0  0  0
 22  2  1  1  0  0  0
 22 23  1  0  0  0  0
 23 24  1  1  0  0  0
 24 25  1  0  0  0  0
 25 26  1  0  0  0  0
M  CHG  2  13  -1  18  -1
M  END
>  <CHROM.1>
152.81497344,-52.19938214,-63.26587309,41.35608985,91.52719451,-69.85468456
105.17934140,-37.30857347,-5.28890484,-41.99974119,7.09089529,-0.15896305
-0.44546569,0.98662528

>  <Name>
ligand

>  <RI>
0

>  <Rbt.Current_Directory>
/home/itssahil/PROJECTS/Mol_Feturizer/New_Systems/rnas/3D2G

>  <Rbt.Executable>
rbdock ($Id: //depot/dev/client3/rdock/2013.1/src/exe/rbdock.cxx#4 $)

>  <Rbt.Library>
libRbt.so (2013.1, Build901 2013/11/27)

>  <Rbt.Parameter_File>
/export/apps/rDock/src/rDock_2013.1_src/data/scripts/dock_solv.prm

>  <Rbt.Receptor>
prm/pocket_docking_4.prm

>  <SCORE>
-5.96243

>  <SCORE.INTER>
-6.36032

>  <SCORE.INTER.CONST>
1

>  <SCORE.INTER.POLAR>
0

>  <SCORE.INTER.ROT>
8

>  <SCORE.INTER.SOLV>
17.6218

>  <SCORE.INTER.VDW>
-19.0475

>  <SCORE.INTER.norm>
-0.244628

>  <SCORE.INTRA>
0.392845

>  <SCORE.INTRA.DIHEDRAL>
3.78416

>  <SCORE.INTRA.DIHEDRAL.0>
9.09364

>  <SCORE.INTRA.POLAR>
0

>  <SCORE.INTRA.POLAR.0>
0

>  <SCORE.INTRA.REPUL>
0

>  <SCORE.INTRA.REPUL.0>
0

>  <SCORE.INTRA.SOLV>
0.0437741

>  <SCORE.INTRA.SOLV.lig_0>
-78.5846

>  <SCORE.INTRA.VDW>
-1.52112

>  <SCORE.INTRA.VDW.0>
-2.81163

>  <SCORE.INTRA.norm>
0.0151094

>  <SCORE.RESTR>
0.00503971

>  <SCORE.RESTR.CAVITY>
0.00503971

>  <SCORE.RESTR.norm>
0.000193835

>  <SCORE.SYSTEM>
0

>  <SCORE.SYSTEM.CONST>
0

>  <SCORE.SYSTEM.DIHEDRAL>
0

>  <SCORE.SYSTEM.SOLV>
0

>  <SCORE.SYSTEM.norm>
0

>  <SCORE.heavy>
26

>  <SCORE.norm>
-0.229324

>  <RMSD>
8.483

$$$$
ligand
 OpenBabel11021811463D
libRbt.so/2013.1/901 2013/11/27
 26 27  0  0  0  0  0  0  0  0999 V2000
   -8.7340  -40.1704    6.5228 C   0  0  0  0  0  0  0  0  0  0  0  0
   -2.5106  -40.7149   11.1843 C   0  0  0  0  0  0  0  0  0  0  0  0
   -3.2203  -36.2941   12.1605 P   0  0  1  0  0  0  0  0  0  0  0  0
   -3.5684  -33.9776   13.5940 P   0  0  2  0  0  0  0  0  0  0  0  0
   -4.7166  -42.5070    9.8902 C   0  0  0  0  0  0  0  0  0  0  0  0
   -7.0869  -42.3839    9.0537 C   0  0  0  0  0  0  0  0  0  0  0  0
   -5.7736  -41.9073    8.9982 C   0  0  0  0  0  0  0  0  0  0  0  0
   -5.4396  -40.8501    8.1474 C   0  0  0  0  0  0  0  0  0  0  0  0
   -4.2047  -40.3954    8.1116 N   0  0  0  0  0  0  0  0  0  0  0  0
   -6.3984  -40.3073    7.3272 N   0  0  0  0  0  0  0  0  0  0  0  0
   -7.6956  -40.7748    7.3994 C   0  0  0  0  0  0  0  0  0  0  0  0
   -8.0418  -41.8140    8.2424 N   0  0  0  0  0  0  0  0  0  0  0  0
   -4.6425  -36.1652   11.7076 O   0  5  0  0  0  0  0  0  0  0  0  0
   -2.4119  -33.3712   12.9036 O   0  0  0  0  0  0  0  0  0  0  0  0
   -5.7329  -41.2223   13.3469 S   0  0  0  0  0  0  0  0  0  0  0  0
   -5.8984  -42.0077   11.9837 C   0  0  0  0  0  0  0  0  0  0  0  0
   -2.1876  -35.8312   11.1947 O   0  0  0  0  0  0  0  0  0  0  0  0
   -3.7168  -33.4829   14.9760 O   0  5  0  0  0  0  0  0  0  0  0  0
   -4.7964  -41.8874   11.1841 N   0  0  0  0  0  0  0  0  0  0  0  0
   -3.2138  -35.5218   13.5420 O   0  0  0  0  0  0  0  0  0  0  0  0
   -4.9196  -33.7494   12.9977 O   0  0  0  0  0  0  0  0  0  0  0  0
   -3.8433  -41.0921   11.7555 C   0  0  1  0  0  0  0  0  0  0  0  0
   -4.2764  -40.6647   12.9855 C   0  0  2  0  0  0  0  0  0  0  0  0
   -3.6122  -39.7899   14.0195 C   0  0  0  0  0  0  0  0  0  0  0  0
   -3.7354  -38.3009   13.6768 C   0  0  0  0  0  0  0  0  0  0  0  0
   -3.0846  -37.8254   12.5127 O   0  0  0  0  0  0  0  0  0  0  0  0
  1 11  1  0  0  0  0
  3 13  1  6  0  0  0
  3 17  2  0  0  0  0
  3 20  1  0  0  0  0
  3 26  1  0  0  0  0
  4 14  1  6  0  0  0
  4 18  1  0  0  0  0
  4 21  2  0  0  0  0
  4 20  1  0  0  0  0
  5 19  1  0  0  0  0
  5  7  1  0  0  0  0
  6  7  2  0  0  0  0
  6 12  1  0  0  0  0
  7  8  1  0  0  0  0
  8  9  1  0  0  0  0
  8 10  2  0  0  0  0
 10 11  1  0  0  0  0
 11 12  2  0  0  0  0
 15 23  1  0  0  0  0
 15 16  1  0  0  0  0
 16 19  1  0  0  0  0
 19 22  1  0  0  0  0
 22  2  1  1  0  0  0
 22 23  1  0  0  0  0
 23 24  1  1  0  0  0
 24 25  1  0  0  0  0
 25 26  1  0  0  0  0
M  CHG  2  13  -1  18  -1
M  END
>  <CHROM.1>
-61.64722713,63.58117336,-82.85889189,-68.49220208,-100.27901478,-65.11599013
179.69955866,-71.78333139,-4.60984707,-38.54798707,11.45074203,2.41770322
1.09221874,2.91471377

>  <Name>
ligand

>  <RI>
0

>  <Rbt.Current_Directory>
/home/itssahil/PROJECTS/Mol_Feturizer/New_Systems/rnas/3D2G

>  <Rbt.Executable>
rbdock ($Id: //depot/dev/client3/rdock/2013.1/src/exe/rbdock.cxx#4 $)

>  <Rbt.Library>
libRbt.so (2013.1, Build901 2013/11/27)

>  <Rbt.Parameter_File>
/export/apps/rDock/src/rDock_2013.1_src/data/scripts/dock_solv.prm

>  <Rbt.Receptor>
prm/blind_docking_60.prm

>  <SCORE>
-14.3698

>  <SCORE.INTER>
-11.6903

>  <SCORE.INTER.CONST>
1

>  <SCORE.INTER.POLAR>
0

>  <SCORE.INTER.ROT>
8

>  <SCORE.INTER.SOLV>
17.1186

>  <SCORE.INTER.VDW>
-22.4331

>  <SCORE.INTER.norm>
-0.449628

>  <SCORE.INTRA>
-2.67947

>  <SCORE.INTRA.DIHEDRAL>
-3.69272

>  <SCORE.INTRA.DIHEDRAL.0>
9.09364

>  <SCORE.INTRA.POLAR>
0

>  <SCORE.INTRA.POLAR.0>
0

>  <SCORE.INTRA.REPUL>
0

>  <SCORE.INTRA.REPUL.0>
0

>  <SCORE.INTRA.SOLV>
0.0533021

>  <SCORE.INTRA.SOLV.lig_0>
-78.5846

>  <SCORE.INTRA.VDW>
-0.859762

>  <SCORE.INTRA.VDW.0>
-2.81163

>  <SCORE.INTRA.norm>
-0.103057

>  <SCORE.RESTR>
0

>  <SCORE.RESTR.CAVITY>
0

>  <SCORE.RESTR.norm>
0

>  <SCORE.SYSTEM>
0

>  <SCORE.SYSTEM.CONST>
0

>  <SCORE.SYSTEM.DIHEDRAL>
0

>  <SCORE.SYSTEM.SOLV>
0

>  <SCORE.SYSTEM.norm>
0

>  <SCORE.heavy>
26

>  <SCORE.norm>
-0.552685

>  <RMSD>
8.484

$$$$
ligand
 OpenBabel11021811463D
libRbt.so/2013.1/901 2013/11/27
 26 27  0  0  0  0  0  0  0  0999 V2000
   -5.6808  -37.5818   11.8689 C   0  0  0  0  0  0  0  0  0  0  0  0
   -4.6596  -46.0257   10.9377 C   0  0  0  0  0  0  0  0  0  0  0  0
   -6.4356  -46.0494    5.5764 P   0  0  1  0  0  0  0  0  0  0  0  0
   -8.3120  -46.0943    3.5714 P   0  0  2  0  0  0  0  0  0  0  0  0
   -5.2868  -43.2907   12.3084 C   0  0  0  0  0  0  0  0  0  0  0  0
   -6.0061  -41.0582   13.2207 C   0  0  0  0  0  0  0  0  0  0  0  0
   -5.4063  -41.7923   12.1929 C   0  0  0  0  0  0  0  0  0  0  0  0
   -4.8805  -41.1428   11.0728 C   0  0  0  0  0  0  0  0  0  0  0  0
   -4.3026  -41.8383   10.1160 N   0  0  0  0  0  0  0  0  0  0  0  0
   -4.9954  -39.7786   10.9605 N   0  0  0  0  0  0  0  0  0  0  0  0
   -5.5763  -39.0607   11.9870 C   0  0  0  0  0  0  0  0  0  0  0  0
   -6.0929  -39.6894   13.1043 N   0  0  0  0  0  0  0  0  0  0  0  0
   -5.2043  -45.5789    4.8641 O   0  5  0  0  0  0  0  0  0  0  0  0
   -7.4986  -45.0978    2.8452 O   0  0  0  0  0  0  0  0  0  0  0  0
   -7.8727  -44.2049    9.6421 S   0  0  0  0  0  0  0  0  0  0  0  0
   -7.2058  -43.3277   10.7771 C   0  0  0  0  0  0  0  0  0  0  0  0
   -7.2339  -44.9946    6.2572 O   0  0  0  0  0  0  0  0  0  0  0  0
   -9.3620  -45.4655    4.3952 O   0  5  0  0  0  0  0  0  0  0  0  0
   -6.0635  -43.8991   11.2639 N   0  0  0  0  0  0  0  0  0  0  0  0
   -7.2210  -46.8365    4.4500 O   0  0  0  0  0  0  0  0  0  0  0  0
   -9.0653  -47.0922    2.7529 O   0  0  0  0  0  0  0  0  0  0  0  0
   -5.8058  -45.1001   10.6651 C   0  0  1  0  0  0  0  0  0  0  0  0
   -6.7728  -45.3649    9.7282 C   0  0  2  0  0  0  0  0  0  0  0  0
   -6.9491  -46.5339    8.7911 C   0  0  0  0  0  0  0  0  0  0  0  0
   -5.7041  -46.7717    7.9290 C   0  0  0  0  0  0  0  0  0  0  0  0
   -5.8879  -47.1408    6.5744 O   0  0  0  0  0  0  0  0  0  0  0  0
  1 11  1  0  0  0  0
  3 13  1  6  0  0  0
  3 17  2  0  0  0  0
  3 20  1  0  0  0  0
  3 26  1  0  0  0  0
  4 14  1  6  0  0  0
  4 18  1  0  0  0  0
  4 21  2  0  0  0  0
  4 20  1  0  0  0  0
  5 19  1  0  0  0  0
  5  7  1  0  0  0  0
  6  7  2  0  0  0  0
  6 12  1  0  0  0  0
  7  8  1  0  0  0  0
  8  9  1  0  0  0  0
  8 10  2  0  0  0  0
 10 11  1  0  0  0  0
 11 12  2  0  0  0  0
 15 23  1  0  0  0  0
 15 16  1  0  0  0  0
 16 19  1  0  0  0  0
 19 22  1  0  0  0  0
 22  2  1  6  0  0  0
 22 23  1  0  0  0  0
 23 24  1  6  0  0  0
 24 25  1  0  0  0  0
 25 26  1  0  0  0  0
M  CHG  2  13  -1  18  -1
M  END
>  <CHROM.1>
-92.82770034,-31.71800967,116.33361631,64.47192452,124.73922450,-140.92916175
70.78871878,100.52805284,-6.55251268,-44.18047481,8.24818220,0.83966905,-1.24795934
0.25518933

>  <Name>
ligand

>  <RI>
0

>  <Rbt.Current_Directory>
/home/itssahil/PROJECTS/Mol_Feturizer/New_Systems/rnas/3D2G

>  <Rbt.Executable>
rbdock ($Id: //depot/dev/client3/rdock/2013.1/src/exe/rbdock.cxx#4 $)

>  <Rbt.Library>
libRbt.so (2013.1, Build901 2013/11/27)

>  <Rbt.Parameter_File>
/export/apps/rDock/src/rDock_2013.1_src/data/scripts/dock_solv.prm

>  <Rbt.Receptor>
prm/pocket_docking_7.prm

>  <SCORE>
-15.4316

>  <SCORE.INTER>
-17.1586

>  <SCORE.INTER.CONST>
1

>  <SCORE.INTER.POLAR>
0

>  <SCORE.INTER.ROT>
8

>  <SCORE.INTER.SOLV>
10.6449

>  <SCORE.INTER.VDW>
-23.9207

>  <SCORE.INTER.norm>
-0.659948

>  <SCORE.INTRA>
1.72699

>  <SCORE.INTRA.DIHEDRAL>
2.56888

>  <SCORE.INTRA.DIHEDRAL.0>
9.09364

>  <SCORE.INTRA.POLAR>
0

>  <SCORE.INTRA.POLAR.0>
0

>  <SCORE.INTRA.REPUL>
0

>  <SCORE.INTRA.REPUL.0>
0

>  <SCORE.INTRA.SOLV>
1.11789

>  <SCORE.INTRA.SOLV.lig_0>
-78.5846

>  <SCORE.INTRA.VDW>
-0.116397

>  <SCORE.INTRA.VDW.0>
-2.81163

>  <SCORE.INTRA.norm>
0.0664228

>  <SCORE.RESTR>
0

>  <SCORE.RESTR.CAVITY>
0

>  <SCORE.RESTR.norm>
0

>  <SCORE.SYSTEM>
0

>  <SCORE.SYSTEM.CONST>
0

>  <SCORE.SYSTEM.DIHEDRAL>
0

>  <SCORE.SYSTEM.SOLV>
0

>  <SCORE.SYSTEM.norm>
0

>  <SCORE.heavy>
26

>  <SCORE.norm>
-0.593525

>  <RMSD>
8.484

$$$$
ligand
 OpenBabel11021811463D
libRbt.so/2013.1/901 2013/11/27
 26 27  0  0  0  0  0  0  0  0999 V2000
   -5.8811  -37.3889   11.9767 C   0  0  0  0  0  0  0  0  0  0  0  0
   -4.5707  -45.8942   11.0675 C   0  0  0  0  0  0  0  0  0  0  0  0
   -7.2116  -44.8983    5.4828 P   0  0  1  0  0  0  0  0  0  0  0  0
   -8.6704  -46.0823    3.4796 P   0  0  2  0  0  0  0  0  0  0  0  0
   -5.0518  -43.0595   12.2862 C   0  0  0  0  0  0  0  0  0  0  0  0
   -5.9804  -40.9173   13.2253 C   0  0  0  0  0  0  0  0  0  0  0  0
   -5.2855  -41.5725   12.2042 C   0  0  0  0  0  0  0  0  0  0  0  0
   -4.7706  -40.8519   11.1230 C   0  0  0  0  0  0  0  0  0  0  0  0
   -4.1033  -41.4725   10.1729 N   0  0  0  0  0  0  0  0  0  0  0  0
   -4.9891  -39.4983   11.0410 N   0  0  0  0  0  0  0  0  0  0  0  0
   -5.6640  -38.8578   12.0612 C   0  0  0  0  0  0  0  0  0  0  0  0
   -6.1712  -39.5567   13.1405 N   0  0  0  0  0  0  0  0  0  0  0  0
   -5.9208  -45.5135    5.0360 O   0  5  0  0  0  0  0  0  0  0  0  0
   -9.2319  -44.7476    3.1880 O   0  0  0  0  0  0  0  0  0  0  0  0
   -7.8192  -44.0817    9.8514 S   0  0  0  0  0  0  0  0  0  0  0  0
   -7.0637  -43.1487   10.8815 C   0  0  0  0  0  0  0  0  0  0  0  0
   -7.4665  -43.5107    5.0106 O   0  0  0  0  0  0  0  0  0  0  0  0
   -9.6417  -47.1642    3.2295 O   0  5  0  0  0  0  0  0  0  0  0  0
   -5.9055  -43.7156   11.3347 N   0  0  0  0  0  0  0  0  0  0  0  0
   -8.2923  -45.9554    5.0138 O   0  0  0  0  0  0  0  0  0  0  0  0
   -7.4701  -46.5069    2.6972 O   0  0  0  0  0  0  0  0  0  0  0  0
   -5.7117  -44.9597   10.8038 C   0  0  1  0  0  0  0  0  0  0  0  0
   -6.7412  -45.2612    9.9480 C   0  0  2  0  0  0  0  0  0  0  0  0
   -7.0010  -46.4846    9.1046 C   0  0  0  0  0  0  0  0  0  0  0  0
   -6.7140  -46.2306    7.6204 C   0  0  0  0  0  0  0  0  0  0  0  0
   -7.1450  -45.0061    7.0548 O   0  0  0  0  0  0  0  0  0  0  0  0
  1 11  1  0  0  0  0
  3 13  1  6  0  0  0
  3 17  2  0  0  0  0
  3 20  1  0  0  0  0
  3 26  1  0  0  0  0
  4 14  1  6  0  0  0
  4 18  1  0  0  0  0
  4 21  2  0  0  0  0
  4 20  1  0  0  0  0
  5 19  1  0  0  0  0
  5  7  1  0  0  0  0
  6  7  2  0  0  0  0
  6 12  1  0  0  0  0
  7  8  1  0  0  0  0
  8  9  1  0  0  0  0
  8 10  2  0  0  0  0
 10 11  1  0  0  0  0
 11 12  2  0  0  0  0
 15 23  1  0  0  0  0
 15 16  1  0  0  0  0
 16 19  1  0  0  0  0
 19 22  1  0  0  0  0
 22  2  1  6  0  0  0
 22 23  1  0  0  0  0
 23 24  1  6  0  0  0
 24 25  1  0  0  0  0
 25 26  1  0  0  0  0
M  CHG  2  13  -1  18  -1
M  END
>  <CHROM.1>
-74.18180891,-24.15039778,107.10716003,-62.45127625,74.44722430,-42.43262508
-163.64595124,-44.93409577,-6.78343726,-43.83134319,8.24918849,0.52178512
-1.25499565,-0.02908157

>  <Name>
ligand

>  <RI>
0

>  <Rbt.Current_Directory>
/home/itssahil/PROJECTS/Mol_Feturizer/New_Systems/rnas/3D2G

>  <Rbt.Executable>
rbdock ($Id: //depot/dev/client3/rdock/2013.1/src/exe/rbdock.cxx#4 $)

>  <Rbt.Library>
libRbt.so (2013.1, Build901 2013/11/27)

>  <Rbt.Parameter_File>
/export/apps/rDock/src/rDock_2013.1_src/data/scripts/dock_solv.prm

>  <Rbt.Receptor>
prm/pocket_docking_8.prm

>  <SCORE>
-19.8612

>  <SCORE.INTER>
-18.9862

>  <SCORE.INTER.CONST>
1

>  <SCORE.INTER.POLAR>
0

>  <SCORE.INTER.ROT>
8

>  <SCORE.INTER.SOLV>
9.75381

>  <SCORE.INTER.VDW>
-24.8421

>  <SCORE.INTER.norm>
-0.73024

>  <SCORE.INTRA>
-0.874982

>  <SCORE.INTRA.DIHEDRAL>
-1.39705

>  <SCORE.INTRA.DIHEDRAL.0>
9.09364

>  <SCORE.INTRA.POLAR>
0

>  <SCORE.INTRA.POLAR.0>
0

>  <SCORE.INTRA.REPUL>
0

>  <SCORE.INTRA.REPUL.0>
0

>  <SCORE.INTRA.SOLV>
-0.724718

>  <SCORE.INTRA.SOLV.lig_0>
-78.5846

>  <SCORE.INTRA.VDW>
0.185904

>  <SCORE.INTRA.VDW.0>
-2.81163

>  <SCORE.INTRA.norm>
-0.0336532

>  <SCORE.RESTR>
0

>  <SCORE.RESTR.CAVITY>
0

>  <SCORE.RESTR.norm>
0

>  <SCORE.SYSTEM>
0

>  <SCORE.SYSTEM.CONST>
0

>  <SCORE.SYSTEM.DIHEDRAL>
0

>  <SCORE.SYSTEM.SOLV>
0

>  <SCORE.SYSTEM.norm>
0

>  <SCORE.heavy>
26

>  <SCORE.norm>
-0.763893

>  <RMSD>
8.505

$$$$
ligand
 OpenBabel11021811463D
libRbt.so/2013.1/901 2013/11/27
 26 27  0  0  0  0  0  0  0  0999 V2000
   -3.7189  -37.1830   12.9372 C   0  0  0  0  0  0  0  0  0  0  0  0
   -8.1832  -38.5187    7.9593 C   0  0  0  0  0  0  0  0  0  0  0  0
   -6.5519  -40.1395    3.1992 P   0  0  1  0  0  0  0  0  0  0  0  0
   -6.2387  -41.1078    0.6482 P   0  0  2  0  0  0  0  0  0  0  0  0
   -8.3098  -35.9448    9.7232 C   0  0  0  0  0  0  0  0  0  0  0  0
   -6.5493  -37.5592   10.5151 C   0  0  0  0  0  0  0  0  0  0  0  0
   -7.1126  -36.2810   10.5753 C   0  0  0  0  0  0  0  0  0  0  0  0
   -6.5499  -35.2972   11.3931 C   0  0  0  0  0  0  0  0  0  0  0  0
   -7.0754  -34.0909   11.4330 N   0  0  0  0  0  0  0  0  0  0  0  0
   -5.4643  -35.6028   12.1772 N   0  0  0  0  0  0  0  0  0  0  0  0
   -4.9062  -36.8634   12.1003 C   0  0  0  0  0  0  0  0  0  0  0  0
   -5.4472  -37.8434   11.2894 N   0  0  0  0  0  0  0  0  0  0  0  0
   -7.3492  -39.0900    2.4869 O   0  5  0  0  0  0  0  0  0  0  0  0
   -7.2511  -42.1166    1.0212 O   0  0  0  0  0  0  0  0  0  0  0  0
   -7.2111  -35.1944    6.1369 S   0  0  0  0  0  0  0  0  0  0  0  0
   -7.5880  -34.8676    7.6380 C   0  0  0  0  0  0  0  0  0  0  0  0
   -7.3402  -41.1687    3.9292 O   0  0  0  0  0  0  0  0  0  0  0  0
   -5.2247  -41.6488   -0.2768 O   0  5  0  0  0  0  0  0  0  0  0  0
   -7.9220  -35.9916    8.3405 N   0  0  0  0  0  0  0  0  0  0  0  0
   -5.6229  -40.7193    2.0564 O   0  0  0  0  0  0  0  0  0  0  0  0
   -6.7215  -39.8771   -0.0485 O   0  0  0  0  0  0  0  0  0  0  0  0
   -7.8741  -37.1093    7.5557 C   0  0  1  0  0  0  0  0  0  0  0  0
   -7.4800  -36.7653    6.2871 C   0  0  2  0  0  0  0  0  0  0  0  0
   -7.2577  -37.6095    5.0568 C   0  0  0  0  0  0  0  0  0  0  0  0
   -6.1892  -38.6849    5.2835 C   0  0  0  0  0  0  0  0  0  0  0  0
   -5.6104  -39.3037    4.1490 O   0  0  0  0  0  0  0  0  0  0  0  0
  1 11  1  0  0  0  0
  3 13  1  6  0  0  0
  3 17  2  0  0  0  0
  3 20  1  0  0  0  0
  3 26  1  0  0  0  0
  4 14  1  1  0  0  0
  4 18  1  0  0  0  0
  4 21  2  0  0  0  0
  4 20  1  0  0  0  0
  5 19  1  0  0  0  0
  5  7  1  0  0  0  0
  6  7  2  0  0  0  0
  6 12  1  0  0  0  0
  7  8  1  0  0  0  0
  8  9  1  0  0  0  0
  8 10  2  0  0  0  0
 10 11  1  0  0  0  0
 11 12  2  0  0  0  0
 15 23  1  0  0  0  0
 15 16  1  0  0  0  0
 16 19  1  0  0  0  0
 19 22  1  0  0  0  0
 22  2  1  1  0  0  0
 22 23  1  0  0  0  0
 23 24  1  1  0  0  0
 24 25  1  0  0  0  0
 25 26  1  0  0  0  0
M  CHG  2  13  -1  18  -1
M  END
>  <CHROM.1>
-47.30723419,-97.74211358,-65.43272381,-58.63914769,120.24187758,-162.95403702
-62.77201033,72.91520857,-6.63114472,-38.18246693,6.03391720,-1.56046050
0.97823485,-2.04128276

>  <Name>
ligand

>  <RI>
0

>  <Rbt.Current_Directory>
/home/itssahil/PROJECTS/Mol_Feturizer/New_Systems/rnas/3D2G

>  <Rbt.Executable>
rbdock ($Id: //depot/dev/client3/rdock/2013.1/src/exe/rbdock.cxx#4 $)

>  <Rbt.Library>
libRbt.so (2013.1, Build901 2013/11/27)

>  <Rbt.Parameter_File>
/export/apps/rDock/src/rDock_2013.1_src/data/scripts/dock_solv.prm

>  <Rbt.Receptor>
prm/blind_docking_60.prm

>  <SCORE>
-20.1721

>  <SCORE.INTER>
-18.8464

>  <SCORE.INTER.CONST>
1

>  <SCORE.INTER.POLAR>
0

>  <SCORE.INTER.ROT>
8

>  <SCORE.INTER.SOLV>
21.3328

>  <SCORE.INTER.VDW>
-28.6085

>  <SCORE.INTER.norm>
-0.724862

>  <SCORE.INTRA>
-1.42422

>  <SCORE.INTRA.DIHEDRAL>
-2.7381

>  <SCORE.INTRA.DIHEDRAL.0>
9.09364

>  <SCORE.INTRA.POLAR>
0

>  <SCORE.INTRA.POLAR.0>
0

>  <SCORE.INTRA.REPUL>
0

>  <SCORE.INTRA.REPUL.0>
0

>  <SCORE.INTRA.SOLV>
-0.54315

>  <SCORE.INTRA.SOLV.lig_0>
-78.5846

>  <SCORE.INTRA.VDW>
0.216408

>  <SCORE.INTRA.VDW.0>
-2.81163

>  <SCORE.INTRA.norm>
-0.0547777

>  <SCORE.RESTR>
0.0985018

>  <SCORE.RESTR.CAVITY>
0.0985018

>  <SCORE.RESTR.norm>
0.00378853

>  <SCORE.SYSTEM>
0

>  <SCORE.SYSTEM.CONST>
0

>  <SCORE.SYSTEM.DIHEDRAL>
0

>  <SCORE.SYSTEM.SOLV>
0

>  <SCORE.SYSTEM.norm>
0

>  <SCORE.heavy>
26

>  <SCORE.norm>
-0.775852

>  <RMSD>
8.512

$$$$
ligand
 OpenBabel11021811463D
libRbt.so/2013.1/901 2013/11/27
 26 27  0  0  0  0  0  0  0  0999 V2000
   -5.0268  -40.5211   13.1151 C   0  0  0  0  0  0  0  0  0  0  0  0
   -3.8608  -45.7353    7.9949 C   0  0  0  0  0  0  0  0  0  0  0  0
   -6.9977  -42.5138    5.7087 P   0  0  1  0  0  0  0  0  0  0  0  0
   -6.7759  -41.7729    8.3440 P   0  0  2  0  0  0  0  0  0  0  0  0
   -4.4438  -45.8484   11.0608 C   0  0  0  0  0  0  0  0  0  0  0  0
   -5.6448  -44.1606   12.4900 C   0  0  0  0  0  0  0  0  0  0  0  0
   -4.6112  -44.4480   11.5933 C   0  0  0  0  0  0  0  0  0  0  0  0
   -3.7056  -43.4532   11.2145 C   0  0  0  0  0  0  0  0  0  0  0  0
   -2.7250  -43.7342   10.3823 N   0  0  0  0  0  0  0  0  0  0  0  0
   -3.8605  -42.1743   11.6911 N   0  0  0  0  0  0  0  0  0  0  0  0
   -4.8753  -41.9034   12.5873 C   0  0  0  0  0  0  0  0  0  0  0  0
   -5.7730  -42.8795   12.9770 N   0  0  0  0  0  0  0  0  0  0  0  0
   -8.3182  -41.8109    5.7893 O   0  5  0  0  0  0  0  0  0  0  0  0
   -5.6277  -41.2782    9.1306 O   0  0  0  0  0  0  0  0  0  0  0  0
   -7.5580  -46.5785    8.9631 S   0  0  0  0  0  0  0  0  0  0  0  0
   -6.7114  -46.3818   10.2848 C   0  0  0  0  0  0  0  0  0  0  0  0
   -6.3227  -42.4760    4.3834 O   0  0  0  0  0  0  0  0  0  0  0  0
   -7.2573  -43.0832    8.8211 O   0  5  0  0  0  0  0  0  0  0  0  0
   -5.4085  -46.0659   10.0185 N   0  0  0  0  0  0  0  0  0  0  0  0
   -6.1678  -41.8507    6.8821 O   0  0  0  0  0  0  0  0  0  0  0  0
   -8.0119  -40.9331    8.3327 O   0  0  0  0  0  0  0  0  0  0  0  0
   -5.1628  -46.0308    8.6747 C   0  0  1  0  0  0  0  0  0  0  0  0
   -6.3182  -46.3065    7.9875 C   0  0  2  0  0  0  0  0  0  0  0  0
   -6.5951  -46.3801    6.5065 C   0  0  0  0  0  0  0  0  0  0  0  0
   -6.4368  -45.0166    5.8241 C   0  0  0  0  0  0  0  0  0  0  0  0
   -7.3330  -43.9804    6.1820 O   0  0  0  0  0  0  0  0  0  0  0  0
  1 11  1  0  0  0  0
  3 13  1  6  0  0  0
  3 17  2  0  0  0  0
  3 20  1  0  0  0  0
  3 26  1  0  0  0  0
  4 14  1  1  0  0  0
  4 18  1  0  0  0  0
  4 21  2  0  0  0  0
  4 20  1  0  0  0  0
  5 19  1  0  0  0  0
  5  7  1  0  0  0  0
  6  7  2  0  0  0  0
  6 12  1  0  0  0  0
  7  8  1  0  0  0  0
  8  9  1  0  0  0  0
  8 10  2  0  0  0  0
 10 11  1  0  0  0  0
 11 12  2  0  0  0  0
 15 23  1  0  0  0  0
 15 16  1  0  0  0  0
 16 19  1  0  0  0  0
 19 22  1  0  0  0  0
 22  2  1  6  0  0  0
 22 23  1  0  0  0  0
 23 24  1  6  0  0  0
 24 25  1  0  0  0  0
 25 26  1  0  0  0  0
M  CHG  2  13  -1  18  -1
M  END
>  <CHROM.1>
51.48441446,-80.50969431,78.67955902,172.23653318,113.80521756,-65.02149206
167.89072989,159.76830957,-6.03907539,-43.65050151,8.82350257,0.16145250
-1.18353249,0.19356185

>  <Name>
ligand

>  <RI>
0

>  <Rbt.Current_Directory>
/home/itssahil/PROJECTS/Mol_Feturizer/New_Systems/rnas/3D2G

>  <Rbt.Executable>
rbdock ($Id: //depot/dev/client3/rdock/2013.1/src/exe/rbdock.cxx#4 $)

>  <Rbt.Library>
libRbt.so (2013.1, Build901 2013/11/27)

>  <Rbt.Parameter_File>
/export/apps/rDock/src/rDock_2013.1_src/data/scripts/dock_solv.prm

>  <Rbt.Receptor>
prm/pocket_docking_6.prm

>  <SCORE>
-16.8156

>  <SCORE.INTER>
-13.5

>  <SCORE.INTER.CONST>
1

>  <SCORE.INTER.POLAR>
0

>  <SCORE.INTER.ROT>
8

>  <SCORE.INTER.SOLV>
12.9948

>  <SCORE.INTER.VDW>
-22.2649

>  <SCORE.INTER.norm>
-0.519231

>  <SCORE.INTRA>
-3.31559

>  <SCORE.INTRA.DIHEDRAL>
-2.5256

>  <SCORE.INTRA.DIHEDRAL.0>
9.09364

>  <SCORE.INTRA.POLAR>
0

>  <SCORE.INTRA.POLAR.0>
0

>  <SCORE.INTRA.REPUL>
0

>  <SCORE.INTRA.REPUL.0>
0

>  <SCORE.INTRA.SOLV>
2.78107

>  <SCORE.INTRA.SOLV.lig_0>
-78.5846

>  <SCORE.INTRA.VDW>
-3.44332

>  <SCORE.INTRA.VDW.0>
-2.81163

>  <SCORE.INTRA.norm>
-0.127523

>  <SCORE.RESTR>
0

>  <SCORE.RESTR.CAVITY>
0

>  <SCORE.RESTR.norm>
0

>  <SCORE.SYSTEM>
0

>  <SCORE.SYSTEM.CONST>
0

>  <SCORE.SYSTEM.DIHEDRAL>
0

>  <SCORE.SYSTEM.SOLV>
0

>  <SCORE.SYSTEM.norm>
0

>  <SCORE.heavy>
26

>  <SCORE.norm>
-0.646754

>  <RMSD>
8.517

$$$$
ligand
 OpenBabel11021811463D
libRbt.so/2013.1/901 2013/11/27
 26 27  0  0  0  0  0  0  0  0999 V2000
   -5.5673  -40.5850   13.1536 C   0  0  0  0  0  0  0  0  0  0  0  0
   -3.5986  -46.6367    8.2666 C   0  0  0  0  0  0  0  0  0  0  0  0
   -4.6584  -44.1255    4.5289 P   0  0  1  0  0  0  0  0  0  0  0  0
   -1.9929  -44.6729    4.1572 P   0  0  2  0  0  0  0  0  0  0  0  0
   -4.4585  -45.8533   11.1648 C   0  0  0  0  0  0  0  0  0  0  0  0
   -5.1306  -44.3015   13.0285 C   0  0  0  0  0  0  0  0  0  0  0  0
   -4.7649  -44.4738   11.6901 C   0  0  0  0  0  0  0  0  0  0  0  0
   -4.6434  -43.3700   10.8417 C   0  0  0  0  0  0  0  0  0  0  0  0
   -4.2830  -43.5375    9.5866 N   0  0  0  0  0  0  0  0  0  0  0  0
   -4.9301  -42.1128   11.3149 N   0  0  0  0  0  0  0  0  0  0  0  0
   -5.2765  -41.9508   12.6417 C   0  0  0  0  0  0  0  0  0  0  0  0
   -5.3922  -43.0328   13.4940 N   0  0  0  0  0  0  0  0  0  0  0  0
   -5.3809  -42.9949    5.1952 O   0  5  0  0  0  0  0  0  0  0  0  0
   -2.3291  -44.8939    2.7360 O   0  0  0  0  0  0  0  0  0  0  0  0
   -7.4609  -46.4956    8.8833 S   0  0  0  0  0  0  0  0  0  0  0  0
   -6.7110  -46.1312   10.2276 C   0  0  0  0  0  0  0  0  0  0  0  0
   -5.1156  -44.4673    3.1550 O   0  0  0  0  0  0  0  0  0  0  0  0
   -1.9886  -45.9281    4.9323 O   0  5  0  0  0  0  0  0  0  0  0  0
   -5.3524  -46.1441   10.0781 N   0  0  0  0  0  0  0  0  0  0  0  0
   -3.1415  -43.6832    4.6200 O   0  0  0  0  0  0  0  0  0  0  0  0
   -0.6578  -44.0740    4.4606 O   0  0  0  0  0  0  0  0  0  0  0  0
   -4.9882  -46.4992    8.8098 C   0  0  1  0  0  0  0  0  0  0  0  0
   -6.1111  -46.7189    8.0522 C   0  0  2  0  0  0  0  0  0  0  0  0
   -6.2666  -47.1141    6.6047 C   0  0  0  0  0  0  0  0  0  0  0  0
   -6.1086  -45.9157    5.6620 C   0  0  0  0  0  0  0  0  0  0  0  0
   -4.8295  -45.3199    5.5445 O   0  0  0  0  0  0  0  0  0  0  0  0
  1 11  1  0  0  0  0
  3 13  1  1  0  0  0
  3 17  2  0  0  0  0
  3 20  1  0  0  0  0
  3 26  1  0  0  0  0
  4 14  1  6  0  0  0
  4 18  1  0  0  0  0
  4 21  2  0  0  0  0
  4 20  1  0  0  0  0
  5 19  1  0  0  0  0
  5  7  1  0  0  0  0
  6  7  2  0  0  0  0
  6 12  1  0  0  0  0
  7  8  1  0  0  0  0
  8  9  1  0  0  0  0
  8 10  2  0  0  0  0
 10 11  1  0  0  0  0
 11 12  2  0  0  0  0
 15 23  1  0  0  0  0
 15 16  1  0  0  0  0
 16 19  1  0  0  0  0
 19 22  1  0  0  0  0
 22  2  1  6  0  0  0
 22 23  1  0  0  0  0
 23 24  1  6  0  0  0
 24 25  1  0  0  0  0
 25 26  1  0  0  0  0
M  CHG  2  13  -1  18  -1
M  END
>  <CHROM.1>
173.76060226,-58.29128693,121.23143119,60.13836304,98.97397159,68.37557805
177.51587464,72.06125623,-4.60405301,-44.69893838,7.70359165,-1.99134005
-0.82476347,-2.01439675

>  <Name>
ligand

>  <RI>
0

>  <Rbt.Current_Directory>
/home/itssahil/PROJECTS/Mol_Feturizer/New_Systems/rnas/3D2G

>  <Rbt.Executable>
rbdock ($Id: //depot/dev/client3/rdock/2013.1/src/exe/rbdock.cxx#4 $)

>  <Rbt.Library>
libRbt.so (2013.1, Build901 2013/11/27)

>  <Rbt.Parameter_File>
/export/apps/rDock/src/rDock_2013.1_src/data/scripts/dock_solv.prm

>  <Rbt.Receptor>
prm/pocket_docking_7.prm

>  <SCORE>
-18.5372

>  <SCORE.INTER>
-15.23

>  <SCORE.INTER.CONST>
1

>  <SCORE.INTER.POLAR>
0

>  <SCORE.INTER.ROT>
8

>  <SCORE.INTER.SOLV>
6.50351

>  <SCORE.INTER.VDW>
-21.2545

>  <SCORE.INTER.norm>
-0.585767

>  <SCORE.INTRA>
-3.30727

>  <SCORE.INTRA.DIHEDRAL>
-3.96805

>  <SCORE.INTRA.DIHEDRAL.0>
9.09364

>  <SCORE.INTRA.POLAR>
0

>  <SCORE.INTRA.POLAR.0>
0

>  <SCORE.INTRA.REPUL>
0

>  <SCORE.INTRA.REPUL.0>
0

>  <SCORE.INTRA.SOLV>
0.836404

>  <SCORE.INTRA.SOLV.lig_0>
-78.5846

>  <SCORE.INTRA.VDW>
-1.74145

>  <SCORE.INTRA.VDW.0>
-2.81163

>  <SCORE.INTRA.norm>
-0.127203

>  <SCORE.RESTR>
0

>  <SCORE.RESTR.CAVITY>
0

>  <SCORE.RESTR.norm>
0

>  <SCORE.SYSTEM>
0

>  <SCORE.SYSTEM.CONST>
0

>  <SCORE.SYSTEM.DIHEDRAL>
0

>  <SCORE.SYSTEM.SOLV>
0

>  <SCORE.SYSTEM.norm>
0

>  <SCORE.heavy>
26

>  <SCORE.norm>
-0.71297

>  <RMSD>
8.529

$$$$
ligand
 OpenBabel11021811463D
libRbt.so/2013.1/901 2013/11/27
 26 27  0  0  0  0  0  0  0  0999 V2000
   -0.8379  -40.4319    9.9566 C   0  0  0  0  0  0  0  0  0  0  0  0
   -7.2951  -43.5751   11.1120 C   0  0  0  0  0  0  0  0  0  0  0  0
   -5.8193  -44.2301    7.1701 P   0  0  1  0  0  0  0  0  0  0  0  0
   -3.5437  -45.7669    7.1185 P   0  0  2  0  0  0  0  0  0  0  0  0
   -4.5843  -43.8552   12.6370 C   0  0  0  0  0  0  0  0  0  0  0  0
   -2.4548  -43.5123   11.3406 C   0  0  0  0  0  0  0  0  0  0  0  0
   -3.5890  -42.9602   11.9435 C   0  0  0  0  0  0  0  0  0  0  0  0
   -3.8283  -41.5850   11.8756 C   0  0  0  0  0  0  0  0  0  0  0  0
   -4.9064  -41.0734   12.4316 N   0  0  0  0  0  0  0  0  0  0  0  0
   -2.9191  -40.7657   11.2520 N   0  0  0  0  0  0  0  0  0  0  0  0
   -1.8094  -41.3216   10.6471 C   0  0  0  0  0  0  0  0  0  0  0  0
   -1.5647  -42.6810   10.6992 N   0  0  0  0  0  0  0  0  0  0  0  0
   -6.4313  -43.3775    8.2392 O   0  5  0  0  0  0  0  0  0  0  0  0
   -4.3487  -46.7896    6.4201 O   0  0  0  0  0  0  0  0  0  0  0  0
   -5.2154  -46.7763   10.2494 S   0  0  0  0  0  0  0  0  0  0  0  0
   -4.4255  -45.9223   11.3213 C   0  0  0  0  0  0  0  0  0  0  0  0
   -5.3910  -43.5161    5.9371 O   0  0  0  0  0  0  0  0  0  0  0  0
   -2.5211  -46.3649    7.9977 O   0  5  0  0  0  0  0  0  0  0  0  0
   -5.1067  -44.7937   11.6826 N   0  0  0  0  0  0  0  0  0  0  0  0
   -4.6487  -44.9738    7.9327 O   0  0  0  0  0  0  0  0  0  0  0  0
   -2.7601  -44.8161    6.2729 O   0  0  0  0  0  0  0  0  0  0  0  0
   -6.2851  -44.6761   11.0008 C   0  0  1  0  0  0  0  0  0  0  0  0
   -6.4419  -45.7512   10.1625 C   0  0  2  0  0  0  0  0  0  0  0  0
   -7.5570  -46.1109    9.2123 C   0  0  0  0  0  0  0  0  0  0  0  0
   -7.0367  -46.4010    7.7998 C   0  0  0  0  0  0  0  0  0  0  0  0
   -6.9247  -45.3201    6.8921 O   0  0  0  0  0  0  0  0  0  0  0  0
  1 11  1  0  0  0  0
  3 13  1  1  0  0  0
  3 17  2  0  0  0  0
  3 20  1  0  0  0  0
  3 26  1  0  0  0  0
  4 14  1  6  0  0  0
  4 18  1  0  0  0  0
  4 21  2  0  0  0  0
  4 20  1  0  0  0  0
  5 19  1  0  0  0  0
  5  7  1  0  0  0  0
  6  7  2  0  0  0  0
  6 12  1  0  0  0  0
  7  8  1  0  0  0  0
  8  9  1  0  0  0  0
  8 10  2  0  0  0  0
 10 11  1  0  0  0  0
 11 12  2  0  0  0  0
 15 23  1  0  0  0  0
 15 16  1  0  0  0  0
 16 19  1  0  0  0  0
 19 22  1  0  0  0  0
 22  2  1  1  0  0  0
 22 23  1  0  0  0  0
 23 24  1  1  0  0  0
 24 25  1  0  0  0  0
 25 26  1  0  0  0  0
M  CHG  2  13  -1  18  -1
M  END
>  <CHROM.1>
-167.66029436,80.47815683,-59.96863025,-60.90290746,-52.98846388,-89.02280443
69.07484670,-78.93144652,-4.60545474,-44.34830306,9.28716525,-1.07324933
-0.60114695,-2.02202562

>  <Name>
ligand

>  <RI>
0

>  <Rbt.Current_Directory>
/home/itssahil/PROJECTS/Mol_Feturizer/New_Systems/rnas/3D2G

>  <Rbt.Executable>
rbdock ($Id: //depot/dev/client3/rdock/2013.1/src/exe/rbdock.cxx#4 $)

>  <Rbt.Library>
libRbt.so (2013.1, Build901 2013/11/27)

>  <Rbt.Parameter_File>
/export/apps/rDock/src/rDock_2013.1_src/data/scripts/dock_solv.prm

>  <Rbt.Receptor>
prm/pocket_docking_6.prm

>  <SCORE>
-14.1654

>  <SCORE.INTER>
-12.6591

>  <SCORE.INTER.CONST>
1

>  <SCORE.INTER.POLAR>
0

>  <SCORE.INTER.ROT>
8

>  <SCORE.INTER.SOLV>
6.52661

>  <SCORE.INTER.VDW>
-19.5483

>  <SCORE.INTER.norm>
-0.48689

>  <SCORE.INTRA>
-1.50622

>  <SCORE.INTRA.DIHEDRAL>
0.427585

>  <SCORE.INTRA.DIHEDRAL.0>
9.09364

>  <SCORE.INTRA.POLAR>
0

>  <SCORE.INTRA.POLAR.0>
0

>  <SCORE.INTRA.REPUL>
0

>  <SCORE.INTRA.REPUL.0>
0

>  <SCORE.INTRA.SOLV>
1.43403

>  <SCORE.INTRA.SOLV.lig_0>
-78.5846

>  <SCORE.INTRA.VDW>
-2.43703

>  <SCORE.INTRA.VDW.0>
-2.81163

>  <SCORE.INTRA.norm>
-0.0579314

>  <SCORE.RESTR>
0

>  <SCORE.RESTR.CAVITY>
0

>  <SCORE.RESTR.norm>
0

>  <SCORE.SYSTEM>
0

>  <SCORE.SYSTEM.CONST>
0

>  <SCORE.SYSTEM.DIHEDRAL>
0

>  <SCORE.SYSTEM.SOLV>
0

>  <SCORE.SYSTEM.norm>
0

>  <SCORE.heavy>
26

>  <SCORE.norm>
-0.544821

>  <RMSD>
8.537

$$$$
ligand
 OpenBabel11021811463D
libRbt.so/2013.1/901 2013/11/27
 26 27  0  0  0  0  0  0  0  0999 V2000
   -0.7364  -40.0151    9.8904 C   0  0  0  0  0  0  0  0  0  0  0  0
   -4.5894  -45.9391   10.7266 C   0  0  0  0  0  0  0  0  0  0  0  0
   -5.0800  -44.8578    6.2495 P   0  0  1  0  0  0  0  0  0  0  0  0
   -4.5864  -42.3655    7.2926 P   0  0  2  0  0  0  0  0  0  0  0  0
   -4.3014  -43.5316   12.6947 C   0  0  0  0  0  0  0  0  0  0  0  0
   -2.2523  -43.1408   11.2870 C   0  0  0  0  0  0  0  0  0  0  0  0
   -3.3531  -42.6123   11.9679 C   0  0  0  0  0  0  0  0  0  0  0  0
   -3.6041  -41.2376   11.9486 C   0  0  0  0  0  0  0  0  0  0  0  0
   -4.6514  -40.7480   12.5784 N   0  0  0  0  0  0  0  0  0  0  0  0
   -2.7373  -40.3964   11.2946 N   0  0  0  0  0  0  0  0  0  0  0  0
   -1.6611  -40.9288   10.6130 C   0  0  0  0  0  0  0  0  0  0  0  0
   -1.4056  -42.2872   10.6166 N   0  0  0  0  0  0  0  0  0  0  0  0
   -6.0792  -45.3685    5.2570 O   0  5  0  0  0  0  0  0  0  0  0  0
   -4.9901  -41.0190    6.8391 O   0  0  0  0  0  0  0  0  0  0  0  0
   -7.6475  -43.4994   10.8414 S   0  0  0  0  0  0  0  0  0  0  0  0
   -6.5434  -42.9894   11.8529 C   0  0  0  0  0  0  0  0  0  0  0  0
   -3.6585  -45.1985    5.9727 O   0  0  0  0  0  0  0  0  0  0  0  0
   -3.1275  -42.5686    7.2116 O   0  5  0  0  0  0  0  0  0  0  0  0
   -5.4350  -43.7892   11.8502 N   0  0  0  0  0  0  0  0  0  0  0  0
   -5.3815  -43.3046    6.2931 O   0  0  0  0  0  0  0  0  0  0  0  0
   -4.9104  -42.7397    8.7026 O   0  0  0  0  0  0  0  0  0  0  0  0
   -5.5772  -44.8450   10.9944 C   0  0  1  0  0  0  0  0  0  0  0  0
   -6.7978  -44.7722   10.3714 C   0  0  2  0  0  0  0  0  0  0  0  0
   -7.4375  -45.6681    9.3400 C   0  0  0  0  0  0  0  0  0  0  0  0
   -6.9724  -45.3311    7.9188 C   0  0  0  0  0  0  0  0  0  0  0  0
   -5.5927  -45.4435    7.6212 O   0  0  0  0  0  0  0  0  0  0  0  0
  1 11  1  0  0  0  0
  3 13  1  6  0  0  0
  3 17  2  0  0  0  0
  3 20  1  0  0  0  0
  3 26  1  0  0  0  0
  4 14  1  6  0  0  0
  4 18  1  0  0  0  0
  4 21  2  0  0  0  0
  4 20  1  0  0  0  0
  5 19  1  0  0  0  0
  5  7  1  0  0  0  0
  6  7  2  0  0  0  0
  6 12  1  0  0  0  0
  7  8  1  0  0  0  0
  8  9  1  0  0  0  0
  8 10  2  0  0  0  0
 10 11  1  0  0  0  0
 11 12  2  0  0  0  0
 15 23  1  0  0  0  0
 15 16  1  0  0  0  0
 16 19  1  0  0  0  0
 19 22  1  0  0  0  0
 22  2  1  6  0  0  0
 22 23  1  0  0  0  0
 23 24  1  6  0  0  0
 24 25  1  0  0  0  0
 25 26  1  0  0  0  0
M  CHG  2  13  -1  18  -1
M  END
>  <CHROM.1>
176.82803704,-88.72099755,-97.43897772,170.24159438,96.27484559,60.71333356
-169.36534010,-46.29924069,-4.74356308,-43.31663093,9.23314296,-1.02804100
-0.67394313,-1.78342024

>  <Name>
ligand

>  <RI>
0

>  <Rbt.Current_Directory>
/home/itssahil/PROJECTS/Mol_Feturizer/New_Systems/rnas/3D2G

>  <Rbt.Executable>
rbdock ($Id: //depot/dev/client3/rdock/2013.1/src/exe/rbdock.cxx#4 $)

>  <Rbt.Library>
libRbt.so (2013.1, Build901 2013/11/27)

>  <Rbt.Parameter_File>
/export/apps/rDock/src/rDock_2013.1_src/data/scripts/dock_solv.prm

>  <Rbt.Receptor>
prm/pocket_docking_8.prm

>  <SCORE>
-14.239

>  <SCORE.INTER>
-10.4582

>  <SCORE.INTER.CONST>
1

>  <SCORE.INTER.POLAR>
0

>  <SCORE.INTER.ROT>
8

>  <SCORE.INTER.SOLV>
5.43037

>  <SCORE.INTER.VDW>
-17.7156

>  <SCORE.INTER.norm>
-0.402239

>  <SCORE.INTRA>
-3.78078

>  <SCORE.INTRA.DIHEDRAL>
-3.52126

>  <SCORE.INTRA.DIHEDRAL.0>
9.09364

>  <SCORE.INTRA.POLAR>
0

>  <SCORE.INTRA.POLAR.0>
0

>  <SCORE.INTRA.REPUL>
0

>  <SCORE.INTRA.REPUL.0>
0

>  <SCORE.INTRA.SOLV>
3.19946

>  <SCORE.INTRA.SOLV.lig_0>
-78.5846

>  <SCORE.INTRA.VDW>
-3.61988

>  <SCORE.INTRA.VDW.0>
-2.81163

>  <SCORE.INTRA.norm>
-0.145415

>  <SCORE.RESTR>
0

>  <SCORE.RESTR.CAVITY>
0

>  <SCORE.RESTR.norm>
0

>  <SCORE.SYSTEM>
0

>  <SCORE.SYSTEM.CONST>
0

>  <SCORE.SYSTEM.DIHEDRAL>
0

>  <SCORE.SYSTEM.SOLV>
0

>  <SCORE.SYSTEM.norm>
0

>  <SCORE.heavy>
26

>  <SCORE.norm>
-0.547653

>  <RMSD>
8.559

$$$$
ligand
 OpenBabel11021811463D
libRbt.so/2013.1/901 2013/11/27
 26 27  0  0  0  0  0  0  0  0999 V2000
    1.9407  -39.1794    5.4938 C   0  0  0  0  0  0  0  0  0  0  0  0
   -4.0493  -44.2428    8.9745 C   0  0  0  0  0  0  0  0  0  0  0  0
   -7.5802  -39.5984    7.1734 P   0  0  1  0  0  0  0  0  0  0  0  0
   -6.2615  -38.4138    5.0756 P   0  0  2  0  0  0  0  0  0  0  0  0
   -1.4217  -42.5843    8.6624 C   0  0  0  0  0  0  0  0  0  0  0  0
   -0.0120  -40.5168    8.3950 C   0  0  0  0  0  0  0  0  0  0  0  0
   -0.5493  -41.6782    7.8315 C   0  0  0  0  0  0  0  0  0  0  0  0
   -0.2523  -42.0272    6.5112 C   0  0  0  0  0  0  0  0  0  0  0  0
   -0.7485  -43.1304    5.9917 N   0  0  0  0  0  0  0  0  0  0  0  0
    0.5352  -41.1994    5.7489 N   0  0  0  0  0  0  0  0  0  0  0  0
    1.0729  -40.0622    6.3183 C   0  0  0  0  0  0  0  0  0  0  0  0
    0.7945  -39.7094    7.6253 N   0  0  0  0  0  0  0  0  0  0  0  0
   -7.3787  -39.5171    8.6557 O   0  5  0  0  0  0  0  0  0  0  0  0
   -5.3872  -39.5935    4.9149 O   0  0  0  0  0  0  0  0  0  0  0  0
   -4.5410  -40.3705    8.6901 S   0  0  0  0  0  0  0  0  0  0  0  0
   -2.9954  -40.7000    8.6203 C   0  0  0  0  0  0  0  0  0  0  0  0
   -8.9872  -39.4871    6.7031 O   0  0  0  0  0  0  0  0  0  0  0  0
   -5.5809  -37.1588    4.7038 O   0  5  0  0  0  0  0  0  0  0  0  0
   -2.7522  -42.0429    8.6962 N   0  0  0  0  0  0  0  0  0  0  0  0
   -6.6165  -38.4716    6.6195 O   0  0  0  0  0  0  0  0  0  0  0  0
   -7.5192  -38.3776    4.2694 O   0  0  0  0  0  0  0  0  0  0  0  0
   -3.9078  -42.7570    8.8440 C   0  0  1  0  0  0  0  0  0  0  0  0
   -4.9807  -41.9014    8.8511 C   0  0  2  0  0  0  0  0  0  0  0  0
   -6.4601  -42.1702    8.9721 C   0  0  0  0  0  0  0  0  0  0  0  0
   -7.1705  -42.0941    7.6159 C   0  0  0  0  0  0  0  0  0  0  0  0
   -6.9141  -40.9749    6.7873 O   0  0  0  0  0  0  0  0  0  0  0  0
  1 11  1  0  0  0  0
  3 13  1  1  0  0  0
  3 17  2  0  0  0  0
  3 20  1  0  0  0  0
  3 26  1  0  0  0  0
  4 14  1  6  0  0  0
  4 18  1  0  0  0  0
  4 21  2  0  0  0  0
  4 20  1  0  0  0  0
  5 19  1  0  0  0  0
  5  7  1  0  0  0  0
  6  7  2  0  0  0  0
  6 12  1  0  0  0  0
  7  8  1  0  0  0  0
  8  9  1  0  0  0  0
  8 10  2  0  0  0  0
 10 11  1  0  0  0  0
 11 12  2  0  0  0  0
 15 23  1  0  0  0  0
 15 16  1  0  0  0  0
 16 19  1  0  0  0  0
 19 22  1  0  0  0  0
 22  2  1  6  0  0  0
 22 23  1  0  0  0  0
 23 24  1  6  0  0  0
 24 25  1  0  0  0  0
 25 26  1  0  0  0  0
M  CHG  2  13  -1  18  -1
M  END
>  <CHROM.1>
166.30170289,-30.44232178,81.04542192,-70.97166986,77.67205499,-48.36899177
-75.10535989,43.64354109,-4.21104470,-40.46891453,7.10153186,-0.23444399
0.10381983,-0.74898375

>  <Name>
ligand

>  <RI>
0

>  <Rbt.Current_Directory>
/home/itssahil/PROJECTS/Mol_Feturizer/New_Systems/rnas/3D2G

>  <Rbt.Executable>
rbdock ($Id: //depot/dev/client3/rdock/2013.1/src/exe/rbdock.cxx#4 $)

>  <Rbt.Library>
libRbt.so (2013.1, Build901 2013/11/27)

>  <Rbt.Parameter_File>
/export/apps/rDock/src/rDock_2013.1_src/data/scripts/dock_solv.prm

>  <Rbt.Receptor>
prm/blind_docking_60.prm

>  <SCORE>
-11.0162

>  <SCORE.INTER>
-9.35906

>  <SCORE.INTER.CONST>
1

>  <SCORE.INTER.POLAR>
0

>  <SCORE.INTER.ROT>
8

>  <SCORE.INTER.SOLV>
18.5861

>  <SCORE.INTER.VDW>
-21.3681

>  <SCORE.INTER.norm>
-0.359964

>  <SCORE.INTRA>
-1.65718

>  <SCORE.INTRA.DIHEDRAL>
-1.486

>  <SCORE.INTRA.DIHEDRAL.0>
9.09364

>  <SCORE.INTRA.POLAR>
0

>  <SCORE.INTRA.POLAR.0>
0

>  <SCORE.INTRA.REPUL>
0

>  <SCORE.INTRA.REPUL.0>
0

>  <SCORE.INTRA.SOLV>
-0.923501

>  <SCORE.INTRA.SOLV.lig_0>
-78.5846

>  <SCORE.INTRA.VDW>
-0.452423

>  <SCORE.INTRA.VDW.0>
-2.81163

>  <SCORE.INTRA.norm>
-0.0637376

>  <SCORE.RESTR>
0

>  <SCORE.RESTR.CAVITY>
0

>  <SCORE.RESTR.norm>
0

>  <SCORE.SYSTEM>
0

>  <SCORE.SYSTEM.CONST>
0

>  <SCORE.SYSTEM.DIHEDRAL>
0

>  <SCORE.SYSTEM.SOLV>
0

>  <SCORE.SYSTEM.norm>
0

>  <SCORE.heavy>
26

>  <SCORE.norm>
-0.423701

>  <RMSD>
8.569

$$$$
ligand
 OpenBabel11021811463D
libRbt.so/2013.1/901 2013/11/27
 26 27  0  0  0  0  0  0  0  0999 V2000
   -4.6377  -32.4086   11.5689 C   0  0  0  0  0  0  0  0  0  0  0  0
   -3.5036  -39.9250   10.2495 C   0  0  0  0  0  0  0  0  0  0  0  0
   -2.5749  -43.8660   10.4863 P   0  0  1  0  0  0  0  0  0  0  0  0
   -1.0038  -42.9585    8.4245 P   0  0  2  0  0  0  0  0  0  0  0  0
   -1.9399  -37.4709   11.3829 C   0  0  0  0  0  0  0  0  0  0  0  0
   -3.9900  -36.0860   11.8441 C   0  0  0  0  0  0  0  0  0  0  0  0
   -2.6588  -36.1463   11.4206 C   0  0  0  0  0  0  0  0  0  0  0  0
   -1.9749  -34.9800   11.0671 C   0  0  0  0  0  0  0  0  0  0  0  0
   -0.7167  -35.0418   10.6846 N   0  0  0  0  0  0  0  0  0  0  0  0
   -2.6296  -33.7727   11.0922 N   0  0  0  0  0  0  0  0  0  0  0  0
   -3.9395  -33.7211   11.5255 C   0  0  0  0  0  0  0  0  0  0  0  0
   -4.6255  -34.8657   11.8861 N   0  0  0  0  0  0  0  0  0  0  0  0
   -3.4774  -45.0607   10.5384 O   0  5  0  0  0  0  0  0  0  0  0  0
   -0.9918  -41.7232    9.2342 O   0  0  0  0  0  0  0  0  0  0  0  0
   -3.6164  -39.5237   14.1410 S   0  0  0  0  0  0  0  0  0  0  0  0
   -2.7474  -38.3529   13.5274 C   0  0  0  0  0  0  0  0  0  0  0  0
   -1.3351  -43.9537   11.3040 O   0  0  0  0  0  0  0  0  0  0  0  0
   -1.0443  -42.6776    6.9768 O   0  5  0  0  0  0  0  0  0  0  0  0
   -2.6809  -38.4224   12.1639 N   0  0  0  0  0  0  0  0  0  0  0  0
   -2.3210  -43.6775    8.9354 O   0  0  0  0  0  0  0  0  0  0  0  0
    0.1625  -43.8820    8.5655 O   0  0  0  0  0  0  0  0  0  0  0  0
   -3.3588  -39.5060   11.6807 C   0  0  1  0  0  0  0  0  0  0  0  0
   -3.9272  -40.1960   12.7218 C   0  0  2  0  0  0  0  0  0  0  0  0
   -4.7792  -41.4409   12.7360 C   0  0  0  0  0  0  0  0  0  0  0  0
   -4.0046  -42.6726   12.2536 C   0  0  0  0  0  0  0  0  0  0  0  0
   -3.5137  -42.6773   10.9255 O   0  0  0  0  0  0  0  0  0  0  0  0
  1 11  1  0  0  0  0
  3 13  1  1  0  0  0
  3 17  2  0  0  0  0
  3 20  1  0  0  0  0
  3 26  1  0  0  0  0
  4 14  1  1  0  0  0
  4 18  1  0  0  0  0
  4 21  2  0  0  0  0
  4 20  1  0  0  0  0
  5 19  1  0  0  0  0
  5  7  1  0  0  0  0
  6  7  2  0  0  0  0
  6 12  1  0  0  0  0
  7  8  1  0  0  0  0
  8  9  1  0  0  0  0
  8 10  2  0  0  0  0
 10 11  1  0  0  0  0
 11 12  2  0  0  0  0
 15 23  1  0  0  0  0
 15 16  1  0  0  0  0
 16 19  1  0  0  0  0
 19 22  1  0  0  0  0
 22  2  1  6  0  0  0
 22 23  1  0  0  0  0
 23 24  1  6  0  0  0
 24 25  1  0  0  0  0
 25 26  1  0  0  0  0
M  CHG  2  13  -1  18  -1
M  END
>  <CHROM.1>
-154.49657561,-70.68253431,-16.06762512,-50.14551758,-115.01682051,-62.34064918
172.91646098,66.06453422,-2.67909060,-39.94845350,10.97221293,-1.84804013
-0.96953561,-3.12972319

>  <Name>
ligand

>  <RI>
0

>  <Rbt.Current_Directory>
/home/itssahil/PROJECTS/Mol_Feturizer/New_Systems/rnas/3D2G

>  <Rbt.Executable>
rbdock ($Id: //depot/dev/client3/rdock/2013.1/src/exe/rbdock.cxx#4 $)

>  <Rbt.Library>
libRbt.so (2013.1, Build901 2013/11/27)

>  <Rbt.Parameter_File>
/export/apps/rDock/src/rDock_2013.1_src/data/scripts/dock_solv.prm

>  <Rbt.Receptor>
prm/blind_docking_80.prm

>  <SCORE>
-12.5768

>  <SCORE.INTER>
-9.76303

>  <SCORE.INTER.CONST>
1

>  <SCORE.INTER.POLAR>
0

>  <SCORE.INTER.ROT>
8

>  <SCORE.INTER.SOLV>
16.368

>  <SCORE.INTER.VDW>
-20.898

>  <SCORE.INTER.norm>
-0.375501

>  <SCORE.INTRA>
-2.81373

>  <SCORE.INTRA.DIHEDRAL>
-2.60545

>  <SCORE.INTRA.DIHEDRAL.0>
9.09364

>  <SCORE.INTRA.POLAR>
0

>  <SCORE.INTRA.POLAR.0>
0

>  <SCORE.INTRA.REPUL>
0

>  <SCORE.INTRA.REPUL.0>
0

>  <SCORE.INTRA.SOLV>
-2.82847

>  <SCORE.INTRA.SOLV.lig_0>
-78.5846

>  <SCORE.INTRA.VDW>
-0.0967708

>  <SCORE.INTRA.VDW.0>
-2.81163

>  <SCORE.INTRA.norm>
-0.10822

>  <SCORE.RESTR>
0

>  <SCORE.RESTR.CAVITY>
0

>  <SCORE.RESTR.norm>
0

>  <SCORE.SYSTEM>
0

>  <SCORE.SYSTEM.CONST>
0

>  <SCORE.SYSTEM.DIHEDRAL>
0

>  <SCORE.SYSTEM.SOLV>
0

>  <SCORE.SYSTEM.norm>
0

>  <SCORE.heavy>
26

>  <SCORE.norm>
-0.483721

>  <RMSD>
8.585

$$$$
ligand
 OpenBabel11021811463D
libRbt.so/2013.1/901 2013/11/27
 26 27  0  0  0  0  0  0  0  0999 V2000
   -9.4261  -39.9135    7.2607 C   0  0  0  0  0  0  0  0  0  0  0  0
   -2.3516  -39.8992   11.0394 C   0  0  0  0  0  0  0  0  0  0  0  0
   -4.3452  -36.2807   12.0802 P   0  0  1  0  0  0  0  0  0  0  0  0
   -4.8140  -33.7758   13.1042 P   0  0  2  0  0  0  0  0  0  0  0  0
   -4.6235  -41.6854    9.8560 C   0  0  0  0  0  0  0  0  0  0  0  0
   -6.0281  -39.8653    8.8325 C   0  0  0  0  0  0  0  0  0  0  0  0
   -5.8882  -41.2106    9.1869 C   0  0  0  0  0  0  0  0  0  0  0  0
   -6.8987  -42.1294    8.8906 C   0  0  0  0  0  0  0  0  0  0  0  0
   -6.7539  -43.3977    9.2125 N   0  0  0  0  0  0  0  0  0  0  0  0
   -8.0557  -41.6985    8.2887 N   0  0  0  0  0  0  0  0  0  0  0  0
   -8.1788  -40.3710    7.9295 C   0  0  0  0  0  0  0  0  0  0  0  0
   -7.1839  -39.4530    8.2088 N   0  0  0  0  0  0  0  0  0  0  0  0
   -5.2450  -37.3311   11.5044 O   0  5  0  0  0  0  0  0  0  0  0  0
   -6.0296  -32.9377   13.1455 O   0  0  0  0  0  0  0  0  0  0  0  0
   -5.3007  -40.6918   13.4873 S   0  0  0  0  0  0  0  0  0  0  0  0
   -5.5869  -41.3849   12.0945 C   0  0  0  0  0  0  0  0  0  0  0  0
   -3.1699  -35.9064   11.2482 O   0  0  0  0  0  0  0  0  0  0  0  0
   -3.7140  -33.1291   12.3640 O   0  5  0  0  0  0  0  0  0  0  0  0
   -4.5831  -41.1627   11.1938 N   0  0  0  0  0  0  0  0  0  0  0  0
   -5.3382  -35.0855   12.3810 O   0  0  0  0  0  0  0  0  0  0  0  0
   -4.1862  -34.1377   14.4111 O   0  0  0  0  0  0  0  0  0  0  0  0
   -3.6008  -40.3710   11.7188 C   0  0  1  0  0  0  0  0  0  0  0  0
   -3.9118  -40.0500   13.0163 C   0  0  2  0  0  0  0  0  0  0  0  0
   -3.1690  -39.2236   14.0366 C   0  0  0  0  0  0  0  0  0  0  0  0
   -2.8727  -37.8094   13.5247 C   0  0  0  0  0  0  0  0  0  0  0  0
   -3.9365  -36.8759   13.4824 O   0  0  0  0  0  0  0  0  0  0  0  0
  1 11  1  0  0  0  0
  3 13  1  6  0  0  0
  3 17  2  0  0  0  0
  3 20  1  0  0  0  0
  3 26  1  0  0  0  0
  4 14  1  1  0  0  0
  4 18  1  0  0  0  0
  4 21  2  0  0  0  0
  4 20  1  0  0  0  0
  5 19  1  0  0  0  0
  5  7  1  0  0  0  0
  6  7  2  0  0  0  0
  6 12  1  0  0  0  0
  7  8  1  0  0  0  0
  8  9  1  0  0  0  0
  8 10  2  0  0  0  0
 10 11  1  0  0  0  0
 11 12  2  0  0  0  0
 15 23  1  0  0  0  0
 15 16  1  0  0  0  0
 16 19  1  0  0  0  0
 19 22  1  0  0  0  0
 22  2  1  1  0  0  0
 22 23  1  0  0  0  0
 23 24  1  1  0  0  0
 24 25  1  0  0  0  0
 25 26  1  0  0  0  0
M  CHG  2  13  -1  18  -1
M  END
>  <CHROM.1>
175.76651615,56.27947542,70.61438439,178.48509487,-124.37217675,75.37329874
-118.62594809,82.70689183,-5.11649959,-38.28936470,11.49219947,2.00646143
0.83960607,-2.96968119

>  <Name>
ligand

>  <RI>
0

>  <Rbt.Current_Directory>
/home/itssahil/PROJECTS/Mol_Feturizer/New_Systems/rnas/3D2G

>  <Rbt.Executable>
rbdock ($Id: //depot/dev/client3/rdock/2013.1/src/exe/rbdock.cxx#4 $)

>  <Rbt.Library>
libRbt.so (2013.1, Build901 2013/11/27)

>  <Rbt.Parameter_File>
/export/apps/rDock/src/rDock_2013.1_src/data/scripts/dock_solv.prm

>  <Rbt.Receptor>
prm/blind_docking_100.prm

>  <SCORE>
-13.6355

>  <SCORE.INTER>
-14.4123

>  <SCORE.INTER.CONST>
1

>  <SCORE.INTER.POLAR>
0

>  <SCORE.INTER.ROT>
8

>  <SCORE.INTER.SOLV>
14.1928

>  <SCORE.INTER.VDW>
-23.2725

>  <SCORE.INTER.norm>
-0.554321

>  <SCORE.INTRA>
0.712293

>  <SCORE.INTRA.DIHEDRAL>
4.06369

>  <SCORE.INTRA.DIHEDRAL.0>
9.09364

>  <SCORE.INTRA.POLAR>
0

>  <SCORE.INTRA.POLAR.0>
0

>  <SCORE.INTRA.REPUL>
0

>  <SCORE.INTRA.REPUL.0>
0

>  <SCORE.INTRA.SOLV>
1.3605

>  <SCORE.INTRA.SOLV.lig_0>
-78.5846

>  <SCORE.INTRA.VDW>
-1.9998

>  <SCORE.INTRA.VDW.0>
-2.81163

>  <SCORE.INTRA.norm>
0.0273959

>  <SCORE.RESTR>
0.0645042

>  <SCORE.RESTR.CAVITY>
0.0645042

>  <SCORE.RESTR.norm>
0.00248093

>  <SCORE.SYSTEM>
0

>  <SCORE.SYSTEM.CONST>
0

>  <SCORE.SYSTEM.DIHEDRAL>
0

>  <SCORE.SYSTEM.SOLV>
0

>  <SCORE.SYSTEM.norm>
0

>  <SCORE.heavy>
26

>  <SCORE.norm>
-0.524444

>  <RMSD>
8.596

$$$$
ligand
 OpenBabel11021811463D
libRbt.so/2013.1/901 2013/11/27
 26 27  0  0  0  0  0  0  0  0999 V2000
   -0.8621  -42.6240   11.3543 C   0  0  0  0  0  0  0  0  0  0  0  0
   -6.4551  -43.0634    8.7139 C   0  0  0  0  0  0  0  0  0  0  0  0
   -3.4038  -45.4156    5.4255 P   0  0  1  0  0  0  0  0  0  0  0  0
   -0.8655  -44.3819    5.2485 P   0  0  2  0  0  0  0  0  0  0  0  0
   -6.3247  -44.3741   11.5454 C   0  0  0  0  0  0  0  0  0  0  0  0
   -4.5611  -42.6215   11.9343 C   0  0  0  0  0  0  0  0  0  0  0  0
   -4.8940  -43.9029   11.4848 C   0  0  0  0  0  0  0  0  0  0  0  0
   -3.9024  -44.7677   11.0137 C   0  0  0  0  0  0  0  0  0  0  0  0
   -4.2203  -45.9787   10.6070 N   0  0  0  0  0  0  0  0  0  0  0  0
   -2.5992  -44.3384   10.9492 N   0  0  0  0  0  0  0  0  0  0  0  0
   -2.2778  -43.0767   11.4086 C   0  0  0  0  0  0  0  0  0  0  0  0
   -3.2471  -42.2141   11.8850 N   0  0  0  0  0  0  0  0  0  0  0  0
   -3.6667  -44.8650    4.0572 O   0  5  0  0  0  0  0  0  0  0  0  0
   -0.3554  -45.7594    5.4034 O   0  0  0  0  0  0  0  0  0  0  0  0
   -7.1991  -46.9045    8.8134 S   0  0  0  0  0  0  0  0  0  0  0  0
   -6.8913  -46.4013   10.2811 C   0  0  0  0  0  0  0  0  0  0  0  0
   -3.0735  -46.8648    5.4889 O   0  0  0  0  0  0  0  0  0  0  0  0
    0.0297  -43.3820    5.8610 O   0  5  0  0  0  0  0  0  0  0  0  0
   -6.6391  -45.0585   10.3218 N   0  0  0  0  0  0  0  0  0  0  0  0
   -2.2687  -44.4632    5.9817 O   0  0  0  0  0  0  0  0  0  0  0  0
   -1.0523  -43.8725    3.8561 O   0  0  0  0  0  0  0  0  0  0  0  0
   -6.6876  -44.4985    9.0763 C   0  0  1  0  0  0  0  0  0  0  0  0
   -6.9993  -45.4614    8.1497 C   0  0  2  0  0  0  0  0  0  0  0  0
   -7.1874  -45.3731    6.6556 C   0  0  0  0  0  0  0  0  0  0  0  0
   -5.9079  -45.7360    5.8932 C   0  0  0  0  0  0  0  0  0  0  0  0
   -4.7135  -45.0519    6.2254 O   0  0  0  0  0  0  0  0  0  0  0  0
  1 11  1  0  0  0  0
  3 13  1  6  0  0  0
  3 17  2  0  0  0  0
  3 20  1  0  0  0  0
  3 26  1  0  0  0  0
  4 14  1  6  0  0  0
  4 18  1  0  0  0  0
  4 21  2  0  0  0  0
  4 20  1  0  0  0  0
  5 19  1  0  0  0  0
  5  7  1  0  0  0  0
  6  7  2  0  0  0  0
  6 12  1  0  0  0  0
  7  8  1  0  0  0  0
  8  9  1  0  0  0  0
  8 10  2  0  0  0  0
 10 11  1  0  0  0  0
 11 12  2  0  0  0  0
 15 23  1  0  0  0  0
 15 16  1  0  0  0  0
 16 19  1  0  0  0  0
 19 22  1  0  0  0  0
 22  2  1  1  0  0  0
 22 23  1  0  0  0  0
 23 24  1  1  0  0  0
 24 25  1  0  0  0  0
 25 26  1  0  0  0  0
M  CHG  2  13  -1  18  -1
M  END
>  <CHROM.1>
-61.67387171,112.69933592,137.16978986,-63.12714824,-85.09571683,-53.44886068
-179.22518778,69.95804524,-3.95927563,-44.76047894,7.97780092,-2.22983983
-0.37183648,-1.87357013

>  <Name>
ligand

>  <RI>
0

>  <Rbt.Current_Directory>
/home/itssahil/PROJECTS/Mol_Feturizer/New_Systems/rnas/3D2G

>  <Rbt.Executable>
rbdock ($Id: //depot/dev/client3/rdock/2013.1/src/exe/rbdock.cxx#4 $)

>  <Rbt.Library>
libRbt.so (2013.1, Build901 2013/11/27)

>  <Rbt.Parameter_File>
/export/apps/rDock/src/rDock_2013.1_src/data/scripts/dock_solv.prm

>  <Rbt.Receptor>
prm/pocket_docking_5.prm

>  <SCORE>
-12.0967

>  <SCORE.INTER>
-10.1848

>  <SCORE.INTER.CONST>
1

>  <SCORE.INTER.POLAR>
0

>  <SCORE.INTER.ROT>
8

>  <SCORE.INTER.SOLV>
13.0841

>  <SCORE.INTER.VDW>
-20.0846

>  <SCORE.INTER.norm>
-0.391723

>  <SCORE.INTRA>
-1.91186

>  <SCORE.INTRA.DIHEDRAL>
-3.89787

>  <SCORE.INTRA.DIHEDRAL.0>
9.09364

>  <SCORE.INTRA.POLAR>
0

>  <SCORE.INTRA.POLAR.0>
0

>  <SCORE.INTRA.REPUL>
0

>  <SCORE.INTRA.REPUL.0>
0

>  <SCORE.INTRA.SOLV>
1.79924

>  <SCORE.INTRA.SOLV.lig_0>
-78.5846

>  <SCORE.INTRA.VDW>
-0.862546

>  <SCORE.INTRA.VDW.0>
-2.81163

>  <SCORE.INTRA.norm>
-0.073533

>  <SCORE.RESTR>
0

>  <SCORE.RESTR.CAVITY>
0

>  <SCORE.RESTR.norm>
0

>  <SCORE.SYSTEM>
0

>  <SCORE.SYSTEM.CONST>
0

>  <SCORE.SYSTEM.DIHEDRAL>
0

>  <SCORE.SYSTEM.SOLV>
0

>  <SCORE.SYSTEM.norm>
0

>  <SCORE.heavy>
26

>  <SCORE.norm>
-0.465256

>  <RMSD>
8.611

$$$$
ligand
 OpenBabel11021811463D
libRbt.so/2013.1/901 2013/11/27
 26 27  0  0  0  0  0  0  0  0999 V2000
   -1.0056  -42.6714   11.2932 C   0  0  0  0  0  0  0  0  0  0  0  0
   -4.9358  -46.9715   10.0285 C   0  0  0  0  0  0  0  0  0  0  0  0
   -2.4926  -47.1198    4.9456 P   0  0  1  0  0  0  0  0  0  0  0  0
   -2.1597  -44.5877    3.9354 P   0  0  2  0  0  0  0  0  0  0  0  0
   -6.4482  -44.2665   10.4141 C   0  0  0  0  0  0  0  0  0  0  0  0
   -4.3219  -44.3461   11.7578 C   0  0  0  0  0  0  0  0  0  0  0  0
   -5.0229  -43.8407   10.6588 C   0  0  0  0  0  0  0  0  0  0  0  0
   -4.3992  -42.9705    9.7606 C   0  0  0  0  0  0  0  0  0  0  0  0
   -5.0598  -42.5107    8.7188 N   0  0  0  0  0  0  0  0  0  0  0  0
   -3.1034  -42.5738    9.9854 N   0  0  0  0  0  0  0  0  0  0  0  0
   -2.4146  -43.0895   11.0653 C   0  0  0  0  0  0  0  0  0  0  0  0
   -3.0165  -43.9575   11.9568 N   0  0  0  0  0  0  0  0  0  0  0  0
   -2.5131  -48.4629    4.2823 O   0  5  0  0  0  0  0  0  0  0  0  0
   -0.7798  -44.5193    3.4130 O   0  0  0  0  0  0  0  0  0  0  0  0
   -7.1241  -45.8324    6.9901 S   0  0  0  0  0  0  0  0  0  0  0  0
   -7.2475  -44.7585    8.1451 C   0  0  0  0  0  0  0  0  0  0  0  0
   -1.3790  -46.8867    5.9042 O   0  0  0  0  0  0  0  0  0  0  0  0
   -2.2416  -44.1853    5.3523 O   0  5  0  0  0  0  0  0  0  0  0  0
   -6.4905  -45.0865    9.2349 N   0  0  0  0  0  0  0  0  0  0  0  0
   -2.5201  -46.1166    3.7217 O   0  0  0  0  0  0  0  0  0  0  0  0
   -3.1872  -43.7292    3.2717 O   0  0  0  0  0  0  0  0  0  0  0  0
   -5.8429  -46.2769    9.0592 C   0  0  1  0  0  0  0  0  0  0  0  0
   -6.1349  -46.7815    7.8169 C   0  0  2  0  0  0  0  0  0  0  0  0
   -5.6761  -48.0427    7.1281 C   0  0  0  0  0  0  0  0  0  0  0  0
   -4.2211  -47.9429    6.6564 C   0  0  0  0  0  0  0  0  0  0  0  0
   -3.9131  -47.0238    5.6243 O   0  0  0  0  0  0  0  0  0  0  0  0
  1 11  1  0  0  0  0
  3 13  1  6  0  0  0
  3 17  2  0  0  0  0
  3 20  1  0  0  0  0
  3 26  1  0  0  0  0
  4 14  1  6  0  0  0
  4 18  1  0  0  0  0
  4 21  2  0  0  0  0
  4 20  1  0  0  0  0
  5 19  1  0  0  0  0
  5  7  1  0  0  0  0
  6  7  2  0  0  0  0
  6 12  1  0  0  0  0
  7  8  1  0  0  0  0
  8  9  1  0  0  0  0
  8 10  2  0  0  0  0
 10 11  1  0  0  0  0
 11 12  2  0  0  0  0
 15 23  1  0  0  0  0
 15 16  1  0  0  0  0
 16 19  1  0  0  0  0
 19 22  1  0  0  0  0
 22  2  1  6  0  0  0
 22 23  1  0  0  0  0
 23 24  1  6  0  0  0
 24 25  1  0  0  0  0
 25 26  1  0  0  0  0
M  CHG  2  13  -1  18  -1
M  END
>  <CHROM.1>
-165.17421268,-121.07530076,-110.89955473,102.38516415,105.47866069,-66.86415239
-168.13036943,64.34997369,-3.89263664,-45.29920711,7.27539529,-1.96278755
-0.55766616,-2.09004483

>  <Name>
ligand

>  <RI>
0

>  <Rbt.Current_Directory>
/home/itssahil/PROJECTS/Mol_Feturizer/New_Systems/rnas/3D2G

>  <Rbt.Executable>
rbdock ($Id: //depot/dev/client3/rdock/2013.1/src/exe/rbdock.cxx#4 $)

>  <Rbt.Library>
libRbt.so (2013.1, Build901 2013/11/27)

>  <Rbt.Parameter_File>
/export/apps/rDock/src/rDock_2013.1_src/data/scripts/dock_solv.prm

>  <Rbt.Receptor>
prm/pocket_docking_7.prm

>  <SCORE>
-10.3746

>  <SCORE.INTER>
-8.65645

>  <SCORE.INTER.CONST>
1

>  <SCORE.INTER.POLAR>
0

>  <SCORE.INTER.ROT>
8

>  <SCORE.INTER.SOLV>
8.10433

>  <SCORE.INTER.VDW>
-17.4057

>  <SCORE.INTER.norm>
-0.33294

>  <SCORE.INTRA>
-1.7182

>  <SCORE.INTRA.DIHEDRAL>
-0.956251

>  <SCORE.INTRA.DIHEDRAL.0>
9.09364

>  <SCORE.INTRA.POLAR>
0

>  <SCORE.INTRA.POLAR.0>
0

>  <SCORE.INTRA.REPUL>
0

>  <SCORE.INTRA.REPUL.0>
0

>  <SCORE.INTRA.SOLV>
-0.439903

>  <SCORE.INTRA.SOLV.lig_0>
-78.5846

>  <SCORE.INTRA.VDW>
-1.02012

>  <SCORE.INTRA.VDW.0>
-2.81163

>  <SCORE.INTRA.norm>
-0.0660845

>  <SCORE.RESTR>
0

>  <SCORE.RESTR.CAVITY>
0

>  <SCORE.RESTR.norm>
0

>  <SCORE.SYSTEM>
0

>  <SCORE.SYSTEM.CONST>
0

>  <SCORE.SYSTEM.DIHEDRAL>
0

>  <SCORE.SYSTEM.SOLV>
0

>  <SCORE.SYSTEM.norm>
0

>  <SCORE.heavy>
26

>  <SCORE.norm>
-0.399025

>  <RMSD>
8.622

$$$$
ligand
 OpenBabel11021811463D
libRbt.so/2013.1/901 2013/11/27
 26 27  0  0  0  0  0  0  0  0999 V2000
   -5.2084  -40.6113   13.2759 C   0  0  0  0  0  0  0  0  0  0  0  0
   -3.8911  -45.9359    7.9233 C   0  0  0  0  0  0  0  0  0  0  0  0
   -6.7353  -42.8387    5.3470 P   0  0  1  0  0  0  0  0  0  0  0  0
   -7.6490  -41.6957    7.6712 P   0  0  2  0  0  0  0  0  0  0  0  0
   -4.3416  -45.8131   11.0111 C   0  0  0  0  0  0  0  0  0  0  0  0
   -5.3926  -44.3117   12.7357 C   0  0  0  0  0  0  0  0  0  0  0  0
   -4.5849  -44.4480   11.6026 C   0  0  0  0  0  0  0  0  0  0  0  0
   -3.9681  -43.3301   11.0344 C   0  0  0  0  0  0  0  0  0  0  0  0
   -3.1958  -43.4674    9.9771 N   0  0  0  0  0  0  0  0  0  0  0  0
   -4.1945  -42.0839   11.5658 N   0  0  0  0  0  0  0  0  0  0  0  0
   -4.9820  -41.9609   12.6933 C   0  0  0  0  0  0  0  0  0  0  0  0
   -5.5913  -43.0590   13.2706 N   0  0  0  0  0  0  0  0  0  0  0  0
   -7.4191  -43.2816    4.0897 O   0  5  0  0  0  0  0  0  0  0  0  0
   -8.8241  -40.8239    7.8735 O   0  0  0  0  0  0  0  0  0  0  0  0
   -7.5607  -46.6103    9.1049 S   0  0  0  0  0  0  0  0  0  0  0  0
   -6.6527  -46.3414   10.3721 C   0  0  0  0  0  0  0  0  0  0  0  0
   -5.6221  -41.8672    5.1722 O   0  0  0  0  0  0  0  0  0  0  0  0
   -6.3804  -40.9444    7.7206 O   0  5  0  0  0  0  0  0  0  0  0  0
   -5.3558  -46.0797   10.0289 N   0  0  0  0  0  0  0  0  0  0  0  0
   -7.9319  -42.3061    6.2357 O   0  0  0  0  0  0  0  0  0  0  0  0
   -7.4365  -42.7993    8.6561 O   0  0  0  0  0  0  0  0  0  0  0  0
   -5.1685  -46.1476    8.6770 C   0  0  1  0  0  0  0  0  0  0  0  0
   -6.3589  -46.4416    8.0609 C   0  0  2  0  0  0  0  0  0  0  0  0
   -6.7021  -46.6141    6.6021 C   0  0  0  0  0  0  0  0  0  0  0  0
   -7.1510  -45.2975    5.9581 C   0  0  0  0  0  0  0  0  0  0  0  0
   -6.2669  -44.1925    6.0066 O   0  0  0  0  0  0  0  0  0  0  0  0
  1 11  1  0  0  0  0
  3 13  1  6  0  0  0
  3 17  2  0  0  0  0
  3 20  1  0  0  0  0
  3 26  1  0  0  0  0
  4 14  1  1  0  0  0
  4 18  1  0  0  0  0
  4 21  2  0  0  0  0
  4 20  1  0  0  0  0
  5 19  1  0  0  0  0
  5  7  1  0  0  0  0
  6  7  2  0  0  0  0
  6 12  1  0  0  0  0
  7  8  1  0  0  0  0
  8  9  1  0  0  0  0
  8 10  2  0  0  0  0
 10 11  1  0  0  0  0
 11 12  2  0  0  0  0
 15 23  1  0  0  0  0
 15 16  1  0  0  0  0
 16 19  1  0  0  0  0
 19 22  1  0  0  0  0
 22  2  1  6  0  0  0
 22 23  1  0  0  0  0
 23 24  1  6  0  0  0
 24 25  1  0  0  0  0
 25 26  1  0  0  0  0
M  CHG  2  13  -1  18  -1
M  END
>  <CHROM.1>
-178.48205434,-71.78403226,90.22823130,155.92793608,88.40576705,57.26960262
-179.78968980,-40.38434496,-6.16981651,-43.73156725,8.62519509,0.25682787
-1.21028844,0.35030814

>  <Name>
ligand

>  <RI>
0

>  <Rbt.Current_Directory>
/home/itssahil/PROJECTS/Mol_Feturizer/New_Systems/rnas/3D2G

>  <Rbt.Executable>
rbdock ($Id: //depot/dev/client3/rdock/2013.1/src/exe/rbdock.cxx#4 $)

>  <Rbt.Library>
libRbt.so (2013.1, Build901 2013/11/27)

>  <Rbt.Parameter_File>
/export/apps/rDock/src/rDock_2013.1_src/data/scripts/dock_solv.prm

>  <Rbt.Receptor>
prm/pocket_docking_6.prm

>  <SCORE>
-18.9065

>  <SCORE.INTER>
-16.4227

>  <SCORE.INTER.CONST>
1

>  <SCORE.INTER.POLAR>
0

>  <SCORE.INTER.ROT>
8

>  <SCORE.INTER.SOLV>
9.4318

>  <SCORE.INTER.VDW>
-23.0257

>  <SCORE.INTER.norm>
-0.631642

>  <SCORE.INTRA>
-2.48378

>  <SCORE.INTRA.DIHEDRAL>
-2.90079

>  <SCORE.INTRA.DIHEDRAL.0>
9.09364

>  <SCORE.INTRA.POLAR>
0

>  <SCORE.INTRA.POLAR.0>
0

>  <SCORE.INTRA.REPUL>
0

>  <SCORE.INTRA.REPUL.0>
0

>  <SCORE.INTRA.SOLV>
1.59157

>  <SCORE.INTRA.SOLV.lig_0>
-78.5846

>  <SCORE.INTRA.VDW>
-1.82917

>  <SCORE.INTRA.VDW.0>
-2.81163

>  <SCORE.INTRA.norm>
-0.09553

>  <SCORE.RESTR>
0

>  <SCORE.RESTR.CAVITY>
0

>  <SCORE.RESTR.norm>
0

>  <SCORE.SYSTEM>
0

>  <SCORE.SYSTEM.CONST>
0

>  <SCORE.SYSTEM.DIHEDRAL>
0

>  <SCORE.SYSTEM.SOLV>
0

>  <SCORE.SYSTEM.norm>
0

>  <SCORE.heavy>
26

>  <SCORE.norm>
-0.727172

>  <RMSD>
8.623

$$$$
ligand
 OpenBabel11021811463D
libRbt.so/2013.1/901 2013/11/27
 26 27  0  0  0  0  0  0  0  0999 V2000
   -2.2785  -40.5053    9.5259 C   0  0  0  0  0  0  0  0  0  0  0  0
   -3.4579  -46.5855    8.7465 C   0  0  0  0  0  0  0  0  0  0  0  0
   -7.8479  -45.0171    4.7106 P   0  0  1  0  0  0  0  0  0  0  0  0
   -6.6916  -43.0786    6.2753 P   0  0  2  0  0  0  0  0  0  0  0  0
   -4.6126  -45.4035   11.3964 C   0  0  0  0  0  0  0  0  0  0  0  0
   -2.6248  -44.0687   10.6216 C   0  0  0  0  0  0  0  0  0  0  0  0
   -3.9903  -44.1163   10.9182 C   0  0  0  0  0  0  0  0  0  0  0  0
   -4.7937  -42.9871   10.7381 C   0  0  0  0  0  0  0  0  0  0  0  0
   -6.0818  -43.0430   11.0040 N   0  0  0  0  0  0  0  0  0  0  0  0
   -4.2282  -41.8105   10.3107 N   0  0  0  0  0  0  0  0  0  0  0  0
   -2.8818  -41.7769   10.0066 C   0  0  0  0  0  0  0  0  0  0  0  0
   -2.0772  -42.8886   10.1720 N   0  0  0  0  0  0  0  0  0  0  0  0
   -9.2793  -45.2909    4.3633 O   0  5  0  0  0  0  0  0  0  0  0  0
   -6.7369  -43.9722    7.4506 O   0  0  0  0  0  0  0  0  0  0  0  0
   -7.3540  -46.7371    9.0860 S   0  0  0  0  0  0  0  0  0  0  0  0
   -6.7492  -46.0698   10.3865 C   0  0  0  0  0  0  0  0  0  0  0  0
   -6.8805  -45.0956    3.5830 O   0  0  0  0  0  0  0  0  0  0  0  0
   -6.8336  -41.6581    6.6473 O   0  5  0  0  0  0  0  0  0  0  0  0
   -5.3874  -45.9688   10.3266 N   0  0  0  0  0  0  0  0  0  0  0  0
   -7.9157  -43.6008    5.4140 O   0  0  0  0  0  0  0  0  0  0  0  0
   -5.4476  -43.0971    5.4476 O   0  0  0  0  0  0  0  0  0  0  0  0
   -4.8930  -46.4993    9.1684 C   0  0  1  0  0  0  0  0  0  0  0  0
   -5.9277  -46.9614    8.3944 C   0  0  2  0  0  0  0  0  0  0  0  0
   -5.9314  -47.6156    7.0352 C   0  0  0  0  0  0  0  0  0  0  0  0
   -6.2394  -46.6140    5.9165 C   0  0  0  0  0  0  0  0  0  0  0  0
   -7.5412  -46.0605    5.8526 O   0  0  0  0  0  0  0  0  0  0  0  0
  1 11  1  0  0  0  0
  3 13  1  6  0  0  0
  3 17  2  0  0  0  0
  3 20  1  0  0  0  0
  3 26  1  0  0  0  0
  4 14  1  1  0  0  0
  4 18  1  0  0  0  0
  4 21  2  0  0  0  0
  4 20  1  0  0  0  0
  5 19  1  0  0  0  0
  5  7  1  0  0  0  0
  6  7  2  0  0  0  0
  6 12  1  0  0  0  0
  7  8  1  0  0  0  0
  8  9  1  0  0  0  0
  8 10  2  0  0  0  0
 10 11  1  0  0  0  0
 11 12  2  0  0  0  0
 15 23  1  0  0  0  0
 15 16  1  0  0  0  0
 16 19  1  0  0  0  0
 19 22  1  0  0  0  0
 22  2  1  6  0  0  0
 22 23  1  0  0  0  0
 23 24  1  6  0  0  0
 24 25  1  0  0  0  0
 25 26  1  0  0  0  0
M  CHG  2  13  -1  18  -1
M  END
>  <CHROM.1>
164.27309496,-113.26872952,-105.64098988,-69.80371462,81.45912940,-68.15675151
179.26016192,145.56211872,-5.85655318,-44.52182541,7.88310497,-0.21819357
-0.93995313,-0.58317818

>  <Name>
ligand

>  <RI>
0

>  <Rbt.Current_Directory>
/home/itssahil/PROJECTS/Mol_Feturizer/New_Systems/rnas/3D2G

>  <Rbt.Executable>
rbdock ($Id: //depot/dev/client3/rdock/2013.1/src/exe/rbdock.cxx#4 $)

>  <Rbt.Library>
libRbt.so (2013.1, Build901 2013/11/27)

>  <Rbt.Parameter_File>
/export/apps/rDock/src/rDock_2013.1_src/data/scripts/dock_solv.prm

>  <Rbt.Receptor>
prm/pocket_docking_6.prm

>  <SCORE>
-15.8976

>  <SCORE.INTER>
-11.688

>  <SCORE.INTER.CONST>
1

>  <SCORE.INTER.POLAR>
0

>  <SCORE.INTER.ROT>
8

>  <SCORE.INTER.SOLV>
10.7338

>  <SCORE.INTER.VDW>
-20.3033

>  <SCORE.INTER.norm>
-0.449538

>  <SCORE.INTRA>
-4.20965

>  <SCORE.INTRA.DIHEDRAL>
-1.80601

>  <SCORE.INTRA.DIHEDRAL.0>
9.09364

>  <SCORE.INTRA.POLAR>
0

>  <SCORE.INTRA.POLAR.0>
0

>  <SCORE.INTRA.REPUL>
0

>  <SCORE.INTRA.REPUL.0>
0

>  <SCORE.INTRA.SOLV>
-1.08324

>  <SCORE.INTRA.SOLV.lig_0>
-78.5846

>  <SCORE.INTRA.VDW>
-2.76503

>  <SCORE.INTRA.VDW.0>
-2.81163

>  <SCORE.INTRA.norm>
-0.16191

>  <SCORE.RESTR>
0

>  <SCORE.RESTR.CAVITY>
0

>  <SCORE.RESTR.norm>
0

>  <SCORE.SYSTEM>
0

>  <SCORE.SYSTEM.CONST>
0

>  <SCORE.SYSTEM.DIHEDRAL>
0

>  <SCORE.SYSTEM.SOLV>
0

>  <SCORE.SYSTEM.norm>
0

>  <SCORE.heavy>
26

>  <SCORE.norm>
-0.611448

>  <RMSD>
8.623

$$$$
ligand
 OpenBabel11021811463D
libRbt.so/2013.1/901 2013/11/27
 26 27  0  0  0  0  0  0  0  0999 V2000
   -5.5321  -40.4843   13.1988 C   0  0  0  0  0  0  0  0  0  0  0  0
   -3.7648  -46.2710    8.1017 C   0  0  0  0  0  0  0  0  0  0  0  0
   -7.3190  -43.3260    5.1559 P   0  0  1  0  0  0  0  0  0  0  0  0
   -7.6967  -41.6054    7.2631 P   0  0  2  0  0  0  0  0  0  0  0  0
   -4.4034  -45.7080   11.1063 C   0  0  0  0  0  0  0  0  0  0  0  0
   -5.1384  -44.2014   12.9834 C   0  0  0  0  0  0  0  0  0  0  0  0
   -4.7152  -44.3401   11.6580 C   0  0  0  0  0  0  0  0  0  0  0  0
   -4.5415  -43.2140   10.8489 C   0  0  0  0  0  0  0  0  0  0  0  0
   -4.1273  -43.3502    9.6067 N   0  0  0  0  0  0  0  0  0  0  0  0
   -4.8329  -41.9670   11.3459 N   0  0  0  0  0  0  0  0  0  0  0  0
   -5.2364  -41.8387   12.6601 C   0  0  0  0  0  0  0  0  0  0  0  0
   -5.4042  -42.9431   13.4741 N   0  0  0  0  0  0  0  0  0  0  0  0
   -8.2213  -43.7852    4.0517 O   0  5  0  0  0  0  0  0  0  0  0  0
   -6.3733  -41.0512    6.9120 O   0  0  0  0  0  0  0  0  0  0  0  0
   -7.5455  -46.5209    9.0819 S   0  0  0  0  0  0  0  0  0  0  0  0
   -6.7031  -46.1513   10.3688 C   0  0  0  0  0  0  0  0  0  0  0  0
   -5.9622  -42.8783    4.7410 O   0  0  0  0  0  0  0  0  0  0  0  0
   -7.6114  -42.6265    8.3244 O   0  5  0  0  0  0  0  0  0  0  0  0
   -5.3699  -46.0300   10.0930 N   0  0  0  0  0  0  0  0  0  0  0  0
   -8.1795  -42.2126    5.8807 O   0  0  0  0  0  0  0  0  0  0  0  0
   -8.7236  -40.6517    7.7818 O   0  0  0  0  0  0  0  0  0  0  0  0
   -5.1013  -46.2897    8.7786 C   0  0  1  0  0  0  0  0  0  0  0  0
   -6.2689  -46.5778    8.1177 C   0  0  2  0  0  0  0  0  0  0  0  0
   -6.5295  -46.9176    6.6712 C   0  0  0  0  0  0  0  0  0  0  0  0
   -6.4892  -45.6759    5.7733 C   0  0  0  0  0  0  0  0  0  0  0  0
   -7.2817  -44.5603    6.1369 O   0  0  0  0  0  0  0  0  0  0  0  0
  1 11  1  0  0  0  0
  3 13  1  6  0  0  0
  3 17  2  0  0  0  0
  3 20  1  0  0  0  0
  3 26  1  0  0  0  0
  4 14  1  6  0  0  0
  4 18  1  0  0  0  0
  4 21  2  0  0  0  0
  4 20  1  0  0  0  0
  5 19  1  0  0  0  0
  5  7  1  0  0  0  0
  6  7  2  0  0  0  0
  6 12  1  0  0  0  0
  7  8  1  0  0  0  0
  8  9  1  0  0  0  0
  8 10  2  0  0  0  0
 10 11  1  0  0  0  0
 11 12  2  0  0  0  0
 15 23  1  0  0  0  0
 15 16  1  0  0  0  0
 16 19  1  0  0  0  0
 19 22  1  0  0  0  0
 22  2  1  6  0  0  0
 22 23  1  0  0  0  0
 23 24  1  6  0  0  0
 24 25  1  0  0  0  0
 25 26  1  0  0  0  0
M  CHG  2  13  -1  18  -1
M  END
>  <CHROM.1>
170.39399225,-62.70820993,113.43154630,58.83228764,102.34172608,-51.87174338
-175.61990548,76.30822438,-6.35508785,-43.81629606,8.50441103,0.47143509
-1.17377608,0.52483561

>  <Name>
ligand

>  <RI>
0

>  <Rbt.Current_Directory>
/home/itssahil/PROJECTS/Mol_Feturizer/New_Systems/rnas/3D2G

>  <Rbt.Executable>
rbdock ($Id: //depot/dev/client3/rdock/2013.1/src/exe/rbdock.cxx#4 $)

>  <Rbt.Library>
libRbt.so (2013.1, Build901 2013/11/27)

>  <Rbt.Parameter_File>
/export/apps/rDock/src/rDock_2013.1_src/data/scripts/dock_solv.prm

>  <Rbt.Receptor>
prm/pocket_docking_7.prm

>  <SCORE>
-19.2635

>  <SCORE.INTER>
-15.7121

>  <SCORE.INTER.CONST>
1

>  <SCORE.INTER.POLAR>
0

>  <SCORE.INTER.ROT>
8

>  <SCORE.INTER.SOLV>
15.1175

>  <SCORE.INTER.VDW>
-24.4472

>  <SCORE.INTER.norm>
-0.604312

>  <SCORE.INTRA>
-3.55135

>  <SCORE.INTRA.DIHEDRAL>
-3.79031

>  <SCORE.INTRA.DIHEDRAL.0>
9.09364

>  <SCORE.INTRA.POLAR>
0

>  <SCORE.INTRA.POLAR.0>
0

>  <SCORE.INTRA.REPUL>
0

>  <SCORE.INTRA.REPUL.0>
0

>  <SCORE.INTRA.SOLV>
1.03894

>  <SCORE.INTRA.SOLV.lig_0>
-78.5846

>  <SCORE.INTRA.VDW>
-2.17567

>  <SCORE.INTRA.VDW.0>
-2.81163

>  <SCORE.INTRA.norm>
-0.13659

>  <SCORE.RESTR>
0

>  <SCORE.RESTR.CAVITY>
0

>  <SCORE.RESTR.norm>
0

>  <SCORE.SYSTEM>
0

>  <SCORE.SYSTEM.CONST>
0

>  <SCORE.SYSTEM.DIHEDRAL>
0

>  <SCORE.SYSTEM.SOLV>
0

>  <SCORE.SYSTEM.norm>
0

>  <SCORE.heavy>
26

>  <SCORE.norm>
-0.740902

>  <RMSD>
8.626

$$$$
ligand
 OpenBabel11021811463D
libRbt.so/2013.1/901 2013/11/27
 26 27  0  0  0  0  0  0  0  0999 V2000
   -4.8694  -44.2711   13.0367 C   0  0  0  0  0  0  0  0  0  0  0  0
   -4.1132  -45.1061    7.3894 C   0  0  0  0  0  0  0  0  0  0  0  0
   -6.4415  -40.1716    6.8405 P   0  0  1  0  0  0  0  0  0  0  0  0
   -6.3642  -37.7101    5.6248 P   0  0  2  0  0  0  0  0  0  0  0  0
   -6.3427  -47.1078    8.2699 C   0  0  0  0  0  0  0  0  0  0  0  0
   -4.7542  -46.6828   10.1750 C   0  0  0  0  0  0  0  0  0  0  0  0
   -5.9564  -46.3764    9.5302 C   0  0  0  0  0  0  0  0  0  0  0  0
   -6.7878  -45.3678   10.0248 C   0  0  0  0  0  0  0  0  0  0  0  0
   -7.9107  -45.0732    9.4039 N   0  0  0  0  0  0  0  0  0  0  0  0
   -6.4429  -44.7054   11.1776 N   0  0  0  0  0  0  0  0  0  0  0  0
   -5.2470  -45.0048   11.7993 C   0  0  0  0  0  0  0  0  0  0  0  0
   -4.4111  -45.9941   11.3164 N   0  0  0  0  0  0  0  0  0  0  0  0
   -5.9875  -39.8633    8.2346 O   0  5  0  0  0  0  0  0  0  0  0  0
   -5.2476  -36.9488    5.0286 O   0  0  0  0  0  0  0  0  0  0  0  0
   -7.4220  -44.9447    5.3054 S   0  0  0  0  0  0  0  0  0  0  0  0
   -7.5678  -46.0599    6.4179 C   0  0  0  0  0  0  0  0  0  0  0  0
   -7.9139  -40.1959    6.6284 O   0  0  0  0  0  0  0  0  0  0  0  0
   -6.9172  -37.0469    6.8209 O   0  5  0  0  0  0  0  0  0  0  0  0
   -6.4492  -46.1577    7.1973 N   0  0  0  0  0  0  0  0  0  0  0  0
   -5.6749  -39.0956    5.9690 O   0  0  0  0  0  0  0  0  0  0  0  0
   -7.5679  -37.9436    4.7706 O   0  0  0  0  0  0  0  0  0  0  0  0
   -5.4769  -45.2856    6.7955 C   0  0  1  0  0  0  0  0  0  0  0  0
   -5.9297  -44.5498    5.7293 C   0  0  2  0  0  0  0  0  0  0  0  0
   -5.2669  -43.4565    4.9286 C   0  0  0  0  0  0  0  0  0  0  0  0
   -5.8774  -42.0809    5.2193 C   0  0  0  0  0  0  0  0  0  0  0  0
   -5.7565  -41.5577    6.5295 O   0  0  0  0  0  0  0  0  0  0  0  0
  1 11  1  0  0  0  0
  3 13  1  1  0  0  0
  3 17  2  0  0  0  0
  3 20  1  0  0  0  0
  3 26  1  0  0  0  0
  4 14  1  6  0  0  0
  4 18  1  0  0  0  0
  4 21  2  0  0  0  0
  4 20  1  0  0  0  0
  5 19  1  0  0  0  0
  5  7  1  0  0  0  0
  6  7  2  0  0  0  0
  6 12  1  0  0  0  0
  7  8  1  0  0  0  0
  8  9  1  0  0  0  0
  8 10  2  0  0  0  0
 10 11  1  0  0  0  0
 11 12  2  0  0  0  0
 15 23  1  0  0  0  0
 15 16  1  0  0  0  0
 16 19  1  0  0  0  0
 19 22  1  0  0  0  0
 22  2  1  1  0  0  0
 22 23  1  0  0  0  0
 23 24  1  1  0  0  0
 24 25  1  0  0  0  0
 25 26  1  0  0  0  0
M  CHG  2  13  -1  18  -1
M  END
>  <CHROM.1>
-92.74817600,-126.81317325,-118.54743493,170.48856270,71.17805283,63.60502569
-177.32810809,-173.89014938,-6.19286263,-42.56594145,7.40988154,-1.21022164
-1.36969142,-0.10525936

>  <Name>
ligand

>  <RI>
0

>  <Rbt.Current_Directory>
/home/itssahil/PROJECTS/Mol_Feturizer/New_Systems/rnas/3D2G

>  <Rbt.Executable>
rbdock ($Id: //depot/dev/client3/rdock/2013.1/src/exe/rbdock.cxx#4 $)

>  <Rbt.Library>
libRbt.so (2013.1, Build901 2013/11/27)

>  <Rbt.Parameter_File>
/export/apps/rDock/src/rDock_2013.1_src/data/scripts/dock_solv.prm

>  <Rbt.Receptor>
prm/pocket_docking_5.prm

>  <SCORE>
-13.3827

>  <SCORE.INTER>
-11.6767

>  <SCORE.INTER.CONST>
1

>  <SCORE.INTER.POLAR>
0

>  <SCORE.INTER.ROT>
8

>  <SCORE.INTER.SOLV>
17.0794

>  <SCORE.INTER.VDW>
-22.4109

>  <SCORE.INTER.norm>
-0.449103

>  <SCORE.INTRA>
-1.706

>  <SCORE.INTRA.DIHEDRAL>
-2.78938

>  <SCORE.INTRA.DIHEDRAL.0>
9.09364

>  <SCORE.INTRA.POLAR>
0

>  <SCORE.INTRA.POLAR.0>
0

>  <SCORE.INTRA.REPUL>
0

>  <SCORE.INTRA.REPUL.0>
0

>  <SCORE.INTRA.SOLV>
1.64053

>  <SCORE.INTRA.SOLV.lig_0>
-78.5846

>  <SCORE.INTRA.VDW>
-1.13157

>  <SCORE.INTRA.VDW.0>
-2.81163

>  <SCORE.INTRA.norm>
-0.0656152

>  <SCORE.RESTR>
0

>  <SCORE.RESTR.CAVITY>
0

>  <SCORE.RESTR.norm>
0

>  <SCORE.SYSTEM>
0

>  <SCORE.SYSTEM.CONST>
0

>  <SCORE.SYSTEM.DIHEDRAL>
0

>  <SCORE.SYSTEM.SOLV>
0

>  <SCORE.SYSTEM.norm>
0

>  <SCORE.heavy>
26

>  <SCORE.norm>
-0.514718

>  <RMSD>
8.634

$$$$
ligand
 OpenBabel11021811463D
libRbt.so/2013.1/901 2013/11/27
 26 27  0  0  0  0  0  0  0  0999 V2000
   -5.5844  -40.4702   13.2779 C   0  0  0  0  0  0  0  0  0  0  0  0
   -3.7378  -46.2827    8.1451 C   0  0  0  0  0  0  0  0  0  0  0  0
   -7.2652  -43.3553    5.1390 P   0  0  1  0  0  0  0  0  0  0  0  0
   -7.7072  -41.5877    7.1941 P   0  0  2  0  0  0  0  0  0  0  0  0
   -4.3798  -45.6570   11.1366 C   0  0  0  0  0  0  0  0  0  0  0  0
   -5.1755  -44.1826   13.0144 C   0  0  0  0  0  0  0  0  0  0  0  0
   -4.7116  -44.2989   11.7006 C   0  0  0  0  0  0  0  0  0  0  0  0
   -4.5158  -43.1594   10.9155 C   0  0  0  0  0  0  0  0  0  0  0  0
   -4.0635  -43.2746    9.6846 N   0  0  0  0  0  0  0  0  0  0  0  0
   -4.8252  -41.9213   11.4235 N   0  0  0  0  0  0  0  0  0  0  0  0
   -5.2691  -41.8151   12.7266 C   0  0  0  0  0  0  0  0  0  0  0  0
   -5.4591  -42.9329   13.5171 N   0  0  0  0  0  0  0  0  0  0  0  0
   -8.1217  -43.8265    4.0038 O   0  5  0  0  0  0  0  0  0  0  0  0
   -6.3817  -41.0337    6.8508 O   0  0  0  0  0  0  0  0  0  0  0  0
   -7.5240  -46.4743    9.1172 S   0  0  0  0  0  0  0  0  0  0  0  0
   -6.6818  -46.0897   10.3998 C   0  0  0  0  0  0  0  0  0  0  0  0
   -5.8957  -42.9031    4.7739 O   0  0  0  0  0  0  0  0  0  0  0  0
   -7.6343  -42.5743    8.2885 O   0  5  0  0  0  0  0  0  0  0  0  0
   -5.3465  -45.9876   10.1262 N   0  0  0  0  0  0  0  0  0  0  0  0
   -8.1588  -42.2421    5.8226 O   0  0  0  0  0  0  0  0  0  0  0  0
   -8.7513  -40.6269    7.6630 O   0  0  0  0  0  0  0  0  0  0  0  0
   -5.0765  -46.2747    8.8178 C   0  0  1  0  0  0  0  0  0  0  0  0
   -6.2451  -46.5626    8.1585 C   0  0  2  0  0  0  0  0  0  0  0  0
   -6.5046  -46.9266    6.7177 C   0  0  0  0  0  0  0  0  0  0  0  0
   -6.4561  -45.7012    5.7980 C   0  0  0  0  0  0  0  0  0  0  0  0
   -7.2595  -44.5832    6.1289 O   0  0  0  0  0  0  0  0  0  0  0  0
  1 11  1  0  0  0  0
  3 13  1  6  0  0  0
  3 17  2  0  0  0  0
  3 20  1  0  0  0  0
  3 26  1  0  0  0  0
  4 14  1  6  0  0  0
  4 18  1  0  0  0  0
  4 21  2  0  0  0  0
  4 20  1  0  0  0  0
  5 19  1  0  0  0  0
  5  7  1  0  0  0  0
  6  7  2  0  0  0  0
  6 12  1  0  0  0  0
  7  8  1  0  0  0  0
  8  9  1  0  0  0  0
  8 10  2  0  0  0  0
 10 11  1  0  0  0  0
 11 12  2  0  0  0  0
 15 23  1  0  0  0  0
 15 16  1  0  0  0  0
 16 19  1  0  0  0  0
 19 22  1  0  0  0  0
 22  2  1  6  0  0  0
 22 23  1  0  0  0  0
 23 24  1  6  0  0  0
 24 25  1  0  0  0  0
 25 26  1  0  0  0  0
M  CHG  2  13  -1  18  -1
M  END
>  <CHROM.1>
172.50030124,-60.46746092,111.13232888,57.94126789,102.02413359,-52.85414448
-176.79505987,75.81221861,-6.34047825,-43.80142274,8.51409229,0.50087016
-1.17753750,0.55081430

>  <Name>
ligand

>  <RI>
0

>  <Rbt.Current_Directory>
/home/itssahil/PROJECTS/Mol_Feturizer/New_Systems/rnas/3D2G

>  <Rbt.Executable>
rbdock ($Id: //depot/dev/client3/rdock/2013.1/src/exe/rbdock.cxx#4 $)

>  <Rbt.Library>
libRbt.so (2013.1, Build901 2013/11/27)

>  <Rbt.Parameter_File>
/export/apps/rDock/src/rDock_2013.1_src/data/scripts/dock_solv.prm

>  <Rbt.Receptor>
prm/pocket_docking_6.prm

>  <SCORE>
-19.3219

>  <SCORE.INTER>
-15.6034

>  <SCORE.INTER.CONST>
1

>  <SCORE.INTER.POLAR>
0

>  <SCORE.INTER.ROT>
8

>  <SCORE.INTER.SOLV>
14.6789

>  <SCORE.INTER.VDW>
-24.2286

>  <SCORE.INTER.norm>
-0.60013

>  <SCORE.INTRA>
-3.71856

>  <SCORE.INTRA.DIHEDRAL>
-3.91638

>  <SCORE.INTRA.DIHEDRAL.0>
9.09364

>  <SCORE.INTRA.POLAR>
0

>  <SCORE.INTRA.POLAR.0>
0

>  <SCORE.INTRA.REPUL>
0

>  <SCORE.INTRA.REPUL.0>
0

>  <SCORE.INTRA.SOLV>
0.563355

>  <SCORE.INTRA.SOLV.lig_0>
-78.5846

>  <SCORE.INTRA.VDW>
-2.04205

>  <SCORE.INTRA.VDW.0>
-2.81163

>  <SCORE.INTRA.norm>
-0.143022

>  <SCORE.RESTR>
0

>  <SCORE.RESTR.CAVITY>
0

>  <SCORE.RESTR.norm>
0

>  <SCORE.SYSTEM>
0

>  <SCORE.SYSTEM.CONST>
0

>  <SCORE.SYSTEM.DIHEDRAL>
0

>  <SCORE.SYSTEM.SOLV>
0

>  <SCORE.SYSTEM.norm>
0

>  <SCORE.heavy>
26

>  <SCORE.norm>
-0.743151

>  <RMSD>
8.642

$$$$
ligand
 OpenBabel11021811463D
libRbt.so/2013.1/901 2013/11/27
 26 27  0  0  0  0  0  0  0  0999 V2000
   -0.3003  -41.1997    9.8497 C   0  0  0  0  0  0  0  0  0  0  0  0
   -5.0741  -46.3312   10.6603 C   0  0  0  0  0  0  0  0  0  0  0  0
   -6.5139  -44.2497    6.4536 P   0  0  1  0  0  0  0  0  0  0  0  0
   -4.1124  -42.9498    6.7468 P   0  0  2  0  0  0  0  0  0  0  0  0
   -4.5624  -43.9144   12.5708 C   0  0  0  0  0  0  0  0  0  0  0  0
   -2.3821  -43.9455   11.3144 C   0  0  0  0  0  0  0  0  0  0  0  0
   -3.4326  -43.2067   11.8671 C   0  0  0  0  0  0  0  0  0  0  0  0
   -3.4636  -41.8154   11.7391 C   0  0  0  0  0  0  0  0  0  0  0  0
   -4.4637  -41.1269   12.2478 N   0  0  0  0  0  0  0  0  0  0  0  0
   -2.4314  -41.1668   11.1060 N   0  0  0  0  0  0  0  0  0  0  0  0
   -1.4057  -41.9059   10.5508 C   0  0  0  0  0  0  0  0  0  0  0  0
   -1.3667  -43.2830   10.6626 N   0  0  0  0  0  0  0  0  0  0  0  0
   -7.0920  -43.2452    7.4029 O   0  5  0  0  0  0  0  0  0  0  0  0
   -3.1612  -42.4016    5.7587 O   0  0  0  0  0  0  0  0  0  0  0  0
   -7.7492  -43.4789   10.5003 S   0  0  0  0  0  0  0  0  0  0  0  0
   -6.6469  -43.0921   11.5670 C   0  0  0  0  0  0  0  0  0  0  0  0
   -7.4599  -44.8187    5.4562 O   0  0  0  0  0  0  0  0  0  0  0  0
   -3.5148  -44.0249    7.5613 O   0  5  0  0  0  0  0  0  0  0  0  0
   -5.6676  -44.0409   11.6613 N   0  0  0  0  0  0  0  0  0  0  0  0
   -5.2858  -43.4774    5.8207 O   0  0  0  0  0  0  0  0  0  0  0  0
   -4.6604  -42.0060    7.7676 O   0  0  0  0  0  0  0  0  0  0  0  0
   -5.9081  -45.0982   10.8297 C   0  0  1  0  0  0  0  0  0  0  0  0
   -7.0650  -44.8769   10.1255 C   0  0  2  0  0  0  0  0  0  0  0  0
   -7.7630  -45.7121    9.0811 C   0  0  0  0  0  0  0  0  0  0  0  0
   -6.7856  -46.2556    8.0329 C   0  0  0  0  0  0  0  0  0  0  0  0
   -5.8996  -45.3452    7.4074 O   0  0  0  0  0  0  0  0  0  0  0  0
  1 11  1  0  0  0  0
  3 13  1  1  0  0  0
  3 17  2  0  0  0  0
  3 20  1  0  0  0  0
  3 26  1  0  0  0  0
  4 14  1  6  0  0  0
  4 18  1  0  0  0  0
  4 21  2  0  0  0  0
  4 20  1  0  0  0  0
  5 19  1  0  0  0  0
  5  7  1  0  0  0  0
  6  7  2  0  0  0  0
  6 12  1  0  0  0  0
  7  8  1  0  0  0  0
  8  9  1  0  0  0  0
  8 10  2  0  0  0  0
 10 11  1  0  0  0  0
 11 12  2  0  0  0  0
 15 23  1  0  0  0  0
 15 16  1  0  0  0  0
 16 19  1  0  0  0  0
 19 22  1  0  0  0  0
 22  2  1  6  0  0  0
 22 23  1  0  0  0  0
 23 24  1  6  0  0  0
 24 25  1  0  0  0  0
 25 26  1  0  0  0  0
M  CHG  2  13  -1  18  -1
M  END
>  <CHROM.1>
59.97738596,-90.49096407,-98.42514355,175.92545122,133.86445101,-50.73663062
-67.03096500,76.54849315,-4.96987990,-43.58125068,9.08911810,-0.76114568
-0.49239701,-1.57846381

>  <Name>
ligand

>  <RI>
0

>  <Rbt.Current_Directory>
/home/itssahil/PROJECTS/Mol_Feturizer/New_Systems/rnas/3D2G

>  <Rbt.Executable>
rbdock ($Id: //depot/dev/client3/rdock/2013.1/src/exe/rbdock.cxx#4 $)

>  <Rbt.Library>
libRbt.so (2013.1, Build901 2013/11/27)

>  <Rbt.Parameter_File>
/export/apps/rDock/src/rDock_2013.1_src/data/scripts/dock_solv.prm

>  <Rbt.Receptor>
prm/pocket_docking_8.prm

>  <SCORE>
-14.5552

>  <SCORE.INTER>
-11.7421

>  <SCORE.INTER.CONST>
1

>  <SCORE.INTER.POLAR>
0

>  <SCORE.INTER.ROT>
8

>  <SCORE.INTER.SOLV>
8.59157

>  <SCORE.INTER.VDW>
-19.6253

>  <SCORE.INTER.norm>
-0.451619

>  <SCORE.INTRA>
-2.81312

>  <SCORE.INTRA.DIHEDRAL>
-3.55334

>  <SCORE.INTRA.DIHEDRAL.0>
9.09364

>  <SCORE.INTRA.POLAR>
0

>  <SCORE.INTRA.POLAR.0>
0

>  <SCORE.INTRA.REPUL>
0

>  <SCORE.INTRA.REPUL.0>
0

>  <SCORE.INTRA.SOLV>
2.8303

>  <SCORE.INTRA.SOLV.lig_0>
-78.5846

>  <SCORE.INTRA.VDW>
-2.4516

>  <SCORE.INTRA.VDW.0>
-2.81163

>  <SCORE.INTRA.norm>
-0.108197

>  <SCORE.RESTR>
0

>  <SCORE.RESTR.CAVITY>
0

>  <SCORE.RESTR.norm>
0

>  <SCORE.SYSTEM>
0

>  <SCORE.SYSTEM.CONST>
0

>  <SCORE.SYSTEM.DIHEDRAL>
0

>  <SCORE.SYSTEM.SOLV>
0

>  <SCORE.SYSTEM.norm>
0

>  <SCORE.heavy>
26

>  <SCORE.norm>
-0.559816

>  <RMSD>
8.652

$$$$
ligand
 OpenBabel11021811463D
libRbt.so/2013.1/901 2013/11/27
 26 27  0  0  0  0  0  0  0  0999 V2000
   -1.3903  -44.7871    4.0153 C   0  0  0  0  0  0  0  0  0  0  0  0
   -6.8506  -46.4132    9.2582 C   0  0  0  0  0  0  0  0  0  0  0  0
   -6.7608  -41.9524    8.7095 P   0  0  1  0  0  0  0  0  0  0  0  0
   -7.7331  -39.4779    8.0206 P   0  0  2  0  0  0  0  0  0  0  0  0
   -3.9048  -47.1955    8.5778 C   0  0  0  0  0  0  0  0  0  0  0  0
   -3.5773  -45.2468    7.0194 C   0  0  0  0  0  0  0  0  0  0  0  0
   -3.2587  -46.5617    7.3723 C   0  0  0  0  0  0  0  0  0  0  0  0
   -2.3143  -47.2830    6.6367 C   0  0  0  0  0  0  0  0  0  0  0  0
   -2.0069  -48.5151    6.9838 N   0  0  0  0  0  0  0  0  0  0  0  0
   -1.7301  -46.7114    5.5327 N   0  0  0  0  0  0  0  0  0  0  0  0
   -2.0403  -45.4076    5.2005 C   0  0  0  0  0  0  0  0  0  0  0  0
   -2.9661  -44.6798    5.9241 N   0  0  0  0  0  0  0  0  0  0  0  0
   -6.2145  -42.1249    7.3252 O   0  5  0  0  0  0  0  0  0  0  0  0
   -7.0562  -39.6723    6.7222 O   0  0  0  0  0  0  0  0  0  0  0  0
   -4.0994  -44.3471   11.1235 S   0  0  0  0  0  0  0  0  0  0  0  0
   -3.3978  -45.4107   10.1860 C   0  0  0  0  0  0  0  0  0  0  0  0
   -5.7872  -41.4994    9.7392 O   0  0  0  0  0  0  0  0  0  0  0  0
   -6.9024  -38.7207    8.9762 O   0  5  0  0  0  0  0  0  0  0  0  0
   -4.3046  -46.1581    9.4880 N   0  0  0  0  0  0  0  0  0  0  0  0
   -7.9832  -40.9708    8.4914 O   0  0  0  0  0  0  0  0  0  0  0  0
   -9.0252  -38.7273    8.0145 O   0  0  0  0  0  0  0  0  0  0  0  0
   -5.5894  -45.8148    9.8024 C   0  0  1  0  0  0  0  0  0  0  0  0
   -5.5825  -44.7954   10.7210 C   0  0  2  0  0  0  0  0  0  0  0  0
   -6.7161  -44.0496   11.3803 C   0  0  0  0  0  0  0  0  0  0  0  0
   -7.7861  -43.6210   10.3698 C   0  0  0  0  0  0  0  0  0  0  0  0
   -7.3838  -43.3638    9.0367 O   0  0  0  0  0  0  0  0  0  0  0  0
  1 11  1  0  0  0  0
  3 13  1  6  0  0  0
  3 17  2  0  0  0  0
  3 20  1  0  0  0  0
  3 26  1  0  0  0  0
  4 14  1  6  0  0  0
  4 18  1  0  0  0  0
  4 21  2  0  0  0  0
  4 20  1  0  0  0  0
  5 19  1  0  0  0  0
  5  7  1  0  0  0  0
  6  7  2  0  0  0  0
  6 12  1  0  0  0  0
  7  8  1  0  0  0  0
  8  9  1  0  0  0  0
  8 10  2  0  0  0  0
 10 11  1  0  0  0  0
 11 12  2  0  0  0  0
 15 23  1  0  0  0  0
 15 16  1  0  0  0  0
 16 19  1  0  0  0  0
 19 22  1  0  0  0  0
 22  2  1  6  0  0  0
 22 23  1  0  0  0  0
 23 24  1  6  0  0  0
 24 25  1  0  0  0  0
 25 26  1  0  0  0  0
M  CHG  2  13  -1  18  -1
M  END
>  <CHROM.1>
-66.39936035,-69.68737410,-24.95701061,60.21978240,133.08892023,-29.29908243
-81.78844595,169.19967797,-5.33560482,-43.57102794,8.38647852,-0.40719768
0.85780544,-0.83554729

>  <Name>
ligand

>  <RI>
0

>  <Rbt.Current_Directory>
/home/itssahil/PROJECTS/Mol_Feturizer/New_Systems/rnas/3D2G

>  <Rbt.Executable>
rbdock ($Id: //depot/dev/client3/rdock/2013.1/src/exe/rbdock.cxx#4 $)

>  <Rbt.Library>
libRbt.so (2013.1, Build901 2013/11/27)

>  <Rbt.Parameter_File>
/export/apps/rDock/src/rDock_2013.1_src/data/scripts/dock_solv.prm

>  <Rbt.Receptor>
prm/pocket_docking_5.prm

>  <SCORE>
-10.9653

>  <SCORE.INTER>
-10.4529

>  <SCORE.INTER.CONST>
1

>  <SCORE.INTER.POLAR>
0

>  <SCORE.INTER.ROT>
8

>  <SCORE.INTER.SOLV>
13.638

>  <SCORE.INTER.VDW>
-20.4479

>  <SCORE.INTER.norm>
-0.402034

>  <SCORE.INTRA>
-0.512453

>  <SCORE.INTRA.DIHEDRAL>
1.13183

>  <SCORE.INTRA.DIHEDRAL.0>
9.09364

>  <SCORE.INTRA.POLAR>
0

>  <SCORE.INTRA.POLAR.0>
0

>  <SCORE.INTRA.REPUL>
0

>  <SCORE.INTRA.REPUL.0>
0

>  <SCORE.INTRA.SOLV>
-1.03897

>  <SCORE.INTRA.SOLV.lig_0>
-78.5846

>  <SCORE.INTRA.VDW>
-0.558884

>  <SCORE.INTRA.VDW.0>
-2.81163

>  <SCORE.INTRA.norm>
-0.0197097

>  <SCORE.RESTR>
0

>  <SCORE.RESTR.CAVITY>
0

>  <SCORE.RESTR.norm>
0

>  <SCORE.SYSTEM>
0

>  <SCORE.SYSTEM.CONST>
0

>  <SCORE.SYSTEM.DIHEDRAL>
0

>  <SCORE.SYSTEM.SOLV>
0

>  <SCORE.SYSTEM.norm>
0

>  <SCORE.heavy>
26

>  <SCORE.norm>
-0.421744

>  <RMSD>
8.658

$$$$
ligand
 OpenBabel11021811463D
libRbt.so/2013.1/901 2013/11/27
 26 27  0  0  0  0  0  0  0  0999 V2000
   -5.6131  -40.7522   13.2975 C   0  0  0  0  0  0  0  0  0  0  0  0
   -3.8200  -45.9595    7.7788 C   0  0  0  0  0  0  0  0  0  0  0  0
   -7.1752  -42.9530    5.2246 P   0  0  1  0  0  0  0  0  0  0  0  0
   -5.0619  -42.0717    3.7080 P   0  0  2  0  0  0  0  0  0  0  0  0
   -4.3474  -45.7878   10.8520 C   0  0  0  0  0  0  0  0  0  0  0  0
   -5.0899  -44.4310   12.8372 C   0  0  0  0  0  0  0  0  0  0  0  0
   -4.6950  -44.4701   11.4965 C   0  0  0  0  0  0  0  0  0  0  0  0
   -4.5825  -43.2896   10.7570 C   0  0  0  0  0  0  0  0  0  0  0  0
   -4.1947  -43.3318    9.4996 N   0  0  0  0  0  0  0  0  0  0  0  0
   -4.9067  -42.0883   11.3387 N   0  0  0  0  0  0  0  0  0  0  0  0
   -5.2817  -42.0580   12.6672 C   0  0  0  0  0  0  0  0  0  0  0  0
   -5.3890  -43.2169   13.4128 N   0  0  0  0  0  0  0  0  0  0  0  0
   -7.8571  -42.4050    6.4408 O   0  5  0  0  0  0  0  0  0  0  0  0
   -4.5026  -43.4219    3.9226 O   0  0  0  0  0  0  0  0  0  0  0  0
   -7.5067  -46.6695    8.8839 S   0  0  0  0  0  0  0  0  0  0  0  0
   -6.6341  -46.3636   10.1673 C   0  0  0  0  0  0  0  0  0  0  0  0
   -8.0511  -43.2071    4.0491 O   0  0  0  0  0  0  0  0  0  0  0  0
   -4.0145  -41.0338    3.6608 O   0  5  0  0  0  0  0  0  0  0  0  0
   -5.3333  -46.0879    9.8507 N   0  0  0  0  0  0  0  0  0  0  0  0
   -6.0182  -41.9055    4.9613 O   0  0  0  0  0  0  0  0  0  0  0  0
   -5.8343  -41.8417    2.4496 O   0  0  0  0  0  0  0  0  0  0  0  0
   -5.1121  -46.1773    8.5052 C   0  0  1  0  0  0  0  0  0  0  0  0
   -6.2825  -46.5010    7.8661 C   0  0  2  0  0  0  0  0  0  0  0  0
   -6.5874  -46.7052    6.4029 C   0  0  0  0  0  0  0  0  0  0  0  0
   -7.2212  -45.4616    5.7693 C   0  0  0  0  0  0  0  0  0  0  0  0
   -6.4715  -44.2606    5.7561 O   0  0  0  0  0  0  0  0  0  0  0  0
  1 11  1  0  0  0  0
  3 13  1  1  0  0  0
  3 17  2  0  0  0  0
  3 20  1  0  0  0  0
  3 26  1  0  0  0  0
  4 14  1  6  0  0  0
  4 18  1  0  0  0  0
  4 21  2  0  0  0  0
  4 20  1  0  0  0  0
  5 19  1  0  0  0  0
  5  7  1  0  0  0  0
  6  7  2  0  0  0  0
  6 12  1  0  0  0  0
  7  8  1  0  0  0  0
  8  9  1  0  0  0  0
  8 10  2  0  0  0  0
 10 11  1  0  0  0  0
 11 12  2  0  0  0  0
 15 23  1  0  0  0  0
 15 16  1  0  0  0  0
 16 19  1  0  0  0  0
 19 22  1  0  0  0  0
 22  2  1  6  0  0  0
 22 23  1  0  0  0  0
 23 24  1  6  0  0  0
 24 25  1  0  0  0  0
 25 26  1  0  0  0  0
M  CHG  2  13  -1  18  -1
M  END
>  <CHROM.1>
-177.65434551,-66.89451946,112.90985712,-57.20648936,80.57139650,61.47371771
-174.48075571,86.81407812,-5.81069458,-43.86726234,7.67767384,-1.28907075
-1.26150724,-1.11981994

>  <Name>
ligand

>  <RI>
0

>  <Rbt.Current_Directory>
/home/itssahil/PROJECTS/Mol_Feturizer/New_Systems/rnas/3D2G

>  <Rbt.Executable>
rbdock ($Id: //depot/dev/client3/rdock/2013.1/src/exe/rbdock.cxx#4 $)

>  <Rbt.Library>
libRbt.so (2013.1, Build901 2013/11/27)

>  <Rbt.Parameter_File>
/export/apps/rDock/src/rDock_2013.1_src/data/scripts/dock_solv.prm

>  <Rbt.Receptor>
prm/pocket_docking_7.prm

>  <SCORE>
-16.8231

>  <SCORE.INTER>
-13.7378

>  <SCORE.INTER.CONST>
1

>  <SCORE.INTER.POLAR>
0

>  <SCORE.INTER.ROT>
8

>  <SCORE.INTER.SOLV>
12.6571

>  <SCORE.INTER.VDW>
-22.3109

>  <SCORE.INTER.norm>
-0.528375

>  <SCORE.INTRA>
-3.08531

>  <SCORE.INTRA.DIHEDRAL>
-3.05588

>  <SCORE.INTRA.DIHEDRAL.0>
9.09364

>  <SCORE.INTRA.POLAR>
0

>  <SCORE.INTRA.POLAR.0>
0

>  <SCORE.INTRA.REPUL>
0

>  <SCORE.INTRA.REPUL.0>
0

>  <SCORE.INTRA.SOLV>
-0.272127

>  <SCORE.INTRA.SOLV.lig_0>
-78.5846

>  <SCORE.INTRA.VDW>
-1.42131

>  <SCORE.INTRA.VDW.0>
-2.81163

>  <SCORE.INTRA.norm>
-0.118666

>  <SCORE.RESTR>
0

>  <SCORE.RESTR.CAVITY>
0

>  <SCORE.RESTR.norm>
0

>  <SCORE.SYSTEM>
0

>  <SCORE.SYSTEM.CONST>
0

>  <SCORE.SYSTEM.DIHEDRAL>
0

>  <SCORE.SYSTEM.SOLV>
0

>  <SCORE.SYSTEM.norm>
0

>  <SCORE.heavy>
26

>  <SCORE.norm>
-0.647041

>  <RMSD>
8.669

$$$$
ligand
 OpenBabel11021811463D
libRbt.so/2013.1/901 2013/11/27
 26 27  0  0  0  0  0  0  0  0999 V2000
   -0.8965  -40.3746    9.9762 C   0  0  0  0  0  0  0  0  0  0  0  0
   -7.3514  -43.6165   11.0275 C   0  0  0  0  0  0  0  0  0  0  0  0
   -6.6569  -44.0900    5.9833 P   0  0  1  0  0  0  0  0  0  0  0  0
   -4.2270  -45.3700    5.9743 P   0  0  2  0  0  0  0  0  0  0  0  0
   -4.6879  -43.7513   12.6524 C   0  0  0  0  0  0  0  0  0  0  0  0
   -2.5581  -43.4360   11.3494 C   0  0  0  0  0  0  0  0  0  0  0  0
   -3.6808  -42.8688   11.9600 C   0  0  0  0  0  0  0  0  0  0  0  0
   -3.8978  -41.4895   11.9008 C   0  0  0  0  0  0  0  0  0  0  0  0
   -4.9651  -40.9635   12.4640 N   0  0  0  0  0  0  0  0  0  0  0  0
   -2.9777  -40.6817   11.2782 N   0  0  0  0  0  0  0  0  0  0  0  0
   -1.8797  -41.2522   10.6656 C   0  0  0  0  0  0  0  0  0  0  0  0
   -1.6571  -42.6157   10.7091 N   0  0  0  0  0  0  0  0  0  0  0  0
   -7.0466  -42.6448    5.9208 O   0  5  0  0  0  0  0  0  0  0  0  0
   -4.9606  -46.3021    5.0940 O   0  0  0  0  0  0  0  0  0  0  0  0
   -5.1532  -46.7878   10.3731 S   0  0  0  0  0  0  0  0  0  0  0  0
   -4.4253  -45.8663   11.4330 C   0  0  0  0  0  0  0  0  0  0  0  0
   -7.3355  -44.9874    5.0099 O   0  0  0  0  0  0  0  0  0  0  0  0
   -4.1600  -45.8522    7.3669 O   0  5  0  0  0  0  0  0  0  0  0  0
   -5.1503  -44.7443   11.7225 N   0  0  0  0  0  0  0  0  0  0  0  0
   -5.0816  -44.0419    5.8373 O   0  0  0  0  0  0  0  0  0  0  0  0
   -2.7988  -45.0884    5.6363 O   0  0  0  0  0  0  0  0  0  0  0  0
   -6.3073  -44.6907   10.9974 C   0  0  1  0  0  0  0  0  0  0  0  0
   -6.4046  -45.8043   10.2015 C   0  0  2  0  0  0  0  0  0  0  0  0
   -7.4756  -46.2367    9.2311 C   0  0  0  0  0  0  0  0  0  0  0  0
   -7.1306  -45.8545    7.7872 C   0  0  0  0  0  0  0  0  0  0  0  0
   -6.9472  -44.4840    7.4826 O   0  0  0  0  0  0  0  0  0  0  0  0
  1 11  1  0  0  0  0
  3 13  1  6  0  0  0
  3 17  2  0  0  0  0
  3 20  1  0  0  0  0
  3 26  1  0  0  0  0
  4 14  1  6  0  0  0
  4 18  1  0  0  0  0
  4 21  2  0  0  0  0
  4 20  1  0  0  0  0
  5 19  1  0  0  0  0
  5  7  1  0  0  0  0
  6  7  2  0  0  0  0
  6 12  1  0  0  0  0
  7  8  1  0  0  0  0
  8  9  1  0  0  0  0
  8 10  2  0  0  0  0
 10 11  1  0  0  0  0
 11 12  2  0  0  0  0
 15 23  1  0  0  0  0
 15 16  1  0  0  0  0
 16 19  1  0  0  0  0
 19 22  1  0  0  0  0
 22  2  1  1  0  0  0
 22 23  1  0  0  0  0
 23 24  1  1  0  0  0
 24 25  1  0  0  0  0
 25 26  1  0  0  0  0
M  CHG  2  13  -1  18  -1
M  END
>  <CHROM.1>
174.81901361,79.70391012,-55.40504747,48.14917139,-83.79517078,-60.01373029
-177.28759642,158.68577511,-4.94191868,-44.20448104,8.85133237,-1.03988883
-0.75012537,-1.65325874

>  <Name>
ligand

>  <RI>
0

>  <Rbt.Current_Directory>
/home/itssahil/PROJECTS/Mol_Feturizer/New_Systems/rnas/3D2G

>  <Rbt.Executable>
rbdock ($Id: //depot/dev/client3/rdock/2013.1/src/exe/rbdock.cxx#4 $)

>  <Rbt.Library>
libRbt.so (2013.1, Build901 2013/11/27)

>  <Rbt.Parameter_File>
/export/apps/rDock/src/rDock_2013.1_src/data/scripts/dock_solv.prm

>  <Rbt.Receptor>
prm/pocket_docking_6.prm

>  <SCORE>
-16.0607

>  <SCORE.INTER>
-12.5705

>  <SCORE.INTER.CONST>
1

>  <SCORE.INTER.POLAR>
0

>  <SCORE.INTER.ROT>
8

>  <SCORE.INTER.SOLV>
7.44274

>  <SCORE.INTER.VDW>
-19.7946

>  <SCORE.INTER.norm>
-0.483481

>  <SCORE.INTRA>
-3.49021

>  <SCORE.INTRA.DIHEDRAL>
-2.86296

>  <SCORE.INTRA.DIHEDRAL.0>
9.09364

>  <SCORE.INTRA.POLAR>
0

>  <SCORE.INTRA.POLAR.0>
0

>  <SCORE.INTRA.REPUL>
0

>  <SCORE.INTRA.REPUL.0>
0

>  <SCORE.INTRA.SOLV>
-0.855993

>  <SCORE.INTRA.SOLV.lig_0>
-78.5846

>  <SCORE.INTRA.VDW>
-1.63073

>  <SCORE.INTRA.VDW.0>
-2.81163

>  <SCORE.INTRA.norm>
-0.134239

>  <SCORE.RESTR>
0

>  <SCORE.RESTR.CAVITY>
0

>  <SCORE.RESTR.norm>
0

>  <SCORE.SYSTEM>
0

>  <SCORE.SYSTEM.CONST>
0

>  <SCORE.SYSTEM.DIHEDRAL>
0

>  <SCORE.SYSTEM.SOLV>
0

>  <SCORE.SYSTEM.norm>
0

>  <SCORE.heavy>
26

>  <SCORE.norm>
-0.61772

>  <RMSD>
8.677

$$$$
ligand
 OpenBabel11021811463D
libRbt.so/2013.1/901 2013/11/27
 26 27  0  0  0  0  0  0  0  0999 V2000
   -0.6488  -42.6203   11.4230 C   0  0  0  0  0  0  0  0  0  0  0  0
   -7.0540  -43.2234    8.7190 C   0  0  0  0  0  0  0  0  0  0  0  0
   -4.4586  -43.6910    5.1728 P   0  0  1  0  0  0  0  0  0  0  0  0
   -1.9739  -44.5848    4.4174 P   0  0  2  0  0  0  0  0  0  0  0  0
   -6.1644  -44.2020   11.5480 C   0  0  0  0  0  0  0  0  0  0  0  0
   -3.7528  -44.6717   11.0036 C   0  0  0  0  0  0  0  0  0  0  0  0
   -4.7121  -43.7985   11.5252 C   0  0  0  0  0  0  0  0  0  0  0  0
   -4.3398  -42.5350   11.9922 C   0  0  0  0  0  0  0  0  0  0  0  0
   -5.2502  -41.7113   12.4673 N   0  0  0  0  0  0  0  0  0  0  0  0
   -3.0163  -42.1677   11.9807 N   0  0  0  0  0  0  0  0  0  0  0  0
   -2.0781  -43.0309   11.4505 C   0  0  0  0  0  0  0  0  0  0  0  0
   -2.4334  -44.2801   10.9774 N   0  0  0  0  0  0  0  0  0  0  0  0
   -3.9466  -42.4170    5.7720 O   0  5  0  0  0  0  0  0  0  0  0  0
   -1.1956  -45.7756    4.8151 O   0  0  0  0  0  0  0  0  0  0  0  0
   -6.6238  -47.0958    9.0890 S   0  0  0  0  0  0  0  0  0  0  0  0
   -6.2804  -46.4051   10.4701 C   0  0  0  0  0  0  0  0  0  0  0  0
   -4.9615  -43.5946    3.7759 O   0  0  0  0  0  0  0  0  0  0  0  0
   -1.2230  -43.3318    4.6232 O   0  5  0  0  0  0  0  0  0  0  0  0
   -6.4281  -45.0473   10.4165 N   0  0  0  0  0  0  0  0  0  0  0  0
   -3.2436  -44.6878    5.3610 O   0  0  0  0  0  0  0  0  0  0  0  0
   -2.4108  -44.4964    2.9911 O   0  0  0  0  0  0  0  0  0  0  0  0
   -6.8062  -44.6301    9.1713 C   0  0  1  0  0  0  0  0  0  0  0  0
   -6.9458  -45.7159    8.3440 C   0  0  2  0  0  0  0  0  0  0  0  0
   -7.3520  -45.8098    6.8942 C   0  0  0  0  0  0  0  0  0  0  0  0
   -6.2179  -45.3911    5.9517 C   0  0  0  0  0  0  0  0  0  0  0  0
   -5.5695  -44.1553    6.1914 O   0  0  0  0  0  0  0  0  0  0  0  0
  1 11  1  0  0  0  0
  3 13  1  1  0  0  0
  3 17  2  0  0  0  0
  3 20  1  0  0  0  0
  3 26  1  0  0  0  0
  4 14  1  1  0  0  0
  4 18  1  0  0  0  0
  4 21  2  0  0  0  0
  4 20  1  0  0  0  0
  5 19  1  0  0  0  0
  5  7  1  0  0  0  0
  6  7  2  0  0  0  0
  6 12  1  0  0  0  0
  7  8  1  0  0  0  0
  8  9  1  0  0  0  0
  8 10  2  0  0  0  0
 10 11  1  0  0  0  0
 11 12  2  0  0  0  0
 15 23  1  0  0  0  0
 15 16  1  0  0  0  0
 16 19  1  0  0  0  0
 19 22  1  0  0  0  0
 22  2  1  1  0  0  0
 22 23  1  0  0  0  0
 23 24  1  1  0  0  0
 24 25  1  0  0  0  0
 25 26  1  0  0  0  0
M  CHG  2  13  -1  18  -1
M  END
>  <CHROM.1>
-75.94387117,89.31214251,-31.88769918,-173.03867414,-104.31567490,-50.68735376
-176.64908476,-176.74538031,-4.36162833,-44.29835880,7.89054778,-1.85053608
-0.43147181,-1.74958455

>  <Name>
ligand

>  <RI>
0

>  <Rbt.Current_Directory>
/home/itssahil/PROJECTS/Mol_Feturizer/New_Systems/rnas/3D2G

>  <Rbt.Executable>
rbdock ($Id: //depot/dev/client3/rdock/2013.1/src/exe/rbdock.cxx#4 $)

>  <Rbt.Library>
libRbt.so (2013.1, Build901 2013/11/27)

>  <Rbt.Parameter_File>
/export/apps/rDock/src/rDock_2013.1_src/data/scripts/dock_solv.prm

>  <Rbt.Receptor>
prm/pocket_docking_5.prm

>  <SCORE>
-13.3931

>  <SCORE.INTER>
-10.5573

>  <SCORE.INTER.CONST>
1

>  <SCORE.INTER.POLAR>
0

>  <SCORE.INTER.ROT>
8

>  <SCORE.INTER.SOLV>
11.7832

>  <SCORE.INTER.VDW>
-19.8993

>  <SCORE.INTER.norm>
-0.406051

>  <SCORE.INTRA>
-2.83574

>  <SCORE.INTRA.DIHEDRAL>
-3.65758

>  <SCORE.INTRA.DIHEDRAL.0>
9.09364

>  <SCORE.INTRA.POLAR>
0

>  <SCORE.INTRA.POLAR.0>
0

>  <SCORE.INTRA.REPUL>
0

>  <SCORE.INTRA.REPUL.0>
0

>  <SCORE.INTRA.SOLV>
-0.0282002

>  <SCORE.INTRA.SOLV.lig_0>
-78.5846

>  <SCORE.INTRA.VDW>
-0.992852

>  <SCORE.INTRA.VDW.0>
-2.81163

>  <SCORE.INTRA.norm>
-0.109067

>  <SCORE.RESTR>
0

>  <SCORE.RESTR.CAVITY>
0

>  <SCORE.RESTR.norm>
0

>  <SCORE.SYSTEM>
0

>  <SCORE.SYSTEM.CONST>
0

>  <SCORE.SYSTEM.DIHEDRAL>
0

>  <SCORE.SYSTEM.SOLV>
0

>  <SCORE.SYSTEM.norm>
0

>  <SCORE.heavy>
26

>  <SCORE.norm>
-0.515118

>  <RMSD>
8.678

$$$$
ligand
 OpenBabel11021811463D
libRbt.so/2013.1/901 2013/11/27
 26 27  0  0  0  0  0  0  0  0999 V2000
   -0.5502  -32.8491    8.2169 C   0  0  0  0  0  0  0  0  0  0  0  0
   -4.5943  -38.7267   11.5308 C   0  0  0  0  0  0  0  0  0  0  0  0
   -5.4890  -44.3779   11.4199 P   0  0  1  0  0  0  0  0  0  0  0  0
   -6.7829  -45.8335    9.4834 P   0  0  2  0  0  0  0  0  0  0  0  0
   -1.8829  -37.1898   11.7270 C   0  0  0  0  0  0  0  0  0  0  0  0
   -0.6834  -36.2798    9.7105 C   0  0  0  0  0  0  0  0  0  0  0  0
   -1.5174  -36.0512   10.8092 C   0  0  0  0  0  0  0  0  0  0  0  0
   -2.0478  -34.7795   11.0427 C   0  0  0  0  0  0  0  0  0  0  0  0
   -2.8454  -34.5744   12.0698 N   0  0  0  0  0  0  0  0  0  0  0  0
   -1.7099  -33.7380   10.2133 N   0  0  0  0  0  0  0  0  0  0  0  0
   -0.8973  -33.9765    9.1227 C   0  0  0  0  0  0  0  0  0  0  0  0
   -0.3726  -35.2310    8.8750 N   0  0  0  0  0  0  0  0  0  0  0  0
   -6.0276  -43.6092   12.5876 O   0  5  0  0  0  0  0  0  0  0  0  0
   -5.4782  -46.5194    9.3876 O   0  0  0  0  0  0  0  0  0  0  0  0
   -1.6798  -40.1970    9.3717 S   0  0  0  0  0  0  0  0  0  0  0  0
   -1.1551  -38.9202   10.1443 C   0  0  0  0  0  0  0  0  0  0  0  0
   -4.2610  -45.1765   11.6800 O   0  0  0  0  0  0  0  0  0  0  0  0
   -6.9418  -44.7882    8.4545 O   0  5  0  0  0  0  0  0  0  0  0  0
   -2.1217  -38.3647   10.9351 N   0  0  0  0  0  0  0  0  0  0  0  0
   -6.7352  -45.2328   10.9497 O   0  0  0  0  0  0  0  0  0  0  0  0
   -8.0106  -46.6697    9.3200 O   0  0  0  0  0  0  0  0  0  0  0  0
   -3.3061  -39.0385   10.8321 C   0  0  1  0  0  0  0  0  0  0  0  0
   -3.1612  -40.0964    9.9703 C   0  0  2  0  0  0  0  0  0  0  0  0
   -4.1437  -41.1499    9.5225 C   0  0  0  0  0  0  0  0  0  0  0  0
   -4.3493  -42.2332   10.5873 C   0  0  0  0  0  0  0  0  0  0  0  0
   -5.2754  -43.2699   10.3181 O   0  0  0  0  0  0  0  0  0  0  0  0
  1 11  1  0  0  0  0
  3 13  1  1  0  0  0
  3 17  2  0  0  0  0
  3 20  1  0  0  0  0
  3 26  1  0  0  0  0
  4 14  1  6  0  0  0
  4 18  1  0  0  0  0
  4 21  2  0  0  0  0
  4 20  1  0  0  0  0
  5 19  1  0  0  0  0
  5  7  1  0  0  0  0
  6  7  2  0  0  0  0
  6 12  1  0  0  0  0
  7  8  1  0  0  0  0
  8  9  1  0  0  0  0
  8 10  2  0  0  0  0
 10 11  1  0  0  0  0
 11 12  2  0  0  0  0
 15 23  1  0  0  0  0
 15 16  1  0  0  0  0
 16 19  1  0  0  0  0
 19 22  1  0  0  0  0
 22  2  1  1  0  0  0
 22 23  1  0  0  0  0
 23 24  1  1  0  0  0
 24 25  1  0  0  0  0
 25 26  1  0  0  0  0
M  CHG  2  13  -1  18  -1
M  END
>  <CHROM.1>
159.97138162,60.95097494,-39.94977088,51.09483359,101.94981623,178.29150160
-179.68315237,62.36201174,-3.80771633,-40.63188493,10.29141278,-0.67761562
-0.97550222,-2.35895019

>  <Name>
ligand

>  <RI>
0

>  <Rbt.Current_Directory>
/home/itssahil/PROJECTS/Mol_Feturizer/New_Systems/rnas/3D2G

>  <Rbt.Executable>
rbdock ($Id: //depot/dev/client3/rdock/2013.1/src/exe/rbdock.cxx#4 $)

>  <Rbt.Library>
libRbt.so (2013.1, Build901 2013/11/27)

>  <Rbt.Parameter_File>
/export/apps/rDock/src/rDock_2013.1_src/data/scripts/dock_solv.prm

>  <Rbt.Receptor>
prm/blind_docking_80.prm

>  <SCORE>
-17.4144

>  <SCORE.INTER>
-14.4105

>  <SCORE.INTER.CONST>
1

>  <SCORE.INTER.POLAR>
0

>  <SCORE.INTER.ROT>
8

>  <SCORE.INTER.SOLV>
18.6473

>  <SCORE.INTER.VDW>
-24.7561

>  <SCORE.INTER.norm>
-0.554251

>  <SCORE.INTRA>
-3.00453

>  <SCORE.INTRA.DIHEDRAL>
-3.87269

>  <SCORE.INTRA.DIHEDRAL.0>
9.09364

>  <SCORE.INTRA.POLAR>
0

>  <SCORE.INTRA.POLAR.0>
0

>  <SCORE.INTRA.REPUL>
0

>  <SCORE.INTRA.REPUL.0>
0

>  <SCORE.INTRA.SOLV>
-3.02082

>  <SCORE.INTRA.SOLV.lig_0>
-78.5846

>  <SCORE.INTRA.VDW>
0.442227

>  <SCORE.INTRA.VDW.0>
-2.81163

>  <SCORE.INTRA.norm>
-0.115559

>  <SCORE.RESTR>
0.000615628

>  <SCORE.RESTR.CAVITY>
0.000615628

>  <SCORE.RESTR.norm>
2.3678e-05

>  <SCORE.SYSTEM>
0

>  <SCORE.SYSTEM.CONST>
0

>  <SCORE.SYSTEM.DIHEDRAL>
0

>  <SCORE.SYSTEM.SOLV>
0

>  <SCORE.SYSTEM.norm>
0

>  <SCORE.heavy>
26

>  <SCORE.norm>
-0.669786

>  <RMSD>
8.680

$$$$
ligand
 OpenBabel11021811463D
libRbt.so/2013.1/901 2013/11/27
 26 27  0  0  0  0  0  0  0  0999 V2000
   -9.7107  -39.8556    7.5112 C   0  0  0  0  0  0  0  0  0  0  0  0
   -2.3650  -39.3423   10.8722 C   0  0  0  0  0  0  0  0  0  0  0  0
   -2.7451  -35.4147   12.7961 P   0  0  1  0  0  0  0  0  0  0  0  0
   -2.9681  -33.4328   10.9079 P   0  0  2  0  0  0  0  0  0  0  0  0
   -4.5067  -41.1811    9.5364 C   0  0  0  0  0  0  0  0  0  0  0  0
   -6.1827  -39.4945    8.7118 C   0  0  0  0  0  0  0  0  0  0  0  0
   -5.8763  -40.8240    9.0175 C   0  0  0  0  0  0  0  0  0  0  0  0
   -6.8199  -41.8337    8.8092 C   0  0  0  0  0  0  0  0  0  0  0  0
   -6.5197  -43.0857    9.0840 N   0  0  0  0  0  0  0  0  0  0  0  0
   -8.0715  -41.5106    8.3447 N   0  0  0  0  0  0  0  0  0  0  0  0
   -8.3600  -40.1971    8.0320 C   0  0  0  0  0  0  0  0  0  0  0  0
   -7.4336  -39.1896    8.2250 N   0  0  0  0  0  0  0  0  0  0  0  0
   -1.3403  -35.0179   13.1329 O   0  5  0  0  0  0  0  0  0  0  0  0
   -2.3902  -33.4162    9.5487 O   0  0  0  0  0  0  0  0  0  0  0  0
   -5.0664  -40.7987   13.3010 S   0  0  0  0  0  0  0  0  0  0  0  0
   -5.3616  -41.3127   11.8344 C   0  0  0  0  0  0  0  0  0  0  0  0
   -3.8033  -34.8800   13.6948 O   0  0  0  0  0  0  0  0  0  0  0  0
   -2.2095  -32.5863   11.8483 O   0  5  0  0  0  0  0  0  0  0  0  0
   -4.4412  -40.8541   10.9339 N   0  0  0  0  0  0  0  0  0  0  0  0
   -2.8888  -34.9708   11.2836 O   0  0  0  0  0  0  0  0  0  0  0  0
   -4.3732  -32.9475   11.0613 O   0  0  0  0  0  0  0  0  0  0  0  0
   -3.5165  -40.0418   11.5276 C   0  0  1  0  0  0  0  0  0  0  0  0
   -3.7815  -39.9462   12.8707 C   0  0  2  0  0  0  0  0  0  0  0  0
   -3.0688  -39.1974   13.9692 C   0  0  0  0  0  0  0  0  0  0  0  0
   -3.2879  -37.6836   13.8682 C   0  0  0  0  0  0  0  0  0  0  0  0
   -2.6894  -36.9908   12.7880 O   0  0  0  0  0  0  0  0  0  0  0  0
  1 11  1  0  0  0  0
  3 13  1  1  0  0  0
  3 17  2  0  0  0  0
  3 20  1  0  0  0  0
  3 26  1  0  0  0  0
  4 14  1  6  0  0  0
  4 18  1  0  0  0  0
  4 21  2  0  0  0  0
  4 20  1  0  0  0  0
  5 19  1  0  0  0  0
  5  7  1  0  0  0  0
  6  7  2  0  0  0  0
  6 12  1  0  0  0  0
  7  8  1  0  0  0  0
  8  9  1  0  0  0  0
  8 10  2  0  0  0  0
 10 11  1  0  0  0  0
 11 12  2  0  0  0  0
 15 23  1  0  0  0  0
 15 16  1  0  0  0  0
 16 19  1  0  0  0  0
 19 22  1  0  0  0  0
 22  2  1  1  0  0  0
 22 23  1  0  0  0  0
 23 24  1  1  0  0  0
 24 25  1  0  0  0  0
 25 26  1  0  0  0  0
M  CHG  2  13  -1  18  -1
M  END
>  <CHROM.1>
-71.27413395,53.37547561,79.11914957,151.35061262,-108.35444905,-69.18814990
-171.57935356,106.58170939,-4.39524247,-37.90253931,11.13625334,2.42613782
0.88048809,2.77413281

>  <Name>
ligand

>  <RI>
0

>  <Rbt.Current_Directory>
/home/itssahil/PROJECTS/Mol_Feturizer/New_Systems/rnas/3D2G

>  <Rbt.Executable>
rbdock ($Id: //depot/dev/client3/rdock/2013.1/src/exe/rbdock.cxx#4 $)

>  <Rbt.Library>
libRbt.so (2013.1, Build901 2013/11/27)

>  <Rbt.Parameter_File>
/export/apps/rDock/src/rDock_2013.1_src/data/scripts/dock_solv.prm

>  <Rbt.Receptor>
prm/blind_docking_80.prm

>  <SCORE>
-17.0551

>  <SCORE.INTER>
-16.2093

>  <SCORE.INTER.CONST>
1

>  <SCORE.INTER.POLAR>
0

>  <SCORE.INTER.ROT>
8

>  <SCORE.INTER.SOLV>
17.6512

>  <SCORE.INTER.VDW>
-25.6232

>  <SCORE.INTER.norm>
-0.623433

>  <SCORE.INTRA>
-0.845796

>  <SCORE.INTRA.DIHEDRAL>
-0.804291

>  <SCORE.INTRA.DIHEDRAL.0>
9.09364

>  <SCORE.INTRA.POLAR>
0

>  <SCORE.INTRA.POLAR.0>
0

>  <SCORE.INTRA.REPUL>
0

>  <SCORE.INTRA.REPUL.0>
0

>  <SCORE.INTRA.SOLV>
0.355056

>  <SCORE.INTRA.SOLV.lig_0>
-78.5846

>  <SCORE.INTRA.VDW>
-0.621178

>  <SCORE.INTRA.VDW.0>
-2.81163

>  <SCORE.INTRA.norm>
-0.0325306

>  <SCORE.RESTR>
0

>  <SCORE.RESTR.CAVITY>
0

>  <SCORE.RESTR.norm>
0

>  <SCORE.SYSTEM>
0

>  <SCORE.SYSTEM.CONST>
0

>  <SCORE.SYSTEM.DIHEDRAL>
0

>  <SCORE.SYSTEM.SOLV>
0

>  <SCORE.SYSTEM.norm>
0

>  <SCORE.heavy>
26

>  <SCORE.norm>
-0.655964

>  <RMSD>
8.691

$$$$
ligand
 OpenBabel11021811463D
libRbt.so/2013.1/901 2013/11/27
 26 27  0  0  0  0  0  0  0  0999 V2000
   -3.4145  -38.3496   13.1885 C   0  0  0  0  0  0  0  0  0  0  0  0
   -4.9284  -46.3510   10.4927 C   0  0  0  0  0  0  0  0  0  0  0  0
   -6.3922  -44.1880    5.5837 P   0  0  1  0  0  0  0  0  0  0  0  0
   -3.8779  -44.3454    4.4899 P   0  0  2  0  0  0  0  0  0  0  0  0
   -4.4658  -43.9395   12.4222 C   0  0  0  0  0  0  0  0  0  0  0  0
   -4.9651  -41.7397   13.5378 C   0  0  0  0  0  0  0  0  0  0  0  0
   -4.2043  -42.4678   12.6181 C   0  0  0  0  0  0  0  0  0  0  0  0
   -3.1745  -41.8492   11.9040 C   0  0  0  0  0  0  0  0  0  0  0  0
   -2.4514  -42.5442   11.0512 N   0  0  0  0  0  0  0  0  0  0  0  0
   -2.9394  -40.5066   12.0738 N   0  0  0  0  0  0  0  0  0  0  0  0
   -3.6862  -39.7990   12.9947 C   0  0  0  0  0  0  0  0  0  0  0  0
   -4.7020  -40.4000   13.7139 N   0  0  0  0  0  0  0  0  0  0  0  0
   -6.4886  -42.7151    5.3271 O   0  5  0  0  0  0  0  0  0  0  0  0
   -4.0570  -42.9473    4.0482 O   0  0  0  0  0  0  0  0  0  0  0  0
   -7.7121  -43.6007   10.4275 S   0  0  0  0  0  0  0  0  0  0  0  0
   -6.6017  -43.1850   11.4747 C   0  0  0  0  0  0  0  0  0  0  0  0
   -7.0376  -45.0663    4.5710 O   0  0  0  0  0  0  0  0  0  0  0  0
   -4.2530  -45.3148    3.4430 O   0  5  0  0  0  0  0  0  0  0  0  0
   -5.5854  -44.0970   11.5355 N   0  0  0  0  0  0  0  0  0  0  0  0
   -4.8356  -44.4203    5.7509 O   0  0  0  0  0  0  0  0  0  0  0  0
   -2.4987  -44.7706    4.8773 O   0  0  0  0  0  0  0  0  0  0  0  0
   -5.8044  -45.1527   10.6959 C   0  0  1  0  0  0  0  0  0  0  0  0
   -6.9842  -44.9670   10.0201 C   0  0  2  0  0  0  0  0  0  0  0  0
   -7.6734  -45.8157    8.9806 C   0  0  0  0  0  0  0  0  0  0  0  0
   -7.0446  -45.6474    7.5928 C   0  0  0  0  0  0  0  0  0  0  0  0
   -7.0179  -44.3518    7.0221 O   0  0  0  0  0  0  0  0  0  0  0  0
  1 11  1  0  0  0  0
  3 13  1  6  0  0  0
  3 17  2  0  0  0  0
  3 20  1  0  0  0  0
  3 26  1  0  0  0  0
  4 14  1  6  0  0  0
  4 18  1  0  0  0  0
  4 21  2  0  0  0  0
  4 20  1  0  0  0  0
  5 19  1  0  0  0  0
  5  7  1  0  0  0  0
  6  7  2  0  0  0  0
  6 12  1  0  0  0  0
  7  8  1  0  0  0  0
  8  9  1  0  0  0  0
  8 10  2  0  0  0  0
 10 11  1  0  0  0  0
 11 12  2  0  0  0  0
 15 23  1  0  0  0  0
 15 16  1  0  0  0  0
 16 19  1  0  0  0  0
 19 22  1  0  0  0  0
 22  2  1  6  0  0  0
 22 23  1  0  0  0  0
 23 24  1  6  0  0  0
 24 25  1  0  0  0  0
 25 26  1  0  0  0  0
M  CHG  2  13  -1  18  -1
M  END
>  <CHROM.1>
-72.19857838,-30.65913849,81.44761487,62.12199822,100.80895000,-58.82419447
-178.97081211,-178.16323488,-5.22144173,-43.52819754,8.71977001,-1.44968481
-0.67580670,-1.86204600

>  <Name>
ligand

>  <RI>
0

>  <Rbt.Current_Directory>
/home/itssahil/PROJECTS/Mol_Feturizer/New_Systems/rnas/3D2G

>  <Rbt.Executable>
rbdock ($Id: //depot/dev/client3/rdock/2013.1/src/exe/rbdock.cxx#4 $)

>  <Rbt.Library>
libRbt.so (2013.1, Build901 2013/11/27)

>  <Rbt.Parameter_File>
/export/apps/rDock/src/rDock_2013.1_src/data/scripts/dock_solv.prm

>  <Rbt.Receptor>
prm/pocket_docking_7.prm

>  <SCORE>
-18.8385

>  <SCORE.INTER>
-15.3298

>  <SCORE.INTER.CONST>
1

>  <SCORE.INTER.POLAR>
0

>  <SCORE.INTER.ROT>
8

>  <SCORE.INTER.SOLV>
5.37156

>  <SCORE.INTER.VDW>
-20.9437

>  <SCORE.INTER.norm>
-0.589609

>  <SCORE.INTRA>
-3.50865

>  <SCORE.INTRA.DIHEDRAL>
-4.21266

>  <SCORE.INTRA.DIHEDRAL.0>
9.09364

>  <SCORE.INTRA.POLAR>
0

>  <SCORE.INTRA.POLAR.0>
0

>  <SCORE.INTRA.REPUL>
0

>  <SCORE.INTRA.REPUL.0>
0

>  <SCORE.INTRA.SOLV>
-1.85669

>  <SCORE.INTRA.SOLV.lig_0>
-78.5846

>  <SCORE.INTRA.VDW>
-0.473978

>  <SCORE.INTRA.VDW.0>
-2.81163

>  <SCORE.INTRA.norm>
-0.134948

>  <SCORE.RESTR>
0

>  <SCORE.RESTR.CAVITY>
0

>  <SCORE.RESTR.norm>
0

>  <SCORE.SYSTEM>
0

>  <SCORE.SYSTEM.CONST>
0

>  <SCORE.SYSTEM.DIHEDRAL>
0

>  <SCORE.SYSTEM.SOLV>
0

>  <SCORE.SYSTEM.norm>
0

>  <SCORE.heavy>
26

>  <SCORE.norm>
-0.724558

>  <RMSD>
8.696

$$$$
ligand
 OpenBabel11021811463D
libRbt.so/2013.1/901 2013/11/27
 26 27  0  0  0  0  0  0  0  0999 V2000
   -3.6428  -38.5328   13.2383 C   0  0  0  0  0  0  0  0  0  0  0  0
   -4.8908  -46.2942   10.5198 C   0  0  0  0  0  0  0  0  0  0  0  0
   -6.4870  -43.1587    5.4744 P   0  0  1  0  0  0  0  0  0  0  0  0
   -4.0578  -42.3850    4.4528 P   0  0  2  0  0  0  0  0  0  0  0  0
   -5.1525  -44.0403   12.6655 C   0  0  0  0  0  0  0  0  0  0  0  0
   -5.5476  -41.7362   13.5974 C   0  0  0  0  0  0  0  0  0  0  0  0
   -4.7696  -42.5893   12.8088 C   0  0  0  0  0  0  0  0  0  0  0  0
   -3.6145  -42.1155   12.1808 C   0  0  0  0  0  0  0  0  0  0  0  0
   -2.8775  -42.9278   11.4527 N   0  0  0  0  0  0  0  0  0  0  0  0
   -3.2675  -40.7920   12.3023 N   0  0  0  0  0  0  0  0  0  0  0  0
   -4.0339  -39.9606   13.0947 C   0  0  0  0  0  0  0  0  0  0  0  0
   -5.1740  -40.4179   13.7284 N   0  0  0  0  0  0  0  0  0  0  0  0
   -6.9464  -41.7361    5.5736 O   0  5  0  0  0  0  0  0  0  0  0  0
   -4.5453  -40.9906    4.4537 O   0  0  0  0  0  0  0  0  0  0  0  0
   -7.7800  -43.7271    9.9033 S   0  0  0  0  0  0  0  0  0  0  0  0
   -7.0212  -43.3384   11.2358 C   0  0  0  0  0  0  0  0  0  0  0  0
   -6.9379  -43.9031    4.2678 O   0  0  0  0  0  0  0  0  0  0  0  0
   -4.2747  -43.0521    3.1550 O   0  5  0  0  0  0  0  0  0  0  0  0
   -5.9837  -44.1873   11.5028 N   0  0  0  0  0  0  0  0  0  0  0  0
   -4.9152  -43.0371    5.6158 O   0  0  0  0  0  0  0  0  0  0  0  0
   -2.6029  -42.6027    4.7152 O   0  0  0  0  0  0  0  0  0  0  0  0
   -5.8864  -45.1754   10.5639 C   0  0  1  0  0  0  0  0  0  0  0  0
   -6.8594  -45.0039    9.6116 C   0  0  2  0  0  0  0  0  0  0  0  0
   -7.1790  -45.7976    8.3692 C   0  0  0  0  0  0  0  0  0  0  0  0
   -6.6167  -45.1373    7.1053 C   0  0  0  0  0  0  0  0  0  0  0  0
   -7.0003  -43.8049    6.8183 O   0  0  0  0  0  0  0  0  0  0  0  0
  1 11  1  0  0  0  0
  3 13  1  6  0  0  0
  3 17  2  0  0  0  0
  3 20  1  0  0  0  0
  3 26  1  0  0  0  0
  4 14  1  6  0  0  0
  4 18  1  0  0  0  0
  4 21  2  0  0  0  0
  4 20  1  0  0  0  0
  5 19  1  0  0  0  0
  5  7  1  0  0  0  0
  6  7  2  0  0  0  0
  6 12  1  0  0  0  0
  7  8  1  0  0  0  0
  8  9  1  0  0  0  0
  8 10  2  0  0  0  0
 10 11  1  0  0  0  0
 11 12  2  0  0  0  0
 15 23  1  0  0  0  0
 15 16  1  0  0  0  0
 16 19  1  0  0  0  0
 19 22  1  0  0  0  0
 22  2  1  6  0  0  0
 22 23  1  0  0  0  0
 23 24  1  6  0  0  0
 24 25  1  0  0  0  0
 25 26  1  0  0  0  0
M  CHG  2  13  -1  18  -1
M  END
>  <CHROM.1>
-69.87403349,-45.76595402,92.50905333,64.74659231,79.56848034,-56.73628125
-176.49763132,-174.04420491,-5.40628672,-42.95439679,8.64209720,-1.47163209
-0.89442926,-1.61997287

>  <Name>
ligand

>  <RI>
0

>  <Rbt.Current_Directory>
/home/itssahil/PROJECTS/Mol_Feturizer/New_Systems/rnas/3D2G

>  <Rbt.Executable>
rbdock ($Id: //depot/dev/client3/rdock/2013.1/src/exe/rbdock.cxx#4 $)

>  <Rbt.Library>
libRbt.so (2013.1, Build901 2013/11/27)

>  <Rbt.Parameter_File>
/export/apps/rDock/src/rDock_2013.1_src/data/scripts/dock_solv.prm

>  <Rbt.Receptor>
prm/pocket_docking_6.prm

>  <SCORE>
-18.6328

>  <SCORE.INTER>
-15.3439

>  <SCORE.INTER.CONST>
1

>  <SCORE.INTER.POLAR>
0

>  <SCORE.INTER.ROT>
8

>  <SCORE.INTER.SOLV>
9.94495

>  <SCORE.INTER.VDW>
-22.4776

>  <SCORE.INTER.norm>
-0.590149

>  <SCORE.INTRA>
-3.28888

>  <SCORE.INTRA.DIHEDRAL>
-3.79976

>  <SCORE.INTRA.DIHEDRAL.0>
9.09364

>  <SCORE.INTRA.POLAR>
0

>  <SCORE.INTRA.POLAR.0>
0

>  <SCORE.INTRA.REPUL>
0

>  <SCORE.INTRA.REPUL.0>
0

>  <SCORE.INTRA.SOLV>
-0.964757

>  <SCORE.INTRA.SOLV.lig_0>
-78.5846

>  <SCORE.INTRA.VDW>
-0.906624

>  <SCORE.INTRA.VDW.0>
-2.81163

>  <SCORE.INTRA.norm>
-0.126496

>  <SCORE.RESTR>
0

>  <SCORE.RESTR.CAVITY>
0

>  <SCORE.RESTR.norm>
0

>  <SCORE.SYSTEM>
0

>  <SCORE.SYSTEM.CONST>
0

>  <SCORE.SYSTEM.DIHEDRAL>
0

>  <SCORE.SYSTEM.SOLV>
0

>  <SCORE.SYSTEM.norm>
0

>  <SCORE.heavy>
26

>  <SCORE.norm>
-0.716644

>  <RMSD>
8.707

$$$$
ligand
 OpenBabel11021811463D
libRbt.so/2013.1/901 2013/11/27
 26 27  0  0  0  0  0  0  0  0999 V2000
   -3.3361  -38.3604   13.2007 C   0  0  0  0  0  0  0  0  0  0  0  0
   -5.0329  -46.3516   10.4805 C   0  0  0  0  0  0  0  0  0  0  0  0
   -6.4047  -43.6811    6.9136 P   0  0  1  0  0  0  0  0  0  0  0  0
   -7.3439  -41.2527    7.7877 P   0  0  2  0  0  0  0  0  0  0  0  0
   -4.4464  -43.9283   12.3610 C   0  0  0  0  0  0  0  0  0  0  0  0
   -4.9209  -41.7387   13.5072 C   0  0  0  0  0  0  0  0  0  0  0  0
   -4.1694  -42.4622   12.5762 C   0  0  0  0  0  0  0  0  0  0  0  0
   -3.1346  -41.8446   11.8685 C   0  0  0  0  0  0  0  0  0  0  0  0
   -2.4203  -42.5353   11.0050 N   0  0  0  0  0  0  0  0  0  0  0  0
   -2.8853  -40.5069   12.0559 N   0  0  0  0  0  0  0  0  0  0  0  0
   -3.6231  -39.8042   12.9878 C   0  0  0  0  0  0  0  0  0  0  0  0
   -4.6437  -40.4044   13.7009 N   0  0  0  0  0  0  0  0  0  0  0  0
   -6.2726  -43.1506    5.5188 O   0  5  0  0  0  0  0  0  0  0  0  0
   -6.9560  -40.7627    6.4493 O   0  0  0  0  0  0  0  0  0  0  0  0
   -7.7273  -43.5134   10.4388 S   0  0  0  0  0  0  0  0  0  0  0  0
   -6.5792  -43.1187   11.4528 C   0  0  0  0  0  0  0  0  0  0  0  0
   -5.1571  -43.6925    7.7241 O   0  0  0  0  0  0  0  0  0  0  0  0
   -6.2985  -41.0043    8.7985 O   0  5  0  0  0  0  0  0  0  0  0  0
   -5.5916  -44.0623   11.5036 N   0  0  0  0  0  0  0  0  0  0  0  0
   -7.5696  -42.7992    7.5224 O   0  0  0  0  0  0  0  0  0  0  0  0
   -8.5699  -40.6622    8.4051 O   0  0  0  0  0  0  0  0  0  0  0  0
   -5.8647  -45.1225   10.6859 C   0  0  1  0  0  0  0  0  0  0  0  0
   -7.0539  -44.9085   10.0354 C   0  0  2  0  0  0  0  0  0  0  0  0
   -7.7949  -45.7495    9.0258 C   0  0  0  0  0  0  0  0  0  0  0  0
   -6.9453  -46.0358    7.7825 C   0  0  0  0  0  0  0  0  0  0  0  0
   -7.0093  -45.1224    6.7025 O   0  0  0  0  0  0  0  0  0  0  0  0
  1 11  1  0  0  0  0
  3 13  1  6  0  0  0
  3 17  2  0  0  0  0
  3 20  1  0  0  0  0
  3 26  1  0  0  0  0
  4 14  1  6  0  0  0
  4 18  1  0  0  0  0
  4 21  2  0  0  0  0
  4 20  1  0  0  0  0
  5 19  1  0  0  0  0
  5  7  1  0  0  0  0
  6  7  2  0  0  0  0
  6 12  1  0  0  0  0
  7  8  1  0  0  0  0
  8  9  1  0  0  0  0
  8 10  2  0  0  0  0
 10 11  1  0  0  0  0
 11 12  2  0  0  0  0
 15 23  1  0  0  0  0
 15 16  1  0  0  0  0
 16 19  1  0  0  0  0
 19 22  1  0  0  0  0
 22  2  1  6  0  0  0
 22 23  1  0  0  0  0
 23 24  1  6  0  0  0
 24 25  1  0  0  0  0
 25 26  1  0  0  0  0
M  CHG  2  13  -1  18  -1
M  END
>  <CHROM.1>
-67.97280752,-28.22731963,79.90137855,56.83948229,121.45333325,-89.70533522
68.16538169,164.01173131,-5.91993201,-42.78579579,9.67688391,0.22256100,-1.07049138
-0.20239779

>  <Name>
ligand

>  <RI>
0

>  <Rbt.Current_Directory>
/home/itssahil/PROJECTS/Mol_Feturizer/New_Systems/rnas/3D2G

>  <Rbt.Executable>
rbdock ($Id: //depot/dev/client3/rdock/2013.1/src/exe/rbdock.cxx#4 $)

>  <Rbt.Library>
libRbt.so (2013.1, Build901 2013/11/27)

>  <Rbt.Parameter_File>
/export/apps/rDock/src/rDock_2013.1_src/data/scripts/dock_solv.prm

>  <Rbt.Receptor>
prm/pocket_docking_8.prm

>  <SCORE>
-19.8113

>  <SCORE.INTER>
-17.6544

>  <SCORE.INTER.CONST>
1

>  <SCORE.INTER.POLAR>
0

>  <SCORE.INTER.ROT>
8

>  <SCORE.INTER.SOLV>
12.2841

>  <SCORE.INTER.VDW>
-24.7976

>  <SCORE.INTER.norm>
-0.679016

>  <SCORE.INTRA>
-2.15685

>  <SCORE.INTRA.DIHEDRAL>
-0.705478

>  <SCORE.INTRA.DIHEDRAL.0>
9.09364

>  <SCORE.INTRA.POLAR>
0

>  <SCORE.INTRA.POLAR.0>
0

>  <SCORE.INTRA.REPUL>
0

>  <SCORE.INTRA.REPUL.0>
0

>  <SCORE.INTRA.SOLV>
1.24654

>  <SCORE.INTRA.SOLV.lig_0>
-78.5846

>  <SCORE.INTRA.VDW>
-2.42738

>  <SCORE.INTRA.VDW.0>
-2.81163

>  <SCORE.INTRA.norm>
-0.0829558

>  <SCORE.RESTR>
0

>  <SCORE.RESTR.CAVITY>
0

>  <SCORE.RESTR.norm>
0

>  <SCORE.SYSTEM>
0

>  <SCORE.SYSTEM.CONST>
0

>  <SCORE.SYSTEM.DIHEDRAL>
0

>  <SCORE.SYSTEM.SOLV>
0

>  <SCORE.SYSTEM.norm>
0

>  <SCORE.heavy>
26

>  <SCORE.norm>
-0.761972

>  <RMSD>
8.721

$$$$
ligand
 OpenBabel11021811463D
libRbt.so/2013.1/901 2013/11/27
 26 27  0  0  0  0  0  0  0  0999 V2000
   -0.9640  -40.2429   10.0869 C   0  0  0  0  0  0  0  0  0  0  0  0
   -7.2554  -43.5694   11.0501 C   0  0  0  0  0  0  0  0  0  0  0  0
   -6.4200  -43.8109    6.1018 P   0  0  1  0  0  0  0  0  0  0  0  0
   -4.7545  -41.8811    7.1239 P   0  0  2  0  0  0  0  0  0  0  0  0
   -4.6164  -43.8154   12.7017 C   0  0  0  0  0  0  0  0  0  0  0  0
   -2.5091  -43.3937   11.3923 C   0  0  0  0  0  0  0  0  0  0  0  0
   -3.6456  -42.8813   12.0252 C   0  0  0  0  0  0  0  0  0  0  0  0
   -3.9101  -41.5092   12.0032 C   0  0  0  0  0  0  0  0  0  0  0  0
   -4.9903  -41.0348   12.5873 N   0  0  0  0  0  0  0  0  0  0  0  0
   -3.0232  -40.6546   11.3951 N   0  0  0  0  0  0  0  0  0  0  0  0
   -1.9111  -41.1712   10.7603 C   0  0  0  0  0  0  0  0  0  0  0  0
   -1.6417  -42.5269   10.7670 N   0  0  0  0  0  0  0  0  0  0  0  0
   -7.7155  -43.7413    5.3526 O   0  5  0  0  0  0  0  0  0  0  0  0
   -4.7575  -40.4090    7.0024 O   0  0  0  0  0  0  0  0  0  0  0  0
   -5.1236  -46.7711   10.3272 S   0  0  0  0  0  0  0  0  0  0  0  0
   -4.3879  -45.8989   11.4227 C   0  0  0  0  0  0  0  0  0  0  0  0
   -5.3715  -44.6812    5.5046 O   0  0  0  0  0  0  0  0  0  0  0  0
   -3.4993  -42.4800    6.6316 O   0  5  0  0  0  0  0  0  0  0  0  0
   -5.0901  -44.7691   11.7371 N   0  0  0  0  0  0  0  0  0  0  0  0
   -6.0045  -42.2898    6.2388 O   0  0  0  0  0  0  0  0  0  0  0  0
   -4.8977  -42.4560    8.4958 O   0  0  0  0  0  0  0  0  0  0  0  0
   -6.2363  -44.6666   11.0002 C   0  0  1  0  0  0  0  0  0  0  0  0
   -6.3495  -45.7535   10.1702 C   0  0  2  0  0  0  0  0  0  0  0  0
   -7.4180  -46.1315    9.1746 C   0  0  0  0  0  0  0  0  0  0  0  0
   -7.0738  -45.6618    7.7567 C   0  0  0  0  0  0  0  0  0  0  0  0
   -6.8544  -44.2792    7.5437 O   0  0  0  0  0  0  0  0  0  0  0  0
  1 11  1  0  0  0  0
  3 13  1  6  0  0  0
  3 17  2  0  0  0  0
  3 20  1  0  0  0  0
  3 26  1  0  0  0  0
  4 14  1  1  0  0  0
  4 18  1  0  0  0  0
  4 21  2  0  0  0  0
  4 20  1  0  0  0  0
  5 19  1  0  0  0  0
  5  7  1  0  0  0  0
  6  7  2  0  0  0  0
  6 12  1  0  0  0  0
  7  8  1  0  0  0  0
  8  9  1  0  0  0  0
  8 10  2  0  0  0  0
 10 11  1  0  0  0  0
 11 12  2  0  0  0  0
 15 23  1  0  0  0  0
 15 16  1  0  0  0  0
 16 19  1  0  0  0  0
 19 22  1  0  0  0  0
 22  2  1  1  0  0  0
 22 23  1  0  0  0  0
 23 24  1  1  0  0  0
 24 25  1  0  0  0  0
 25 26  1  0  0  0  0
M  CHG  2  13  -1  18  -1
M  END
>  <CHROM.1>
172.95250625,83.26340406,-57.53075030,-178.48249062,-86.24479353,-58.04060962
176.56962920,81.77128754,-4.97735606,-43.40565022,9.13252223,-0.61566808
-0.88683927,-1.07597026

>  <Name>
ligand

>  <RI>
0

>  <Rbt.Current_Directory>
/home/itssahil/PROJECTS/Mol_Feturizer/New_Systems/rnas/3D2G

>  <Rbt.Executable>
rbdock ($Id: //depot/dev/client3/rdock/2013.1/src/exe/rbdock.cxx#4 $)

>  <Rbt.Library>
libRbt.so (2013.1, Build901 2013/11/27)

>  <Rbt.Parameter_File>
/export/apps/rDock/src/rDock_2013.1_src/data/scripts/dock_solv.prm

>  <Rbt.Receptor>
prm/pocket_docking_6.prm

>  <SCORE>
-17.1742

>  <SCORE.INTER>
-13.2908

>  <SCORE.INTER.CONST>
1

>  <SCORE.INTER.POLAR>
0

>  <SCORE.INTER.ROT>
8

>  <SCORE.INTER.SOLV>
9.116

>  <SCORE.INTER.VDW>
-20.8325

>  <SCORE.INTER.norm>
-0.511185

>  <SCORE.INTRA>
-3.8834

>  <SCORE.INTRA.DIHEDRAL>
-3.64747

>  <SCORE.INTRA.DIHEDRAL.0>
9.09364

>  <SCORE.INTRA.POLAR>
0

>  <SCORE.INTRA.POLAR.0>
0

>  <SCORE.INTRA.REPUL>
0

>  <SCORE.INTRA.REPUL.0>
0

>  <SCORE.INTRA.SOLV>
1.50766

>  <SCORE.INTRA.SOLV.lig_0>
-78.5846

>  <SCORE.INTRA.VDW>
-2.8135

>  <SCORE.INTRA.VDW.0>
-2.81163

>  <SCORE.INTRA.norm>
-0.149362

>  <SCORE.RESTR>
0

>  <SCORE.RESTR.CAVITY>
0

>  <SCORE.RESTR.norm>
0

>  <SCORE.SYSTEM>
0

>  <SCORE.SYSTEM.CONST>
0

>  <SCORE.SYSTEM.DIHEDRAL>
0

>  <SCORE.SYSTEM.SOLV>
0

>  <SCORE.SYSTEM.norm>
0

>  <SCORE.heavy>
26

>  <SCORE.norm>
-0.660546

>  <RMSD>
8.722

$$$$
ligand
 OpenBabel11021811463D
libRbt.so/2013.1/901 2013/11/27
 26 27  0  0  0  0  0  0  0  0999 V2000
   -7.7126  -35.0440   11.8578 C   0  0  0  0  0  0  0  0  0  0  0  0
   -4.8132  -41.0506   11.4957 C   0  0  0  0  0  0  0  0  0  0  0  0
   -5.8366  -39.6793    6.5317 P   0  0  1  0  0  0  0  0  0  0  0  0
   -6.8073  -37.3581    5.4302 P   0  0  2  0  0  0  0  0  0  0  0  0
   -3.3344  -38.6319   12.8054 C   0  0  0  0  0  0  0  0  0  0  0  0
   -5.7481  -38.2093   12.2320 C   0  0  0  0  0  0  0  0  0  0  0  0
   -4.4854  -37.6948   12.5414 C   0  0  0  0  0  0  0  0  0  0  0  0
   -4.2894  -36.3150   12.6459 C   0  0  0  0  0  0  0  0  0  0  0  0
   -3.1018  -35.8375   12.9533 N   0  0  0  0  0  0  0  0  0  0  0  0
   -5.3340  -35.4583   12.3976 N   0  0  0  0  0  0  0  0  0  0  0  0
   -6.5806  -35.9760   12.1069 C   0  0  0  0  0  0  0  0  0  0  0  0
   -6.7906  -37.3386   12.0088 N   0  0  0  0  0  0  0  0  0  0  0  0
   -6.8808  -39.5075    7.5922 O   0  5  0  0  0  0  0  0  0  0  0  0
   -6.1268  -36.1395    4.9467 O   0  0  0  0  0  0  0  0  0  0  0  0
   -1.7224  -39.7057    9.5069 S   0  0  0  0  0  0  0  0  0  0  0  0
   -1.9077  -38.8401   10.8179 C   0  0  0  0  0  0  0  0  0  0  0  0
   -6.1588  -40.6556    5.4564 O   0  0  0  0  0  0  0  0  0  0  0  0
   -7.8325  -37.0595    6.4481 O   0  5  0  0  0  0  0  0  0  0  0  0
   -2.9638  -39.2691   11.5721 N   0  0  0  0  0  0  0  0  0  0  0  0
   -5.6006  -38.2002    6.0200 O   0  0  0  0  0  0  0  0  0  0  0  0
   -7.5480  -38.1754    4.4220 O   0  0  0  0  0  0  0  0  0  0  0  0
   -3.6097  -40.3198   10.9836 C   0  0  1  0  0  0  0  0  0  0  0  0
   -2.9829  -40.6457    9.8071 C   0  0  2  0  0  0  0  0  0  0  0  0
   -3.2800  -41.7218    8.7926 C   0  0  0  0  0  0  0  0  0  0  0  0
   -4.4876  -41.3682    7.9171 C   0  0  0  0  0  0  0  0  0  0  0  0
   -4.5458  -40.0731    7.3478 O   0  0  0  0  0  0  0  0  0  0  0  0
  1 11  1  0  0  0  0
  3 13  1  1  0  0  0
  3 17  2  0  0  0  0
  3 20  1  0  0  0  0
  3 26  1  0  0  0  0
  4 14  1  6  0  0  0
  4 18  1  0  0  0  0
  4 21  2  0  0  0  0
  4 20  1  0  0  0  0
  5 19  1  0  0  0  0
  5  7  1  0  0  0  0
  6  7  2  0  0  0  0
  6 12  1  0  0  0  0
  7  8  1  0  0  0  0
  8  9  1  0  0  0  0
  8 10  2  0  0  0  0
 10 11  1  0  0  0  0
 11 12  2  0  0  0  0
 15 23  1  0  0  0  0
 15 16  1  0  0  0  0
 16 19  1  0  0  0  0
 19 22  1  0  0  0  0
 22  2  1  1  0  0  0
 22 23  1  0  0  0  0
 23 24  1  1  0  0  0
 24 25  1  0  0  0  0
 25 26  1  0  0  0  0
M  CHG  2  13  -1  18  -1
M  END
>  <CHROM.1>
-58.36616371,99.07075551,69.94544693,-173.81602643,-104.66897481,47.55408754
-175.79797411,72.33026973,-5.05986874,-38.53597004,9.02792568,1.04157193
-0.81094108,1.07064686

>  <Name>
ligand

>  <RI>
0

>  <Rbt.Current_Directory>
/home/itssahil/PROJECTS/Mol_Feturizer/New_Systems/rnas/3D2G

>  <Rbt.Executable>
rbdock ($Id: //depot/dev/client3/rdock/2013.1/src/exe/rbdock.cxx#4 $)

>  <Rbt.Library>
libRbt.so (2013.1, Build901 2013/11/27)

>  <Rbt.Parameter_File>
/export/apps/rDock/src/rDock_2013.1_src/data/scripts/dock_solv.prm

>  <Rbt.Receptor>
prm/blind_docking_80.prm

>  <SCORE>
-17.3459

>  <SCORE.INTER>
-14.8258

>  <SCORE.INTER.CONST>
1

>  <SCORE.INTER.POLAR>
0

>  <SCORE.INTER.ROT>
8

>  <SCORE.INTER.SOLV>
12.8067

>  <SCORE.INTER.VDW>
-23.0861

>  <SCORE.INTER.norm>
-0.570223

>  <SCORE.INTRA>
-2.5201

>  <SCORE.INTRA.DIHEDRAL>
-3.44662

>  <SCORE.INTRA.DIHEDRAL.0>
9.09364

>  <SCORE.INTRA.POLAR>
0

>  <SCORE.INTRA.POLAR.0>
0

>  <SCORE.INTRA.REPUL>
0

>  <SCORE.INTRA.REPUL.0>
0

>  <SCORE.INTRA.SOLV>
0.0911244

>  <SCORE.INTRA.SOLV.lig_0>
-78.5846

>  <SCORE.INTRA.VDW>
-0.842351

>  <SCORE.INTRA.VDW.0>
-2.81163

>  <SCORE.INTRA.norm>
-0.096927

>  <SCORE.RESTR>
0

>  <SCORE.RESTR.CAVITY>
0

>  <SCORE.RESTR.norm>
0

>  <SCORE.SYSTEM>
0

>  <SCORE.SYSTEM.CONST>
0

>  <SCORE.SYSTEM.DIHEDRAL>
0

>  <SCORE.SYSTEM.SOLV>
0

>  <SCORE.SYSTEM.norm>
0

>  <SCORE.heavy>
26

>  <SCORE.norm>
-0.66715

>  <RMSD>
8.725

$$$$
ligand
 OpenBabel11021811463D
libRbt.so/2013.1/901 2013/11/27
 26 27  0  0  0  0  0  0  0  0999 V2000
   -0.0106  -45.7223    7.0920 C   0  0  0  0  0  0  0  0  0  0  0  0
   -6.1734  -44.9220    7.3316 C   0  0  0  0  0  0  0  0  0  0  0  0
   -6.7605  -41.2398    6.0827 P   0  0  1  0  0  0  0  0  0  0  0  0
   -4.6536  -41.8135    4.4169 P   0  0  2  0  0  0  0  0  0  0  0  0
   -5.0981  -46.9529    9.4463 C   0  0  0  0  0  0  0  0  0  0  0  0
   -3.0666  -45.4817    9.2418 C   0  0  0  0  0  0  0  0  0  0  0  0
   -3.7679  -46.6160    8.8220 C   0  0  0  0  0  0  0  0  0  0  0  0
   -3.2266  -47.4643    7.8522 C   0  0  0  0  0  0  0  0  0  0  0  0
   -3.8847  -48.5395    7.4728 N   0  0  0  0  0  0  0  0  0  0  0  0
   -2.0189  -47.1556    7.2753 N   0  0  0  0  0  0  0  0  0  0  0  0
   -1.3270  -46.0413    7.7065 C   0  0  0  0  0  0  0  0  0  0  0  0
   -1.8466  -45.1983    8.6709 N   0  0  0  0  0  0  0  0  0  0  0  0
   -7.5166  -39.9795    6.3732 O   0  5  0  0  0  0  0  0  0  0  0  0
   -3.9454  -41.0029    3.4055 O   0  0  0  0  0  0  0  0  0  0  0  0
   -6.8640  -43.9705   11.0646 S   0  0  0  0  0  0  0  0  0  0  0  0
   -6.0848  -45.3464   11.0194 C   0  0  0  0  0  0  0  0  0  0  0  0
   -7.5866  -42.4221    5.7174 O   0  0  0  0  0  0  0  0  0  0  0  0
   -5.2694  -43.0210    3.8344 O   0  5  0  0  0  0  0  0  0  0  0  0
   -5.7944  -45.7309    9.7403 N   0  0  0  0  0  0  0  0  0  0  0  0
   -5.7342  -40.7910    4.9645 O   0  0  0  0  0  0  0  0  0  0  0  0
   -3.8455  -42.3508    5.5533 O   0  0  0  0  0  0  0  0  0  0  0  0
   -6.2796  -44.8408    8.8239 C   0  0  1  0  0  0  0  0  0  0  0  0
   -6.9027  -43.8046    9.4728 C   0  0  2  0  0  0  0  0  0  0  0  0
   -7.5857  -42.5702    8.9386 C   0  0  0  0  0  0  0  0  0  0  0  0
   -6.5875  -41.4469    8.6360 C   0  0  0  0  0  0  0  0  0  0  0  0
   -5.9115  -41.4687    7.3920 O   0  0  0  0  0  0  0  0  0  0  0  0
  1 11  1  0  0  0  0
  3 13  1  1  0  0  0
  3 17  2  0  0  0  0
  3 20  1  0  0  0  0
  3 26  1  0  0  0  0
  4 14  1  6  0  0  0
  4 18  1  0  0  0  0
  4 21  2  0  0  0  0
  4 20  1  0  0  0  0
  5 19  1  0  0  0  0
  5  7  1  0  0  0  0
  6  7  2  0  0  0  0
  6 12  1  0  0  0  0
  7  8  1  0  0  0  0
  8  9  1  0  0  0  0
  8 10  2  0  0  0  0
 10 11  1  0  0  0  0
 11 12  2  0  0  0  0
 15 23  1  0  0  0  0
 15 16  1  0  0  0  0
 16 19  1  0  0  0  0
 19 22  1  0  0  0  0
 22  2  1  1  0  0  0
 22 23  1  0  0  0  0
 23 24  1  1  0  0  0
 24 25  1  0  0  0  0
 25 26  1  0  0  0  0
M  CHG  2  13  -1  18  -1
M  END
>  <CHROM.1>
176.19564086,-115.14546867,35.28711804,179.18992171,96.14132627,83.33047094
67.09024256,51.55983985,-5.09668686,-43.73176157,7.39267206,-1.09798214,0.63300265
-0.87458593

>  <Name>
ligand

>  <RI>
0

>  <Rbt.Current_Directory>
/home/itssahil/PROJECTS/Mol_Feturizer/New_Systems/rnas/3D2G

>  <Rbt.Executable>
rbdock ($Id: //depot/dev/client3/rdock/2013.1/src/exe/rbdock.cxx#4 $)

>  <Rbt.Library>
libRbt.so (2013.1, Build901 2013/11/27)

>  <Rbt.Parameter_File>
/export/apps/rDock/src/rDock_2013.1_src/data/scripts/dock_solv.prm

>  <Rbt.Receptor>
prm/pocket_docking_4.prm

>  <SCORE>
-9.67197

>  <SCORE.INTER>
-8.1634

>  <SCORE.INTER.CONST>
1

>  <SCORE.INTER.POLAR>
0

>  <SCORE.INTER.ROT>
8

>  <SCORE.INTER.SOLV>
8.24153

>  <SCORE.INTER.VDW>
-17.1228

>  <SCORE.INTER.norm>
-0.313977

>  <SCORE.INTRA>
-1.50857

>  <SCORE.INTRA.DIHEDRAL>
-1.94818

>  <SCORE.INTRA.DIHEDRAL.0>
9.09364

>  <SCORE.INTRA.POLAR>
0

>  <SCORE.INTRA.POLAR.0>
0

>  <SCORE.INTRA.REPUL>
0

>  <SCORE.INTRA.REPUL.0>
0

>  <SCORE.INTRA.SOLV>
2.0272

>  <SCORE.INTRA.SOLV.lig_0>
-78.5846

>  <SCORE.INTRA.VDW>
-1.54808

>  <SCORE.INTRA.VDW.0>
-2.81163

>  <SCORE.INTRA.norm>
-0.058022

>  <SCORE.RESTR>
0

>  <SCORE.RESTR.CAVITY>
0

>  <SCORE.RESTR.norm>
0

>  <SCORE.SYSTEM>
0

>  <SCORE.SYSTEM.CONST>
0

>  <SCORE.SYSTEM.DIHEDRAL>
0

>  <SCORE.SYSTEM.SOLV>
0

>  <SCORE.SYSTEM.norm>
0

>  <SCORE.heavy>
26

>  <SCORE.norm>
-0.371999

>  <RMSD>
8.740

$$$$
ligand
 OpenBabel11021811463D
libRbt.so/2013.1/901 2013/11/27
 26 27  0  0  0  0  0  0  0  0999 V2000
   -1.5806  -38.9631   10.1107 C   0  0  0  0  0  0  0  0  0  0  0  0
   -7.4740  -43.8728    9.6737 C   0  0  0  0  0  0  0  0  0  0  0  0
   -6.8208  -45.9461    6.1306 P   0  0  1  0  0  0  0  0  0  0  0  0
   -8.1257  -44.3138    4.3486 P   0  0  2  0  0  0  0  0  0  0  0  0
   -5.8396  -42.3807   11.8771 C   0  0  0  0  0  0  0  0  0  0  0  0
   -4.1123  -41.7210   10.1700 C   0  0  0  0  0  0  0  0  0  0  0  0
   -4.7109  -41.4956   11.4133 C   0  0  0  0  0  0  0  0  0  0  0  0
   -4.2960  -40.4294   12.2159 C   0  0  0  0  0  0  0  0  0  0  0  0
   -4.8746  -40.2129   13.3783 N   0  0  0  0  0  0  0  0  0  0  0  0
   -3.2622  -39.6263   11.7999 N   0  0  0  0  0  0  0  0  0  0  0  0
   -2.6869  -39.8477   10.5644 C   0  0  0  0  0  0  0  0  0  0  0  0
   -3.0931  -40.8932    9.7567 N   0  0  0  0  0  0  0  0  0  0  0  0
   -7.9330  -46.2937    7.0723 O   0  5  0  0  0  0  0  0  0  0  0  0
   -9.2403  -45.2426    4.6259 O   0  0  0  0  0  0  0  0  0  0  0  0
   -4.5162  -45.9105   11.2282 S   0  0  0  0  0  0  0  0  0  0  0  0
   -4.5694  -44.4819   11.9053 C   0  0  0  0  0  0  0  0  0  0  0  0
   -6.5685  -46.9222    5.0366 O   0  0  0  0  0  0  0  0  0  0  0  0
   -7.4124  -44.6527    3.1025 O   0  5  0  0  0  0  0  0  0  0  0  0
   -5.5954  -43.7206   11.4194 N   0  0  0  0  0  0  0  0  0  0  0  0
   -7.2144  -44.4961    5.6328 O   0  0  0  0  0  0  0  0  0  0  0  0
   -8.4651  -42.8693    4.1714 O   0  0  0  0  0  0  0  0  0  0  0  0
   -6.2959  -44.3793   10.4484 C   0  0  1  0  0  0  0  0  0  0  0  0
   -5.7643  -45.6311   10.2654 C   0  0  2  0  0  0  0  0  0  0  0  0
   -6.1658  -46.7509    9.3377 C   0  0  0  0  0  0  0  0  0  0  0  0
   -5.3281  -46.7613    8.0539 C   0  0  0  0  0  0  0  0  0  0  0  0
   -5.5775  -45.7612    7.0832 O   0  0  0  0  0  0  0  0  0  0  0  0
  1 11  1  0  0  0  0
  3 13  1  1  0  0  0
  3 17  2  0  0  0  0
  3 20  1  0  0  0  0
  3 26  1  0  0  0  0
  4 14  1  1  0  0  0
  4 18  1  0  0  0  0
  4 21  2  0  0  0  0
  4 20  1  0  0  0  0
  5 19  1  0  0  0  0
  5  7  1  0  0  0  0
  6  7  2  0  0  0  0
  6 12  1  0  0  0  0
  7  8  1  0  0  0  0
  8  9  1  0  0  0  0
  8 10  2  0  0  0  0
 10 11  1  0  0  0  0
 11 12  2  0  0  0  0
 15 23  1  0  0  0  0
 15 16  1  0  0  0  0
 16 19  1  0  0  0  0
 19 22  1  0  0  0  0
 22  2  1  1  0  0  0
 22 23  1  0  0  0  0
 23 24  1  1  0  0  0
 24 25  1  0  0  0  0
 25 26  1  0  0  0  0
M  CHG  2  13  -1  18  -1
M  END
>  <CHROM.1>
-89.69853065,68.17387686,35.53673140,49.13902002,-83.66955962,-73.42280948
-79.13704211,48.07965707,-5.85958501,-43.89958969,8.49724477,-0.05601734
-1.11484102,-0.61272874

>  <Name>
ligand

>  <RI>
0

>  <Rbt.Current_Directory>
/home/itssahil/PROJECTS/Mol_Feturizer/New_Systems/rnas/3D2G

>  <Rbt.Executable>
rbdock ($Id: //depot/dev/client3/rdock/2013.1/src/exe/rbdock.cxx#4 $)

>  <Rbt.Library>
libRbt.so (2013.1, Build901 2013/11/27)

>  <Rbt.Parameter_File>
/export/apps/rDock/src/rDock_2013.1_src/data/scripts/dock_solv.prm

>  <Rbt.Receptor>
prm/pocket_docking_8.prm

>  <SCORE>
-10.9457

>  <SCORE.INTER>
-9.81327

>  <SCORE.INTER.CONST>
1

>  <SCORE.INTER.POLAR>
0

>  <SCORE.INTER.ROT>
8

>  <SCORE.INTER.SOLV>
17.4956

>  <SCORE.INTER.VDW>
-21.3074

>  <SCORE.INTER.norm>
-0.377434

>  <SCORE.INTRA>
-1.13247

>  <SCORE.INTRA.DIHEDRAL>
-0.419525

>  <SCORE.INTRA.DIHEDRAL.0>
9.09364

>  <SCORE.INTRA.POLAR>
0

>  <SCORE.INTRA.POLAR.0>
0

>  <SCORE.INTRA.REPUL>
0

>  <SCORE.INTRA.REPUL.0>
0

>  <SCORE.INTRA.SOLV>
-0.910968

>  <SCORE.INTRA.SOLV.lig_0>
-78.5846

>  <SCORE.INTRA.VDW>
-0.467225

>  <SCORE.INTRA.VDW.0>
-2.81163

>  <SCORE.INTRA.norm>
-0.0435566

>  <SCORE.RESTR>
0

>  <SCORE.RESTR.CAVITY>
0

>  <SCORE.RESTR.norm>
0

>  <SCORE.SYSTEM>
0

>  <SCORE.SYSTEM.CONST>
0

>  <SCORE.SYSTEM.DIHEDRAL>
0

>  <SCORE.SYSTEM.SOLV>
0

>  <SCORE.SYSTEM.norm>
0

>  <SCORE.heavy>
26

>  <SCORE.norm>
-0.42099

>  <RMSD>
8.741

$$$$
ligand
 OpenBabel11021811463D
libRbt.so/2013.1/901 2013/11/27
 26 27  0  0  0  0  0  0  0  0999 V2000
   -0.8889  -40.4628   10.0351 C   0  0  0  0  0  0  0  0  0  0  0  0
   -7.3147  -43.6762   11.0734 C   0  0  0  0  0  0  0  0  0  0  0  0
   -5.4809  -46.1706    5.7485 P   0  0  1  0  0  0  0  0  0  0  0  0
   -3.1003  -47.0754    6.7767 P   0  0  2  0  0  0  0  0  0  0  0  0
   -4.6291  -43.9477   12.6439 C   0  0  0  0  0  0  0  0  0  0  0  0
   -2.4778  -43.5687   11.3943 C   0  0  0  0  0  0  0  0  0  0  0  0
   -3.6356  -43.0362   11.9695 C   0  0  0  0  0  0  0  0  0  0  0  0
   -3.8993  -41.6660   11.8910 C   0  0  0  0  0  0  0  0  0  0  0  0
   -4.9992  -41.1732   12.4206 N   0  0  0  0  0  0  0  0  0  0  0  0
   -2.9920  -40.8317   11.2848 N   0  0  0  0  0  0  0  0  0  0  0  0
   -1.8586  -41.3685   10.7070 C   0  0  0  0  0  0  0  0  0  0  0  0
   -1.5894  -42.7228   10.7699 N   0  0  0  0  0  0  0  0  0  0  0  0
   -5.1089  -44.7260    5.8868 O   0  5  0  0  0  0  0  0  0  0  0  0
   -3.0362  -45.7108    7.3386 O   0  0  0  0  0  0  0  0  0  0  0  0
   -5.2010  -46.8607   10.2316 S   0  0  0  0  0  0  0  0  0  0  0  0
   -4.4350  -46.0072   11.3212 C   0  0  0  0  0  0  0  0  0  0  0  0
   -6.4850  -46.4838    4.6963 O   0  0  0  0  0  0  0  0  0  0  0  0
   -1.7744  -47.5726    6.3631 O   0  5  0  0  0  0  0  0  0  0  0  0
   -5.1292  -44.8845   11.6761 N   0  0  0  0  0  0  0  0  0  0  0  0
   -4.0815  -46.8821    5.5467 O   0  0  0  0  0  0  0  0  0  0  0  0
   -3.6145  -48.1599    7.6671 O   0  0  0  0  0  0  0  0  0  0  0  0
   -6.2963  -44.7706   10.9744 C   0  0  1  0  0  0  0  0  0  0  0  0
   -6.4320  -45.8425   10.1284 C   0  0  2  0  0  0  0  0  0  0  0  0
   -7.5282  -46.2041    9.1572 C   0  0  0  0  0  0  0  0  0  0  0  0
   -7.1247  -45.9238    7.7052 C   0  0  0  0  0  0  0  0  0  0  0  0
   -5.9692  -46.5641    7.1955 O   0  0  0  0  0  0  0  0  0  0  0  0
  1 11  1  0  0  0  0
  3 13  1  6  0  0  0
  3 17  2  0  0  0  0
  3 20  1  0  0  0  0
  3 26  1  0  0  0  0
  4 14  1  1  0  0  0
  4 18  1  0  0  0  0
  4 21  2  0  0  0  0
  4 20  1  0  0  0  0
  5 19  1  0  0  0  0
  5  7  1  0  0  0  0
  6  7  2  0  0  0  0
  6 12  1  0  0  0  0
  7  8  1  0  0  0  0
  8  9  1  0  0  0  0
  8 10  2  0  0  0  0
 10 11  1  0  0  0  0
 11 12  2  0  0  0  0
 15 23  1  0  0  0  0
 15 16  1  0  0  0  0
 16 19  1  0  0  0  0
 19 22  1  0  0  0  0
 22  2  1  1  0  0  0
 22 23  1  0  0  0  0
 23 24  1  1  0  0  0
 24 25  1  0  0  0  0
 25 26  1  0  0  0  0
M  CHG  2  13  -1  18  -1
M  END
>  <CHROM.1>
74.76057146,80.92741235,-60.94923596,-51.09618566,-76.54800341,58.22720914
-174.38566267,64.01550832,-4.45230497,-45.03411979,8.96627168,-1.36729128
-0.45319928,-2.19263635

>  <Name>
ligand

>  <RI>
0

>  <Rbt.Current_Directory>
/home/itssahil/PROJECTS/Mol_Feturizer/New_Systems/rnas/3D2G

>  <Rbt.Executable>
rbdock ($Id: //depot/dev/client3/rdock/2013.1/src/exe/rbdock.cxx#4 $)

>  <Rbt.Library>
libRbt.so (2013.1, Build901 2013/11/27)

>  <Rbt.Parameter_File>
/export/apps/rDock/src/rDock_2013.1_src/data/scripts/dock_solv.prm

>  <Rbt.Receptor>
prm/pocket_docking_5.prm

>  <SCORE>
-16.4196

>  <SCORE.INTER>
-12.444

>  <SCORE.INTER.CONST>
1

>  <SCORE.INTER.POLAR>
0

>  <SCORE.INTER.ROT>
8

>  <SCORE.INTER.SOLV>
6.90618

>  <SCORE.INTER.VDW>
-19.5314

>  <SCORE.INTER.norm>
-0.478614

>  <SCORE.INTRA>
-3.97562

>  <SCORE.INTRA.DIHEDRAL>
-3.02565

>  <SCORE.INTRA.DIHEDRAL.0>
9.09364

>  <SCORE.INTRA.POLAR>
0

>  <SCORE.INTRA.POLAR.0>
0

>  <SCORE.INTRA.REPUL>
0

>  <SCORE.INTRA.REPUL.0>
0

>  <SCORE.INTRA.SOLV>
-1.29909

>  <SCORE.INTRA.SOLV.lig_0>
-78.5846

>  <SCORE.INTRA.VDW>
-1.81325

>  <SCORE.INTRA.VDW.0>
-2.81163

>  <SCORE.INTRA.norm>
-0.152909

>  <SCORE.RESTR>
0

>  <SCORE.RESTR.CAVITY>
0

>  <SCORE.RESTR.norm>
0

>  <SCORE.SYSTEM>
0

>  <SCORE.SYSTEM.CONST>
0

>  <SCORE.SYSTEM.DIHEDRAL>
0

>  <SCORE.SYSTEM.SOLV>
0

>  <SCORE.SYSTEM.norm>
0

>  <SCORE.heavy>
26

>  <SCORE.norm>
-0.631523

>  <RMSD>
8.758

$$$$
ligand
 OpenBabel11021811463D
libRbt.so/2013.1/901 2013/11/27
 26 27  0  0  0  0  0  0  0  0999 V2000
   -0.5017  -33.6865    8.6746 C   0  0  0  0  0  0  0  0  0  0  0  0
   -5.9830  -37.7936   11.4702 C   0  0  0  0  0  0  0  0  0  0  0  0
   -2.5564  -41.1142    9.6737 P   0  0  1  0  0  0  0  0  0  0  0  0
   -2.0810  -43.6162   10.7019 P   0  0  2  0  0  0  0  0  0  0  0  0
   -4.4646  -35.2712   12.5117 C   0  0  0  0  0  0  0  0  0  0  0  0
   -2.6208  -35.8324   10.8934 C   0  0  0  0  0  0  0  0  0  0  0  0
   -3.4122  -34.8607   11.5134 C   0  0  0  0  0  0  0  0  0  0  0  0
   -3.2614  -33.5104   11.1861 C   0  0  0  0  0  0  0  0  0  0  0  0
   -4.0207  -32.6020   11.7617 N   0  0  0  0  0  0  0  0  0  0  0  0
   -2.2976  -33.1323   10.2834 N   0  0  0  0  0  0  0  0  0  0  0  0
   -1.5307  -34.1001    9.6656 C   0  0  0  0  0  0  0  0  0  0  0  0
   -1.6751  -35.4398    9.9735 N   0  0  0  0  0  0  0  0  0  0  0  0
   -1.0758  -40.8916    9.6224 O   0  5  0  0  0  0  0  0  0  0  0  0
   -2.4364  -44.9661   10.2190 O   0  0  0  0  0  0  0  0  0  0  0  0
   -3.1558  -38.5046   14.0815 S   0  0  0  0  0  0  0  0  0  0  0  0
   -3.2294  -36.9474   13.8131 C   0  0  0  0  0  0  0  0  0  0  0  0
   -3.3601  -40.3646    8.6708 O   0  0  0  0  0  0  0  0  0  0  0  0
   -2.6581  -43.3271   12.0285 O   0  5  0  0  0  0  0  0  0  0  0  0
   -4.2125  -36.6256   12.9198 N   0  0  0  0  0  0  0  0  0  0  0  0
   -2.6849  -42.6882    9.5674 O   0  0  0  0  0  0  0  0  0  0  0  0
   -0.6289  -43.3129   10.8825 O   0  0  0  0  0  0  0  0  0  0  0  0
   -4.8619  -37.7377   12.4626 C   0  0  1  0  0  0  0  0  0  0  0  0
   -4.3385  -38.8560   13.0615 C   0  0  2  0  0  0  0  0  0  0  0  0
   -4.6989  -40.3141   12.9214 C   0  0  0  0  0  0  0  0  0  0  0  0
   -4.2839  -40.8799   11.5585 C   0  0  0  0  0  0  0  0  0  0  0  0
   -2.9324  -40.7422   11.1595 O   0  0  0  0  0  0  0  0  0  0  0  0
  1 11  1  0  0  0  0
  3 13  1  6  0  0  0
  3 17  2  0  0  0  0
  3 20  1  0  0  0  0
  3 26  1  0  0  0  0
  4 14  1  6  0  0  0
  4 18  1  0  0  0  0
  4 21  2  0  0  0  0
  4 20  1  0  0  0  0
  5 19  1  0  0  0  0
  5  7  1  0  0  0  0
  6  7  2  0  0  0  0
  6 12  1  0  0  0  0
  7  8  1  0  0  0  0
  8  9  1  0  0  0  0
  8 10  2  0  0  0  0
 10 11  1  0  0  0  0
 11 12  2  0  0  0  0
 15 23  1  0  0  0  0
 15 16  1  0  0  0  0
 16 19  1  0  0  0  0
 19 22  1  0  0  0  0
 22  2  1  1  0  0  0
 22 23  1  0  0  0  0
 23 24  1  1  0  0  0
 24 25  1  0  0  0  0
 25 26  1  0  0  0  0
M  CHG  2  13  -1  18  -1
M  END
>  <CHROM.1>
63.28105573,77.20951912,15.70454345,179.21214470,-109.71597145,54.60320050
-170.44178352,-178.38755892,-2.94944287,-38.88214982,11.18967012,-1.69972073
-0.95428708,3.10580241

>  <Name>
ligand

>  <RI>
0

>  <Rbt.Current_Directory>
/home/itssahil/PROJECTS/Mol_Feturizer/New_Systems/rnas/3D2G

>  <Rbt.Executable>
rbdock ($Id: //depot/dev/client3/rdock/2013.1/src/exe/rbdock.cxx#4 $)

>  <Rbt.Library>
libRbt.so (2013.1, Build901 2013/11/27)

>  <Rbt.Parameter_File>
/export/apps/rDock/src/rDock_2013.1_src/data/scripts/dock_solv.prm

>  <Rbt.Receptor>
prm/blind_docking_80.prm

>  <SCORE>
-17.5984

>  <SCORE.INTER>
-14.8226

>  <SCORE.INTER.CONST>
1

>  <SCORE.INTER.POLAR>
0

>  <SCORE.INTER.ROT>
8

>  <SCORE.INTER.SOLV>
18.095

>  <SCORE.INTER.VDW>
-24.8467

>  <SCORE.INTER.norm>
-0.570098

>  <SCORE.INTRA>
-2.77581

>  <SCORE.INTRA.DIHEDRAL>
-3.78028

>  <SCORE.INTRA.DIHEDRAL.0>
9.09364

>  <SCORE.INTRA.POLAR>
0

>  <SCORE.INTRA.POLAR.0>
0

>  <SCORE.INTRA.REPUL>
0

>  <SCORE.INTRA.REPUL.0>
0

>  <SCORE.INTRA.SOLV>
0.175974

>  <SCORE.INTRA.SOLV.lig_0>
-78.5846

>  <SCORE.INTRA.VDW>
-0.973653

>  <SCORE.INTRA.VDW.0>
-2.81163

>  <SCORE.INTRA.norm>
-0.106762

>  <SCORE.RESTR>
0

>  <SCORE.RESTR.CAVITY>
0

>  <SCORE.RESTR.norm>
0

>  <SCORE.SYSTEM>
0

>  <SCORE.SYSTEM.CONST>
0

>  <SCORE.SYSTEM.DIHEDRAL>
0

>  <SCORE.SYSTEM.SOLV>
0

>  <SCORE.SYSTEM.norm>
0

>  <SCORE.heavy>
26

>  <SCORE.norm>
-0.67686

>  <RMSD>
8.761

$$$$
ligand
 OpenBabel11021811463D
libRbt.so/2013.1/901 2013/11/27
 26 27  0  0  0  0  0  0  0  0999 V2000
   -5.0532  -40.5014   12.9621 C   0  0  0  0  0  0  0  0  0  0  0  0
   -3.8792  -45.5769    7.8737 C   0  0  0  0  0  0  0  0  0  0  0  0
   -7.3620  -42.5023    5.5268 P   0  0  1  0  0  0  0  0  0  0  0  0
   -8.0205  -40.8604    7.6276 P   0  0  2  0  0  0  0  0  0  0  0  0
   -4.3580  -45.8310   10.9492 C   0  0  0  0  0  0  0  0  0  0  0  0
   -3.5679  -43.4554   11.2052 C   0  0  0  0  0  0  0  0  0  0  0  0
   -4.5273  -44.4328   11.4867 C   0  0  0  0  0  0  0  0  0  0  0  0
   -5.6651  -44.1137   12.2328 C   0  0  0  0  0  0  0  0  0  0  0  0
   -6.5726  -45.0346   12.4807 N   0  0  0  0  0  0  0  0  0  0  0  0
   -5.8181  -42.8429   12.7311 N   0  0  0  0  0  0  0  0  0  0  0  0
   -4.8728  -41.8808   12.4359 C   0  0  0  0  0  0  0  0  0  0  0  0
   -3.7469  -42.1804   11.6921 N   0  0  0  0  0  0  0  0  0  0  0  0
   -8.0419  -42.8071    4.2271 O   0  5  0  0  0  0  0  0  0  0  0  0
   -7.7679  -42.0034    8.5284 O   0  0  0  0  0  0  0  0  0  0  0  0
   -7.4988  -46.6362    8.9197 S   0  0  0  0  0  0  0  0  0  0  0  0
   -6.6209  -46.4467   10.2219 C   0  0  0  0  0  0  0  0  0  0  0  0
   -5.9997  -41.9134    5.4235 O   0  0  0  0  0  0  0  0  0  0  0  0
   -9.0964  -39.9827    8.1263 O   0  5  0  0  0  0  0  0  0  0  0  0
   -5.3439  -46.0575    9.9288 N   0  0  0  0  0  0  0  0  0  0  0  0
   -8.4138  -41.5853    6.2737 O   0  0  0  0  0  0  0  0  0  0  0  0
   -6.8882  -39.9160    7.3841 O   0  0  0  0  0  0  0  0  0  0  0  0
   -5.1432  -45.9609    8.5806 C   0  0  1  0  0  0  0  0  0  0  0  0
   -6.3053  -46.2678    7.9184 C   0  0  2  0  0  0  0  0  0  0  0  0
   -6.6255  -46.3005    6.4446 C   0  0  0  0  0  0  0  0  0  0  0  0
   -6.5207  -44.9122    5.8031 C   0  0  0  0  0  0  0  0  0  0  0  0
   -7.3733  -43.8875    6.2807 O   0  0  0  0  0  0  0  0  0  0  0  0
  1 11  1  0  0  0  0
  3 13  1  6  0  0  0
  3 17  2  0  0  0  0
  3 20  1  0  0  0  0
  3 26  1  0  0  0  0
  4 14  1  1  0  0  0
  4 18  1  0  0  0  0
  4 21  2  0  0  0  0
  4 20  1  0  0  0  0
  5 19  1  0  0  0  0
  5  7  1  0  0  0  0
  6  7  2  0  0  0  0
  6 12  1  0  0  0  0
  7  8  1  0  0  0  0
  8  9  1  0  0  0  0
  8 10  2  0  0  0  0
 10 11  1  0  0  0  0
 11 12  2  0  0  0  0
 15 23  1  0  0  0  0
 15 16  1  0  0  0  0
 16 19  1  0  0  0  0
 19 22  1  0  0  0  0
 22  2  1  1  0  0  0
 22 23  1  0  0  0  0
 23 24  1  1  0  0  0
 24 25  1  0  0  0  0
 25 26  1  0  0  0  0
M  CHG  2  13  -1  18  -1
M  END
>  <CHROM.1>
-171.63777147,-83.59932386,-109.74363005,-63.31170304,115.23260170,-61.11240080
-174.17496412,71.24865781,-6.44502815,-43.48507182,8.64940649,0.11723628
-1.15778954,0.48023847

>  <Name>
ligand

>  <RI>
0

>  <Rbt.Current_Directory>
/home/itssahil/PROJECTS/Mol_Feturizer/New_Systems/rnas/3D2G

>  <Rbt.Executable>
rbdock ($Id: //depot/dev/client3/rdock/2013.1/src/exe/rbdock.cxx#4 $)

>  <Rbt.Library>
libRbt.so (2013.1, Build901 2013/11/27)

>  <Rbt.Parameter_File>
/export/apps/rDock/src/rDock_2013.1_src/data/scripts/dock_solv.prm

>  <Rbt.Receptor>
prm/pocket_docking_5.prm

>  <SCORE>
-16.968

>  <SCORE.INTER>
-13.3997

>  <SCORE.INTER.CONST>
1

>  <SCORE.INTER.POLAR>
0

>  <SCORE.INTER.ROT>
8

>  <SCORE.INTER.SOLV>
22.7454

>  <SCORE.INTER.VDW>
-25.4482

>  <SCORE.INTER.norm>
-0.515372

>  <SCORE.INTRA>
-3.56832

>  <SCORE.INTRA.DIHEDRAL>
-3.88674

>  <SCORE.INTRA.DIHEDRAL.0>
9.09364

>  <SCORE.INTRA.POLAR>
0

>  <SCORE.INTRA.POLAR.0>
0

>  <SCORE.INTRA.REPUL>
0

>  <SCORE.INTRA.REPUL.0>
0

>  <SCORE.INTRA.SOLV>
-1.36099

>  <SCORE.INTRA.SOLV.lig_0>
-78.5846

>  <SCORE.INTRA.VDW>
-0.944453

>  <SCORE.INTRA.VDW.0>
-2.81163

>  <SCORE.INTRA.norm>
-0.137243

>  <SCORE.RESTR>
0

>  <SCORE.RESTR.CAVITY>
0

>  <SCORE.RESTR.norm>
0

>  <SCORE.SYSTEM>
0

>  <SCORE.SYSTEM.CONST>
0

>  <SCORE.SYSTEM.DIHEDRAL>
0

>  <SCORE.SYSTEM.SOLV>
0

>  <SCORE.SYSTEM.norm>
0

>  <SCORE.heavy>
26

>  <SCORE.norm>
-0.652615

>  <RMSD>
8.777

$$$$
ligand
 OpenBabel11021811463D
libRbt.so/2013.1/901 2013/11/27
 26 27  0  0  0  0  0  0  0  0999 V2000
   -0.8256  -40.3681    9.9247 C   0  0  0  0  0  0  0  0  0  0  0  0
   -7.4172  -43.5141   10.8332 C   0  0  0  0  0  0  0  0  0  0  0  0
   -5.0177  -46.4847    6.0609 P   0  0  1  0  0  0  0  0  0  0  0  0
   -2.5993  -46.9228    4.8352 P   0  0  2  0  0  0  0  0  0  0  0  0
   -4.8309  -43.5032   12.5834 C   0  0  0  0  0  0  0  0  0  0  0  0
   -2.5720  -43.2836   11.4961 C   0  0  0  0  0  0  0  0  0  0  0  0
   -3.7688  -42.6823   11.8973 C   0  0  0  0  0  0  0  0  0  0  0  0
   -4.0055  -41.3307   11.6326 C   0  0  0  0  0  0  0  0  0  0  0  0
   -5.1411  -40.7744   11.9988 N   0  0  0  0  0  0  0  0  0  0  0  0
   -3.0364  -40.5780   11.0153 N   0  0  0  0  0  0  0  0  0  0  0  0
   -1.8637  -41.1837   10.6099 C   0  0  0  0  0  0  0  0  0  0  0  0
   -1.6200  -42.5215   10.8576 N   0  0  0  0  0  0  0  0  0  0  0  0
   -4.9982  -44.9979    5.8778 O   0  5  0  0  0  0  0  0  0  0  0  0
   -2.8058  -45.5808    4.2536 O   0  0  0  0  0  0  0  0  0  0  0  0
   -5.1570  -46.6913   10.4949 S   0  0  0  0  0  0  0  0  0  0  0  0
   -4.4891  -45.6910   11.5224 C   0  0  0  0  0  0  0  0  0  0  0  0
   -5.7740  -47.2544    5.0367 O   0  0  0  0  0  0  0  0  0  0  0  0
   -3.0340  -47.9994    3.9251 O   0  5  0  0  0  0  0  0  0  0  0  0
   -5.2388  -44.5624   11.7024 N   0  0  0  0  0  0  0  0  0  0  0  0
   -3.4812  -46.8537    6.1507 O   0  0  0  0  0  0  0  0  0  0  0  0
   -1.1992  -47.3100    5.1858 O   0  0  0  0  0  0  0  0  0  0  0  0
   -6.3614  -44.5733   10.9232 C   0  0  1  0  0  0  0  0  0  0  0  0
   -6.4096  -45.7388   10.2005 C   0  0  2  0  0  0  0  0  0  0  0  0
   -7.4295  -46.2498    9.2135 C   0  0  0  0  0  0  0  0  0  0  0  0
   -6.9102  -46.1983    7.7722 C   0  0  0  0  0  0  0  0  0  0  0  0
   -5.5992  -46.6678    7.5155 O   0  0  0  0  0  0  0  0  0  0  0  0
  1 11  1  0  0  0  0
  3 13  1  6  0  0  0
  3 17  2  0  0  0  0
  3 20  1  0  0  0  0
  3 26  1  0  0  0  0
  4 14  1  6  0  0  0
  4 18  1  0  0  0  0
  4 21  2  0  0  0  0
  4 20  1  0  0  0  0
  5 19  1  0  0  0  0
  5  7  1  0  0  0  0
  6  7  2  0  0  0  0
  6 12  1  0  0  0  0
  7  8  1  0  0  0  0
  8  9  1  0  0  0  0
  8 10  2  0  0  0  0
 10 11  1  0  0  0  0
 11 12  2  0  0  0  0
 15 23  1  0  0  0  0
 15 16  1  0  0  0  0
 16 19  1  0  0  0  0
 19 22  1  0  0  0  0
 22  2  1  1  0  0  0
 22 23  1  0  0  0  0
 23 24  1  1  0  0  0
 24 25  1  0  0  0  0
 25 26  1  0  0  0  0
M  CHG  2  13  -1  18  -1
M  END
>  <CHROM.1>
-77.72766219,77.83589546,-59.92678699,55.78321086,-73.17173379,45.52190418
-174.18122018,61.90433780,-4.27706380,-44.95090518,8.57484711,-1.60696441
-0.56932716,-2.21450018

>  <Name>
ligand

>  <RI>
0

>  <Rbt.Current_Directory>
/home/itssahil/PROJECTS/Mol_Feturizer/New_Systems/rnas/3D2G

>  <Rbt.Executable>
rbdock ($Id: //depot/dev/client3/rdock/2013.1/src/exe/rbdock.cxx#4 $)

>  <Rbt.Library>
libRbt.so (2013.1, Build901 2013/11/27)

>  <Rbt.Parameter_File>
/export/apps/rDock/src/rDock_2013.1_src/data/scripts/dock_solv.prm

>  <Rbt.Receptor>
prm/pocket_docking_6.prm

>  <SCORE>
-15.5301

>  <SCORE.INTER>
-12.9

>  <SCORE.INTER.CONST>
1

>  <SCORE.INTER.POLAR>
0

>  <SCORE.INTER.ROT>
8

>  <SCORE.INTER.SOLV>
6.81298

>  <SCORE.INTER.VDW>
-19.8043

>  <SCORE.INTER.norm>
-0.496153

>  <SCORE.INTRA>
-2.63649

>  <SCORE.INTRA.DIHEDRAL>
-2.7851

>  <SCORE.INTRA.DIHEDRAL.0>
9.09364

>  <SCORE.INTRA.POLAR>
0

>  <SCORE.INTRA.POLAR.0>
0

>  <SCORE.INTRA.REPUL>
0

>  <SCORE.INTRA.REPUL.0>
0

>  <SCORE.INTRA.SOLV>
-1.02344

>  <SCORE.INTRA.SOLV.lig_0>
-78.5846

>  <SCORE.INTRA.VDW>
-0.732218

>  <SCORE.INTRA.VDW.0>
-2.81163

>  <SCORE.INTRA.norm>
-0.101403

>  <SCORE.RESTR>
0.00638286

>  <SCORE.RESTR.CAVITY>
0.00638286

>  <SCORE.RESTR.norm>
0.000245495

>  <SCORE.SYSTEM>
0

>  <SCORE.SYSTEM.CONST>
0

>  <SCORE.SYSTEM.DIHEDRAL>
0

>  <SCORE.SYSTEM.SOLV>
0

>  <SCORE.SYSTEM.norm>
0

>  <SCORE.heavy>
26

>  <SCORE.norm>
-0.59731

>  <RMSD>
8.786

$$$$
ligand
 OpenBabel11021811463D
libRbt.so/2013.1/901 2013/11/27
 26 27  0  0  0  0  0  0  0  0999 V2000
   -0.1579  -33.5752    8.7241 C   0  0  0  0  0  0  0  0  0  0  0  0
   -5.9483  -37.9691   11.5097 C   0  0  0  0  0  0  0  0  0  0  0  0
   -3.7471  -41.7000    9.8206 P   0  0  1  0  0  0  0  0  0  0  0  0
   -1.2281  -42.3061    8.9095 P   0  0  2  0  0  0  0  0  0  0  0  0
   -4.5575  -35.2203   12.0222 C   0  0  0  0  0  0  0  0  0  0  0  0
   -2.4956  -35.7498   10.6799 C   0  0  0  0  0  0  0  0  0  0  0  0
   -3.3916  -34.7934   11.1671 C   0  0  0  0  0  0  0  0  0  0  0  0
   -3.2369  -33.4446   10.8354 C   0  0  0  0  0  0  0  0  0  0  0  0
   -4.0933  -32.5512   11.2842 N   0  0  0  0  0  0  0  0  0  0  0  0
   -2.1709  -33.0513   10.0636 N   0  0  0  0  0  0  0  0  0  0  0  0
   -1.2996  -34.0046    9.5753 C   0  0  0  0  0  0  0  0  0  0  0  0
   -1.4455  -35.3429    9.8883 N   0  0  0  0  0  0  0  0  0  0  0  0
   -4.3339  -41.1458    8.5585 O   0  5  0  0  0  0  0  0  0  0  0  0
   -1.1255  -43.4536    9.8339 O   0  0  0  0  0  0  0  0  0  0  0  0
   -3.0531  -38.0261   14.1426 S   0  0  0  0  0  0  0  0  0  0  0  0
   -3.2156  -36.5538   13.5874 C   0  0  0  0  0  0  0  0  0  0  0  0
   -4.0173  -43.1391   10.0842 O   0  0  0  0  0  0  0  0  0  0  0  0
    0.0820  -41.6808    8.6470 O   0  5  0  0  0  0  0  0  0  0  0  0
   -4.2262  -36.4581   12.6722 N   0  0  0  0  0  0  0  0  0  0  0  0
   -2.2118  -41.3383    9.6896 O   0  0  0  0  0  0  0  0  0  0  0  0
   -1.7641  -42.5744    7.5406 O   0  0  0  0  0  0  0  0  0  0  0  0
   -4.8194  -37.6686   12.4478 C   0  0  1  0  0  0  0  0  0  0  0  0
   -4.2277  -38.6247   13.2345 C   0  0  2  0  0  0  0  0  0  0  0  0
   -4.5093  -40.0996   13.3800 C   0  0  0  0  0  0  0  0  0  0  0  0
   -3.8534  -40.9222   12.2651 C   0  0  0  0  0  0  0  0  0  0  0  0
   -4.3272  -40.7541   10.9414 O   0  0  0  0  0  0  0  0  0  0  0  0
  1 11  1  0  0  0  0
  3 13  1  6  0  0  0
  3 17  2  0  0  0  0
  3 20  1  0  0  0  0
  3 26  1  0  0  0  0
  4 14  1  1  0  0  0
  4 18  1  0  0  0  0
  4 21  2  0  0  0  0
  4 20  1  0  0  0  0
  5 19  1  0  0  0  0
  5  7  1  0  0  0  0
  6  7  2  0  0  0  0
  6 12  1  0  0  0  0
  7  8  1  0  0  0  0
  8  9  1  0  0  0  0
  8 10  2  0  0  0  0
 10 11  1  0  0  0  0
 11 12  2  0  0  0  0
 15 23  1  0  0  0  0
 15 16  1  0  0  0  0
 16 19  1  0  0  0  0
 19 22  1  0  0  0  0
 22  2  1  1  0  0  0
 22 23  1  0  0  0  0
 23 24  1  1  0  0  0
 24 25  1  0  0  0  0
 25 26  1  0  0  0  0
M  CHG  2  13  -1  18  -1
M  END
>  <CHROM.1>
-85.96372083,64.53253357,25.46845988,-71.56190824,-99.12678110,-66.86094070
-174.24121943,-173.65752360,-2.98342695,-38.66011015,10.77095977,-1.67819836
-0.89963442,-3.00382486

>  <Name>
ligand

>  <RI>
0

>  <Rbt.Current_Directory>
/home/itssahil/PROJECTS/Mol_Feturizer/New_Systems/rnas/3D2G

>  <Rbt.Executable>
rbdock ($Id: //depot/dev/client3/rdock/2013.1/src/exe/rbdock.cxx#4 $)

>  <Rbt.Library>
libRbt.so (2013.1, Build901 2013/11/27)

>  <Rbt.Parameter_File>
/export/apps/rDock/src/rDock_2013.1_src/data/scripts/dock_solv.prm

>  <Rbt.Receptor>
prm/blind_docking_60.prm

>  <SCORE>
-17.1795

>  <SCORE.INTER>
-13.6847

>  <SCORE.INTER.CONST>
1

>  <SCORE.INTER.POLAR>
0

>  <SCORE.INTER.ROT>
8

>  <SCORE.INTER.SOLV>
10.2899

>  <SCORE.INTER.VDW>
-21.4864

>  <SCORE.INTER.norm>
-0.526335

>  <SCORE.INTRA>
-3.49477

>  <SCORE.INTRA.DIHEDRAL>
-3.27737

>  <SCORE.INTRA.DIHEDRAL.0>
9.09364

>  <SCORE.INTRA.POLAR>
0

>  <SCORE.INTRA.POLAR.0>
0

>  <SCORE.INTRA.REPUL>
0

>  <SCORE.INTRA.REPUL.0>
0

>  <SCORE.INTRA.SOLV>
-2.13956

>  <SCORE.INTRA.SOLV.lig_0>
-78.5846

>  <SCORE.INTRA.VDW>
-0.786304

>  <SCORE.INTRA.VDW.0>
-2.81163

>  <SCORE.INTRA.norm>
-0.134414

>  <SCORE.RESTR>
0

>  <SCORE.RESTR.CAVITY>
0

>  <SCORE.RESTR.norm>
0

>  <SCORE.SYSTEM>
0

>  <SCORE.SYSTEM.CONST>
0

>  <SCORE.SYSTEM.DIHEDRAL>
0

>  <SCORE.SYSTEM.SOLV>
0

>  <SCORE.SYSTEM.norm>
0

>  <SCORE.heavy>
26

>  <SCORE.norm>
-0.660749

>  <RMSD>
8.795

$$$$
ligand
 OpenBabel11021811463D
libRbt.so/2013.1/901 2013/11/27
 26 27  0  0  0  0  0  0  0  0999 V2000
   -0.4203  -34.3738    8.6537 C   0  0  0  0  0  0  0  0  0  0  0  0
   -5.9727  -37.6169   11.6873 C   0  0  0  0  0  0  0  0  0  0  0  0
   -3.4516  -41.5585    9.2420 P   0  0  1  0  0  0  0  0  0  0  0  0
   -1.3750  -43.2799    9.7590 P   0  0  2  0  0  0  0  0  0  0  0  0
   -3.9420  -35.6434   13.0040 C   0  0  0  0  0  0  0  0  0  0  0  0
   -2.2940  -36.3371   11.2331 C   0  0  0  0  0  0  0  0  0  0  0  0
   -3.0045  -35.3151   11.8700 C   0  0  0  0  0  0  0  0  0  0  0  0
   -2.8815  -33.9918   11.4378 C   0  0  0  0  0  0  0  0  0  0  0  0
   -3.5656  -33.0364   12.0313 N   0  0  0  0  0  0  0  0  0  0  0  0
   -2.0218  -33.6883   10.4104 N   0  0  0  0  0  0  0  0  0  0  0  0
   -1.3354  -34.7059    9.7782 C   0  0  0  0  0  0  0  0  0  0  0  0
   -1.4539  -36.0201   10.1898 N   0  0  0  0  0  0  0  0  0  0  0  0
   -3.5265  -40.2265    8.5603 O   0  5  0  0  0  0  0  0  0  0  0  0
   -1.2861  -42.8990   11.1833 O   0  0  0  0  0  0  0  0  0  0  0  0
   -3.2842  -39.2788   13.9953 S   0  0  0  0  0  0  0  0  0  0  0  0
   -3.0435  -37.7156   13.9671 C   0  0  0  0  0  0  0  0  0  0  0  0
   -4.4007  -42.5931    8.7499 O   0  0  0  0  0  0  0  0  0  0  0  0
   -0.0684  -43.6840    9.2059 O   0  5  0  0  0  0  0  0  0  0  0  0
   -3.9627  -37.0680   13.1901 N   0  0  0  0  0  0  0  0  0  0  0  0
   -1.9254  -41.9505    9.0936 O   0  0  0  0  0  0  0  0  0  0  0  0
   -2.2681  -44.4262    9.4103 O   0  0  0  0  0  0  0  0  0  0  0  0
   -4.8384  -37.9423   12.6104 C   0  0  1  0  0  0  0  0  0  0  0  0
   -4.5403  -39.2226   13.0044 C   0  0  2  0  0  0  0  0  0  0  0  0
   -5.1959  -40.5392   12.6693 C   0  0  0  0  0  0  0  0  0  0  0  0
   -4.9862  -40.9281   11.2015 C   0  0  0  0  0  0  0  0  0  0  0  0
   -3.6684  -41.2048   10.7636 O   0  0  0  0  0  0  0  0  0  0  0  0
  1 11  1  0  0  0  0
  3 13  1  6  0  0  0
  3 17  2  0  0  0  0
  3 20  1  0  0  0  0
  3 26  1  0  0  0  0
  4 14  1  1  0  0  0
  4 18  1  0  0  0  0
  4 21  2  0  0  0  0
  4 20  1  0  0  0  0
  5 19  1  0  0  0  0
  5  7  1  0  0  0  0
  6  7  2  0  0  0  0
  6 12  1  0  0  0  0
  7  8  1  0  0  0  0
  8  9  1  0  0  0  0
  8 10  2  0  0  0  0
 10 11  1  0  0  0  0
 11 12  2  0  0  0  0
 15 23  1  0  0  0  0
 15 16  1  0  0  0  0
 16 19  1  0  0  0  0
 19 22  1  0  0  0  0
 22  2  1  1  0  0  0
 22 23  1  0  0  0  0
 23 24  1  1  0  0  0
 24 25  1  0  0  0  0
 25 26  1  0  0  0  0
M  CHG  2  13  -1  18  -1
M  END
>  <CHROM.1>
176.53772625,85.74185841,-2.40043335,-76.19401811,-111.85498204,65.20884147
-178.03834742,77.28556530,-2.96689671,-39.18059244,10.95318991,-1.67846630
-0.89055247,-2.99051627

>  <Name>
ligand

>  <RI>
0

>  <Rbt.Current_Directory>
/home/itssahil/PROJECTS/Mol_Feturizer/New_Systems/rnas/3D2G

>  <Rbt.Executable>
rbdock ($Id: //depot/dev/client3/rdock/2013.1/src/exe/rbdock.cxx#4 $)

>  <Rbt.Library>
libRbt.so (2013.1, Build901 2013/11/27)

>  <Rbt.Parameter_File>
/export/apps/rDock/src/rDock_2013.1_src/data/scripts/dock_solv.prm

>  <Rbt.Receptor>
prm/blind_docking_80.prm

>  <SCORE>
-17.3556

>  <SCORE.INTER>
-13.0509

>  <SCORE.INTER.CONST>
1

>  <SCORE.INTER.POLAR>
0

>  <SCORE.INTER.ROT>
8

>  <SCORE.INTER.SOLV>
14.7502

>  <SCORE.INTER.VDW>
-22.5507

>  <SCORE.INTER.norm>
-0.501958

>  <SCORE.INTRA>
-4.30473

>  <SCORE.INTRA.DIHEDRAL>
-3.79438

>  <SCORE.INTRA.DIHEDRAL.0>
9.09364

>  <SCORE.INTRA.POLAR>
0

>  <SCORE.INTRA.POLAR.0>
0

>  <SCORE.INTRA.REPUL>
0

>  <SCORE.INTRA.REPUL.0>
0

>  <SCORE.INTRA.SOLV>
-3.02675

>  <SCORE.INTRA.SOLV.lig_0>
-78.5846

>  <SCORE.INTRA.VDW>
-0.894172

>  <SCORE.INTRA.VDW.0>
-2.81163

>  <SCORE.INTRA.norm>
-0.165567

>  <SCORE.RESTR>
0

>  <SCORE.RESTR.CAVITY>
0

>  <SCORE.RESTR.norm>
0

>  <SCORE.SYSTEM>
0

>  <SCORE.SYSTEM.CONST>
0

>  <SCORE.SYSTEM.DIHEDRAL>
0

>  <SCORE.SYSTEM.SOLV>
0

>  <SCORE.SYSTEM.norm>
0

>  <SCORE.heavy>
26

>  <SCORE.norm>
-0.667524

>  <RMSD>
8.811

$$$$
ligand
 OpenBabel11021811463D
libRbt.so/2013.1/901 2013/11/27
 26 27  0  0  0  0  0  0  0  0999 V2000
   -4.3603  -40.2048   12.8956 C   0  0  0  0  0  0  0  0  0  0  0  0
   -7.5810  -46.4854    8.9682 C   0  0  0  0  0  0  0  0  0  0  0  0
   -5.0564  -44.0780    4.8442 P   0  0  1  0  0  0  0  0  0  0  0  0
   -5.4175  -43.9856    2.1232 P   0  0  2  0  0  0  0  0  0  0  0  0
   -6.3485  -45.4404   11.6405 C   0  0  0  0  0  0  0  0  0  0  0  0
   -5.1425  -43.8554   13.1789 C   0  0  0  0  0  0  0  0  0  0  0  0
   -5.8360  -44.0647   11.9830 C   0  0  0  0  0  0  0  0  0  0  0  0
   -6.0255  -43.0138   11.0814 C   0  0  0  0  0  0  0  0  0  0  0  0
   -6.6653  -43.2211    9.9497 N   0  0  0  0  0  0  0  0  0  0  0  0
   -5.5672  -41.7573   11.3943 N   0  0  0  0  0  0  0  0  0  0  0  0
   -4.8710  -41.5634   12.5708 C   0  0  0  0  0  0  0  0  0  0  0  0
   -4.6689  -42.5956   13.4676 N   0  0  0  0  0  0  0  0  0  0  0  0
   -3.8774  -43.1537    4.8443 O   0  5  0  0  0  0  0  0  0  0  0  0
   -4.5369  -42.8002    2.1569 O   0  0  0  0  0  0  0  0  0  0  0  0
   -3.6728  -46.5785    9.1552 S   0  0  0  0  0  0  0  0  0  0  0  0
   -4.2394  -45.9897   10.5096 C   0  0  0  0  0  0  0  0  0  0  0  0
   -6.3729  -43.4501    5.1375 O   0  0  0  0  0  0  0  0  0  0  0  0
   -6.8467  -43.6213    2.1557 O   0  5  0  0  0  0  0  0  0  0  0  0
   -5.6055  -45.9456   10.5193 N   0  0  0  0  0  0  0  0  0  0  0  0
   -4.9666  -44.7712    3.4241 O   0  0  0  0  0  0  0  0  0  0  0  0
   -5.3156  -44.8816    0.9316 O   0  0  0  0  0  0  0  0  0  0  0  0
   -6.1327  -46.3943    9.3411 C   0  0  1  0  0  0  0  0  0  0  0  0
   -5.1194  -46.7787    8.4994 C   0  0  2  0  0  0  0  0  0  0  0  0
   -5.1553  -47.3510    7.1041 C   0  0  0  0  0  0  0  0  0  0  0  0
   -5.5218  -46.2919    6.0582 C   0  0  0  0  0  0  0  0  0  0  0  0
   -4.6577  -45.1818    5.8978 O   0  0  0  0  0  0  0  0  0  0  0  0
  1 11  1  0  0  0  0
  3 13  1  1  0  0  0
  3 17  2  0  0  0  0
  3 20  1  0  0  0  0
  3 26  1  0  0  0  0
  4 14  1  6  0  0  0
  4 18  1  0  0  0  0
  4 21  2  0  0  0  0
  4 20  1  0  0  0  0
  5 19  1  0  0  0  0
  5  7  1  0  0  0  0
  6  7  2  0  0  0  0
  6 12  1  0  0  0  0
  7  8  1  0  0  0  0
  8  9  1  0  0  0  0
  8 10  2  0  0  0  0
 10 11  1  0  0  0  0
 11 12  2  0  0  0  0
 15 23  1  0  0  0  0
 15 16  1  0  0  0  0
 16 19  1  0  0  0  0
 19 22  1  0  0  0  0
 22  2  1  1  0  0  0
 22 23  1  0  0  0  0
 23 24  1  1  0  0  0
 24 25  1  0  0  0  0
 25 26  1  0  0  0  0
M  CHG  2  13  -1  18  -1
M  END
>  <CHROM.1>
-76.58011751,53.09159269,-111.65297687,58.34594204,-106.92881532,61.92255115
-178.60346206,-174.61556219,-5.28319371,-44.40949174,7.50838332,-1.24891101
-1.54735098,-1.31045770

>  <Name>
ligand

>  <RI>
0

>  <Rbt.Current_Directory>
/home/itssahil/PROJECTS/Mol_Feturizer/New_Systems/rnas/3D2G

>  <Rbt.Executable>
rbdock ($Id: //depot/dev/client3/rdock/2013.1/src/exe/rbdock.cxx#4 $)

>  <Rbt.Library>
libRbt.so (2013.1, Build901 2013/11/27)

>  <Rbt.Parameter_File>
/export/apps/rDock/src/rDock_2013.1_src/data/scripts/dock_solv.prm

>  <Rbt.Receptor>
prm/pocket_docking_8.prm

>  <SCORE>
-13.6336

>  <SCORE.INTER>
-10.4134

>  <SCORE.INTER.CONST>
1

>  <SCORE.INTER.POLAR>
0

>  <SCORE.INTER.ROT>
8

>  <SCORE.INTER.SOLV>
7.50571

>  <SCORE.INTER.VDW>
-18.3775

>  <SCORE.INTER.norm>
-0.400517

>  <SCORE.INTRA>
-3.22017

>  <SCORE.INTRA.DIHEDRAL>
-4.17389

>  <SCORE.INTRA.DIHEDRAL.0>
9.09364

>  <SCORE.INTRA.POLAR>
0

>  <SCORE.INTRA.POLAR.0>
0

>  <SCORE.INTRA.REPUL>
0

>  <SCORE.INTRA.REPUL.0>
0

>  <SCORE.INTRA.SOLV>
0.364321

>  <SCORE.INTRA.SOLV.lig_0>
-78.5846

>  <SCORE.INTRA.VDW>
-1.31539

>  <SCORE.INTRA.VDW.0>
-2.81163

>  <SCORE.INTRA.norm>
-0.123853

>  <SCORE.RESTR>
0

>  <SCORE.RESTR.CAVITY>
0

>  <SCORE.RESTR.norm>
0

>  <SCORE.SYSTEM>
0

>  <SCORE.SYSTEM.CONST>
0

>  <SCORE.SYSTEM.DIHEDRAL>
0

>  <SCORE.SYSTEM.SOLV>
0

>  <SCORE.SYSTEM.norm>
0

>  <SCORE.heavy>
26

>  <SCORE.norm>
-0.52437

>  <RMSD>
8.812

$$$$
ligand
 OpenBabel11021811463D
libRbt.so/2013.1/901 2013/11/27
 26 27  0  0  0  0  0  0  0  0999 V2000
   -0.5001  -41.4837   10.4079 C   0  0  0  0  0  0  0  0  0  0  0  0
   -4.9263  -46.6407   10.5489 C   0  0  0  0  0  0  0  0  0  0  0  0
   -4.7600  -46.2911    6.2170 P   0  0  1  0  0  0  0  0  0  0  0  0
   -3.7717  -44.0905    4.9041 P   0  0  2  0  0  0  0  0  0  0  0  0
   -5.2098  -44.1159   12.3648 C   0  0  0  0  0  0  0  0  0  0  0  0
   -2.9335  -44.1878   11.2942 C   0  0  0  0  0  0  0  0  0  0  0  0
   -3.9640  -43.4323   11.8618 C   0  0  0  0  0  0  0  0  0  0  0  0
   -3.8649  -42.0400   11.9322 C   0  0  0  0  0  0  0  0  0  0  0  0
   -4.8457  -41.3331   12.4533 N   0  0  0  0  0  0  0  0  0  0  0  0
   -2.7275  -41.4148   11.4826 N   0  0  0  0  0  0  0  0  0  0  0  0
   -1.7213  -42.1678   10.9106 C   0  0  0  0  0  0  0  0  0  0  0  0
   -1.8098  -43.5446   10.8267 N   0  0  0  0  0  0  0  0  0  0  0  0
   -5.2338  -46.9100    4.9375 O   0  5  0  0  0  0  0  0  0  0  0  0
   -4.4547  -44.6160    3.7045 O   0  0  0  0  0  0  0  0  0  0  0  0
   -7.8648  -44.2307    9.6134 S   0  0  0  0  0  0  0  0  0  0  0  0
   -7.1020  -43.6490   10.8713 C   0  0  0  0  0  0  0  0  0  0  0  0
   -4.4506  -47.2397    7.3206 O   0  0  0  0  0  0  0  0  0  0  0  0
   -2.5110  -43.4001    4.5722 O   0  5  0  0  0  0  0  0  0  0  0  0
   -6.0478  -44.4359   11.2424 N   0  0  0  0  0  0  0  0  0  0  0  0
   -3.5315  -45.4076    5.7530 O   0  0  0  0  0  0  0  0  0  0  0  0
   -4.5098  -43.0862    5.7286 O   0  0  0  0  0  0  0  0  0  0  0  0
   -5.9409  -45.5428   10.4482 C   0  0  1  0  0  0  0  0  0  0  0  0
   -6.9244  -45.5206    9.4915 C   0  0  2  0  0  0  0  0  0  0  0  0
   -7.2402  -46.4837    8.3743 C   0  0  0  0  0  0  0  0  0  0  0  0
   -7.1587  -45.8136    6.9980 C   0  0  0  0  0  0  0  0  0  0  0  0
   -5.9136  -45.2806    6.5852 O   0  0  0  0  0  0  0  0  0  0  0  0
  1 11  1  0  0  0  0
  3 13  1  6  0  0  0
  3 17  2  0  0  0  0
  3 20  1  0  0  0  0
  3 26  1  0  0  0  0
  4 14  1  6  0  0  0
  4 18  1  0  0  0  0
  4 21  2  0  0  0  0
  4 20  1  0  0  0  0
  5 19  1  0  0  0  0
  5  7  1  0  0  0  0
  6  7  2  0  0  0  0
  6 12  1  0  0  0  0
  7  8  1  0  0  0  0
  8  9  1  0  0  0  0
  8 10  2  0  0  0  0
 10 11  1  0  0  0  0
 11 12  2  0  0  0  0
 15 23  1  0  0  0  0
 15 16  1  0  0  0  0
 16 19  1  0  0  0  0
 19 22  1  0  0  0  0
 22  2  1  6  0  0  0
 22 23  1  0  0  0  0
 23 24  1  6  0  0  0
 24 25  1  0  0  0  0
 25 26  1  0  0  0  0
M  CHG  2  13  -1  18  -1
M  END
>  <CHROM.1>
70.89575821,-98.16660956,-78.13575640,-59.82528291,59.52731558,61.81687867
70.94024195,69.96733539,-4.70666802,-44.43181865,8.46690901,-1.45928992,-0.55872163
-1.87723622

>  <Name>
ligand

>  <RI>
0

>  <Rbt.Current_Directory>
/home/itssahil/PROJECTS/Mol_Feturizer/New_Systems/rnas/3D2G

>  <Rbt.Executable>
rbdock ($Id: //depot/dev/client3/rdock/2013.1/src/exe/rbdock.cxx#4 $)

>  <Rbt.Library>
libRbt.so (2013.1, Build901 2013/11/27)

>  <Rbt.Parameter_File>
/export/apps/rDock/src/rDock_2013.1_src/data/scripts/dock_solv.prm

>  <Rbt.Receptor>
prm/pocket_docking_6.prm

>  <SCORE>
-12.2651

>  <SCORE.INTER>
-10.0323

>  <SCORE.INTER.CONST>
1

>  <SCORE.INTER.POLAR>
0

>  <SCORE.INTER.ROT>
8

>  <SCORE.INTER.SOLV>
7.76393

>  <SCORE.INTER.VDW>
-18.2095

>  <SCORE.INTER.norm>
-0.385858

>  <SCORE.INTRA>
-2.2328

>  <SCORE.INTRA.DIHEDRAL>
-2.80732

>  <SCORE.INTRA.DIHEDRAL.0>
9.09364

>  <SCORE.INTRA.POLAR>
0

>  <SCORE.INTRA.POLAR.0>
0

>  <SCORE.INTRA.REPUL>
0

>  <SCORE.INTRA.REPUL.0>
0

>  <SCORE.INTRA.SOLV>
0.0970769

>  <SCORE.INTRA.SOLV.lig_0>
-78.5846

>  <SCORE.INTRA.VDW>
-0.877677

>  <SCORE.INTRA.VDW.0>
-2.81163

>  <SCORE.INTRA.norm>
-0.0858768

>  <SCORE.RESTR>
0

>  <SCORE.RESTR.CAVITY>
0

>  <SCORE.RESTR.norm>
0

>  <SCORE.SYSTEM>
0

>  <SCORE.SYSTEM.CONST>
0

>  <SCORE.SYSTEM.DIHEDRAL>
0

>  <SCORE.SYSTEM.SOLV>
0

>  <SCORE.SYSTEM.norm>
0

>  <SCORE.heavy>
26

>  <SCORE.norm>
-0.471735

>  <RMSD>
8.822

$$$$
ligand
 OpenBabel11021811463D
libRbt.so/2013.1/901 2013/11/27
 26 27  0  0  0  0  0  0  0  0999 V2000
   -0.2937  -33.7718    8.7381 C   0  0  0  0  0  0  0  0  0  0  0  0
   -5.7652  -38.1922   11.4928 C   0  0  0  0  0  0  0  0  0  0  0  0
   -3.4838  -43.1459   10.8526 P   0  0  1  0  0  0  0  0  0  0  0  0
   -5.5059  -44.9958   11.0316 P   0  0  2  0  0  0  0  0  0  0  0  0
   -4.6042  -35.3739   12.1722 C   0  0  0  0  0  0  0  0  0  0  0  0
   -2.5777  -35.9207   10.7837 C   0  0  0  0  0  0  0  0  0  0  0  0
   -3.4615  -34.9581   11.2812 C   0  0  0  0  0  0  0  0  0  0  0  0
   -3.3166  -33.6139   10.9273 C   0  0  0  0  0  0  0  0  0  0  0  0
   -4.1616  -32.7149   11.3862 N   0  0  0  0  0  0  0  0  0  0  0  0
   -2.2714  -33.2306   10.1226 N   0  0  0  0  0  0  0  0  0  0  0  0
   -1.4124  -34.1900    9.6246 C   0  0  0  0  0  0  0  0  0  0  0  0
   -1.5490  -35.5241    9.9595 N   0  0  0  0  0  0  0  0  0  0  0  0
   -2.0049  -43.2382   11.0731 O   0  5  0  0  0  0  0  0  0  0  0  0
   -5.8807  -44.5647   12.3938 O   0  0  0  0  0  0  0  0  0  0  0  0
   -3.1215  -38.1250   14.3778 S   0  0  0  0  0  0  0  0  0  0  0  0
   -3.3267  -36.6543   13.8328 C   0  0  0  0  0  0  0  0  0  0  0  0
   -3.9114  -42.4785    9.5935 O   0  0  0  0  0  0  0  0  0  0  0  0
   -5.7653  -46.4308   10.8082 O   0  5  0  0  0  0  0  0  0  0  0  0
   -4.2547  -36.6022   12.8307 N   0  0  0  0  0  0  0  0  0  0  0  0
   -3.9596  -44.6494   10.9876 O   0  0  0  0  0  0  0  0  0  0  0  0
   -6.2039  -44.3354    9.8872 O   0  0  0  0  0  0  0  0  0  0  0  0
   -4.7469  -37.8421   12.5345 C   0  0  1  0  0  0  0  0  0  0  0  0
   -4.1690  -38.7761   13.3571 C   0  0  2  0  0  0  0  0  0  0  0  0
   -4.3679  -40.2683   13.4536 C   0  0  0  0  0  0  0  0  0  0  0  0
   -3.8212  -41.0014   12.2234 C   0  0  0  0  0  0  0  0  0  0  0  0
   -4.0019  -42.4035   12.1440 O   0  0  0  0  0  0  0  0  0  0  0  0
  1 11  1  0  0  0  0
  3 13  1  1  0  0  0
  3 17  2  0  0  0  0
  3 20  1  0  0  0  0
  3 26  1  0  0  0  0
  4 14  1  1  0  0  0
  4 18  1  0  0  0  0
  4 21  2  0  0  0  0
  4 20  1  0  0  0  0
  5 19  1  0  0  0  0
  5  7  1  0  0  0  0
  6  7  2  0  0  0  0
  6 12  1  0  0  0  0
  7  8  1  0  0  0  0
  8  9  1  0  0  0  0
  8 10  2  0  0  0  0
 10 11  1  0  0  0  0
 11 12  2  0  0  0  0
 15 23  1  0  0  0  0
 15 16  1  0  0  0  0
 16 19  1  0  0  0  0
 19 22  1  0  0  0  0
 22  2  1  1  0  0  0
 22 23  1  0  0  0  0
 23 24  1  1  0  0  0
 24 25  1  0  0  0  0
 25 26  1  0  0  0  0
M  CHG  2  13  -1  18  -1
M  END
>  <CHROM.1>
171.13374493,72.33696767,25.50203129,-74.37288288,-111.58636530,-176.74999353
177.84309777,77.71114741,-3.83608644,-39.59304925,11.50845164,-1.13688781
-1.06137428,-2.75580079

>  <Name>
ligand

>  <RI>
0

>  <Rbt.Current_Directory>
/home/itssahil/PROJECTS/Mol_Feturizer/New_Systems/rnas/3D2G

>  <Rbt.Executable>
rbdock ($Id: //depot/dev/client3/rdock/2013.1/src/exe/rbdock.cxx#4 $)

>  <Rbt.Library>
libRbt.so (2013.1, Build901 2013/11/27)

>  <Rbt.Parameter_File>
/export/apps/rDock/src/rDock_2013.1_src/data/scripts/dock_solv.prm

>  <Rbt.Receptor>
prm/blind_docking_80.prm

>  <SCORE>
-20.8777

>  <SCORE.INTER>
-16.7329

>  <SCORE.INTER.CONST>
1

>  <SCORE.INTER.POLAR>
0

>  <SCORE.INTER.ROT>
8

>  <SCORE.INTER.SOLV>
14.4458

>  <SCORE.INTER.VDW>
-24.9039

>  <SCORE.INTER.norm>
-0.643575

>  <SCORE.INTRA>
-4.1448

>  <SCORE.INTRA.DIHEDRAL>
-3.97694

>  <SCORE.INTRA.DIHEDRAL.0>
9.09364

>  <SCORE.INTRA.POLAR>
0

>  <SCORE.INTRA.POLAR.0>
0

>  <SCORE.INTRA.REPUL>
0

>  <SCORE.INTRA.REPUL.0>
0

>  <SCORE.INTRA.SOLV>
-3.1263

>  <SCORE.INTRA.SOLV.lig_0>
-78.5846

>  <SCORE.INTRA.VDW>
-0.593176

>  <SCORE.INTRA.VDW.0>
-2.81163

>  <SCORE.INTRA.norm>
-0.159415

>  <SCORE.RESTR>
0

>  <SCORE.RESTR.CAVITY>
0

>  <SCORE.RESTR.norm>
0

>  <SCORE.SYSTEM>
0

>  <SCORE.SYSTEM.CONST>
0

>  <SCORE.SYSTEM.DIHEDRAL>
0

>  <SCORE.SYSTEM.SOLV>
0

>  <SCORE.SYSTEM.norm>
0

>  <SCORE.heavy>
26

>  <SCORE.norm>
-0.80299

>  <RMSD>
8.834

$$$$
ligand
 OpenBabel11021811463D
libRbt.so/2013.1/901 2013/11/27
 26 27  0  0  0  0  0  0  0  0999 V2000
   -5.3803  -41.7411   12.9140 C   0  0  0  0  0  0  0  0  0  0  0  0
   -3.9325  -47.9982    7.6056 C   0  0  0  0  0  0  0  0  0  0  0  0
   -3.6255  -44.6217    3.5240 P   0  0  1  0  0  0  0  0  0  0  0  0
   -4.7082  -42.0998    3.4207 P   0  0  2  0  0  0  0  0  0  0  0  0
   -5.0863  -46.8201   10.2576 C   0  0  0  0  0  0  0  0  0  0  0  0
   -6.1178  -45.2875   11.9666 C   0  0  0  0  0  0  0  0  0  0  0  0
   -5.1784  -45.4840   10.9497 C   0  0  0  0  0  0  0  0  0  0  0  0
   -4.2953  -44.4608   10.5944 C   0  0  0  0  0  0  0  0  0  0  0  0
   -3.4026  -44.6576    9.6471 N   0  0  0  0  0  0  0  0  0  0  0  0
   -4.3823  -43.2396   11.2171 N   0  0  0  0  0  0  0  0  0  0  0  0
   -5.3034  -43.0595   12.2299 C   0  0  0  0  0  0  0  0  0  0  0  0
   -6.1772  -44.0655   12.5974 N   0  0  0  0  0  0  0  0  0  0  0  0
   -3.3047  -45.6390    2.4720 O   0  5  0  0  0  0  0  0  0  0  0  0
   -3.4323  -41.4408    3.7665 O   0  0  0  0  0  0  0  0  0  0  0  0
   -7.3468  -46.1181    7.2527 S   0  0  0  0  0  0  0  0  0  0  0  0
   -6.8957  -46.0866    8.7686 C   0  0  0  0  0  0  0  0  0  0  0  0
   -2.5052  -44.2501    4.4298 O   0  0  0  0  0  0  0  0  0  0  0  0
   -5.5249  -42.3970    4.6128 O   0  5  0  0  0  0  0  0  0  0  0  0
   -5.6962  -46.7130    8.9610 N   0  0  0  0  0  0  0  0  0  0  0  0
   -4.2141  -43.4148    2.6861 O   0  0  0  0  0  0  0  0  0  0  0  0
   -5.6491  -41.3497    2.5346 O   0  0  0  0  0  0  0  0  0  0  0  0
   -5.2070  -47.2341    7.7963 C   0  0  1  0  0  0  0  0  0  0  0  0
   -6.0685  -46.9501    6.7666 C   0  0  2  0  0  0  0  0  0  0  0  0
   -5.9959  -47.2793    5.2962 C   0  0  0  0  0  0  0  0  0  0  0  0
   -4.7788  -46.6351    4.6228 C   0  0  0  0  0  0  0  0  0  0  0  0
   -4.8462  -45.2600    4.2919 O   0  0  0  0  0  0  0  0  0  0  0  0
  1 11  1  0  0  0  0
  3 13  1  6  0  0  0
  3 17  2  0  0  0  0
  3 20  1  0  0  0  0
  3 26  1  0  0  0  0
  4 14  1  1  0  0  0
  4 18  1  0  0  0  0
  4 21  2  0  0  0  0
  4 20  1  0  0  0  0
  5 19  1  0  0  0  0
  5  7  1  0  0  0  0
  6  7  2  0  0  0  0
  6 12  1  0  0  0  0
  7  8  1  0  0  0  0
  8  9  1  0  0  0  0
  8 10  2  0  0  0  0
 10 11  1  0  0  0  0
 11 12  2  0  0  0  0
 15 23  1  0  0  0  0
 15 16  1  0  0  0  0
 16 19  1  0  0  0  0
 19 22  1  0  0  0  0
 22  2  1  6  0  0  0
 22 23  1  0  0  0  0
 23 24  1  6  0  0  0
 24 25  1  0  0  0  0
 25 26  1  0  0  0  0
M  CHG  2  13  -1  18  -1
M  END
>  <CHROM.1>
179.34343692,-44.89200566,104.08824530,75.58831741,117.37438946,-78.44369722
-176.50192453,44.24365702,-4.95469326,-44.65351358,6.83705373,-2.41121097
-1.37138680,-2.25402123

>  <Name>
ligand

>  <RI>
0

>  <Rbt.Current_Directory>
/home/itssahil/PROJECTS/Mol_Feturizer/New_Systems/rnas/3D2G

>  <Rbt.Executable>
rbdock ($Id: //depot/dev/client3/rdock/2013.1/src/exe/rbdock.cxx#4 $)

>  <Rbt.Library>
libRbt.so (2013.1, Build901 2013/11/27)

>  <Rbt.Parameter_File>
/export/apps/rDock/src/rDock_2013.1_src/data/scripts/dock_solv.prm

>  <Rbt.Receptor>
prm/pocket_docking_6.prm

>  <SCORE>
-14.9335

>  <SCORE.INTER>
-13.0475

>  <SCORE.INTER.CONST>
1

>  <SCORE.INTER.POLAR>
0

>  <SCORE.INTER.ROT>
8

>  <SCORE.INTER.SOLV>
9.55492

>  <SCORE.INTER.VDW>
-20.8167

>  <SCORE.INTER.norm>
-0.501828

>  <SCORE.INTRA>
-1.88601

>  <SCORE.INTRA.DIHEDRAL>
-2.02033

>  <SCORE.INTRA.DIHEDRAL.0>
9.09364

>  <SCORE.INTRA.POLAR>
0

>  <SCORE.INTRA.POLAR.0>
0

>  <SCORE.INTRA.REPUL>
0

>  <SCORE.INTRA.REPUL.0>
0

>  <SCORE.INTRA.SOLV>
-0.835937

>  <SCORE.INTRA.SOLV.lig_0>
-78.5846

>  <SCORE.INTRA.VDW>
-0.457873

>  <SCORE.INTRA.VDW.0>
-2.81163

>  <SCORE.INTRA.norm>
-0.0725388

>  <SCORE.RESTR>
0

>  <SCORE.RESTR.CAVITY>
0

>  <SCORE.RESTR.norm>
0

>  <SCORE.SYSTEM>
0

>  <SCORE.SYSTEM.CONST>
0

>  <SCORE.SYSTEM.DIHEDRAL>
0

>  <SCORE.SYSTEM.SOLV>
0

>  <SCORE.SYSTEM.norm>
0

>  <SCORE.heavy>
26

>  <SCORE.norm>
-0.574367

>  <RMSD>
8.835

$$$$
ligand
 OpenBabel11021811463D
libRbt.so/2013.1/901 2013/11/27
 26 27  0  0  0  0  0  0  0  0999 V2000
   -2.2303  -47.2884    8.3145 C   0  0  0  0  0  0  0  0  0  0  0  0
   -7.4049  -43.6666    9.5621 C   0  0  0  0  0  0  0  0  0  0  0  0
   -8.0105  -38.4778    5.8187 P   0  0  1  0  0  0  0  0  0  0  0  0
   -6.9828  -39.9569    3.7452 P   0  0  2  0  0  0  0  0  0  0  0  0
   -4.7637  -42.9292   11.0564 C   0  0  0  0  0  0  0  0  0  0  0  0
   -4.7539  -45.3133   10.2506 C   0  0  0  0  0  0  0  0  0  0  0  0
   -4.0979  -44.0825   10.3499 C   0  0  0  0  0  0  0  0  0  0  0  0
   -2.8420  -43.9005    9.7645 C   0  0  0  0  0  0  0  0  0  0  0  0
   -2.2367  -42.7344    9.8478 N   0  0  0  0  0  0  0  0  0  0  0  0
   -2.2290  -44.9518    9.1275 N   0  0  0  0  0  0  0  0  0  0  0  0
   -2.8906  -46.1591    9.0220 C   0  0  0  0  0  0  0  0  0  0  0  0
   -4.1367  -46.3505    9.5889 N   0  0  0  0  0  0  0  0  0  0  0  0
   -7.2117  -37.2146    5.7153 O   0  5  0  0  0  0  0  0  0  0  0  0
   -6.6786  -38.6571    3.1129 O   0  0  0  0  0  0  0  0  0  0  0  0
   -5.8821  -40.1804    8.6429 S   0  0  0  0  0  0  0  0  0  0  0  0
   -4.9621  -40.8749    9.7262 C   0  0  0  0  0  0  0  0  0  0  0  0
   -9.3311  -38.4679    5.1337 O   0  0  0  0  0  0  0  0  0  0  0  0
   -8.2683  -40.5153    3.2846 O   0  5  0  0  0  0  0  0  0  0  0  0
   -5.4282  -42.1099   10.0809 N   0  0  0  0  0  0  0  0  0  0  0  0
   -7.0073  -39.5795    5.2847 O   0  0  0  0  0  0  0  0  0  0  0  0
   -6.0175  -41.0741    3.5146 O   0  0  0  0  0  0  0  0  0  0  0  0
   -6.5897  -42.4165    9.4295 C   0  0  1  0  0  0  0  0  0  0  0  0
   -6.9322  -41.3875    8.5888 C   0  0  2  0  0  0  0  0  0  0  0  0
   -8.0985  -41.2266    7.6456 C   0  0  0  0  0  0  0  0  0  0  0  0
   -8.7987  -39.8746    7.8235 C   0  0  0  0  0  0  0  0  0  0  0  0
   -8.1306  -38.7099    7.3740 O   0  0  0  0  0  0  0  0  0  0  0  0
  1 11  1  0  0  0  0
  3 13  1  6  0  0  0
  3 17  2  0  0  0  0
  3 20  1  0  0  0  0
  3 26  1  0  0  0  0
  4 14  1  6  0  0  0
  4 18  1  0  0  0  0
  4 21  2  0  0  0  0
  4 20  1  0  0  0  0
  5 19  1  0  0  0  0
  5  7  1  0  0  0  0
  6  7  2  0  0  0  0
  6 12  1  0  0  0  0
  7  8  1  0  0  0  0
  8  9  1  0  0  0  0
  8 10  2  0  0  0  0
 10 11  1  0  0  0  0
 11 12  2  0  0  0  0
 15 23  1  0  0  0  0
 15 16  1  0  0  0  0
 16 19  1  0  0  0  0
 19 22  1  0  0  0  0
 22  2  1  6  0  0  0
 22 23  1  0  0  0  0
 23 24  1  6  0  0  0
 24 25  1  0  0  0  0
 25 26  1  0  0  0  0
M  CHG  2  13  -1  18  -1
M  END
>  <CHROM.1>
-90.81431908,-107.97269463,-95.30208126,58.39517232,-49.61380496,71.75040040
71.88139078,-177.58973503,-6.06726764,-41.43947551,7.40323031,-0.65283321
0.92182983,-1.49987538

>  <Name>
ligand

>  <RI>
0

>  <Rbt.Current_Directory>
/home/itssahil/PROJECTS/Mol_Feturizer/New_Systems/rnas/3D2G

>  <Rbt.Executable>
rbdock ($Id: //depot/dev/client3/rdock/2013.1/src/exe/rbdock.cxx#4 $)

>  <Rbt.Library>
libRbt.so (2013.1, Build901 2013/11/27)

>  <Rbt.Parameter_File>
/export/apps/rDock/src/rDock_2013.1_src/data/scripts/dock_solv.prm

>  <Rbt.Receptor>
prm/pocket_docking_3.prm

>  <SCORE>
-9.9589

>  <SCORE.INTER>
-7.95682

>  <SCORE.INTER.CONST>
1

>  <SCORE.INTER.POLAR>
0

>  <SCORE.INTER.ROT>
8

>  <SCORE.INTER.SOLV>
9.82987

>  <SCORE.INTER.VDW>
-17.5145

>  <SCORE.INTER.norm>
-0.306032

>  <SCORE.INTRA>
-2.00965

>  <SCORE.INTRA.DIHEDRAL>
-1.89493

>  <SCORE.INTRA.DIHEDRAL.0>
9.09364

>  <SCORE.INTRA.POLAR>
0

>  <SCORE.INTRA.POLAR.0>
0

>  <SCORE.INTRA.REPUL>
0

>  <SCORE.INTRA.REPUL.0>
0

>  <SCORE.INTRA.SOLV>
-0.326054

>  <SCORE.INTRA.SOLV.lig_0>
-78.5846

>  <SCORE.INTRA.VDW>
-0.899159

>  <SCORE.INTRA.VDW.0>
-2.81163

>  <SCORE.INTRA.norm>
-0.0772942

>  <SCORE.RESTR>
0.00757411

>  <SCORE.RESTR.CAVITY>
0.00757411

>  <SCORE.RESTR.norm>
0.000291312

>  <SCORE.SYSTEM>
0

>  <SCORE.SYSTEM.CONST>
0

>  <SCORE.SYSTEM.DIHEDRAL>
0

>  <SCORE.SYSTEM.SOLV>
0

>  <SCORE.SYSTEM.norm>
0

>  <SCORE.heavy>
26

>  <SCORE.norm>
-0.383034

>  <RMSD>
8.836

$$$$
ligand
 OpenBabel11021811463D
libRbt.so/2013.1/901 2013/11/27
 26 27  0  0  0  0  0  0  0  0999 V2000
   -0.2863  -49.0726    8.7014 C   0  0  0  0  0  0  0  0  0  0  0  0
   -5.4780  -43.8252    7.3581 C   0  0  0  0  0  0  0  0  0  0  0  0
   -4.6273  -43.4236   12.3558 P   0  0  1  0  0  0  0  0  0  0  0  0
   -2.2421  -42.9659   11.0735 P   0  0  2  0  0  0  0  0  0  0  0  0
   -5.0231  -46.7694    6.4216 C   0  0  0  0  0  0  0  0  0  0  0  0
   -3.1260  -46.7144    8.0743 C   0  0  0  0  0  0  0  0  0  0  0  0
   -3.7705  -47.3616    7.0157 C   0  0  0  0  0  0  0  0  0  0  0  0
   -3.2831  -48.5769    6.5270 C   0  0  0  0  0  0  0  0  0  0  0  0
   -3.9038  -49.1892    5.5407 N   0  0  0  0  0  0  0  0  0  0  0  0
   -2.1373  -49.1147    7.0604 N   0  0  0  0  0  0  0  0  0  0  0  0
   -1.5159  -48.4758    8.1150 C   0  0  0  0  0  0  0  0  0  0  0  0
   -1.9919  -47.2778    8.6137 N   0  0  0  0  0  0  0  0  0  0  0  0
   -5.1189  -44.5417   13.2234 O   0  5  0  0  0  0  0  0  0  0  0  0
   -0.9052  -43.5709   11.2416 O   0  0  0  0  0  0  0  0  0  0  0  0
   -7.5213  -46.5340    9.3087 S   0  0  0  0  0  0  0  0  0  0  0  0
   -6.6478  -47.2474    8.1995 C   0  0  0  0  0  0  0  0  0  0  0  0
   -4.7976  -42.0522   12.9068 O   0  0  0  0  0  0  0  0  0  0  0  0
   -2.2533  -41.5308   11.4153 O   0  5  0  0  0  0  0  0  0  0  0  0
   -5.8919  -46.3573    7.4892 N   0  0  0  0  0  0  0  0  0  0  0  0
   -3.1245  -43.8288   12.0684 O   0  0  0  0  0  0  0  0  0  0  0  0
   -2.8433  -43.0007    9.7058 O   0  0  0  0  0  0  0  0  0  0  0  0
   -6.1079  -45.0720    7.9000 C   0  0  1  0  0  0  0  0  0  0  0  0
   -7.0152  -45.0634    8.9295 C   0  0  2  0  0  0  0  0  0  0  0  0
   -7.5825  -43.9240    9.7392 C   0  0  0  0  0  0  0  0  0  0  0  0
   -6.8199  -43.7174   11.0528 C   0  0  0  0  0  0  0  0  0  0  0  0
   -5.4071  -43.6394   11.0020 O   0  0  0  0  0  0  0  0  0  0  0  0
  1 11  1  0  0  0  0
  3 13  1  1  0  0  0
  3 17  2  0  0  0  0
  3 20  1  0  0  0  0
  3 26  1  0  0  0  0
  4 14  1  6  0  0  0
  4 18  1  0  0  0  0
  4 21  2  0  0  0  0
  4 20  1  0  0  0  0
  5 19  1  0  0  0  0
  5  7  1  0  0  0  0
  6  7  2  0  0  0  0
  6 12  1  0  0  0  0
  7  8  1  0  0  0  0
  8  9  1  0  0  0  0
  8 10  2  0  0  0  0
 10 11  1  0  0  0  0
 11 12  2  0  0  0  0
 15 23  1  0  0  0  0
 15 16  1  0  0  0  0
 16 19  1  0  0  0  0
 19 22  1  0  0  0  0
 22  2  1  1  0  0  0
 22 23  1  0  0  0  0
 23 24  1  1  0  0  0
 24 25  1  0  0  0  0
 25 26  1  0  0  0  0
M  CHG  2  13  -1  18  -1
M  END
>  <CHROM.1>
175.04845783,-77.50976173,-45.22070697,172.71001340,83.78768945,49.53322705
179.87129975,54.47870282,-4.24908828,-45.23143137,9.59231276,-1.51061665
-0.11276485,0.74845309

>  <Name>
ligand

>  <RI>
0

>  <Rbt.Current_Directory>
/home/itssahil/PROJECTS/Mol_Feturizer/New_Systems/rnas/3D2G

>  <Rbt.Executable>
rbdock ($Id: //depot/dev/client3/rdock/2013.1/src/exe/rbdock.cxx#4 $)

>  <Rbt.Library>
libRbt.so (2013.1, Build901 2013/11/27)

>  <Rbt.Parameter_File>
/export/apps/rDock/src/rDock_2013.1_src/data/scripts/dock_solv.prm

>  <Rbt.Receptor>
prm/pocket_docking_8.prm

>  <SCORE>
-15.7324

>  <SCORE.INTER>
-12.0324

>  <SCORE.INTER.CONST>
1

>  <SCORE.INTER.POLAR>
0

>  <SCORE.INTER.ROT>
8

>  <SCORE.INTER.SOLV>
13.5803

>  <SCORE.INTER.VDW>
-21.4817

>  <SCORE.INTER.norm>
-0.462785

>  <SCORE.INTRA>
-3.69994

>  <SCORE.INTRA.DIHEDRAL>
-3.31787

>  <SCORE.INTRA.DIHEDRAL.0>
9.09364

>  <SCORE.INTRA.POLAR>
0

>  <SCORE.INTRA.POLAR.0>
0

>  <SCORE.INTRA.REPUL>
0

>  <SCORE.INTRA.REPUL.0>
0

>  <SCORE.INTRA.SOLV>
-1.02049

>  <SCORE.INTRA.SOLV.lig_0>
-78.5846

>  <SCORE.INTRA.VDW>
-1.53076

>  <SCORE.INTRA.VDW.0>
-2.81163

>  <SCORE.INTRA.norm>
-0.142305

>  <SCORE.RESTR>
0

>  <SCORE.RESTR.CAVITY>
0

>  <SCORE.RESTR.norm>
0

>  <SCORE.SYSTEM>
0

>  <SCORE.SYSTEM.CONST>
0

>  <SCORE.SYSTEM.DIHEDRAL>
0

>  <SCORE.SYSTEM.SOLV>
0

>  <SCORE.SYSTEM.norm>
0

>  <SCORE.heavy>
26

>  <SCORE.norm>
-0.605091

>  <RMSD>
8.836

$$$$
ligand
 OpenBabel11021811463D
libRbt.so/2013.1/901 2013/11/27
 26 27  0  0  0  0  0  0  0  0999 V2000
   -0.8060  -40.4769    9.8856 C   0  0  0  0  0  0  0  0  0  0  0  0
   -7.2926  -43.5746   11.1391 C   0  0  0  0  0  0  0  0  0  0  0  0
   -5.6659  -46.8749    5.8736 P   0  0  1  0  0  0  0  0  0  0  0  0
   -3.3509  -48.1306    6.6526 P   0  0  2  0  0  0  0  0  0  0  0  0
   -4.5703  -43.8122   12.6507 C   0  0  0  0  0  0  0  0  0  0  0  0
   -2.4352  -43.5120   11.3528 C   0  0  0  0  0  0  0  0  0  0  0  0
   -3.5703  -42.9400   11.9352 C   0  0  0  0  0  0  0  0  0  0  0  0
   -3.8061  -41.5668   11.8263 C   0  0  0  0  0  0  0  0  0  0  0  0
   -4.8850  -41.0368   12.3631 N   0  0  0  0  0  0  0  0  0  0  0  0
   -2.8927  -40.7681   11.1824 N   0  0  0  0  0  0  0  0  0  0  0  0
   -1.7821  -41.3439   10.5981 C   0  0  0  0  0  0  0  0  0  0  0  0
   -1.5408  -42.7018   10.6907 N   0  0  0  0  0  0  0  0  0  0  0  0
   -4.8376  -45.6268    5.8979 O   0  5  0  0  0  0  0  0  0  0  0  0
   -4.0089  -48.4212    7.9427 O   0  0  0  0  0  0  0  0  0  0  0  0
   -5.2073  -46.7867   10.3315 S   0  0  0  0  0  0  0  0  0  0  0  0
   -4.4132  -45.9068   11.3791 C   0  0  0  0  0  0  0  0  0  0  0  0
   -6.7773  -46.8965    4.8847 O   0  0  0  0  0  0  0  0  0  0  0  0
   -2.5536  -46.8902    6.6986 O   0  5  0  0  0  0  0  0  0  0  0  0
   -5.0959  -44.7730   11.7206 N   0  0  0  0  0  0  0  0  0  0  0  0
   -4.5878  -48.0152    5.6678 O   0  0  0  0  0  0  0  0  0  0  0  0
   -2.3842  -49.1444    6.1324 O   0  0  0  0  0  0  0  0  0  0  0  0
   -6.2794  -44.6743   11.0447 C   0  0  1  0  0  0  0  0  0  0  0  0
   -6.4381  -45.7679   10.2311 C   0  0  2  0  0  0  0  0  0  0  0  0
   -7.5585  -46.1520    9.2967 C   0  0  0  0  0  0  0  0  0  0  0  0
   -7.1306  -46.0795    7.8266 C   0  0  0  0  0  0  0  0  0  0  0  0
   -6.1698  -47.0101    7.3619 O   0  0  0  0  0  0  0  0  0  0  0  0
  1 11  1  0  0  0  0
  3 13  1  6  0  0  0
  3 17  2  0  0  0  0
  3 20  1  0  0  0  0
  3 26  1  0  0  0  0
  4 14  1  1  0  0  0
  4 18  1  0  0  0  0
  4 21  2  0  0  0  0
  4 20  1  0  0  0  0
  5 19  1  0  0  0  0
  5  7  1  0  0  0  0
  6  7  2  0  0  0  0
  6 12  1  0  0  0  0
  7  8  1  0  0  0  0
  8  9  1  0  0  0  0
  8 10  2  0  0  0  0
 10 11  1  0  0  0  0
 11 12  2  0  0  0  0
 15 23  1  0  0  0  0
 15 16  1  0  0  0  0
 16 19  1  0  0  0  0
 19 22  1  0  0  0  0
 22  2  1  1  0  0  0
 22 23  1  0  0  0  0
 23 24  1  1  0  0  0
 24 25  1  0  0  0  0
 25 26  1  0  0  0  0
M  CHG  2  13  -1  18  -1
M  END
>  <CHROM.1>
54.03877749,79.78373321,-60.22919303,63.23380046,-69.36477842,67.65053495
-176.24940911,70.46317122,-4.50950774,-45.35354382,8.96878852,-1.38738958
-0.37268519,-2.31273580

>  <Name>
ligand

>  <RI>
0

>  <Rbt.Current_Directory>
/home/itssahil/PROJECTS/Mol_Feturizer/New_Systems/rnas/3D2G

>  <Rbt.Executable>
rbdock ($Id: //depot/dev/client3/rdock/2013.1/src/exe/rbdock.cxx#4 $)

>  <Rbt.Library>
libRbt.so (2013.1, Build901 2013/11/27)

>  <Rbt.Parameter_File>
/export/apps/rDock/src/rDock_2013.1_src/data/scripts/dock_solv.prm

>  <Rbt.Receptor>
prm/pocket_docking_6.prm

>  <SCORE>
-17.5696

>  <SCORE.INTER>
-13.7786

>  <SCORE.INTER.CONST>
1

>  <SCORE.INTER.POLAR>
0

>  <SCORE.INTER.ROT>
8

>  <SCORE.INTER.SOLV>
7.02248

>  <SCORE.INTER.VDW>
-20.4599

>  <SCORE.INTER.norm>
-0.529947

>  <SCORE.INTRA>
-3.79095

>  <SCORE.INTRA.DIHEDRAL>
-3.57412

>  <SCORE.INTRA.DIHEDRAL.0>
9.09364

>  <SCORE.INTRA.POLAR>
0

>  <SCORE.INTRA.POLAR.0>
0

>  <SCORE.INTRA.REPUL>
0

>  <SCORE.INTRA.REPUL.0>
0

>  <SCORE.INTRA.SOLV>
-1.46325

>  <SCORE.INTRA.SOLV.lig_0>
-78.5846

>  <SCORE.INTRA.VDW>
-1.27227

>  <SCORE.INTRA.VDW.0>
-2.81163

>  <SCORE.INTRA.norm>
-0.145806

>  <SCORE.RESTR>
0

>  <SCORE.RESTR.CAVITY>
0

>  <SCORE.RESTR.norm>
0

>  <SCORE.SYSTEM>
0

>  <SCORE.SYSTEM.CONST>
0

>  <SCORE.SYSTEM.DIHEDRAL>
0

>  <SCORE.SYSTEM.SOLV>
0

>  <SCORE.SYSTEM.norm>
0

>  <SCORE.heavy>
26

>  <SCORE.norm>
-0.675753

>  <RMSD>
8.844

$$$$
ligand
 OpenBabel11021811463D
libRbt.so/2013.1/901 2013/11/27
 26 27  0  0  0  0  0  0  0  0999 V2000
   -3.4557  -46.7569    2.7232 C   0  0  0  0  0  0  0  0  0  0  0  0
   -3.8989  -45.2916   10.2460 C   0  0  0  0  0  0  0  0  0  0  0  0
   -7.2950  -41.7277    7.8846 P   0  0  1  0  0  0  0  0  0  0  0  0
   -8.8875  -39.4988    7.6873 P   0  0  2  0  0  0  0  0  0  0  0  0
   -3.9265  -47.7744    8.3519 C   0  0  0  0  0  0  0  0  0  0  0  0
   -4.8666  -47.8385    6.0184 C   0  0  0  0  0  0  0  0  0  0  0  0
   -3.8041  -47.5228    6.8706 C   0  0  0  0  0  0  0  0  0  0  0  0
   -2.6399  -46.9387    6.3641 C   0  0  0  0  0  0  0  0  0  0  0  0
   -1.6494  -46.6291    7.1741 N   0  0  0  0  0  0  0  0  0  0  0  0
   -2.5218  -46.7161    5.0138 N   0  0  0  0  0  0  0  0  0  0  0  0
   -3.5818  -47.0178    4.1820 C   0  0  0  0  0  0  0  0  0  0  0  0
   -4.7422  -47.5880    4.6706 N   0  0  0  0  0  0  0  0  0  0  0  0
   -7.6485  -42.1034    6.4780 O   0  5  0  0  0  0  0  0  0  0  0  0
  -10.2194  -39.1948    8.2490 O   0  0  0  0  0  0  0  0  0  0  0  0
   -7.4507  -46.5271    9.1619 S   0  0  0  0  0  0  0  0  0  0  0  0
   -6.3567  -47.4524    8.4917 C   0  0  0  0  0  0  0  0  0  0  0  0
   -5.9950  -41.0261    8.0612 O   0  0  0  0  0  0  0  0  0  0  0  0
   -8.9065  -39.5761    6.2142 O   0  5  0  0  0  0  0  0  0  0  0  0
   -5.0879  -47.0862    8.8440 N   0  0  0  0  0  0  0  0  0  0  0  0
   -8.5548  -40.8955    8.3594 O   0  0  0  0  0  0  0  0  0  0  0  0
   -7.7869  -38.5281    7.9690 O   0  0  0  0  0  0  0  0  0  0  0  0
   -5.0880  -45.9924    9.6631 C   0  0  1  0  0  0  0  0  0  0  0  0
   -6.3798  -45.5980    9.9054 C   0  0  2  0  0  0  0  0  0  0  0  0
   -6.9298  -44.4706   10.7433 C   0  0  0  0  0  0  0  0  0  0  0  0
   -6.8982  -43.1320    9.9970 C   0  0  0  0  0  0  0  0  0  0  0  0
   -7.3584  -43.1006    8.6582 O   0  0  0  0  0  0  0  0  0  0  0  0
  1 11  1  0  0  0  0
  3 13  1  6  0  0  0
  3 17  2  0  0  0  0
  3 20  1  0  0  0  0
  3 26  1  0  0  0  0
  4 14  1  1  0  0  0
  4 18  1  0  0  0  0
  4 21  2  0  0  0  0
  4 20  1  0  0  0  0
  5 19  1  0  0  0  0
  5  7  1  0  0  0  0
  6  7  2  0  0  0  0
  6 12  1  0  0  0  0
  7  8  1  0  0  0  0
  8  9  1  0  0  0  0
  8 10  2  0  0  0  0
 10 11  1  0  0  0  0
 11 12  2  0  0  0  0
 15 23  1  0  0  0  0
 15 16  1  0  0  0  0
 16 19  1  0  0  0  0
 19 22  1  0  0  0  0
 22  2  1  1  0  0  0
 22 23  1  0  0  0  0
 23 24  1  1  0  0  0
 24 25  1  0  0  0  0
 25 26  1  0  0  0  0
M  CHG  2  13  -1  18  -1
M  END
>  <CHROM.1>
-66.17152111,67.59167730,-56.02104774,171.00121367,-98.78510484,46.01436345
-178.71105381,171.67186791,-6.19780166,-44.03622795,7.70200714,-0.36663941
0.95697486,-0.94645603

>  <Name>
ligand

>  <RI>
0

>  <Rbt.Current_Directory>
/home/itssahil/PROJECTS/Mol_Feturizer/New_Systems/rnas/3D2G

>  <Rbt.Executable>
rbdock ($Id: //depot/dev/client3/rdock/2013.1/src/exe/rbdock.cxx#4 $)

>  <Rbt.Library>
libRbt.so (2013.1, Build901 2013/11/27)

>  <Rbt.Parameter_File>
/export/apps/rDock/src/rDock_2013.1_src/data/scripts/dock_solv.prm

>  <Rbt.Receptor>
prm/pocket_docking_7.prm

>  <SCORE>
-18.6319

>  <SCORE.INTER>
-16.2451

>  <SCORE.INTER.CONST>
1

>  <SCORE.INTER.POLAR>
0

>  <SCORE.INTER.ROT>
8

>  <SCORE.INTER.SOLV>
13.1854

>  <SCORE.INTER.VDW>
-24.1585

>  <SCORE.INTER.norm>
-0.624813

>  <SCORE.INTRA>
-2.38682

>  <SCORE.INTRA.DIHEDRAL>
-3.15338

>  <SCORE.INTRA.DIHEDRAL.0>
9.09364

>  <SCORE.INTRA.POLAR>
0

>  <SCORE.INTRA.POLAR.0>
0

>  <SCORE.INTRA.REPUL>
0

>  <SCORE.INTRA.REPUL.0>
0

>  <SCORE.INTRA.SOLV>
0.242202

>  <SCORE.INTRA.SOLV.lig_0>
-78.5846

>  <SCORE.INTRA.VDW>
-0.931225

>  <SCORE.INTRA.VDW.0>
-2.81163

>  <SCORE.INTRA.norm>
-0.0918006

>  <SCORE.RESTR>
0

>  <SCORE.RESTR.CAVITY>
0

>  <SCORE.RESTR.norm>
0

>  <SCORE.SYSTEM>
0

>  <SCORE.SYSTEM.CONST>
0

>  <SCORE.SYSTEM.DIHEDRAL>
0

>  <SCORE.SYSTEM.SOLV>
0

>  <SCORE.SYSTEM.norm>
0

>  <SCORE.heavy>
26

>  <SCORE.norm>
-0.716613

>  <RMSD>
8.848

$$$$
ligand
 OpenBabel11021811463D
libRbt.so/2013.1/901 2013/11/27
 26 27  0  0  0  0  0  0  0  0999 V2000
   -0.5141  -34.1260    8.6731 C   0  0  0  0  0  0  0  0  0  0  0  0
   -6.0479  -37.7028   11.4776 C   0  0  0  0  0  0  0  0  0  0  0  0
   -3.5565  -43.2771   10.5243 P   0  0  1  0  0  0  0  0  0  0  0  0
   -1.4180  -41.8949    9.4951 P   0  0  2  0  0  0  0  0  0  0  0  0
   -4.3641  -35.3936   12.7364 C   0  0  0  0  0  0  0  0  0  0  0  0
   -2.6416  -36.0964   11.0416 C   0  0  0  0  0  0  0  0  0  0  0  0
   -3.3412  -35.0668   11.6782 C   0  0  0  0  0  0  0  0  0  0  0  0
   -3.1272  -33.7347   11.3138 C   0  0  0  0  0  0  0  0  0  0  0  0
   -3.8009  -32.7711   11.9060 N   0  0  0  0  0  0  0  0  0  0  0  0
   -2.1898  -33.4331   10.3562 N   0  0  0  0  0  0  0  0  0  0  0  0
   -1.5143  -34.4573    9.7229 C   0  0  0  0  0  0  0  0  0  0  0  0
   -1.7222  -35.7796   10.0673 N   0  0  0  0  0  0  0  0  0  0  0  0
   -4.4554  -44.1460    9.6989 O   0  5  0  0  0  0  0  0  0  0  0  0
   -1.2570  -41.3761   10.8687 O   0  0  0  0  0  0  0  0  0  0  0  0
   -3.4281  -38.8170   14.1632 S   0  0  0  0  0  0  0  0  0  0  0  0
   -3.3492  -37.2470   13.9869 C   0  0  0  0  0  0  0  0  0  0  0  0
   -2.5338  -43.9891   11.3372 O   0  0  0  0  0  0  0  0  0  0  0  0
   -1.0622  -40.8919    8.4735 O   0  5  0  0  0  0  0  0  0  0  0  0
   -4.2543  -36.7863   13.0722 N   0  0  0  0  0  0  0  0  0  0  0  0
   -2.9579  -42.2697    9.4603 O   0  0  0  0  0  0  0  0  0  0  0  0
   -0.5999  -43.0851    9.1116 O   0  0  0  0  0  0  0  0  0  0  0  0
   -4.9768  -37.8064   12.5201 C   0  0  1  0  0  0  0  0  0  0  0  0
   -4.5855  -39.0000   13.0725 C   0  0  2  0  0  0  0  0  0  0  0  0
   -5.0671  -40.4086   12.8283 C   0  0  0  0  0  0  0  0  0  0  0  0
   -4.1343  -41.1796   11.8875 C   0  0  0  0  0  0  0  0  0  0  0  0
   -4.5622  -42.4400   11.4046 O   0  0  0  0  0  0  0  0  0  0  0  0
  1 11  1  0  0  0  0
  3 13  1  6  0  0  0
  3 17  2  0  0  0  0
  3 20  1  0  0  0  0
  3 26  1  0  0  0  0
  4 14  1  1  0  0  0
  4 18  1  0  0  0  0
  4 21  2  0  0  0  0
  4 20  1  0  0  0  0
  5 19  1  0  0  0  0
  5  7  1  0  0  0  0
  6  7  2  0  0  0  0
  6 12  1  0  0  0  0
  7  8  1  0  0  0  0
  8  9  1  0  0  0  0
  8 10  2  0  0  0  0
 10 11  1  0  0  0  0
 11 12  2  0  0  0  0
 15 23  1  0  0  0  0
 15 16  1  0  0  0  0
 16 19  1  0  0  0  0
 19 22  1  0  0  0  0
 22  2  1  1  0  0  0
 22 23  1  0  0  0  0
 23 24  1  1  0  0  0
 24 25  1  0  0  0  0
 25 26  1  0  0  0  0
M  CHG  2  13  -1  18  -1
M  END
>  <CHROM.1>
-137.28226216,84.37335564,10.40883132,-56.55906845,-80.82994317,-170.48567132
-175.53969159,-154.70749019,-3.06527579,-39.11896044,11.15330888,-1.60489985
-0.84790412,-3.03231304

>  <Name>
ligand

>  <RI>
0

>  <Rbt.Current_Directory>
/home/itssahil/PROJECTS/Mol_Feturizer/New_Systems/rnas/3D2G

>  <Rbt.Executable>
rbdock ($Id: //depot/dev/client3/rdock/2013.1/src/exe/rbdock.cxx#4 $)

>  <Rbt.Library>
libRbt.so (2013.1, Build901 2013/11/27)

>  <Rbt.Parameter_File>
/export/apps/rDock/src/rDock_2013.1_src/data/scripts/dock_solv.prm

>  <Rbt.Receptor>
prm/blind_docking_80.prm

>  <SCORE>
-15.3891

>  <SCORE.INTER>
-13.1039

>  <SCORE.INTER.CONST>
1

>  <SCORE.INTER.POLAR>
0

>  <SCORE.INTER.ROT>
8

>  <SCORE.INTER.SOLV>
12.2122

>  <SCORE.INTER.VDW>
-21.74

>  <SCORE.INTER.norm>
-0.503995

>  <SCORE.INTRA>
-2.28522

>  <SCORE.INTRA.DIHEDRAL>
-0.9305

>  <SCORE.INTRA.DIHEDRAL.0>
9.09364

>  <SCORE.INTRA.POLAR>
0

>  <SCORE.INTRA.POLAR.0>
0

>  <SCORE.INTRA.REPUL>
0

>  <SCORE.INTRA.REPUL.0>
0

>  <SCORE.INTRA.SOLV>
-2.92927

>  <SCORE.INTRA.SOLV.lig_0>
-78.5846

>  <SCORE.INTRA.VDW>
-0.355331

>  <SCORE.INTRA.VDW.0>
-2.81163

>  <SCORE.INTRA.norm>
-0.087893

>  <SCORE.RESTR>
0

>  <SCORE.RESTR.CAVITY>
0

>  <SCORE.RESTR.norm>
0

>  <SCORE.SYSTEM>
0

>  <SCORE.SYSTEM.CONST>
0

>  <SCORE.SYSTEM.DIHEDRAL>
0

>  <SCORE.SYSTEM.SOLV>
0

>  <SCORE.SYSTEM.norm>
0

>  <SCORE.heavy>
26

>  <SCORE.norm>
-0.591888

>  <RMSD>
8.860

$$$$
ligand
 OpenBabel11021811463D
libRbt.so/2013.1/901 2013/11/27
 26 27  0  0  0  0  0  0  0  0999 V2000
   -0.1665  -35.2292    8.6559 C   0  0  0  0  0  0  0  0  0  0  0  0
   -5.9737  -37.8838   11.5578 C   0  0  0  0  0  0  0  0  0  0  0  0
   -4.1195  -43.7584   11.0354 P   0  0  1  0  0  0  0  0  0  0  0  0
   -4.9814  -46.1464    9.9878 P   0  0  2  0  0  0  0  0  0  0  0  0
   -4.0941  -35.7276   12.8110 C   0  0  0  0  0  0  0  0  0  0  0  0
   -2.4296  -36.7480   11.2231 C   0  0  0  0  0  0  0  0  0  0  0  0
   -3.0513  -35.6026   11.7295 C   0  0  0  0  0  0  0  0  0  0  0  0
   -2.7409  -34.3417   11.2131 C   0  0  0  0  0  0  0  0  0  0  0  0
   -3.3416  -33.2687   11.6833 N   0  0  0  0  0  0  0  0  0  0  0  0
   -1.7851  -34.2235   10.2337 N   0  0  0  0  0  0  0  0  0  0  0  0
   -1.1869  -35.3614    9.7298 C   0  0  0  0  0  0  0  0  0  0  0  0
   -1.4906  -36.6155   10.2253 N   0  0  0  0  0  0  0  0  0  0  0  0
   -2.7541  -43.7900   11.6511 O   0  5  0  0  0  0  0  0  0  0  0  0
   -4.9802  -47.5011   10.5765 O   0  0  0  0  0  0  0  0  0  0  0  0
   -3.6701  -39.1554   14.4549 S   0  0  0  0  0  0  0  0  0  0  0  0
   -3.3887  -37.6181   14.2101 C   0  0  0  0  0  0  0  0  0  0  0  0
   -4.1859  -43.2761    9.6296 O   0  0  0  0  0  0  0  0  0  0  0  0
   -3.9878  -46.0060    8.9064 O   0  5  0  0  0  0  0  0  0  0  0  0
   -4.1760  -37.1030   13.2186 N   0  0  0  0  0  0  0  0  0  0  0  0
   -4.6387  -45.2393   11.2419 O   0  0  0  0  0  0  0  0  0  0  0  0
   -6.2506  -45.6749    9.3553 O   0  0  0  0  0  0  0  0  0  0  0  0
   -4.9854  -38.0578   12.6703 C   0  0  1  0  0  0  0  0  0  0  0  0
   -4.7764  -39.2577   13.3024 C   0  0  2  0  0  0  0  0  0  0  0  0
   -5.4127  -40.6097   13.0948 C   0  0  0  0  0  0  0  0  0  0  0  0
   -4.5825  -41.4979   12.1613 C   0  0  0  0  0  0  0  0  0  0  0  0
   -4.9499  -42.8590   12.0298 O   0  0  0  0  0  0  0  0  0  0  0  0
  1 11  1  0  0  0  0
  3 13  1  1  0  0  0
  3 17  2  0  0  0  0
  3 20  1  0  0  0  0
  3 26  1  0  0  0  0
  4 14  1  1  0  0  0
  4 18  1  0  0  0  0
  4 21  2  0  0  0  0
  4 20  1  0  0  0  0
  5 19  1  0  0  0  0
  5  7  1  0  0  0  0
  6  7  2  0  0  0  0
  6 12  1  0  0  0  0
  7  8  1  0  0  0  0
  8  9  1  0  0  0  0
  8 10  2  0  0  0  0
 10 11  1  0  0  0  0
 11 12  2  0  0  0  0
 15 23  1  0  0  0  0
 15 16  1  0  0  0  0
 16 19  1  0  0  0  0
 19 22  1  0  0  0  0
 22  2  1  1  0  0  0
 22 23  1  0  0  0  0
 23 24  1  1  0  0  0
 24 25  1  0  0  0  0
 25 26  1  0  0  0  0
M  CHG  2  13  -1  18  -1
M  END
>  <CHROM.1>
-118.09741135,88.65409948,4.92758046,162.16928479,-85.39047430,170.85379834
178.20315455,64.92123801,-3.87218992,-40.37239390,11.40896877,-1.17947215
-1.02547249,-2.69155796

>  <Name>
ligand

>  <RI>
0

>  <Rbt.Current_Directory>
/home/itssahil/PROJECTS/Mol_Feturizer/New_Systems/rnas/3D2G

>  <Rbt.Executable>
rbdock ($Id: //depot/dev/client3/rdock/2013.1/src/exe/rbdock.cxx#4 $)

>  <Rbt.Library>
libRbt.so (2013.1, Build901 2013/11/27)

>  <Rbt.Parameter_File>
/export/apps/rDock/src/rDock_2013.1_src/data/scripts/dock_solv.prm

>  <Rbt.Receptor>
prm/blind_docking_60.prm

>  <SCORE>
-17.6604

>  <SCORE.INTER>
-16.4784

>  <SCORE.INTER.CONST>
1

>  <SCORE.INTER.POLAR>
0

>  <SCORE.INTER.ROT>
8

>  <SCORE.INTER.SOLV>
12.2331

>  <SCORE.INTER.VDW>
-23.9966

>  <SCORE.INTER.norm>
-0.633783

>  <SCORE.INTRA>
-1.19176

>  <SCORE.INTRA.DIHEDRAL>
-1.16542

>  <SCORE.INTRA.DIHEDRAL.0>
9.09364

>  <SCORE.INTRA.POLAR>
0

>  <SCORE.INTRA.POLAR.0>
0

>  <SCORE.INTRA.REPUL>
0

>  <SCORE.INTRA.REPUL.0>
0

>  <SCORE.INTRA.SOLV>
-0.971605

>  <SCORE.INTRA.SOLV.lig_0>
-78.5846

>  <SCORE.INTRA.VDW>
-0.123248

>  <SCORE.INTRA.VDW.0>
-2.81163

>  <SCORE.INTRA.norm>
-0.0458369

>  <SCORE.RESTR>
0.00968009

>  <SCORE.RESTR.CAVITY>
0.00968009

>  <SCORE.RESTR.norm>
0.000372311

>  <SCORE.SYSTEM>
0

>  <SCORE.SYSTEM.CONST>
0

>  <SCORE.SYSTEM.DIHEDRAL>
0

>  <SCORE.SYSTEM.SOLV>
0

>  <SCORE.SYSTEM.norm>
0

>  <SCORE.heavy>
26

>  <SCORE.norm>
-0.679247

>  <RMSD>
8.862

$$$$
ligand
 OpenBabel11021811463D
libRbt.so/2013.1/901 2013/11/27
 26 27  0  0  0  0  0  0  0  0999 V2000
   -0.2215  -35.0531    8.7109 C   0  0  0  0  0  0  0  0  0  0  0  0
   -5.8099  -38.2565   11.3079 C   0  0  0  0  0  0  0  0  0  0  0  0
   -5.2769  -43.8195   11.3850 P   0  0  1  0  0  0  0  0  0  0  0  0
   -5.7286  -46.2597   10.2084 P   0  0  2  0  0  0  0  0  0  0  0  0
   -4.2665  -35.9194   12.6892 C   0  0  0  0  0  0  0  0  0  0  0  0
   -2.4268  -36.7739   11.1997 C   0  0  0  0  0  0  0  0  0  0  0  0
   -3.1928  -35.6964   11.6548 C   0  0  0  0  0  0  0  0  0  0  0  0
   -2.9966  -34.4164   11.1291 C   0  0  0  0  0  0  0  0  0  0  0  0
   -3.7321  -33.4091   11.5503 N   0  0  0  0  0  0  0  0  0  0  0  0
   -2.0134  -34.2083   10.1928 N   0  0  0  0  0  0  0  0  0  0  0  0
   -1.2719  -35.2809    9.7389 C   0  0  0  0  0  0  0  0  0  0  0  0
   -1.4610  -36.5536   10.2439 N   0  0  0  0  0  0  0  0  0  0  0  0
   -5.0631  -43.1296   10.0724 O   0  5  0  0  0  0  0  0  0  0  0  0
   -6.8102  -46.6093   11.1516 O   0  0  0  0  0  0  0  0  0  0  0  0
   -3.6187  -39.2876   14.3825 S   0  0  0  0  0  0  0  0  0  0  0  0
   -3.4798  -37.7290   14.1505 C   0  0  0  0  0  0  0  0  0  0  0  0
   -6.6429  -43.7045   11.9631 O   0  0  0  0  0  0  0  0  0  0  0  0
   -4.9969  -47.4485    9.7312 O   0  5  0  0  0  0  0  0  0  0  0  0
   -4.2369  -37.2965   13.0979 N   0  0  0  0  0  0  0  0  0  0  0  0
   -4.8180  -45.3046   11.0869 O   0  0  0  0  0  0  0  0  0  0  0  0
   -6.1191  -45.5633    8.9452 O   0  0  0  0  0  0  0  0  0  0  0  0
   -4.8982  -38.3291   12.4947 C   0  0  1  0  0  0  0  0  0  0  0  0
   -4.6157  -39.5020   13.1485 C   0  0  2  0  0  0  0  0  0  0  0  0
   -5.0906  -40.9123   12.9009 C   0  0  0  0  0  0  0  0  0  0  0  0
   -3.9918  -41.7894   12.2900 C   0  0  0  0  0  0  0  0  0  0  0  0
   -4.1658  -43.1944   12.3135 O   0  0  0  0  0  0  0  0  0  0  0  0
  1 11  1  0  0  0  0
  3 13  1  6  0  0  0
  3 17  2  0  0  0  0
  3 20  1  0  0  0  0
  3 26  1  0  0  0  0
  4 14  1  1  0  0  0
  4 18  1  0  0  0  0
  4 21  2  0  0  0  0
  4 20  1  0  0  0  0
  5 19  1  0  0  0  0
  5  7  1  0  0  0  0
  6  7  2  0  0  0  0
  6 12  1  0  0  0  0
  7  8  1  0  0  0  0
  8  9  1  0  0  0  0
  8 10  2  0  0  0  0
 10 11  1  0  0  0  0
 11 12  2  0  0  0  0
 15 23  1  0  0  0  0
 15 16  1  0  0  0  0
 16 19  1  0  0  0  0
 19 22  1  0  0  0  0
 22  2  1  1  0  0  0
 22 23  1  0  0  0  0
 23 24  1  1  0  0  0
 24 25  1  0  0  0  0
 25 26  1  0  0  0  0
M  CHG  2  13  -1  18  -1
M  END
>  <CHROM.1>
-73.46195117,90.62460331,3.70000193,-75.20434462,-73.86034966,164.29409027
69.99984061,45.79976585,-4.27433307,-40.48197695,11.47864332,-0.92267554
-1.08681762,-2.48458685

>  <Name>
ligand

>  <RI>
0

>  <Rbt.Current_Directory>
/home/itssahil/PROJECTS/Mol_Feturizer/New_Systems/rnas/3D2G

>  <Rbt.Executable>
rbdock ($Id: //depot/dev/client3/rdock/2013.1/src/exe/rbdock.cxx#4 $)

>  <Rbt.Library>
libRbt.so (2013.1, Build901 2013/11/27)

>  <Rbt.Parameter_File>
/export/apps/rDock/src/rDock_2013.1_src/data/scripts/dock_solv.prm

>  <Rbt.Receptor>
prm/blind_docking_80.prm

>  <SCORE>
-19.5296

>  <SCORE.INTER>
-18.4883

>  <SCORE.INTER.CONST>
1

>  <SCORE.INTER.POLAR>
0

>  <SCORE.INTER.ROT>
8

>  <SCORE.INTER.SOLV>
16.1454

>  <SCORE.INTER.VDW>
-26.6407

>  <SCORE.INTER.norm>
-0.71109

>  <SCORE.INTRA>
-1.04126

>  <SCORE.INTRA.DIHEDRAL>
-1.64966

>  <SCORE.INTRA.DIHEDRAL.0>
9.09364

>  <SCORE.INTRA.POLAR>
0

>  <SCORE.INTRA.POLAR.0>
0

>  <SCORE.INTRA.REPUL>
0

>  <SCORE.INTRA.REPUL.0>
0

>  <SCORE.INTRA.SOLV>
-0.702769

>  <SCORE.INTRA.SOLV.lig_0>
-78.5846

>  <SCORE.INTRA.VDW>
0.134952

>  <SCORE.INTRA.VDW.0>
-2.81163

>  <SCORE.INTRA.norm>
-0.0400485

>  <SCORE.RESTR>
0

>  <SCORE.RESTR.CAVITY>
0

>  <SCORE.RESTR.norm>
0

>  <SCORE.SYSTEM>
0

>  <SCORE.SYSTEM.CONST>
0

>  <SCORE.SYSTEM.DIHEDRAL>
0

>  <SCORE.SYSTEM.SOLV>
0

>  <SCORE.SYSTEM.norm>
0

>  <SCORE.heavy>
26

>  <SCORE.norm>
-0.751138

>  <RMSD>
8.864

$$$$
ligand
 OpenBabel11021811463D
libRbt.so/2013.1/901 2013/11/27
 26 27  0  0  0  0  0  0  0  0999 V2000
    0.4417  -46.6729    6.5794 C   0  0  0  0  0  0  0  0  0  0  0  0
   -6.8009  -45.1192    7.2953 C   0  0  0  0  0  0  0  0  0  0  0  0
   -4.5931  -41.0004    9.4962 P   0  0  1  0  0  0  0  0  0  0  0  0
   -5.2267  -39.0096   11.2790 P   0  0  2  0  0  0  0  0  0  0  0  0
   -5.0878  -47.6940    7.7290 C   0  0  0  0  0  0  0  0  0  0  0  0
   -2.8228  -46.8312    8.4061 C   0  0  0  0  0  0  0  0  0  0  0  0
   -3.6380  -47.4101    7.4287 C   0  0  0  0  0  0  0  0  0  0  0  0
   -3.1091  -47.7641    6.1845 C   0  0  0  0  0  0  0  0  0  0  0  0
   -3.8783  -48.3236    5.2744 N   0  0  0  0  0  0  0  0  0  0  0  0
   -1.7907  -47.4990    5.9048 N   0  0  0  0  0  0  0  0  0  0  0  0
   -0.9900  -46.9403    6.8811 C   0  0  0  0  0  0  0  0  0  0  0  0
   -1.4978  -46.5930    8.1189 N   0  0  0  0  0  0  0  0  0  0  0  0
   -4.8413  -41.1293    8.0244 O   0  5  0  0  0  0  0  0  0  0  0  0
   -3.8216  -38.5733   11.1481 O   0  0  0  0  0  0  0  0  0  0  0  0
   -5.8634  -45.8960   11.0149 S   0  0  0  0  0  0  0  0  0  0  0  0
   -5.2543  -47.0210   10.0844 C   0  0  0  0  0  0  0  0  0  0  0  0
   -3.1666  -40.9028    9.9072 O   0  0  0  0  0  0  0  0  0  0  0  0
   -5.4297  -39.9012   12.4367 O   0  5  0  0  0  0  0  0  0  0  0  0
   -5.5300  -46.8008    8.7639 N   0  0  0  0  0  0  0  0  0  0  0  0
   -5.4746  -39.7489    9.8988 O   0  0  0  0  0  0  0  0  0  0  0  0
   -6.2591  -37.9470   11.4750 O   0  0  0  0  0  0  0  0  0  0  0  0
   -6.2893  -45.6784    8.5877 C   0  0  1  0  0  0  0  0  0  0  0  0
   -6.5324  -45.0908    9.8037 C   0  0  2  0  0  0  0  0  0  0  0  0
   -7.2967  -43.8411   10.1638 C   0  0  0  0  0  0  0  0  0  0  0  0
   -6.6153  -42.5767    9.6283 C   0  0  0  0  0  0  0  0  0  0  0  0
   -5.3188  -42.2624   10.1028 O   0  0  0  0  0  0  0  0  0  0  0  0
  1 11  1  0  0  0  0
  3 13  1  6  0  0  0
  3 17  2  0  0  0  0
  3 20  1  0  0  0  0
  3 26  1  0  0  0  0
  4 14  1  1  0  0  0
  4 18  1  0  0  0  0
  4 21  2  0  0  0  0
  4 20  1  0  0  0  0
  5 19  1  0  0  0  0
  5  7  1  0  0  0  0
  6  7  2  0  0  0  0
  6 12  1  0  0  0  0
  7  8  1  0  0  0  0
  8  9  1  0  0  0  0
  8 10  2  0  0  0  0
 10 11  1  0  0  0  0
 11 12  2  0  0  0  0
 15 23  1  0  0  0  0
 15 16  1  0  0  0  0
 16 19  1  0  0  0  0
 19 22  1  0  0  0  0
 22  2  1  6  0  0  0
 22 23  1  0  0  0  0
 23 24  1  6  0  0  0
 24 25  1  0  0  0  0
 25 26  1  0  0  0  0
M  CHG  2  13  -1  18  -1
M  END
>  <CHROM.1>
-163.64287157,-79.69273712,25.12787085,59.87506239,113.12778015,-62.49358074
177.03357212,-44.76391168,-4.60245089,-43.68807719,9.18407663,-1.30232854
0.45374724,0.32087906

>  <Name>
ligand

>  <RI>
0

>  <Rbt.Current_Directory>
/home/itssahil/PROJECTS/Mol_Feturizer/New_Systems/rnas/3D2G

>  <Rbt.Executable>
rbdock ($Id: //depot/dev/client3/rdock/2013.1/src/exe/rbdock.cxx#4 $)

>  <Rbt.Library>
libRbt.so (2013.1, Build901 2013/11/27)

>  <Rbt.Parameter_File>
/export/apps/rDock/src/rDock_2013.1_src/data/scripts/dock_solv.prm

>  <Rbt.Receptor>
prm/pocket_docking_8.prm

>  <SCORE>
-14.2512

>  <SCORE.INTER>
-10.9681

>  <SCORE.INTER.CONST>
1

>  <SCORE.INTER.POLAR>
0

>  <SCORE.INTER.ROT>
8

>  <SCORE.INTER.SOLV>
11.0156

>  <SCORE.INTER.VDW>
-19.9172

>  <SCORE.INTER.norm>
-0.421848

>  <SCORE.INTRA>
-3.28311

>  <SCORE.INTRA.DIHEDRAL>
-3.54361

>  <SCORE.INTRA.DIHEDRAL.0>
9.09364

>  <SCORE.INTRA.POLAR>
0

>  <SCORE.INTRA.POLAR.0>
0

>  <SCORE.INTRA.REPUL>
0

>  <SCORE.INTRA.REPUL.0>
0

>  <SCORE.INTRA.SOLV>
-2.70226

>  <SCORE.INTRA.SOLV.lig_0>
-78.5846

>  <SCORE.INTRA.VDW>
-0.160171

>  <SCORE.INTRA.VDW.0>
-2.81163

>  <SCORE.INTRA.norm>
-0.126273

>  <SCORE.RESTR>
0

>  <SCORE.RESTR.CAVITY>
0

>  <SCORE.RESTR.norm>
0

>  <SCORE.SYSTEM>
0

>  <SCORE.SYSTEM.CONST>
0

>  <SCORE.SYSTEM.DIHEDRAL>
0

>  <SCORE.SYSTEM.SOLV>
0

>  <SCORE.SYSTEM.norm>
0

>  <SCORE.heavy>
26

>  <SCORE.norm>
-0.548122

>  <RMSD>
8.868

$$$$
ligand
 OpenBabel11021811463D
libRbt.so/2013.1/901 2013/11/27
 26 27  0  0  0  0  0  0  0  0999 V2000
   -0.9482  -40.3148   10.0913 C   0  0  0  0  0  0  0  0  0  0  0  0
   -7.3119  -43.6180   10.9395 C   0  0  0  0  0  0  0  0  0  0  0  0
   -5.5088  -45.5346    5.6662 P   0  0  1  0  0  0  0  0  0  0  0  0
   -3.2847  -45.4190    4.0590 P   0  0  2  0  0  0  0  0  0  0  0  0
   -4.7062  -43.8184   12.6490 C   0  0  0  0  0  0  0  0  0  0  0  0
   -2.5259  -43.4242   11.4556 C   0  0  0  0  0  0  0  0  0  0  0  0
   -3.7083  -42.9017   11.9885 C   0  0  0  0  0  0  0  0  0  0  0  0
   -3.9915  -41.5375   11.8797 C   0  0  0  0  0  0  0  0  0  0  0  0
   -5.1140  -41.0544   12.3694 N   0  0  0  0  0  0  0  0  0  0  0  0
   -3.0805  -40.6982   11.2861 N   0  0  0  0  0  0  0  0  0  0  0  0
   -1.9224  -41.2254   10.7501 C   0  0  0  0  0  0  0  0  0  0  0  0
   -1.6335  -42.5739   10.8430 N   0  0  0  0  0  0  0  0  0  0  0  0
   -5.6305  -44.0453    5.7749 O   0  5  0  0  0  0  0  0  0  0  0  0
   -3.7117  -44.0227    3.8358 O   0  0  0  0  0  0  0  0  0  0  0  0
   -5.1371  -46.8090   10.3033 S   0  0  0  0  0  0  0  0  0  0  0  0
   -4.4323  -45.9160   11.4025 C   0  0  0  0  0  0  0  0  0  0  0  0
   -6.3628  -46.1814    4.6339 O   0  0  0  0  0  0  0  0  0  0  0  0
   -3.7450  -46.3225    2.9875 O   0  5  0  0  0  0  0  0  0  0  0  0
   -5.1510  -44.7888   11.6873 N   0  0  0  0  0  0  0  0  0  0  0  0
   -3.9551  -45.7517    5.4565 O   0  0  0  0  0  0  0  0  0  0  0  0
   -1.8156  -45.6839    4.1280 O   0  0  0  0  0  0  0  0  0  0  0  0
   -6.2824  -44.7063   10.9254 C   0  0  1  0  0  0  0  0  0  0  0  0
   -6.3684  -45.8049   10.1075 C   0  0  2  0  0  0  0  0  0  0  0  0
   -7.4123  -46.2054    9.0948 C   0  0  0  0  0  0  0  0  0  0  0  0
   -7.0798  -45.6866    7.6912 C   0  0  0  0  0  0  0  0  0  0  0  0
   -5.8294  -46.0367    7.1265 O   0  0  0  0  0  0  0  0  0  0  0  0
  1 11  1  0  0  0  0
  3 13  1  6  0  0  0
  3 17  2  0  0  0  0
  3 20  1  0  0  0  0
  3 26  1  0  0  0  0
  4 14  1  6  0  0  0
  4 18  1  0  0  0  0
  4 21  2  0  0  0  0
  4 20  1  0  0  0  0
  5 19  1  0  0  0  0
  5  7  1  0  0  0  0
  6  7  2  0  0  0  0
  6 12  1  0  0  0  0
  7  8  1  0  0  0  0
  8  9  1  0  0  0  0
  8 10  2  0  0  0  0
 10 11  1  0  0  0  0
 11 12  2  0  0  0  0
 15 23  1  0  0  0  0
 15 16  1  0  0  0  0
 16 19  1  0  0  0  0
 19 22  1  0  0  0  0
 22  2  1  1  0  0  0
 22 23  1  0  0  0  0
 23 24  1  1  0  0  0
 24 25  1  0  0  0  0
 25 26  1  0  0  0  0
M  CHG  2  13  -1  18  -1
M  END
>  <CHROM.1>
-74.58064768,82.11199467,-60.26493125,53.82687289,-89.28741243,56.15381786
178.30039418,57.92536242,-4.51451971,-44.49460180,8.35267849,-1.51030951
-0.70428639,-1.91575825

>  <Name>
ligand

>  <RI>
0

>  <Rbt.Current_Directory>
/home/itssahil/PROJECTS/Mol_Feturizer/New_Systems/rnas/3D2G

>  <Rbt.Executable>
rbdock ($Id: //depot/dev/client3/rdock/2013.1/src/exe/rbdock.cxx#4 $)

>  <Rbt.Library>
libRbt.so (2013.1, Build901 2013/11/27)

>  <Rbt.Parameter_File>
/export/apps/rDock/src/rDock_2013.1_src/data/scripts/dock_solv.prm

>  <Rbt.Receptor>
prm/pocket_docking_6.prm

>  <SCORE>
-16.0984

>  <SCORE.INTER>
-12.8701

>  <SCORE.INTER.CONST>
1

>  <SCORE.INTER.POLAR>
0

>  <SCORE.INTER.ROT>
8

>  <SCORE.INTER.SOLV>
7.2633

>  <SCORE.INTER.VDW>
-19.9345

>  <SCORE.INTER.norm>
-0.495004

>  <SCORE.INTRA>
-3.22829

>  <SCORE.INTRA.DIHEDRAL>
-3.85134

>  <SCORE.INTRA.DIHEDRAL.0>
9.09364

>  <SCORE.INTRA.POLAR>
0

>  <SCORE.INTRA.POLAR.0>
0

>  <SCORE.INTRA.REPUL>
0

>  <SCORE.INTRA.REPUL.0>
0

>  <SCORE.INTRA.SOLV>
-0.923574

>  <SCORE.INTRA.SOLV.lig_0>
-78.5846

>  <SCORE.INTRA.VDW>
-0.840831

>  <SCORE.INTRA.VDW.0>
-2.81163

>  <SCORE.INTRA.norm>
-0.124165

>  <SCORE.RESTR>
0

>  <SCORE.RESTR.CAVITY>
0

>  <SCORE.RESTR.norm>
0

>  <SCORE.SYSTEM>
0

>  <SCORE.SYSTEM.CONST>
0

>  <SCORE.SYSTEM.DIHEDRAL>
0

>  <SCORE.SYSTEM.SOLV>
0

>  <SCORE.SYSTEM.norm>
0

>  <SCORE.heavy>
26

>  <SCORE.norm>
-0.619168

>  <RMSD>
8.874

$$$$
ligand
 OpenBabel11021811463D
libRbt.so/2013.1/901 2013/11/27
 26 27  0  0  0  0  0  0  0  0999 V2000
   -3.8342  -40.5042   12.6396 C   0  0  0  0  0  0  0  0  0  0  0  0
   -7.9557  -45.6280    9.0892 C   0  0  0  0  0  0  0  0  0  0  0  0
   -6.9647  -43.4889    5.6194 P   0  0  1  0  0  0  0  0  0  0  0  0
   -8.2489  -41.0625    5.6999 P   0  0  2  0  0  0  0  0  0  0  0  0
   -6.4670  -45.5398   11.8330 C   0  0  0  0  0  0  0  0  0  0  0  0
   -4.6072  -44.1631   12.8226 C   0  0  0  0  0  0  0  0  0  0  0  0
   -5.7783  -44.2183   12.0606 C   0  0  0  0  0  0  0  0  0  0  0  0
   -6.2965  -43.0604   11.4743 C   0  0  0  0  0  0  0  0  0  0  0  0
   -7.3906  -43.1218   10.7446 N   0  0  0  0  0  0  0  0  0  0  0  0
   -5.6762  -41.8534   11.6868 N   0  0  0  0  0  0  0  0  0  0  0  0
   -4.5124  -41.8110   12.4286 C   0  0  0  0  0  0  0  0  0  0  0  0
   -3.9841  -42.9497   13.0072 N   0  0  0  0  0  0  0  0  0  0  0  0
   -7.6497  -43.8741    4.3439 O   0  5  0  0  0  0  0  0  0  0  0  0
   -6.9099  -40.4494    5.8135 O   0  0  0  0  0  0  0  0  0  0  0  0
   -4.3957  -47.2540    9.1121 S   0  0  0  0  0  0  0  0  0  0  0  0
   -4.7155  -46.6939   10.5565 C   0  0  0  0  0  0  0  0  0  0  0  0
   -5.5949  -42.9263    5.4755 O   0  0  0  0  0  0  0  0  0  0  0  0
   -9.2734  -40.3105    6.4490 O   0  5  0  0  0  0  0  0  0  0  0  0
   -5.9569  -46.1258   10.6243 N   0  0  0  0  0  0  0  0  0  0  0  0
   -8.0038  -42.5088    6.3011 O   0  0  0  0  0  0  0  0  0  0  0  0
   -8.8361  -41.1779    4.3306 O   0  0  0  0  0  0  0  0  0  0  0  0
   -6.5936  -46.1600    9.4157 C   0  0  1  0  0  0  0  0  0  0  0  0
   -5.7930  -46.7810    8.4903 C   0  0  2  0  0  0  0  0  0  0  0  0
   -6.0210  -47.0867    7.0308 C   0  0  0  0  0  0  0  0  0  0  0  0
   -6.0330  -45.8164    6.1729 C   0  0  0  0  0  0  0  0  0  0  0  0
   -6.9932  -44.8184    6.4674 O   0  0  0  0  0  0  0  0  0  0  0  0
  1 11  1  0  0  0  0
  3 13  1  6  0  0  0
  3 17  2  0  0  0  0
  3 20  1  0  0  0  0
  3 26  1  0  0  0  0
  4 14  1  6  0  0  0
  4 18  1  0  0  0  0
  4 21  2  0  0  0  0
  4 20  1  0  0  0  0
  5 19  1  0  0  0  0
  5  7  1  0  0  0  0
  6  7  2  0  0  0  0
  6 12  1  0  0  0  0
  7  8  1  0  0  0  0
  8  9  1  0  0  0  0
  8 10  2  0  0  0  0
 10 11  1  0  0  0  0
 11 12  2  0  0  0  0
 15 23  1  0  0  0  0
 15 16  1  0  0  0  0
 16 19  1  0  0  0  0
 19 22  1  0  0  0  0
 22  2  1  1  0  0  0
 22 23  1  0  0  0  0
 23 24  1  1  0  0  0
 24 25  1  0  0  0  0
 25 26  1  0  0  0  0
M  CHG  2  13  -1  18  -1
M  END
>  <CHROM.1>
-71.11034539,74.41362603,-91.12996005,-60.95333895,-111.30602216,-59.15449732
177.61652608,79.42218898,-6.41611880,-43.76150603,8.41704839,0.16597029,-1.16985919
0.54052855

>  <Name>
ligand

>  <RI>
0

>  <Rbt.Current_Directory>
/home/itssahil/PROJECTS/Mol_Feturizer/New_Systems/rnas/3D2G

>  <Rbt.Executable>
rbdock ($Id: //depot/dev/client3/rdock/2013.1/src/exe/rbdock.cxx#4 $)

>  <Rbt.Library>
libRbt.so (2013.1, Build901 2013/11/27)

>  <Rbt.Parameter_File>
/export/apps/rDock/src/rDock_2013.1_src/data/scripts/dock_solv.prm

>  <Rbt.Receptor>
prm/pocket_docking_7.prm

>  <SCORE>
-13.5179

>  <SCORE.INTER>
-11.1486

>  <SCORE.INTER.CONST>
1

>  <SCORE.INTER.POLAR>
0

>  <SCORE.INTER.ROT>
8

>  <SCORE.INTER.SOLV>
18.2434

>  <SCORE.INTER.VDW>
-22.4468

>  <SCORE.INTER.norm>
-0.428791

>  <SCORE.INTRA>
-2.36939

>  <SCORE.INTRA.DIHEDRAL>
-4.18042

>  <SCORE.INTRA.DIHEDRAL.0>
9.09364

>  <SCORE.INTRA.POLAR>
0

>  <SCORE.INTRA.POLAR.0>
0

>  <SCORE.INTRA.REPUL>
0

>  <SCORE.INTRA.REPUL.0>
0

>  <SCORE.INTRA.SOLV>
0.951009

>  <SCORE.INTRA.SOLV.lig_0>
-78.5846

>  <SCORE.INTRA.VDW>
-0.754681

>  <SCORE.INTRA.VDW.0>
-2.81163

>  <SCORE.INTRA.norm>
-0.0911302

>  <SCORE.RESTR>
0

>  <SCORE.RESTR.CAVITY>
0

>  <SCORE.RESTR.norm>
0

>  <SCORE.SYSTEM>
0

>  <SCORE.SYSTEM.CONST>
0

>  <SCORE.SYSTEM.DIHEDRAL>
0

>  <SCORE.SYSTEM.SOLV>
0

>  <SCORE.SYSTEM.norm>
0

>  <SCORE.heavy>
26

>  <SCORE.norm>
-0.519921

>  <RMSD>
8.880

$$$$
ligand
 OpenBabel11021811463D
libRbt.so/2013.1/901 2013/11/27
 26 27  0  0  0  0  0  0  0  0999 V2000
   -0.9554  -40.2675   10.0418 C   0  0  0  0  0  0  0  0  0  0  0  0
   -7.3064  -43.6737   11.0158 C   0  0  0  0  0  0  0  0  0  0  0  0
   -6.8128  -43.8514    6.0908 P   0  0  1  0  0  0  0  0  0  0  0  0
   -6.9351  -41.2356    6.9188 P   0  0  2  0  0  0  0  0  0  0  0  0
   -4.6593  -43.7769   12.6695 C   0  0  0  0  0  0  0  0  0  0  0  0
   -2.4827  -43.3720   11.4728 C   0  0  0  0  0  0  0  0  0  0  0  0
   -3.6756  -42.8582   11.9906 C   0  0  0  0  0  0  0  0  0  0  0  0
   -3.9821  -41.5020   11.8500 C   0  0  0  0  0  0  0  0  0  0  0  0
   -5.1143  -41.0275   12.3256 N   0  0  0  0  0  0  0  0  0  0  0  0
   -3.0841  -40.6607   11.2396 N   0  0  0  0  0  0  0  0  0  0  0  0
   -1.9155  -41.1797   10.7187 C   0  0  0  0  0  0  0  0  0  0  0  0
   -1.6034  -42.5205   10.8432 N   0  0  0  0  0  0  0  0  0  0  0  0
   -7.7110  -44.6849    5.2289 O   0  5  0  0  0  0  0  0  0  0  0  0
   -5.5217  -41.1245    6.5045 O   0  0  0  0  0  0  0  0  0  0  0  0
   -5.0456  -46.7999   10.3577 S   0  0  0  0  0  0  0  0  0  0  0  0
   -4.3459  -45.8756   11.4340 C   0  0  0  0  0  0  0  0  0  0  0  0
   -5.3647  -43.8962    5.7524 O   0  0  0  0  0  0  0  0  0  0  0  0
   -7.0742  -41.5474    8.3540 O   0  5  0  0  0  0  0  0  0  0  0  0
   -5.0937  -44.7692   11.7255 N   0  0  0  0  0  0  0  0  0  0  0  0
   -7.4608  -42.4106    5.9936 O   0  0  0  0  0  0  0  0  0  0  0  0
   -7.7983  -40.0287    6.7414 O   0  0  0  0  0  0  0  0  0  0  0  0
   -6.2433  -44.7291   10.9878 C   0  0  1  0  0  0  0  0  0  0  0  0
   -6.3121  -45.8369   10.1808 C   0  0  2  0  0  0  0  0  0  0  0  0
   -7.3644  -46.2790    9.1945 C   0  0  0  0  0  0  0  0  0  0  0  0
   -7.0749  -45.7685    7.7784 C   0  0  0  0  0  0  0  0  0  0  0  0
   -7.1161  -44.3720    7.5484 O   0  0  0  0  0  0  0  0  0  0  0  0
  1 11  1  0  0  0  0
  3 13  1  6  0  0  0
  3 17  2  0  0  0  0
  3 20  1  0  0  0  0
  3 26  1  0  0  0  0
  4 14  1  6  0  0  0
  4 18  1  0  0  0  0
  4 21  2  0  0  0  0
  4 20  1  0  0  0  0
  5 19  1  0  0  0  0
  5  7  1  0  0  0  0
  6  7  2  0  0  0  0
  6 12  1  0  0  0  0
  7  8  1  0  0  0  0
  8  9  1  0  0  0  0
  8 10  2  0  0  0  0
 10 11  1  0  0  0  0
 11 12  2  0  0  0  0
 15 23  1  0  0  0  0
 15 16  1  0  0  0  0
 16 19  1  0  0  0  0
 19 22  1  0  0  0  0
 22  2  1  1  0  0  0
 22 23  1  0  0  0  0
 23 24  1  1  0  0  0
 24 25  1  0  0  0  0
 25 26  1  0  0  0  0
M  CHG  2  13  -1  18  -1
M  END
>  <CHROM.1>
171.86067597,80.52743783,-60.79122348,60.86847292,-88.97813766,-65.41724981
179.80104093,50.38771687,-5.51062295,-43.29001283,9.07578372,-0.39154009
-0.87965464,-0.54998564

>  <Name>
ligand

>  <RI>
0

>  <Rbt.Current_Directory>
/home/itssahil/PROJECTS/Mol_Feturizer/New_Systems/rnas/3D2G

>  <Rbt.Executable>
rbdock ($Id: //depot/dev/client3/rdock/2013.1/src/exe/rbdock.cxx#4 $)

>  <Rbt.Library>
libRbt.so (2013.1, Build901 2013/11/27)

>  <Rbt.Parameter_File>
/export/apps/rDock/src/rDock_2013.1_src/data/scripts/dock_solv.prm

>  <Rbt.Receptor>
prm/pocket_docking_8.prm

>  <SCORE>
-18.9916

>  <SCORE.INTER>
-15.3013

>  <SCORE.INTER.CONST>
1

>  <SCORE.INTER.POLAR>
0

>  <SCORE.INTER.ROT>
8

>  <SCORE.INTER.SOLV>
9.36297

>  <SCORE.INTER.VDW>
-22.2552

>  <SCORE.INTER.norm>
-0.588512

>  <SCORE.INTRA>
-3.69035

>  <SCORE.INTRA.DIHEDRAL>
-3.67488

>  <SCORE.INTRA.DIHEDRAL.0>
9.09364

>  <SCORE.INTRA.POLAR>
0

>  <SCORE.INTRA.POLAR.0>
0

>  <SCORE.INTRA.REPUL>
0

>  <SCORE.INTRA.REPUL.0>
0

>  <SCORE.INTRA.SOLV>
-1.07629

>  <SCORE.INTRA.SOLV.lig_0>
-78.5846

>  <SCORE.INTRA.VDW>
-1.31476

>  <SCORE.INTRA.VDW.0>
-2.81163

>  <SCORE.INTRA.norm>
-0.141936

>  <SCORE.RESTR>
0

>  <SCORE.RESTR.CAVITY>
0

>  <SCORE.RESTR.norm>
0

>  <SCORE.SYSTEM>
0

>  <SCORE.SYSTEM.CONST>
0

>  <SCORE.SYSTEM.DIHEDRAL>
0

>  <SCORE.SYSTEM.SOLV>
0

>  <SCORE.SYSTEM.norm>
0

>  <SCORE.heavy>
26

>  <SCORE.norm>
-0.730448

>  <RMSD>
8.896

$$$$
ligand
 OpenBabel11021811463D
libRbt.so/2013.1/901 2013/11/27
 26 27  0  0  0  0  0  0  0  0999 V2000
   -0.3960  -33.9028    8.8590 C   0  0  0  0  0  0  0  0  0  0  0  0
   -5.4900  -38.4467   11.3228 C   0  0  0  0  0  0  0  0  0  0  0  0
   -5.4841  -43.2580   12.1362 P   0  0  1  0  0  0  0  0  0  0  0  0
   -3.3217  -42.6094   10.5722 P   0  0  2  0  0  0  0  0  0  0  0  0
   -4.7282  -35.5601   12.2391 C   0  0  0  0  0  0  0  0  0  0  0  0
   -2.6705  -36.0789   10.8863 C   0  0  0  0  0  0  0  0  0  0  0  0
   -3.5798  -35.1295   11.3625 C   0  0  0  0  0  0  0  0  0  0  0  0
   -3.4547  -33.7856   11.0003 C   0  0  0  0  0  0  0  0  0  0  0  0
   -4.3236  -32.8992   11.4390 N   0  0  0  0  0  0  0  0  0  0  0  0
   -2.4047  -33.3887   10.2087 N   0  0  0  0  0  0  0  0  0  0  0  0
   -1.5201  -34.3354    9.7315 C   0  0  0  0  0  0  0  0  0  0  0  0
   -1.6368  -35.6692   10.0748 N   0  0  0  0  0  0  0  0  0  0  0  0
   -6.7384  -44.0304   11.8631 O   0  5  0  0  0  0  0  0  0  0  0  0
   -2.5437  -42.9540   11.7796 O   0  0  0  0  0  0  0  0  0  0  0  0
   -3.3365  -38.2424   14.5844 S   0  0  0  0  0  0  0  0  0  0  0  0
   -3.5994  -36.7776   14.0482 C   0  0  0  0  0  0  0  0  0  0  0  0
   -4.7398  -43.6434   13.3655 O   0  0  0  0  0  0  0  0  0  0  0  0
   -3.5641  -41.1586   10.4587 O   0  5  0  0  0  0  0  0  0  0  0  0
   -4.3644  -36.7745   12.9155 N   0  0  0  0  0  0  0  0  0  0  0  0
   -4.6607  -43.4281   10.7952 O   0  0  0  0  0  0  0  0  0  0  0  0
   -2.7266  -42.9656    9.2485 O   0  0  0  0  0  0  0  0  0  0  0  0
   -4.6817  -38.0428   12.5180 C   0  0  1  0  0  0  0  0  0  0  0  0
   -4.1472  -38.9492   13.3987 C   0  0  2  0  0  0  0  0  0  0  0  0
   -4.2112  -40.4561   13.4287 C   0  0  0  0  0  0  0  0  0  0  0  0
   -5.6482  -40.9727   13.2948 C   0  0  0  0  0  0  0  0  0  0  0  0
   -5.9745  -41.7593   12.1635 O   0  0  0  0  0  0  0  0  0  0  0  0
  1 11  1  0  0  0  0
  3 13  1  6  0  0  0
  3 17  2  0  0  0  0
  3 20  1  0  0  0  0
  3 26  1  0  0  0  0
  4 14  1  1  0  0  0
  4 18  1  0  0  0  0
  4 21  2  0  0  0  0
  4 20  1  0  0  0  0
  5 19  1  0  0  0  0
  5  7  1  0  0  0  0
  6  7  2  0  0  0  0
  6 12  1  0  0  0  0
  7  8  1  0  0  0  0
  8  9  1  0  0  0  0
  8 10  2  0  0  0  0
 10 11  1  0  0  0  0
 11 12  2  0  0  0  0
 15 23  1  0  0  0  0
 15 16  1  0  0  0  0
 16 19  1  0  0  0  0
 19 22  1  0  0  0  0
 22  2  1  1  0  0  0
 22 23  1  0  0  0  0
 23 24  1  1  0  0  0
 24 25  1  0  0  0  0
 25 26  1  0  0  0  0
M  CHG  2  13  -1  18  -1
M  END
>  <CHROM.1>
172.26786246,81.68025574,25.66301882,53.82328068,128.89030136,117.05692935
75.69590061,126.91666644,-3.89802245,-39.20179067,11.75620600,-1.16646693
-0.97319427,-2.89109662

>  <Name>
ligand

>  <RI>
0

>  <Rbt.Current_Directory>
/home/itssahil/PROJECTS/Mol_Feturizer/New_Systems/rnas/3D2G

>  <Rbt.Executable>
rbdock ($Id: //depot/dev/client3/rdock/2013.1/src/exe/rbdock.cxx#4 $)

>  <Rbt.Library>
libRbt.so (2013.1, Build901 2013/11/27)

>  <Rbt.Parameter_File>
/export/apps/rDock/src/rDock_2013.1_src/data/scripts/dock_solv.prm

>  <Rbt.Receptor>
prm/blind_docking_80.prm

>  <SCORE>
-16.3178

>  <SCORE.INTER>
-17.568

>  <SCORE.INTER.CONST>
1

>  <SCORE.INTER.POLAR>
0

>  <SCORE.INTER.ROT>
8

>  <SCORE.INTER.SOLV>
14.0979

>  <SCORE.INTER.VDW>
-25.3446

>  <SCORE.INTER.norm>
-0.675691

>  <SCORE.INTRA>
1.25012

>  <SCORE.INTRA.DIHEDRAL>
4.4579

>  <SCORE.INTRA.DIHEDRAL.0>
9.09364

>  <SCORE.INTRA.POLAR>
0

>  <SCORE.INTRA.POLAR.0>
0

>  <SCORE.INTRA.REPUL>
0

>  <SCORE.INTRA.REPUL.0>
0

>  <SCORE.INTRA.SOLV>
-0.399606

>  <SCORE.INTRA.SOLV.lig_0>
-78.5846

>  <SCORE.INTRA.VDW>
-0.779024

>  <SCORE.INTRA.VDW.0>
-2.81163

>  <SCORE.INTRA.norm>
0.0480816

>  <SCORE.RESTR>
0

>  <SCORE.RESTR.CAVITY>
0

>  <SCORE.RESTR.norm>
0

>  <SCORE.SYSTEM>
0

>  <SCORE.SYSTEM.CONST>
0

>  <SCORE.SYSTEM.DIHEDRAL>
0

>  <SCORE.SYSTEM.SOLV>
0

>  <SCORE.SYSTEM.norm>
0

>  <SCORE.heavy>
26

>  <SCORE.norm>
-0.627609

>  <RMSD>
8.898

$$$$
ligand
 OpenBabel11021811463D
libRbt.so/2013.1/901 2013/11/27
 26 27  0  0  0  0  0  0  0  0999 V2000
   -0.5207  -41.4683   10.4511 C   0  0  0  0  0  0  0  0  0  0  0  0
   -4.9940  -46.6620   10.4627 C   0  0  0  0  0  0  0  0  0  0  0  0
   -6.6486  -44.1028    5.1269 P   0  0  1  0  0  0  0  0  0  0  0  0
   -4.1967  -43.3010    4.1844 P   0  0  2  0  0  0  0  0  0  0  0  0
   -5.2050  -44.1850   12.3528 C   0  0  0  0  0  0  0  0  0  0  0  0
   -2.9196  -44.2150   11.2995 C   0  0  0  0  0  0  0  0  0  0  0  0
   -3.9658  -43.4791   11.8642 C   0  0  0  0  0  0  0  0  0  0  0  0
   -3.8883  -42.0861   11.9452 C   0  0  0  0  0  0  0  0  0  0  0  0
   -4.8836  -41.3978   12.4635 N   0  0  0  0  0  0  0  0  0  0  0  0
   -2.7570  -41.4406   11.5089 N   0  0  0  0  0  0  0  0  0  0  0  0
   -1.7353  -42.1743   10.9395 C   0  0  0  0  0  0  0  0  0  0  0  0
   -1.8022  -43.5516   10.8453 N   0  0  0  0  0  0  0  0  0  0  0  0
   -7.1517  -42.6936    5.0519 O   0  5  0  0  0  0  0  0  0  0  0  0
   -4.3842  -44.2800    3.0943 O   0  0  0  0  0  0  0  0  0  0  0  0
   -7.8830  -44.1593    9.6216 S   0  0  0  0  0  0  0  0  0  0  0  0
   -7.0973  -43.6318   10.8892 C   0  0  0  0  0  0  0  0  0  0  0  0
   -7.0092  -44.9819    3.9820 O   0  0  0  0  0  0  0  0  0  0  0  0
   -2.7818  -43.1700    4.5809 O   0  5  0  0  0  0  0  0  0  0  0  0
   -6.0588  -44.4531   11.2287 N   0  0  0  0  0  0  0  0  0  0  0  0
   -5.0915  -43.9154    5.3398 O   0  0  0  0  0  0  0  0  0  0  0  0
   -4.6138  -41.8909    3.9185 O   0  0  0  0  0  0  0  0  0  0  0  0
   -5.9836  -45.5387   10.4021 C   0  0  1  0  0  0  0  0  0  0  0  0
   -6.9737  -45.4662    9.4548 C   0  0  2  0  0  0  0  0  0  0  0  0
   -7.3204  -46.3892    8.3130 C   0  0  0  0  0  0  0  0  0  0  0  0
   -6.7707  -45.8801    6.9757 C   0  0  0  0  0  0  0  0  0  0  0  0
   -7.2203  -44.6241    6.5012 O   0  0  0  0  0  0  0  0  0  0  0  0
  1 11  1  0  0  0  0
  3 13  1  6  0  0  0
  3 17  2  0  0  0  0
  3 20  1  0  0  0  0
  3 26  1  0  0  0  0
  4 14  1  6  0  0  0
  4 18  1  0  0  0  0
  4 21  2  0  0  0  0
  4 20  1  0  0  0  0
  5 19  1  0  0  0  0
  5  7  1  0  0  0  0
  6  7  2  0  0  0  0
  6 12  1  0  0  0  0
  7  8  1  0  0  0  0
  8  9  1  0  0  0  0
  8 10  2  0  0  0  0
 10 11  1  0  0  0  0
 11 12  2  0  0  0  0
 15 23  1  0  0  0  0
 15 16  1  0  0  0  0
 16 19  1  0  0  0  0
 19 22  1  0  0  0  0
 22  2  1  6  0  0  0
 22 23  1  0  0  0  0
 23 24  1  6  0  0  0
 24 25  1  0  0  0  0
 25 26  1  0  0  0  0
M  CHG  2  13  -1  18  -1
M  END
>  <CHROM.1>
-67.29165487,-96.50784996,-80.83610368,-61.13219042,79.97417101,-61.21642066
179.82708188,-171.22932427,-5.17024471,-43.81547774,8.09510483,-1.32049353
-0.51133376,-1.53422782

>  <Name>
ligand

>  <RI>
0

>  <Rbt.Current_Directory>
/home/itssahil/PROJECTS/Mol_Feturizer/New_Systems/rnas/3D2G

>  <Rbt.Executable>
rbdock ($Id: //depot/dev/client3/rdock/2013.1/src/exe/rbdock.cxx#4 $)

>  <Rbt.Library>
libRbt.so (2013.1, Build901 2013/11/27)

>  <Rbt.Parameter_File>
/export/apps/rDock/src/rDock_2013.1_src/data/scripts/dock_solv.prm

>  <Rbt.Receptor>
prm/pocket_docking_8.prm

>  <SCORE>
-16.0313

>  <SCORE.INTER>
-11.9775

>  <SCORE.INTER.CONST>
1

>  <SCORE.INTER.POLAR>
0

>  <SCORE.INTER.ROT>
8

>  <SCORE.INTER.SOLV>
9.95978

>  <SCORE.INTER.VDW>
-20.2383

>  <SCORE.INTER.norm>
-0.460675

>  <SCORE.INTRA>
-4.0538

>  <SCORE.INTRA.DIHEDRAL>
-4.01486

>  <SCORE.INTRA.DIHEDRAL.0>
9.09364

>  <SCORE.INTRA.POLAR>
0

>  <SCORE.INTRA.POLAR.0>
0

>  <SCORE.INTRA.REPUL>
0

>  <SCORE.INTRA.REPUL.0>
0

>  <SCORE.INTRA.SOLV>
-1.6012

>  <SCORE.INTRA.SOLV.lig_0>
-78.5846

>  <SCORE.INTRA.VDW>
-1.24577

>  <SCORE.INTRA.VDW.0>
-2.81163

>  <SCORE.INTRA.norm>
-0.155915

>  <SCORE.RESTR>
0

>  <SCORE.RESTR.CAVITY>
0

>  <SCORE.RESTR.norm>
0

>  <SCORE.SYSTEM>
0

>  <SCORE.SYSTEM.CONST>
0

>  <SCORE.SYSTEM.DIHEDRAL>
0

>  <SCORE.SYSTEM.SOLV>
0

>  <SCORE.SYSTEM.norm>
0

>  <SCORE.heavy>
26

>  <SCORE.norm>
-0.61659

>  <RMSD>
8.899

$$$$
ligand
 OpenBabel11021811463D
libRbt.so/2013.1/901 2013/11/27
 26 27  0  0  0  0  0  0  0  0999 V2000
   -0.3495  -33.6396    8.8278 C   0  0  0  0  0  0  0  0  0  0  0  0
   -5.7313  -38.1469   11.3893 C   0  0  0  0  0  0  0  0  0  0  0  0
   -5.0924  -43.2723   12.0996 P   0  0  1  0  0  0  0  0  0  0  0  0
   -4.5401  -44.9936   10.0320 P   0  0  2  0  0  0  0  0  0  0  0  0
   -4.5547  -35.4052   12.3118 C   0  0  0  0  0  0  0  0  0  0  0  0
   -2.6526  -35.8909   10.7372 C   0  0  0  0  0  0  0  0  0  0  0  0
   -3.4394  -34.9484   11.4062 C   0  0  0  0  0  0  0  0  0  0  0  0
   -3.2245  -33.5812   11.2123 C   0  0  0  0  0  0  0  0  0  0  0  0
   -3.9792  -32.6989   11.8328 N   0  0  0  0  0  0  0  0  0  0  0  0
   -2.2036  -33.1618   10.3945 N   0  0  0  0  0  0  0  0  0  0  0  0
   -1.4413  -34.0996    9.7269 C   0  0  0  0  0  0  0  0  0  0  0  0
   -1.6483  -35.4549    9.9029 N   0  0  0  0  0  0  0  0  0  0  0  0
   -6.1535  -42.7812   11.1629 O   0  5  0  0  0  0  0  0  0  0  0  0
   -5.8896  -44.8227    9.4563 O   0  0  0  0  0  0  0  0  0  0  0  0
   -3.0834  -38.3470   14.2643 S   0  0  0  0  0  0  0  0  0  0  0  0
   -3.2816  -36.8330   13.8511 C   0  0  0  0  0  0  0  0  0  0  0  0
   -5.4202  -43.1949   13.5488 O   0  0  0  0  0  0  0  0  0  0  0  0
   -3.9880  -46.3370    9.7734 O   0  5  0  0  0  0  0  0  0  0  0  0
   -4.2108  -36.6884   12.8591 N   0  0  0  0  0  0  0  0  0  0  0  0
   -4.8022  -44.7368   11.5742 O   0  0  0  0  0  0  0  0  0  0  0  0
   -3.4653  -44.0775    9.5432 O   0  0  0  0  0  0  0  0  0  0  0  0
   -4.7098  -37.8949   12.4560 C   0  0  1  0  0  0  0  0  0  0  0  0
   -4.1356  -38.9005   13.1923 C   0  0  2  0  0  0  0  0  0  0  0  0
   -4.3422  -40.3944   13.1575 C   0  0  0  0  0  0  0  0  0  0  0  0
   -3.9339  -40.9995   11.8096 C   0  0  0  0  0  0  0  0  0  0  0  0
   -3.8314  -42.4083   11.7113 O   0  0  0  0  0  0  0  0  0  0  0  0
  1 11  1  0  0  0  0
  3 13  1  6  0  0  0
  3 17  2  0  0  0  0
  3 20  1  0  0  0  0
  3 26  1  0  0  0  0
  4 14  1  6  0  0  0
  4 18  1  0  0  0  0
  4 21  2  0  0  0  0
  4 20  1  0  0  0  0
  5 19  1  0  0  0  0
  5  7  1  0  0  0  0
  6  7  2  0  0  0  0
  6 12  1  0  0  0  0
  7  8  1  0  0  0  0
  8  9  1  0  0  0  0
  8 10  2  0  0  0  0
 10 11  1  0  0  0  0
 11 12  2  0  0  0  0
 15 23  1  0  0  0  0
 15 16  1  0  0  0  0
 16 19  1  0  0  0  0
 19 22  1  0  0  0  0
 22  2  1  1  0  0  0
 22 23  1  0  0  0  0
 23 24  1  1  0  0  0
 24 25  1  0  0  0  0
 25 26  1  0  0  0  0
M  CHG  2  13  -1  18  -1
M  END
>  <CHROM.1>
49.06810690,75.01994108,29.26187931,-72.75553637,-117.47937074,168.25664421
55.93704116,58.89058987,-3.94238596,-39.63123144,11.52399118,-1.08176464
-1.12246071,-2.66028580

>  <Name>
ligand

>  <RI>
0

>  <Rbt.Current_Directory>
/home/itssahil/PROJECTS/Mol_Feturizer/New_Systems/rnas/3D2G

>  <Rbt.Executable>
rbdock ($Id: //depot/dev/client3/rdock/2013.1/src/exe/rbdock.cxx#4 $)

>  <Rbt.Library>
libRbt.so (2013.1, Build901 2013/11/27)

>  <Rbt.Parameter_File>
/export/apps/rDock/src/rDock_2013.1_src/data/scripts/dock_solv.prm

>  <Rbt.Receptor>
prm/blind_docking_100.prm

>  <SCORE>
-17.2362

>  <SCORE.INTER>
-15.2745

>  <SCORE.INTER.CONST>
1

>  <SCORE.INTER.POLAR>
0

>  <SCORE.INTER.ROT>
8

>  <SCORE.INTER.SOLV>
14.1613

>  <SCORE.INTER.VDW>
-23.8368

>  <SCORE.INTER.norm>
-0.587482

>  <SCORE.INTRA>
-1.96164

>  <SCORE.INTRA.DIHEDRAL>
-3.66807

>  <SCORE.INTRA.DIHEDRAL.0>
9.09364

>  <SCORE.INTRA.POLAR>
0

>  <SCORE.INTRA.POLAR.0>
0

>  <SCORE.INTRA.REPUL>
0

>  <SCORE.INTRA.REPUL.0>
0

>  <SCORE.INTRA.SOLV>
-0.719072

>  <SCORE.INTRA.SOLV.lig_0>
-78.5846

>  <SCORE.INTRA.VDW>
0.231935

>  <SCORE.INTRA.VDW.0>
-2.81163

>  <SCORE.INTRA.norm>
-0.0754476

>  <SCORE.RESTR>
0

>  <SCORE.RESTR.CAVITY>
0

>  <SCORE.RESTR.norm>
0

>  <SCORE.SYSTEM>
0

>  <SCORE.SYSTEM.CONST>
0

>  <SCORE.SYSTEM.DIHEDRAL>
0

>  <SCORE.SYSTEM.SOLV>
0

>  <SCORE.SYSTEM.norm>
0

>  <SCORE.heavy>
26

>  <SCORE.norm>
-0.662929

>  <RMSD>
8.904

$$$$
ligand
 OpenBabel11021811463D
libRbt.so/2013.1/901 2013/11/27
 26 27  0  0  0  0  0  0  0  0999 V2000
   -5.7390  -48.1854    6.5731 C   0  0  0  0  0  0  0  0  0  0  0  0
   -7.3726  -43.0629    9.2062 C   0  0  0  0  0  0  0  0  0  0  0  0
   -6.8314  -39.0109    6.7549 P   0  0  1  0  0  0  0  0  0  0  0  0
   -7.3284  -36.3672    6.2010 P   0  0  2  0  0  0  0  0  0  0  0  0
   -6.3834  -45.0919   11.3642 C   0  0  0  0  0  0  0  0  0  0  0  0
   -7.3504  -46.3641    9.4200 C   0  0  0  0  0  0  0  0  0  0  0  0
   -6.2213  -45.9169   10.1129 C   0  0  0  0  0  0  0  0  0  0  0  0
   -4.9391  -46.1969    9.6326 C   0  0  0  0  0  0  0  0  0  0  0  0
   -3.8802  -45.7592   10.2810 N   0  0  0  0  0  0  0  0  0  0  0  0
   -4.7878  -46.9555    8.4976 N   0  0  0  0  0  0  0  0  0  0  0  0
   -5.9086  -47.3805    7.8122 C   0  0  0  0  0  0  0  0  0  0  0  0
   -7.1827  -47.1036    8.2712 N   0  0  0  0  0  0  0  0  0  0  0  0
   -7.7322  -39.6361    7.7758 O   0  5  0  0  0  0  0  0  0  0  0  0
   -7.2632  -35.1566    7.0447 O   0  0  0  0  0  0  0  0  0  0  0  0
   -4.3980  -41.8230   11.4269 S   0  0  0  0  0  0  0  0  0  0  0  0
   -4.8067  -43.2820   11.8813 C   0  0  0  0  0  0  0  0  0  0  0  0
   -7.2084  -39.2352    5.3332 O   0  0  0  0  0  0  0  0  0  0  0  0
   -8.6962  -36.6410    5.7208 O   0  5  0  0  0  0  0  0  0  0  0  0
   -5.8331  -43.7851   11.1318 N   0  0  0  0  0  0  0  0  0  0  0  0
   -6.8013  -37.4892    7.1891 O   0  0  0  0  0  0  0  0  0  0  0  0
   -6.5137  -36.3744    4.9483 O   0  0  0  0  0  0  0  0  0  0  0  0
   -6.2649  -42.8846   10.1991 C   0  0  1  0  0  0  0  0  0  0  0  0
   -5.5146  -41.7386   10.2829 C   0  0  2  0  0  0  0  0  0  0  0  0
   -5.5691  -40.4595    9.4850 C   0  0  0  0  0  0  0  0  0  0  0  0
   -5.3496  -40.7065    7.9882 C   0  0  0  0  0  0  0  0  0  0  0  0
   -5.4111  -39.5973    7.1102 O   0  0  0  0  0  0  0  0  0  0  0  0
  1 11  1  0  0  0  0
  3 13  1  1  0  0  0
  3 17  2  0  0  0  0
  3 20  1  0  0  0  0
  3 26  1  0  0  0  0
  4 14  1  1  0  0  0
  4 18  1  0  0  0  0
  4 21  2  0  0  0  0
  4 20  1  0  0  0  0
  5 19  1  0  0  0  0
  5  7  1  0  0  0  0
  6  7  2  0  0  0  0
  6 12  1  0  0  0  0
  7  8  1  0  0  0  0
  8  9  1  0  0  0  0
  8 10  2  0  0  0  0
 10 11  1  0  0  0  0
 11 12  2  0  0  0  0
 15 23  1  0  0  0  0
 15 16  1  0  0  0  0
 16 19  1  0  0  0  0
 19 22  1  0  0  0  0
 22  2  1  6  0  0  0
 22 23  1  0  0  0  0
 23 24  1  6  0  0  0
 24 25  1  0  0  0  0
 25 26  1  0  0  0  0
M  CHG  2  13  -1  18  -1
M  END
>  <CHROM.1>
-118.87913412,-120.29302577,-115.96498420,173.87034544,120.57726093,178.28796553
-75.76522764,14.04179626,-6.23930566,-41.56458231,8.36554288,1.12230455,1.19383065
-3.06933840

>  <Name>
ligand

>  <RI>
0

>  <Rbt.Current_Directory>
/home/itssahil/PROJECTS/Mol_Feturizer/New_Systems/rnas/3D2G

>  <Rbt.Executable>
rbdock ($Id: //depot/dev/client3/rdock/2013.1/src/exe/rbdock.cxx#4 $)

>  <Rbt.Library>
libRbt.so (2013.1, Build901 2013/11/27)

>  <Rbt.Parameter_File>
/export/apps/rDock/src/rDock_2013.1_src/data/scripts/dock_solv.prm

>  <Rbt.Receptor>
prm/pocket_docking_6.prm

>  <SCORE>
-11.8972

>  <SCORE.INTER>
-14.7386

>  <SCORE.INTER.CONST>
1

>  <SCORE.INTER.POLAR>
0

>  <SCORE.INTER.ROT>
8

>  <SCORE.INTER.SOLV>
17.9969

>  <SCORE.INTER.VDW>
-24.758

>  <SCORE.INTER.norm>
-0.566869

>  <SCORE.INTRA>
2.84143

>  <SCORE.INTRA.DIHEDRAL>
1.21214

>  <SCORE.INTRA.DIHEDRAL.0>
9.09364

>  <SCORE.INTRA.POLAR>
0

>  <SCORE.INTRA.POLAR.0>
0

>  <SCORE.INTRA.REPUL>
0

>  <SCORE.INTRA.REPUL.0>
0

>  <SCORE.INTRA.SOLV>
2.55067

>  <SCORE.INTRA.SOLV.lig_0>
-78.5846

>  <SCORE.INTRA.VDW>
0.960026

>  <SCORE.INTRA.VDW.0>
-2.81163

>  <SCORE.INTRA.norm>
0.109286

>  <SCORE.RESTR>
0

>  <SCORE.RESTR.CAVITY>
0

>  <SCORE.RESTR.norm>
0

>  <SCORE.SYSTEM>
0

>  <SCORE.SYSTEM.CONST>
0

>  <SCORE.SYSTEM.DIHEDRAL>
0

>  <SCORE.SYSTEM.SOLV>
0

>  <SCORE.SYSTEM.norm>
0

>  <SCORE.heavy>
26

>  <SCORE.norm>
-0.457583

>  <RMSD>
8.905

$$$$
ligand
 OpenBabel11021811463D
libRbt.so/2013.1/901 2013/11/27
 26 27  0  0  0  0  0  0  0  0999 V2000
   -0.6691  -44.5802    3.8599 C   0  0  0  0  0  0  0  0  0  0  0  0
   -6.6139  -46.3098    6.3236 C   0  0  0  0  0  0  0  0  0  0  0  0
   -7.3255  -41.5221    8.3989 P   0  0  1  0  0  0  0  0  0  0  0  0
   -8.5413  -39.1413    7.7692 P   0  0  2  0  0  0  0  0  0  0  0  0
   -4.1916  -48.2742    6.4840 C   0  0  0  0  0  0  0  0  0  0  0  0
   -3.8005  -46.3250    4.9410 C   0  0  0  0  0  0  0  0  0  0  0  0
   -3.2710  -47.3097    5.7805 C   0  0  0  0  0  0  0  0  0  0  0  0
   -1.8934  -47.3836    6.0039 C   0  0  0  0  0  0  0  0  0  0  0  0
   -1.4026  -48.3030    6.8081 N   0  0  0  0  0  0  0  0  0  0  0  0
   -1.0512  -46.5118    5.3578 N   0  0  0  0  0  0  0  0  0  0  0  0
   -1.5843  -45.5337    4.5420 C   0  0  0  0  0  0  0  0  0  0  0  0
   -2.9454  -45.4437    4.3188 N   0  0  0  0  0  0  0  0  0  0  0  0
   -7.0431  -41.7547    6.9461 O   0  5  0  0  0  0  0  0  0  0  0  0
   -7.2998  -38.6211    8.3772 O   0  0  0  0  0  0  0  0  0  0  0  0
   -5.2157  -46.9485    9.9228 S   0  0  0  0  0  0  0  0  0  0  0  0
   -4.3733  -47.7948    8.8853 C   0  0  0  0  0  0  0  0  0  0  0  0
   -6.1993  -40.9685    9.1980 O   0  0  0  0  0  0  0  0  0  0  0  0
   -9.7206  -38.3292    8.1244 O   0  5  0  0  0  0  0  0  0  0  0  0
   -4.7989  -47.6040    7.6004 N   0  0  0  0  0  0  0  0  0  0  0  0
   -8.6162  -40.6065    8.3697 O   0  0  0  0  0  0  0  0  0  0  0  0
   -8.6003  -39.2036    6.2773 O   0  0  0  0  0  0  0  0  0  0  0  0
   -5.8659  -46.7521    7.5440 C   0  0  1  0  0  0  0  0  0  0  0  0
   -6.1802  -46.3225    8.8089 C   0  0  2  0  0  0  0  0  0  0  0  0
   -7.2495  -45.3764    9.2955 C   0  0  0  0  0  0  0  0  0  0  0  0
   -6.8125  -43.9111    9.1874 C   0  0  0  0  0  0  0  0  0  0  0  0
   -7.8012  -42.9358    8.9113 O   0  0  0  0  0  0  0  0  0  0  0  0
  1 11  1  0  0  0  0
  3 13  1  6  0  0  0
  3 17  2  0  0  0  0
  3 20  1  0  0  0  0
  3 26  1  0  0  0  0
  4 14  1  1  0  0  0
  4 18  1  0  0  0  0
  4 21  2  0  0  0  0
  4 20  1  0  0  0  0
  5 19  1  0  0  0  0
  5  7  1  0  0  0  0
  6  7  2  0  0  0  0
  6 12  1  0  0  0  0
  7  8  1  0  0  0  0
  8  9  1  0  0  0  0
  8 10  2  0  0  0  0
 10 11  1  0  0  0  0
 11 12  2  0  0  0  0
 15 23  1  0  0  0  0
 15 16  1  0  0  0  0
 16 19  1  0  0  0  0
 19 22  1  0  0  0  0
 22  2  1  6  0  0  0
 22 23  1  0  0  0  0
 23 24  1  6  0  0  0
 24 25  1  0  0  0  0
 25 26  1  0  0  0  0
M  CHG  2  13  -1  18  -1
M  END
>  <CHROM.1>
-65.71149026,-101.95157888,-77.10709942,-45.27902649,95.76646873,147.23121809
-162.93336391,79.33013514,-5.67935948,-43.94952300,7.45328001,-0.67293809
0.73705565,-0.47008959

>  <Name>
ligand

>  <RI>
0

>  <Rbt.Current_Directory>
/home/itssahil/PROJECTS/Mol_Feturizer/New_Systems/rnas/3D2G

>  <Rbt.Executable>
rbdock ($Id: //depot/dev/client3/rdock/2013.1/src/exe/rbdock.cxx#4 $)

>  <Rbt.Library>
libRbt.so (2013.1, Build901 2013/11/27)

>  <Rbt.Parameter_File>
/export/apps/rDock/src/rDock_2013.1_src/data/scripts/dock_solv.prm

>  <Rbt.Receptor>
prm/pocket_docking_7.prm

>  <SCORE>
-14.3326

>  <SCORE.INTER>
-13.6404

>  <SCORE.INTER.CONST>
1

>  <SCORE.INTER.POLAR>
0

>  <SCORE.INTER.ROT>
8

>  <SCORE.INTER.SOLV>
15.1275

>  <SCORE.INTER.VDW>
-23.0694

>  <SCORE.INTER.norm>
-0.52463

>  <SCORE.INTRA>
-0.69221

>  <SCORE.INTRA.DIHEDRAL>
0.905461

>  <SCORE.INTRA.DIHEDRAL.0>
9.09364

>  <SCORE.INTRA.POLAR>
0

>  <SCORE.INTRA.POLAR.0>
0

>  <SCORE.INTRA.REPUL>
0

>  <SCORE.INTRA.REPUL.0>
0

>  <SCORE.INTRA.SOLV>
-1.53486

>  <SCORE.INTRA.SOLV.lig_0>
-78.5846

>  <SCORE.INTRA.VDW>
-0.377513

>  <SCORE.INTRA.VDW.0>
-2.81163

>  <SCORE.INTRA.norm>
-0.0266235

>  <SCORE.RESTR>
0

>  <SCORE.RESTR.CAVITY>
0

>  <SCORE.RESTR.norm>
0

>  <SCORE.SYSTEM>
0

>  <SCORE.SYSTEM.CONST>
0

>  <SCORE.SYSTEM.DIHEDRAL>
0

>  <SCORE.SYSTEM.SOLV>
0

>  <SCORE.SYSTEM.norm>
0

>  <SCORE.heavy>
26

>  <SCORE.norm>
-0.551254

>  <RMSD>
8.912

$$$$
ligand
 OpenBabel11021811463D
libRbt.so/2013.1/901 2013/11/27
 26 27  0  0  0  0  0  0  0  0999 V2000
   -0.1336  -33.5246    8.7274 C   0  0  0  0  0  0  0  0  0  0  0  0
   -5.9907  -37.9571   11.6545 C   0  0  0  0  0  0  0  0  0  0  0  0
   -5.3245  -42.0222   10.2888 P   0  0  1  0  0  0  0  0  0  0  0  0
   -6.4118  -44.4827   10.8426 P   0  0  2  0  0  0  0  0  0  0  0  0
   -4.5329  -35.2173   12.0017 C   0  0  0  0  0  0  0  0  0  0  0  0
   -2.5040  -35.7326   10.6047 C   0  0  0  0  0  0  0  0  0  0  0  0
   -3.3671  -34.7787   11.1524 C   0  0  0  0  0  0  0  0  0  0  0  0
   -3.1799  -33.4194   10.8870 C   0  0  0  0  0  0  0  0  0  0  0  0
   -4.0056  -32.5274   11.3926 N   0  0  0  0  0  0  0  0  0  0  0  0
   -2.1138  -33.0159   10.1206 N   0  0  0  0  0  0  0  0  0  0  0  0
   -1.2753  -33.9660    9.5723 C   0  0  0  0  0  0  0  0  0  0  0  0
   -1.4537  -35.3142    9.8196 N   0  0  0  0  0  0  0  0  0  0  0  0
   -3.9917  -42.6385    9.9914 O   0  5  0  0  0  0  0  0  0  0  0  0
   -6.7509  -45.1394   12.1215 O   0  0  0  0  0  0  0  0  0  0  0  0
   -2.9537  -37.9810   14.1230 S   0  0  0  0  0  0  0  0  0  0  0  0
   -3.1252  -36.5239   13.5314 C   0  0  0  0  0  0  0  0  0  0  0  0
   -6.1797  -41.7252    9.1082 O   0  0  0  0  0  0  0  0  0  0  0  0
   -5.3386  -45.1900   10.1183 O   0  5  0  0  0  0  0  0  0  0  0  0
   -4.1841  -36.4398   12.6712 N   0  0  0  0  0  0  0  0  0  0  0  0
   -5.9658  -43.0381   11.3193 O   0  0  0  0  0  0  0  0  0  0  0  0
   -7.4981  -44.3650    9.8232 O   0  0  0  0  0  0  0  0  0  0  0  0
   -4.8067  -37.6466   12.5185 C   0  0  1  0  0  0  0  0  0  0  0  0
   -4.1861  -38.5877   13.3010 C   0  0  2  0  0  0  0  0  0  0  0  0
   -4.4808  -40.0526   13.5084 C   0  0  0  0  0  0  0  0  0  0  0  0
   -4.1456  -40.8873   12.2672 C   0  0  0  0  0  0  0  0  0  0  0  0
   -4.9556  -40.7313   11.1163 O   0  0  0  0  0  0  0  0  0  0  0  0
  1 11  1  0  0  0  0
  3 13  1  6  0  0  0
  3 17  2  0  0  0  0
  3 20  1  0  0  0  0
  3 26  1  0  0  0  0
  4 14  1  1  0  0  0
  4 18  1  0  0  0  0
  4 21  2  0  0  0  0
  4 20  1  0  0  0  0
  5 19  1  0  0  0  0
  5  7  1  0  0  0  0
  6  7  2  0  0  0  0
  6 12  1  0  0  0  0
  7  8  1  0  0  0  0
  8  9  1  0  0  0  0
  8 10  2  0  0  0  0
 10 11  1  0  0  0  0
 11 12  2  0  0  0  0
 15 23  1  0  0  0  0
 15 16  1  0  0  0  0
 16 19  1  0  0  0  0
 19 22  1  0  0  0  0
 22  2  1  1  0  0  0
 22 23  1  0  0  0  0
 23 24  1  1  0  0  0
 24 25  1  0  0  0  0
 25 26  1  0  0  0  0
M  CHG  2  13  -1  18  -1
M  END
>  <CHROM.1>
-69.28404691,60.13697048,30.18887615,171.94623066,-110.18505073,-69.63434373
-140.15644399,-54.18864810,-4.35137501,-39.16214368,11.27826122,-0.43570146
-1.17600809,-2.01145623

>  <Name>
ligand

>  <RI>
0

>  <Rbt.Current_Directory>
/home/itssahil/PROJECTS/Mol_Feturizer/New_Systems/rnas/3D2G

>  <Rbt.Executable>
rbdock ($Id: //depot/dev/client3/rdock/2013.1/src/exe/rbdock.cxx#4 $)

>  <Rbt.Library>
libRbt.so (2013.1, Build901 2013/11/27)

>  <Rbt.Parameter_File>
/export/apps/rDock/src/rDock_2013.1_src/data/scripts/dock_solv.prm

>  <Rbt.Receptor>
prm/blind_docking_80.prm

>  <SCORE>
-17.607

>  <SCORE.INTER>
-17.9344

>  <SCORE.INTER.CONST>
1

>  <SCORE.INTER.POLAR>
0

>  <SCORE.INTER.ROT>
8

>  <SCORE.INTER.SOLV>
10.0907

>  <SCORE.INTER.VDW>
-24.2532

>  <SCORE.INTER.norm>
-0.689786

>  <SCORE.INTRA>
0.327382

>  <SCORE.INTRA.DIHEDRAL>
1.32603

>  <SCORE.INTRA.DIHEDRAL.0>
9.09364

>  <SCORE.INTRA.POLAR>
0

>  <SCORE.INTRA.POLAR.0>
0

>  <SCORE.INTRA.REPUL>
0

>  <SCORE.INTRA.REPUL.0>
0

>  <SCORE.INTRA.SOLV>
-0.266153

>  <SCORE.INTRA.SOLV.lig_0>
-78.5846

>  <SCORE.INTRA.VDW>
-0.202555

>  <SCORE.INTRA.VDW.0>
-2.81163

>  <SCORE.INTRA.norm>
0.0125916

>  <SCORE.RESTR>
0

>  <SCORE.RESTR.CAVITY>
0

>  <SCORE.RESTR.norm>
0

>  <SCORE.SYSTEM>
0

>  <SCORE.SYSTEM.CONST>
0

>  <SCORE.SYSTEM.DIHEDRAL>
0

>  <SCORE.SYSTEM.SOLV>
0

>  <SCORE.SYSTEM.norm>
0

>  <SCORE.heavy>
26

>  <SCORE.norm>
-0.677194

>  <RMSD>
8.913

$$$$
ligand
 OpenBabel11021811463D
libRbt.so/2013.1/901 2013/11/27
 26 27  0  0  0  0  0  0  0  0999 V2000
   -0.8737  -40.4670   10.0488 C   0  0  0  0  0  0  0  0  0  0  0  0
   -7.2853  -43.5910   11.0879 C   0  0  0  0  0  0  0  0  0  0  0  0
   -5.7142  -47.1516    5.7860 P   0  0  1  0  0  0  0  0  0  0  0  0
   -3.4563  -48.4667    6.6316 P   0  0  2  0  0  0  0  0  0  0  0  0
   -4.6036  -43.9749   12.6414 C   0  0  0  0  0  0  0  0  0  0  0  0
   -2.4781  -43.5896   11.3503 C   0  0  0  0  0  0  0  0  0  0  0  0
   -3.6125  -43.0579   11.9709 C   0  0  0  0  0  0  0  0  0  0  0  0
   -3.8561  -41.6821   11.9419 C   0  0  0  0  0  0  0  0  0  0  0  0
   -4.9344  -41.1895   12.5143 N   0  0  0  0  0  0  0  0  0  0  0  0
   -2.9508  -40.8430   11.3392 N   0  0  0  0  0  0  0  0  0  0  0  0
   -1.8408  -41.3786   10.7165 C   0  0  0  0  0  0  0  0  0  0  0  0
   -1.5920  -42.7381   10.7302 N   0  0  0  0  0  0  0  0  0  0  0  0
   -4.8084  -45.9618    5.6946 O   0  5  0  0  0  0  0  0  0  0  0  0
   -4.0905  -48.5452    7.9633 O   0  0  0  0  0  0  0  0  0  0  0  0
   -5.2764  -46.8250   10.1805 S   0  0  0  0  0  0  0  0  0  0  0  0
   -4.4797  -46.0157   11.2816 C   0  0  0  0  0  0  0  0  0  0  0  0
   -6.8387  -47.1868    4.8126 O   0  0  0  0  0  0  0  0  0  0  0  0
   -2.5648  -47.2981    6.5049 O   0  5  0  0  0  0  0  0  0  0  0  0
   -5.1367  -44.8782   11.6594 N   0  0  0  0  0  0  0  0  0  0  0  0
   -4.7133  -48.3722    5.6704 O   0  0  0  0  0  0  0  0  0  0  0  0
   -2.5886  -49.6106    6.2170 O   0  0  0  0  0  0  0  0  0  0  0  0
   -6.3023  -44.7150   10.9651 C   0  0  1  0  0  0  0  0  0  0  0  0
   -6.4751  -45.7668   10.1008 C   0  0  2  0  0  0  0  0  0  0  0  0
   -7.5859  -46.0764    9.1282 C   0  0  0  0  0  0  0  0  0  0  0  0
   -7.0909  -46.0940    7.6775 C   0  0  0  0  0  0  0  0  0  0  0  0
   -6.2041  -47.1256    7.2849 O   0  0  0  0  0  0  0  0  0  0  0  0
  1 11  1  0  0  0  0
  3 13  1  6  0  0  0
  3 17  2  0  0  0  0
  3 20  1  0  0  0  0
  3 26  1  0  0  0  0
  4 14  1  1  0  0  0
  4 18  1  0  0  0  0
  4 21  2  0  0  0  0
  4 20  1  0  0  0  0
  5 19  1  0  0  0  0
  5  7  1  0  0  0  0
  6  7  2  0  0  0  0
  6 12  1  0  0  0  0
  7  8  1  0  0  0  0
  8  9  1  0  0  0  0
  8 10  2  0  0  0  0
 10 11  1  0  0  0  0
 11 12  2  0  0  0  0
 15 23  1  0  0  0  0
 15 16  1  0  0  0  0
 16 19  1  0  0  0  0
 19 22  1  0  0  0  0
 22  2  1  1  0  0  0
 22 23  1  0  0  0  0
 23 24  1  1  0  0  0
 24 25  1  0  0  0  0
 25 26  1  0  0  0  0
M  CHG  2  13  -1  18  -1
M  END
>  <CHROM.1>
52.83432563,82.48365900,-60.61446304,61.61443951,-63.48489811,67.68852919
179.12715988,70.07789615,-4.56363342,-45.51222973,8.93389651,-1.39665825
-0.31322916,-2.33390193

>  <Name>
ligand

>  <RI>
0

>  <Rbt.Current_Directory>
/home/itssahil/PROJECTS/Mol_Feturizer/New_Systems/rnas/3D2G

>  <Rbt.Executable>
rbdock ($Id: //depot/dev/client3/rdock/2013.1/src/exe/rbdock.cxx#4 $)

>  <Rbt.Library>
libRbt.so (2013.1, Build901 2013/11/27)

>  <Rbt.Parameter_File>
/export/apps/rDock/src/rDock_2013.1_src/data/scripts/dock_solv.prm

>  <Rbt.Receptor>
prm/pocket_docking_7.prm

>  <SCORE>
-17.4074

>  <SCORE.INTER>
-13.8328

>  <SCORE.INTER.CONST>
1

>  <SCORE.INTER.POLAR>
0

>  <SCORE.INTER.ROT>
8

>  <SCORE.INTER.SOLV>
8.31576

>  <SCORE.INTER.VDW>
-20.9271

>  <SCORE.INTER.norm>
-0.532031

>  <SCORE.INTRA>
-3.57464

>  <SCORE.INTRA.DIHEDRAL>
-3.646

>  <SCORE.INTRA.DIHEDRAL.0>
9.09364

>  <SCORE.INTRA.POLAR>
0

>  <SCORE.INTRA.POLAR.0>
0

>  <SCORE.INTRA.REPUL>
0

>  <SCORE.INTRA.REPUL.0>
0

>  <SCORE.INTRA.SOLV>
-1.43758

>  <SCORE.INTRA.SOLV.lig_0>
-78.5846

>  <SCORE.INTRA.VDW>
-1.03284

>  <SCORE.INTRA.VDW.0>
-2.81163

>  <SCORE.INTRA.norm>
-0.137486

>  <SCORE.RESTR>
0

>  <SCORE.RESTR.CAVITY>
0

>  <SCORE.RESTR.norm>
0

>  <SCORE.SYSTEM>
0

>  <SCORE.SYSTEM.CONST>
0

>  <SCORE.SYSTEM.DIHEDRAL>
0

>  <SCORE.SYSTEM.SOLV>
0

>  <SCORE.SYSTEM.norm>
0

>  <SCORE.heavy>
26

>  <SCORE.norm>
-0.669517

>  <RMSD>
8.916

$$$$
ligand
 OpenBabel11021811463D
libRbt.so/2013.1/901 2013/11/27
 26 27  0  0  0  0  0  0  0  0999 V2000
    0.5973  -46.9192    6.8845 C   0  0  0  0  0  0  0  0  0  0  0  0
   -6.8590  -45.2908    6.8012 C   0  0  0  0  0  0  0  0  0  0  0  0
   -4.9779  -41.2403    9.0507 P   0  0  1  0  0  0  0  0  0  0  0  0
   -6.9334  -39.4952    8.2300 P   0  0  2  0  0  0  0  0  0  0  0  0
   -5.0619  -47.8071    7.2381 C   0  0  0  0  0  0  0  0  0  0  0  0
   -2.7657  -47.8111    8.2680 C   0  0  0  0  0  0  0  0  0  0  0  0
   -3.5766  -47.5625    7.1565 C   0  0  0  0  0  0  0  0  0  0  0  0
   -3.0149  -47.1240    5.9543 C   0  0  0  0  0  0  0  0  0  0  0  0
   -3.7820  -46.9072    4.9066 N   0  0  0  0  0  0  0  0  0  0  0  0
   -1.6631  -46.8920    5.8791 N   0  0  0  0  0  0  0  0  0  0  0  0
   -0.8685  -47.1540    6.9774 C   0  0  0  0  0  0  0  0  0  0  0  0
   -1.4096  -47.5960    8.1700 N   0  0  0  0  0  0  0  0  0  0  0  0
   -3.6437  -41.6188    8.4840 O   0  5  0  0  0  0  0  0  0  0  0  0
   -6.7151  -38.7376    9.4791 O   0  0  0  0  0  0  0  0  0  0  0  0
   -6.1305  -46.1957   10.5386 S   0  0  0  0  0  0  0  0  0  0  0  0
   -5.4115  -47.2499    9.6038 C   0  0  0  0  0  0  0  0  0  0  0  0
   -4.9724  -40.7645   10.4603 O   0  0  0  0  0  0  0  0  0  0  0  0
   -8.0226  -40.4819    8.3576 O   0  5  0  0  0  0  0  0  0  0  0  0
   -5.6107  -46.9818    8.2784 N   0  0  0  0  0  0  0  0  0  0  0  0
   -5.5220  -40.1818    8.0073 O   0  0  0  0  0  0  0  0  0  0  0  0
   -7.3131  -38.7156    7.0129 O   0  0  0  0  0  0  0  0  0  0  0  0
   -6.4074  -45.8860    8.0999 C   0  0  1  0  0  0  0  0  0  0  0  0
   -6.7556  -45.3654    9.3209 C   0  0  2  0  0  0  0  0  0  0  0  0
   -7.5980  -44.1673    9.6821 C   0  0  0  0  0  0  0  0  0  0  0  0
   -6.7490  -42.9058    9.8762 C   0  0  0  0  0  0  0  0  0  0  0  0
   -5.8452  -42.5420    8.8487 O   0  0  0  0  0  0  0  0  0  0  0  0
  1 11  1  0  0  0  0
  3 13  1  6  0  0  0
  3 17  2  0  0  0  0
  3 20  1  0  0  0  0
  3 26  1  0  0  0  0
  4 14  1  1  0  0  0
  4 18  1  0  0  0  0
  4 21  2  0  0  0  0
  4 20  1  0  0  0  0
  5 19  1  0  0  0  0
  5  7  1  0  0  0  0
  6  7  2  0  0  0  0
  6 12  1  0  0  0  0
  7  8  1  0  0  0  0
  8  9  1  0  0  0  0
  8 10  2  0  0  0  0
 10 11  1  0  0  0  0
 11 12  2  0  0  0  0
 15 23  1  0  0  0  0
 15 16  1  0  0  0  0
 16 19  1  0  0  0  0
 19 22  1  0  0  0  0
 22  2  1  6  0  0  0
 22 23  1  0  0  0  0
 23 24  1  6  0  0  0
 24 25  1  0  0  0  0
 25 26  1  0  0  0  0
M  CHG  2  13  -1  18  -1
M  END
>  <CHROM.1>
-179.42018512,-73.21674505,59.76590778,63.99090060,86.29658385,51.95509108
179.77471440,141.16782010,-5.08039348,-43.91674500,8.30050728,-1.04158963
0.47871153,-0.07479518

>  <Name>
ligand

>  <RI>
0

>  <Rbt.Current_Directory>
/home/itssahil/PROJECTS/Mol_Feturizer/New_Systems/rnas/3D2G

>  <Rbt.Executable>
rbdock ($Id: //depot/dev/client3/rdock/2013.1/src/exe/rbdock.cxx#4 $)

>  <Rbt.Library>
libRbt.so (2013.1, Build901 2013/11/27)

>  <Rbt.Parameter_File>
/export/apps/rDock/src/rDock_2013.1_src/data/scripts/dock_solv.prm

>  <Rbt.Receptor>
prm/pocket_docking_5.prm

>  <SCORE>
-15.1003

>  <SCORE.INTER>
-12.4087

>  <SCORE.INTER.CONST>
1

>  <SCORE.INTER.POLAR>
0

>  <SCORE.INTER.ROT>
8

>  <SCORE.INTER.SOLV>
10.0795

>  <SCORE.INTER.VDW>
-20.5657

>  <SCORE.INTER.norm>
-0.477259

>  <SCORE.INTRA>
-2.69153

>  <SCORE.INTRA.DIHEDRAL>
-1.75443

>  <SCORE.INTRA.DIHEDRAL.0>
9.09364

>  <SCORE.INTRA.POLAR>
0

>  <SCORE.INTRA.POLAR.0>
0

>  <SCORE.INTRA.REPUL>
0

>  <SCORE.INTRA.REPUL.0>
0

>  <SCORE.INTRA.SOLV>
-1.20721

>  <SCORE.INTRA.SOLV.lig_0>
-78.5846

>  <SCORE.INTRA.VDW>
-1.21071

>  <SCORE.INTRA.VDW.0>
-2.81163

>  <SCORE.INTRA.norm>
-0.10352

>  <SCORE.RESTR>
0

>  <SCORE.RESTR.CAVITY>
0

>  <SCORE.RESTR.norm>
0

>  <SCORE.SYSTEM>
0

>  <SCORE.SYSTEM.CONST>
0

>  <SCORE.SYSTEM.DIHEDRAL>
0

>  <SCORE.SYSTEM.SOLV>
0

>  <SCORE.SYSTEM.norm>
0

>  <SCORE.heavy>
26

>  <SCORE.norm>
-0.58078

>  <RMSD>
8.920

$$$$
ligand
 OpenBabel11021811463D
libRbt.so/2013.1/901 2013/11/27
 26 27  0  0  0  0  0  0  0  0999 V2000
    1.3960  -37.2381    8.8712 C   0  0  0  0  0  0  0  0  0  0  0  0
   -5.9650  -37.8875   11.5533 C   0  0  0  0  0  0  0  0  0  0  0  0
   -5.7232  -42.7725   10.9732 P   0  0  1  0  0  0  0  0  0  0  0  0
   -5.0450  -45.4326   10.8889 P   0  0  2  0  0  0  0  0  0  0  0  0
   -3.3111  -36.3092   12.0208 C   0  0  0  0  0  0  0  0  0  0  0  0
   -1.0945  -35.5516   11.1010 C   0  0  0  0  0  0  0  0  0  0  0  0
   -2.0789  -36.5411   11.1839 C   0  0  0  0  0  0  0  0  0  0  0  0
   -1.9118  -37.7627   10.5258 C   0  0  0  0  0  0  0  0  0  0  0  0
   -2.8351  -38.6963   10.6210 N   0  0  0  0  0  0  0  0  0  0  0  0
   -0.7943  -37.9738    9.7556 N   0  0  0  0  0  0  0  0  0  0  0  0
    0.1790  -36.9966    9.6914 C   0  0  0  0  0  0  0  0  0  0  0  0
    0.0307  -35.7871   10.3439 N   0  0  0  0  0  0  0  0  0  0  0  0
   -5.6537  -41.6721    9.9590 O   0  5  0  0  0  0  0  0  0  0  0  0
   -4.3406  -45.1735   12.1611 O   0  0  0  0  0  0  0  0  0  0  0  0
   -3.4791  -39.5152   14.1006 S   0  0  0  0  0  0  0  0  0  0  0  0
   -2.8464  -38.1747   13.5482 C   0  0  0  0  0  0  0  0  0  0  0  0
   -7.0728  -43.0557   11.5316 O   0  0  0  0  0  0  0  0  0  0  0  0
   -4.3474  -46.4314   10.0570 O   0  5  0  0  0  0  0  0  0  0  0  0
   -3.6737  -37.5425   12.6628 N   0  0  0  0  0  0  0  0  0  0  0  0
   -5.0598  -43.9958   10.2192 O   0  0  0  0  0  0  0  0  0  0  0  0
   -6.4388  -45.9647   10.9730 O   0  0  0  0  0  0  0  0  0  0  0  0
   -4.8260  -38.2478   12.4576 C   0  0  1  0  0  0  0  0  0  0  0  0
   -4.8148  -39.3832   13.2281 C   0  0  2  0  0  0  0  0  0  0  0  0
   -5.8350  -40.4836   13.3839 C   0  0  0  0  0  0  0  0  0  0  0  0
   -5.1939  -41.8745   13.3196 C   0  0  0  0  0  0  0  0  0  0  0  0
   -4.6884  -42.3221   12.0750 O   0  0  0  0  0  0  0  0  0  0  0  0
  1 11  1  0  0  0  0
  3 13  1  6  0  0  0
  3 17  2  0  0  0  0
  3 20  1  0  0  0  0
  3 26  1  0  0  0  0
  4 14  1  1  0  0  0
  4 18  1  0  0  0  0
  4 21  2  0  0  0  0
  4 20  1  0  0  0  0
  5 19  1  0  0  0  0
  5  7  1  0  0  0  0
  6  7  2  0  0  0  0
  6 12  1  0  0  0  0
  7  8  1  0  0  0  0
  8  9  1  0  0  0  0
  8 10  2  0  0  0  0
 10 11  1  0  0  0  0
 11 12  2  0  0  0  0
 15 23  1  0  0  0  0
 15 16  1  0  0  0  0
 16 19  1  0  0  0  0
 19 22  1  0  0  0  0
 22  2  1  1  0  0  0
 22 23  1  0  0  0  0
 23 24  1  1  0  0  0
 24 25  1  0  0  0  0
 25 26  1  0  0  0  0
M  CHG  2  13  -1  18  -1
M  END
>  <CHROM.1>
-174.28691539,61.80159623,-142.49650383,-57.71521640,-46.69007557,-70.03948560
-74.46100126,108.33487974,-3.89064300,-40.61228277,11.47719857,-0.94191693
-0.67205174,-2.72969567

>  <Name>
ligand

>  <RI>
0

>  <Rbt.Current_Directory>
/home/itssahil/PROJECTS/Mol_Feturizer/New_Systems/rnas/3D2G

>  <Rbt.Executable>
rbdock ($Id: //depot/dev/client3/rdock/2013.1/src/exe/rbdock.cxx#4 $)

>  <Rbt.Library>
libRbt.so (2013.1, Build901 2013/11/27)

>  <Rbt.Parameter_File>
/export/apps/rDock/src/rDock_2013.1_src/data/scripts/dock_solv.prm

>  <Rbt.Receptor>
prm/blind_docking_80.prm

>  <SCORE>
-16.34

>  <SCORE.INTER>
-18.3653

>  <SCORE.INTER.CONST>
1

>  <SCORE.INTER.POLAR>
0

>  <SCORE.INTER.ROT>
8

>  <SCORE.INTER.SOLV>
18.9996

>  <SCORE.INTER.VDW>
-27.51

>  <SCORE.INTER.norm>
-0.706357

>  <SCORE.INTRA>
2.02532

>  <SCORE.INTRA.DIHEDRAL>
-0.415567

>  <SCORE.INTRA.DIHEDRAL.0>
9.09364

>  <SCORE.INTRA.POLAR>
0

>  <SCORE.INTRA.POLAR.0>
0

>  <SCORE.INTRA.REPUL>
0

>  <SCORE.INTRA.REPUL.0>
0

>  <SCORE.INTRA.SOLV>
3.65095

>  <SCORE.INTRA.SOLV.lig_0>
-78.5846

>  <SCORE.INTRA.VDW>
0.407624

>  <SCORE.INTRA.VDW.0>
-2.81163

>  <SCORE.INTRA.norm>
0.0778968

>  <SCORE.RESTR>
0

>  <SCORE.RESTR.CAVITY>
0

>  <SCORE.RESTR.norm>
0

>  <SCORE.SYSTEM>
0

>  <SCORE.SYSTEM.CONST>
0

>  <SCORE.SYSTEM.DIHEDRAL>
0

>  <SCORE.SYSTEM.SOLV>
0

>  <SCORE.SYSTEM.norm>
0

>  <SCORE.heavy>
26

>  <SCORE.norm>
-0.62846

>  <RMSD>
8.929

$$$$
ligand
 OpenBabel11021811463D
libRbt.so/2013.1/901 2013/11/27
 26 27  0  0  0  0  0  0  0  0999 V2000
   -3.2850  -38.3314   13.0864 C   0  0  0  0  0  0  0  0  0  0  0  0
   -4.9401  -46.2843   10.5552 C   0  0  0  0  0  0  0  0  0  0  0  0
   -7.0711  -45.7753    5.0594 P   0  0  1  0  0  0  0  0  0  0  0  0
   -5.2740  -47.8471    4.9151 P   0  0  2  0  0  0  0  0  0  0  0  0
   -4.5448  -43.9037   12.5374 C   0  0  0  0  0  0  0  0  0  0  0  0
   -4.9279  -41.6560   13.6025 C   0  0  0  0  0  0  0  0  0  0  0  0
   -4.2287  -42.4363   12.6767 C   0  0  0  0  0  0  0  0  0  0  0  0
   -3.2094  -41.8740   11.9035 C   0  0  0  0  0  0  0  0  0  0  0  0
   -2.5440  -42.6178   11.0450 N   0  0  0  0  0  0  0  0  0  0  0  0
   -2.9247  -40.5354   12.0218 N   0  0  0  0  0  0  0  0  0  0  0  0
   -3.6106  -39.7761   12.9489 C   0  0  0  0  0  0  0  0  0  0  0  0
   -4.6152  -40.3212   13.7262 N   0  0  0  0  0  0  0  0  0  0  0  0
   -6.9100  -44.2864    5.1028 O   0  5  0  0  0  0  0  0  0  0  0  0
   -3.8023  -47.8664    4.7913 O   0  0  0  0  0  0  0  0  0  0  0  0
   -7.7499  -43.5609   10.4778 S   0  0  0  0  0  0  0  0  0  0  0  0
   -6.6671  -43.1534   11.5566 C   0  0  0  0  0  0  0  0  0  0  0  0
   -7.9206  -46.3038    3.9583 O   0  0  0  0  0  0  0  0  0  0  0  0
   -5.9411  -48.4582    3.7498 O   0  5  0  0  0  0  0  0  0  0  0  0
   -5.6430  -44.0562   11.6235 N   0  0  0  0  0  0  0  0  0  0  0  0
   -5.5766  -46.2958    5.0371 O   0  0  0  0  0  0  0  0  0  0  0  0
   -5.8738  -48.5713    6.0766 O   0  0  0  0  0  0  0  0  0  0  0  0
   -5.8327  -45.0985   10.7604 C   0  0  1  0  0  0  0  0  0  0  0  0
   -6.9992  -44.9124   10.0621 C   0  0  2  0  0  0  0  0  0  0  0  0
   -7.6566  -45.7488    8.9926 C   0  0  0  0  0  0  0  0  0  0  0  0
   -7.0322  -45.5113    7.6129 C   0  0  0  0  0  0  0  0  0  0  0  0
   -7.6369  -46.1251    6.4894 O   0  0  0  0  0  0  0  0  0  0  0  0
  1 11  1  0  0  0  0
  3 13  1  6  0  0  0
  3 17  2  0  0  0  0
  3 20  1  0  0  0  0
  3 26  1  0  0  0  0
  4 14  1  6  0  0  0
  4 18  1  0  0  0  0
  4 21  2  0  0  0  0
  4 20  1  0  0  0  0
  5 19  1  0  0  0  0
  5  7  1  0  0  0  0
  6  7  2  0  0  0  0
  6 12  1  0  0  0  0
  7  8  1  0  0  0  0
  8  9  1  0  0  0  0
  8 10  2  0  0  0  0
 10 11  1  0  0  0  0
 11 12  2  0  0  0  0
 15 23  1  0  0  0  0
 15 16  1  0  0  0  0
 16 19  1  0  0  0  0
 19 22  1  0  0  0  0
 22  2  1  6  0  0  0
 22 23  1  0  0  0  0
 23 24  1  6  0  0  0
 24 25  1  0  0  0  0
 25 26  1  0  0  0  0
M  CHG  2  13  -1  18  -1
M  END
>  <CHROM.1>
-176.87807876,-35.30400480,85.60675273,174.37691263,98.74922371,-173.64182301
174.61262184,-44.79269560,-5.66450740,-44.58391187,8.73517322,-1.36883509
-0.12626467,-2.18904167

>  <Name>
ligand

>  <RI>
0

>  <Rbt.Current_Directory>
/home/itssahil/PROJECTS/Mol_Feturizer/New_Systems/rnas/3D2G

>  <Rbt.Executable>
rbdock ($Id: //depot/dev/client3/rdock/2013.1/src/exe/rbdock.cxx#4 $)

>  <Rbt.Library>
libRbt.so (2013.1, Build901 2013/11/27)

>  <Rbt.Parameter_File>
/export/apps/rDock/src/rDock_2013.1_src/data/scripts/dock_solv.prm

>  <Rbt.Receptor>
prm/pocket_docking_8.prm

>  <SCORE>
-18.3194

>  <SCORE.INTER>
-16.291

>  <SCORE.INTER.CONST>
1

>  <SCORE.INTER.POLAR>
0

>  <SCORE.INTER.ROT>
8

>  <SCORE.INTER.SOLV>
8.8437

>  <SCORE.INTER.VDW>
-22.7419

>  <SCORE.INTER.norm>
-0.626577

>  <SCORE.INTRA>
-2.02842

>  <SCORE.INTRA.DIHEDRAL>
-3.70991

>  <SCORE.INTRA.DIHEDRAL.0>
9.09364

>  <SCORE.INTRA.POLAR>
0

>  <SCORE.INTRA.POLAR.0>
0

>  <SCORE.INTRA.REPUL>
0

>  <SCORE.INTRA.REPUL.0>
0

>  <SCORE.INTRA.SOLV>
-0.0582242

>  <SCORE.INTRA.SOLV.lig_0>
-78.5846

>  <SCORE.INTRA.VDW>
-0.144356

>  <SCORE.INTRA.VDW.0>
-2.81163

>  <SCORE.INTRA.norm>
-0.0780163

>  <SCORE.RESTR>
0

>  <SCORE.RESTR.CAVITY>
0

>  <SCORE.RESTR.norm>
0

>  <SCORE.SYSTEM>
0

>  <SCORE.SYSTEM.CONST>
0

>  <SCORE.SYSTEM.DIHEDRAL>
0

>  <SCORE.SYSTEM.SOLV>
0

>  <SCORE.SYSTEM.norm>
0

>  <SCORE.heavy>
26

>  <SCORE.norm>
-0.704593

>  <RMSD>
8.937

$$$$
ligand
 OpenBabel11021811463D
libRbt.so/2013.1/901 2013/11/27
 26 27  0  0  0  0  0  0  0  0999 V2000
   -0.7869  -45.0844    4.7276 C   0  0  0  0  0  0  0  0  0  0  0  0
   -6.9856  -46.0988    7.9589 C   0  0  0  0  0  0  0  0  0  0  0  0
   -7.3105  -41.4433    7.6037 P   0  0  1  0  0  0  0  0  0  0  0  0
   -9.4908  -39.9809    6.7972 P   0  0  2  0  0  0  0  0  0  0  0  0
   -4.3225  -47.6554    8.4464 C   0  0  0  0  0  0  0  0  0  0  0  0
   -2.5598  -45.9405    7.9124 C   0  0  0  0  0  0  0  0  0  0  0  0
   -3.4016  -46.9663    7.4719 C   0  0  0  0  0  0  0  0  0  0  0  0
   -3.3691  -47.3855    6.1391 C   0  0  0  0  0  0  0  0  0  0  0  0
   -4.1528  -48.3627    5.7343 N   0  0  0  0  0  0  0  0  0  0  0  0
   -2.5373  -46.7539    5.2468 N   0  0  0  0  0  0  0  0  0  0  0  0
   -1.6993  -45.7519    5.6941 C   0  0  0  0  0  0  0  0  0  0  0  0
   -1.7150  -45.3330    7.0112 N   0  0  0  0  0  0  0  0  0  0  0  0
   -6.6518  -41.6618    6.2759 O   0  5  0  0  0  0  0  0  0  0  0  0
   -9.5860  -39.2656    8.0861 O   0  0  0  0  0  0  0  0  0  0  0  0
   -5.1299  -45.2325   11.2941 S   0  0  0  0  0  0  0  0  0  0  0  0
   -4.3019  -46.3322   10.5146 C   0  0  0  0  0  0  0  0  0  0  0  0
   -6.8098  -40.2861    8.3934 O   0  0  0  0  0  0  0  0  0  0  0  0
  -10.8077  -40.1536    6.1551 O   0  5  0  0  0  0  0  0  0  0  0  0
   -4.8870  -46.6698    9.3263 N   0  0  0  0  0  0  0  0  0  0  0  0
   -8.8467  -41.3628    7.2314 O   0  0  0  0  0  0  0  0  0  0  0  0
   -8.6621  -39.3526    5.7241 O   0  0  0  0  0  0  0  0  0  0  0  0
   -6.0567  -45.9912    9.1295 C   0  0  1  0  0  0  0  0  0  0  0  0
   -6.2845  -45.1485   10.1884 C   0  0  2  0  0  0  0  0  0  0  0  0
   -7.4095  -44.1806   10.4586 C   0  0  0  0  0  0  0  0  0  0  0  0
   -7.1902  -42.8350    9.7579 C   0  0  0  0  0  0  0  0  0  0  0  0
   -7.1096  -42.8212    8.3443 O   0  0  0  0  0  0  0  0  0  0  0  0
  1 11  1  0  0  0  0
  3 13  1  6  0  0  0
  3 17  2  0  0  0  0
  3 20  1  0  0  0  0
  3 26  1  0  0  0  0
  4 14  1  1  0  0  0
  4 18  1  0  0  0  0
  4 21  2  0  0  0  0
  4 20  1  0  0  0  0
  5 19  1  0  0  0  0
  5  7  1  0  0  0  0
  6  7  2  0  0  0  0
  6 12  1  0  0  0  0
  7  8  1  0  0  0  0
  8  9  1  0  0  0  0
  8 10  2  0  0  0  0
 10 11  1  0  0  0  0
 11 12  2  0  0  0  0
 15 23  1  0  0  0  0
 15 16  1  0  0  0  0
 16 19  1  0  0  0  0
 19 22  1  0  0  0  0
 22  2  1  6  0  0  0
 22 23  1  0  0  0  0
 23 24  1  6  0  0  0
 24 25  1  0  0  0  0
 25 26  1  0  0  0  0
M  CHG  2  13  -1  18  -1
M  END
>  <CHROM.1>
-86.56304513,-91.11390499,40.81411353,-74.67196906,96.28677953,61.29800278
162.33835364,158.55735356,-6.02798369,-43.74593706,7.82324701,-0.43296421
0.73944799,-1.00990250

>  <Name>
ligand

>  <RI>
0

>  <Rbt.Current_Directory>
/home/itssahil/PROJECTS/Mol_Feturizer/New_Systems/rnas/3D2G

>  <Rbt.Executable>
rbdock ($Id: //depot/dev/client3/rdock/2013.1/src/exe/rbdock.cxx#4 $)

>  <Rbt.Library>
libRbt.so (2013.1, Build901 2013/11/27)

>  <Rbt.Parameter_File>
/export/apps/rDock/src/rDock_2013.1_src/data/scripts/dock_solv.prm

>  <Rbt.Receptor>
prm/pocket_docking_8.prm

>  <SCORE>
-16.2668

>  <SCORE.INTER>
-13.982

>  <SCORE.INTER.CONST>
1

>  <SCORE.INTER.POLAR>
0

>  <SCORE.INTER.ROT>
8

>  <SCORE.INTER.SOLV>
15.0542

>  <SCORE.INTER.VDW>
-23.2727

>  <SCORE.INTER.norm>
-0.537767

>  <SCORE.INTRA>
-2.28484

>  <SCORE.INTRA.DIHEDRAL>
-0.9597

>  <SCORE.INTRA.DIHEDRAL.0>
9.09364

>  <SCORE.INTRA.POLAR>
0

>  <SCORE.INTRA.POLAR.0>
0

>  <SCORE.INTRA.REPUL>
0

>  <SCORE.INTRA.REPUL.0>
0

>  <SCORE.INTRA.SOLV>
-1.52266

>  <SCORE.INTRA.SOLV.lig_0>
-78.5846

>  <SCORE.INTRA.VDW>
-1.04366

>  <SCORE.INTRA.VDW.0>
-2.81163

>  <SCORE.INTRA.norm>
-0.0878785

>  <SCORE.RESTR>
0

>  <SCORE.RESTR.CAVITY>
0

>  <SCORE.RESTR.norm>
0

>  <SCORE.SYSTEM>
0

>  <SCORE.SYSTEM.CONST>
0

>  <SCORE.SYSTEM.DIHEDRAL>
0

>  <SCORE.SYSTEM.SOLV>
0

>  <SCORE.SYSTEM.norm>
0

>  <SCORE.heavy>
26

>  <SCORE.norm>
-0.625646

>  <RMSD>
8.938

$$$$
ligand
 OpenBabel11021811463D
libRbt.so/2013.1/901 2013/11/27
 26 27  0  0  0  0  0  0  0  0999 V2000
   -0.6993  -33.1607    8.7351 C   0  0  0  0  0  0  0  0  0  0  0  0
   -2.9323  -37.6858   13.7826 C   0  0  0  0  0  0  0  0  0  0  0  0
   -1.3801  -40.4884   10.1076 P   0  0  1  0  0  0  0  0  0  0  0  0
   -2.5089  -42.0045    8.1152 P   0  0  2  0  0  0  0  0  0  0  0  0
   -4.3281  -35.0943   12.7392 C   0  0  0  0  0  0  0  0  0  0  0  0
   -2.5494  -35.4944   11.0045 C   0  0  0  0  0  0  0  0  0  0  0  0
   -3.3626  -34.5916   11.6963 C   0  0  0  0  0  0  0  0  0  0  0  0
   -3.3152  -33.2264   11.4012 C   0  0  0  0  0  0  0  0  0  0  0  0
   -4.0951  -32.3836   12.0450 N   0  0  0  0  0  0  0  0  0  0  0  0
   -2.4305  -32.7642   10.4575 N   0  0  0  0  0  0  0  0  0  0  0  0
   -1.6418  -33.6647    9.7695 C   0  0  0  0  0  0  0  0  0  0  0  0
   -1.6845  -35.0185   10.0451 N   0  0  0  0  0  0  0  0  0  0  0  0
   -0.8782  -41.7271   10.7845 O   0  5  0  0  0  0  0  0  0  0  0  0
   -3.7356  -41.1972    7.9567 O   0  0  0  0  0  0  0  0  0  0  0  0
   -5.9828  -38.2733   11.4021 S   0  0  0  0  0  0  0  0  0  0  0  0
   -5.7742  -36.7175   11.5977 C   0  0  0  0  0  0  0  0  0  0  0  0
   -0.5946  -39.2497   10.3566 O   0  0  0  0  0  0  0  0  0  0  0  0
   -2.6763  -43.0878    9.1025 O   0  5  0  0  0  0  0  0  0  0  0  0
   -4.7089  -36.4395   12.4077 N   0  0  0  0  0  0  0  0  0  0  0  0
   -1.4550  -40.9181    8.5861 O   0  0  0  0  0  0  0  0  0  0  0  0
   -1.9950  -42.7152    6.9052 O   0  0  0  0  0  0  0  0  0  0  0  0
   -4.1136  -37.5806   12.8670 C   0  0  1  0  0  0  0  0  0  0  0  0
   -4.7602  -38.6766   12.3536 C   0  0  2  0  0  0  0  0  0  0  0  0
   -4.5007  -40.1520   12.5314 C   0  0  0  0  0  0  0  0  0  0  0  0
   -3.1284  -40.5636   11.9864 C   0  0  0  0  0  0  0  0  0  0  0  0
   -2.8721  -40.3763   10.6064 O   0  0  0  0  0  0  0  0  0  0  0  0
  1 11  1  0  0  0  0
  3 13  1  1  0  0  0
  3 17  2  0  0  0  0
  3 20  1  0  0  0  0
  3 26  1  0  0  0  0
  4 14  1  6  0  0  0
  4 18  1  0  0  0  0
  4 21  2  0  0  0  0
  4 20  1  0  0  0  0
  5 19  1  0  0  0  0
  5  7  1  0  0  0  0
  6  7  2  0  0  0  0
  6 12  1  0  0  0  0
  7  8  1  0  0  0  0
  8  9  1  0  0  0  0
  8 10  2  0  0  0  0
 10 11  1  0  0  0  0
 11 12  2  0  0  0  0
 15 23  1  0  0  0  0
 15 16  1  0  0  0  0
 16 19  1  0  0  0  0
 19 22  1  0  0  0  0
 22  2  1  6  0  0  0
 22 23  1  0  0  0  0
 23 24  1  6  0  0  0
 24 25  1  0  0  0  0
 25 26  1  0  0  0  0
M  CHG  2  13  -1  18  -1
M  END
>  <CHROM.1>
67.41945464,-88.92594555,-27.78966067,82.43141062,116.68261195,-61.45863708
166.48085228,45.80271134,-2.98696927,-38.29105224,10.56453723,-1.74544771
-0.77348924,-2.96781576

>  <Name>
ligand

>  <RI>
0

>  <Rbt.Current_Directory>
/home/itssahil/PROJECTS/Mol_Feturizer/New_Systems/rnas/3D2G

>  <Rbt.Executable>
rbdock ($Id: //depot/dev/client3/rdock/2013.1/src/exe/rbdock.cxx#4 $)

>  <Rbt.Library>
libRbt.so (2013.1, Build901 2013/11/27)

>  <Rbt.Parameter_File>
/export/apps/rDock/src/rDock_2013.1_src/data/scripts/dock_solv.prm

>  <Rbt.Receptor>
prm/blind_docking_60.prm

>  <SCORE>
-15.8437

>  <SCORE.INTER>
-13.2939

>  <SCORE.INTER.CONST>
1

>  <SCORE.INTER.POLAR>
0

>  <SCORE.INTER.ROT>
8

>  <SCORE.INTER.SOLV>
12.3773

>  <SCORE.INTER.VDW>
-21.9217

>  <SCORE.INTER.norm>
-0.511305

>  <SCORE.INTRA>
-2.56615

>  <SCORE.INTRA.DIHEDRAL>
-1.74415

>  <SCORE.INTRA.DIHEDRAL.0>
9.09364

>  <SCORE.INTRA.POLAR>
0

>  <SCORE.INTRA.POLAR.0>
0

>  <SCORE.INTRA.REPUL>
0

>  <SCORE.INTRA.REPUL.0>
0

>  <SCORE.INTRA.SOLV>
-1.7681

>  <SCORE.INTRA.SOLV.lig_0>
-78.5846

>  <SCORE.INTRA.VDW>
-0.810024

>  <SCORE.INTRA.VDW.0>
-2.81163

>  <SCORE.INTRA.norm>
-0.098698

>  <SCORE.RESTR>
0.016408

>  <SCORE.RESTR.CAVITY>
0.016408

>  <SCORE.RESTR.norm>
0.000631075

>  <SCORE.SYSTEM>
0

>  <SCORE.SYSTEM.CONST>
0

>  <SCORE.SYSTEM.DIHEDRAL>
0

>  <SCORE.SYSTEM.SOLV>
0

>  <SCORE.SYSTEM.norm>
0

>  <SCORE.heavy>
26

>  <SCORE.norm>
-0.609372

>  <RMSD>
8.942

$$$$
ligand
 OpenBabel11021811463D
libRbt.so/2013.1/901 2013/11/27
 26 27  0  0  0  0  0  0  0  0999 V2000
   -0.7817  -40.2285    9.8664 C   0  0  0  0  0  0  0  0  0  0  0  0
   -7.4215  -43.6255   10.8915 C   0  0  0  0  0  0  0  0  0  0  0  0
   -6.4011  -44.5366    5.9637 P   0  0  1  0  0  0  0  0  0  0  0  0
   -7.6336  -42.1707    5.3107 P   0  0  2  0  0  0  0  0  0  0  0  0
   -4.7946  -43.3290   12.5540 C   0  0  0  0  0  0  0  0  0  0  0  0
   -2.5478  -43.1322   11.4374 C   0  0  0  0  0  0  0  0  0  0  0  0
   -3.7304  -42.5174   11.8601 C   0  0  0  0  0  0  0  0  0  0  0  0
   -3.9513  -41.1603   11.6100 C   0  0  0  0  0  0  0  0  0  0  0  0
   -5.0737  -40.5912   11.9964 N   0  0  0  0  0  0  0  0  0  0  0  0
   -2.9801  -40.4162   10.9856 N   0  0  0  0  0  0  0  0  0  0  0  0
   -1.8218  -41.0350   10.5591 C   0  0  0  0  0  0  0  0  0  0  0  0
   -1.5939  -42.3782   10.7923 N   0  0  0  0  0  0  0  0  0  0  0  0
   -7.4100  -45.2874    5.1496 O   0  5  0  0  0  0  0  0  0  0  0  0
   -6.3353  -41.6285    4.8611 O   0  0  0  0  0  0  0  0  0  0  0  0
   -4.9068  -46.6092   10.5894 S   0  0  0  0  0  0  0  0  0  0  0  0
   -4.2973  -45.5180   11.5590 C   0  0  0  0  0  0  0  0  0  0  0  0
   -5.0985  -44.2693    5.2964 O   0  0  0  0  0  0  0  0  0  0  0  0
   -8.5107  -41.1265    5.8735 O   0  5  0  0  0  0  0  0  0  0  0  0
   -5.1358  -44.4513   11.7242 N   0  0  0  0  0  0  0  0  0  0  0  0
   -7.1901  -43.2351    6.3985 O   0  0  0  0  0  0  0  0  0  0  0  0
   -8.4949  -42.8289    4.2820 O   0  0  0  0  0  0  0  0  0  0  0  0
   -6.2761  -44.5869   10.9834 C   0  0  1  0  0  0  0  0  0  0  0  0
   -6.2451  -45.7785   10.3036 C   0  0  2  0  0  0  0  0  0  0  0  0
   -7.2463  -46.4111    9.3692 C   0  0  0  0  0  0  0  0  0  0  0  0
   -7.4007  -45.6149    8.0684 C   0  0  0  0  0  0  0  0  0  0  0  0
   -6.2521  -45.4151    7.2650 O   0  0  0  0  0  0  0  0  0  0  0  0
  1 11  1  0  0  0  0
  3 13  1  6  0  0  0
  3 17  2  0  0  0  0
  3 20  1  0  0  0  0
  3 26  1  0  0  0  0
  4 14  1  6  0  0  0
  4 18  1  0  0  0  0
  4 21  2  0  0  0  0
  4 20  1  0  0  0  0
  5 19  1  0  0  0  0
  5  7  1  0  0  0  0
  6  7  2  0  0  0  0
  6 12  1  0  0  0  0
  7  8  1  0  0  0  0
  8  9  1  0  0  0  0
  8 10  2  0  0  0  0
 10 11  1  0  0  0  0
 11 12  2  0  0  0  0
 15 23  1  0  0  0  0
 15 16  1  0  0  0  0
 16 19  1  0  0  0  0
 19 22  1  0  0  0  0
 22  2  1  1  0  0  0
 22 23  1  0  0  0  0
 23 24  1  1  0  0  0
 24 25  1  0  0  0  0
 25 26  1  0  0  0  0
M  CHG  2  13  -1  18  -1
M  END
>  <CHROM.1>
-66.30929489,72.50984766,-54.33393212,-67.35876175,-114.02020215,58.78431290
-177.09278439,-60.85117310,-5.57197902,-43.51069197,8.66779273,-0.50024663
-0.90051000,-0.73558700

>  <Name>
ligand

>  <RI>
0

>  <Rbt.Current_Directory>
/home/itssahil/PROJECTS/Mol_Feturizer/New_Systems/rnas/3D2G

>  <Rbt.Executable>
rbdock ($Id: //depot/dev/client3/rdock/2013.1/src/exe/rbdock.cxx#4 $)

>  <Rbt.Library>
libRbt.so (2013.1, Build901 2013/11/27)

>  <Rbt.Parameter_File>
/export/apps/rDock/src/rDock_2013.1_src/data/scripts/dock_solv.prm

>  <Rbt.Receptor>
prm/pocket_docking_7.prm

>  <SCORE>
-15.7359

>  <SCORE.INTER>
-12.4131

>  <SCORE.INTER.CONST>
1

>  <SCORE.INTER.POLAR>
0

>  <SCORE.INTER.ROT>
8

>  <SCORE.INTER.SOLV>
12.8055

>  <SCORE.INTER.VDW>
-21.4772

>  <SCORE.INTER.norm>
-0.477427

>  <SCORE.INTRA>
-3.32279

>  <SCORE.INTRA.DIHEDRAL>
-4.2715

>  <SCORE.INTRA.DIHEDRAL.0>
9.09364

>  <SCORE.INTRA.POLAR>
0

>  <SCORE.INTRA.POLAR.0>
0

>  <SCORE.INTRA.REPUL>
0

>  <SCORE.INTRA.REPUL.0>
0

>  <SCORE.INTRA.SOLV>
-1.16969

>  <SCORE.INTRA.SOLV.lig_0>
-78.5846

>  <SCORE.INTRA.VDW>
-0.602197

>  <SCORE.INTRA.VDW.0>
-2.81163

>  <SCORE.INTRA.norm>
-0.1278

>  <SCORE.RESTR>
0

>  <SCORE.RESTR.CAVITY>
0

>  <SCORE.RESTR.norm>
0

>  <SCORE.SYSTEM>
0

>  <SCORE.SYSTEM.CONST>
0

>  <SCORE.SYSTEM.DIHEDRAL>
0

>  <SCORE.SYSTEM.SOLV>
0

>  <SCORE.SYSTEM.norm>
0

>  <SCORE.heavy>
26

>  <SCORE.norm>
-0.605226

>  <RMSD>
8.942

$$$$
ligand
 OpenBabel11021811463D
libRbt.so/2013.1/901 2013/11/27
 26 27  0  0  0  0  0  0  0  0999 V2000
    1.1562  -37.2755    8.7612 C   0  0  0  0  0  0  0  0  0  0  0  0
   -5.8346  -38.0795   11.3298 C   0  0  0  0  0  0  0  0  0  0  0  0
   -4.2775  -42.2080   10.8968 P   0  0  1  0  0  0  0  0  0  0  0  0
   -1.7741  -43.2621   10.4916 P   0  0  2  0  0  0  0  0  0  0  0  0
   -3.3945  -36.2975   12.1190 C   0  0  0  0  0  0  0  0  0  0  0  0
   -1.9222  -37.8633   10.8098 C   0  0  0  0  0  0  0  0  0  0  0  0
   -2.1928  -36.5636   11.2485 C   0  0  0  0  0  0  0  0  0  0  0  0
   -1.3775  -35.4992   10.8541 C   0  0  0  0  0  0  0  0  0  0  0  0
   -1.6471  -34.2755   11.2575 N   0  0  0  0  0  0  0  0  0  0  0  0
   -0.2770  -35.7396   10.0680 N   0  0  0  0  0  0  0  0  0  0  0  0
   -0.0260  -37.0240    9.6280 C   0  0  0  0  0  0  0  0  0  0  0  0
   -0.8288  -38.0847   10.0034 N   0  0  0  0  0  0  0  0  0  0  0  0
   -4.8861  -40.8851   10.5448 O   0  5  0  0  0  0  0  0  0  0  0  0
   -1.3178  -42.8901   11.8463 O   0  0  0  0  0  0  0  0  0  0  0  0
   -3.6957  -39.4068   14.3266 S   0  0  0  0  0  0  0  0  0  0  0  0
   -3.0669  -38.0522   13.8050 C   0  0  0  0  0  0  0  0  0  0  0  0
   -5.0867  -43.4071   10.5493 O   0  0  0  0  0  0  0  0  0  0  0  0
   -0.6741  -43.2507    9.5085 O   0  5  0  0  0  0  0  0  0  0  0  0
   -3.7783  -37.5220   12.7653 N   0  0  0  0  0  0  0  0  0  0  0  0
   -2.8623  -42.1494   10.1906 O   0  0  0  0  0  0  0  0  0  0  0  0
   -2.3778  -44.6183   10.3199 O   0  0  0  0  0  0  0  0  0  0  0  0
   -4.8362  -38.3158   12.4217 C   0  0  1  0  0  0  0  0  0  0  0  0
   -4.8788  -39.4105   13.2482 C   0  0  2  0  0  0  0  0  0  0  0  0
   -5.8401  -40.5717   13.3039 C   0  0  0  0  0  0  0  0  0  0  0  0
   -5.1118  -41.9205   13.3079 C   0  0  0  0  0  0  0  0  0  0  0  0
   -4.0015  -42.0848   12.4447 O   0  0  0  0  0  0  0  0  0  0  0  0
  1 11  1  0  0  0  0
  3 13  1  6  0  0  0
  3 17  2  0  0  0  0
  3 20  1  0  0  0  0
  3 26  1  0  0  0  0
  4 14  1  1  0  0  0
  4 18  1  0  0  0  0
  4 21  2  0  0  0  0
  4 20  1  0  0  0  0
  5 19  1  0  0  0  0
  5  7  1  0  0  0  0
  6  7  2  0  0  0  0
  6 12  1  0  0  0  0
  7  8  1  0  0  0  0
  8  9  1  0  0  0  0
  8 10  2  0  0  0  0
 10 11  1  0  0  0  0
 11 12  2  0  0  0  0
 15 23  1  0  0  0  0
 15 16  1  0  0  0  0
 16 19  1  0  0  0  0
 19 22  1  0  0  0  0
 22  2  1  1  0  0  0
 22 23  1  0  0  0  0
 23 24  1  1  0  0  0
 24 25  1  0  0  0  0
 25 26  1  0  0  0  0
M  CHG  2  13  -1  18  -1
M  END
>  <CHROM.1>
170.24841554,74.33568472,22.00321018,-74.26930866,-51.27483080,-41.66763924
-72.07386451,63.19053844,-2.93617199,-39.91231639,11.41939069,-1.26335148
-0.63802017,-2.95831614

>  <Name>
ligand

>  <RI>
0

>  <Rbt.Current_Directory>
/home/itssahil/PROJECTS/Mol_Feturizer/New_Systems/rnas/3D2G

>  <Rbt.Executable>
rbdock ($Id: //depot/dev/client3/rdock/2013.1/src/exe/rbdock.cxx#4 $)

>  <Rbt.Library>
libRbt.so (2013.1, Build901 2013/11/27)

>  <Rbt.Parameter_File>
/export/apps/rDock/src/rDock_2013.1_src/data/scripts/dock_solv.prm

>  <Rbt.Receptor>
prm/blind_docking_60.prm

>  <SCORE>
-19.5157

>  <SCORE.INTER>
-17.6607

>  <SCORE.INTER.CONST>
1

>  <SCORE.INTER.POLAR>
0

>  <SCORE.INTER.ROT>
8

>  <SCORE.INTER.SOLV>
12.089

>  <SCORE.INTER.VDW>
-24.7368

>  <SCORE.INTER.norm>
-0.679259

>  <SCORE.INTRA>
-1.85495

>  <SCORE.INTRA.DIHEDRAL>
-1.85217

>  <SCORE.INTRA.DIHEDRAL.0>
9.09364

>  <SCORE.INTRA.POLAR>
0

>  <SCORE.INTRA.POLAR.0>
0

>  <SCORE.INTRA.REPUL>
0

>  <SCORE.INTRA.REPUL.0>
0

>  <SCORE.INTRA.SOLV>
-0.565965

>  <SCORE.INTRA.SOLV.lig_0>
-78.5846

>  <SCORE.INTRA.VDW>
-0.645884

>  <SCORE.INTRA.VDW.0>
-2.81163

>  <SCORE.INTRA.norm>
-0.0713443

>  <SCORE.RESTR>
0

>  <SCORE.RESTR.CAVITY>
0

>  <SCORE.RESTR.norm>
0

>  <SCORE.SYSTEM>
0

>  <SCORE.SYSTEM.CONST>
0

>  <SCORE.SYSTEM.DIHEDRAL>
0

>  <SCORE.SYSTEM.SOLV>
0

>  <SCORE.SYSTEM.norm>
0

>  <SCORE.heavy>
26

>  <SCORE.norm>
-0.750603

>  <RMSD>
8.943

$$$$
ligand
 OpenBabel11021811463D
libRbt.so/2013.1/901 2013/11/27
 26 27  0  0  0  0  0  0  0  0999 V2000
   -0.4600  -33.6311    8.4099 C   0  0  0  0  0  0  0  0  0  0  0  0
   -3.1674  -38.0914   14.1576 C   0  0  0  0  0  0  0  0  0  0  0  0
   -4.6869  -41.4244   10.0373 P   0  0  1  0  0  0  0  0  0  0  0  0
   -4.5728  -44.0251   10.9126 P   0  0  2  0  0  0  0  0  0  0  0  0
   -3.5642  -35.2331   12.9637 C   0  0  0  0  0  0  0  0  0  0  0  0
   -2.0246  -35.7774   11.0489 C   0  0  0  0  0  0  0  0  0  0  0  0
   -2.7355  -34.8172   11.7751 C   0  0  0  0  0  0  0  0  0  0  0  0
   -2.7149  -33.4756   11.3841 C   0  0  0  0  0  0  0  0  0  0  0  0
   -3.3994  -32.5788   12.0627 N   0  0  0  0  0  0  0  0  0  0  0  0
   -1.9541  -33.0920   10.3068 N   0  0  0  0  0  0  0  0  0  0  0  0
   -1.2670  -34.0494    9.5872 C   0  0  0  0  0  0  0  0  0  0  0  0
   -1.2853  -35.3809    9.9576 N   0  0  0  0  0  0  0  0  0  0  0  0
   -3.8019  -42.0340    8.9935 O   0  5  0  0  0  0  0  0  0  0  0  0
   -3.4077  -43.5542   11.6889 O   0  0  0  0  0  0  0  0  0  0  0  0
   -6.0315  -37.7689   11.5098 S   0  0  0  0  0  0  0  0  0  0  0  0
   -5.3522  -36.3543   11.7088 C   0  0  0  0  0  0  0  0  0  0  0  0
   -5.6297  -40.3782    9.5577 O   0  0  0  0  0  0  0  0  0  0  0  0
   -4.1777  -44.6575    9.6396 O   0  5  0  0  0  0  0  0  0  0  0  0
   -4.3268  -36.3988   12.6115 N   0  0  0  0  0  0  0  0  0  0  0  0
   -5.3881  -42.6838   10.6910 O   0  0  0  0  0  0  0  0  0  0  0  0
   -5.4524  -45.0511   11.5505 O   0  0  0  0  0  0  0  0  0  0  0  0
   -4.1703  -37.6512   13.1353 C   0  0  1  0  0  0  0  0  0  0  0  0
   -5.0883  -38.5033   12.5747 C   0  0  2  0  0  0  0  0  0  0  0  0
   -5.3320  -39.9763   12.7903 C   0  0  0  0  0  0  0  0  0  0  0  0
   -4.0937  -40.8176   12.4605 C   0  0  0  0  0  0  0  0  0  0  0  0
   -3.6676  -40.8822   11.1117 O   0  0  0  0  0  0  0  0  0  0  0  0
  1 11  1  0  0  0  0
  3 13  1  6  0  0  0
  3 17  2  0  0  0  0
  3 20  1  0  0  0  0
  3 26  1  0  0  0  0
  4 14  1  1  0  0  0
  4 18  1  0  0  0  0
  4 21  2  0  0  0  0
  4 20  1  0  0  0  0
  5 19  1  0  0  0  0
  5  7  1  0  0  0  0
  6  7  2  0  0  0  0
  6 12  1  0  0  0  0
  7  8  1  0  0  0  0
  8  9  1  0  0  0  0
  8 10  2  0  0  0  0
 10 11  1  0  0  0  0
 11 12  2  0  0  0  0
 15 23  1  0  0  0  0
 15 16  1  0  0  0  0
 16 19  1  0  0  0  0
 19 22  1  0  0  0  0
 22  2  1  6  0  0  0
 22 23  1  0  0  0  0
 23 24  1  6  0  0  0
 24 25  1  0  0  0  0
 25 26  1  0  0  0  0
M  CHG  2  13  -1  18  -1
M  END
>  <CHROM.1>
37.90334147,-68.81043664,-45.41891591,54.44479742,120.18069491,-67.13235504
-58.24725616,-150.97859092,-3.95781001,-38.93920192,11.16492917,-1.19674584
-0.89378034,-2.81219961

>  <Name>
ligand

>  <RI>
0

>  <Rbt.Current_Directory>
/home/itssahil/PROJECTS/Mol_Feturizer/New_Systems/rnas/3D2G

>  <Rbt.Executable>
rbdock ($Id: //depot/dev/client3/rdock/2013.1/src/exe/rbdock.cxx#4 $)

>  <Rbt.Library>
libRbt.so (2013.1, Build901 2013/11/27)

>  <Rbt.Parameter_File>
/export/apps/rDock/src/rDock_2013.1_src/data/scripts/dock_solv.prm

>  <Rbt.Receptor>
prm/blind_docking_60.prm

>  <SCORE>
-17.0435

>  <SCORE.INTER>
-14.4731

>  <SCORE.INTER.CONST>
1

>  <SCORE.INTER.POLAR>
0

>  <SCORE.INTER.ROT>
8

>  <SCORE.INTER.SOLV>
9.33687

>  <SCORE.INTER.VDW>
-21.6944

>  <SCORE.INTER.norm>
-0.556659

>  <SCORE.INTRA>
-2.57037

>  <SCORE.INTRA.DIHEDRAL>
-3.0004

>  <SCORE.INTRA.DIHEDRAL.0>
9.09364

>  <SCORE.INTRA.POLAR>
0

>  <SCORE.INTRA.POLAR.0>
0

>  <SCORE.INTRA.REPUL>
0

>  <SCORE.INTRA.REPUL.0>
0

>  <SCORE.INTRA.SOLV>
-1.23609

>  <SCORE.INTRA.SOLV.lig_0>
-78.5846

>  <SCORE.INTRA.VDW>
-0.452126

>  <SCORE.INTRA.VDW.0>
-2.81163

>  <SCORE.INTRA.norm>
-0.0988604

>  <SCORE.RESTR>
0

>  <SCORE.RESTR.CAVITY>
0

>  <SCORE.RESTR.norm>
0

>  <SCORE.SYSTEM>
0

>  <SCORE.SYSTEM.CONST>
0

>  <SCORE.SYSTEM.DIHEDRAL>
0

>  <SCORE.SYSTEM.SOLV>
0

>  <SCORE.SYSTEM.norm>
0

>  <SCORE.heavy>
26

>  <SCORE.norm>
-0.65552

>  <RMSD>
8.947

$$$$
ligand
 OpenBabel11021811463D
libRbt.so/2013.1/901 2013/11/27
 26 27  0  0  0  0  0  0  0  0999 V2000
   -0.6720  -40.1932    9.4846 C   0  0  0  0  0  0  0  0  0  0  0  0
   -4.3481  -45.8896   11.0074 C   0  0  0  0  0  0  0  0  0  0  0  0
   -6.3936  -44.2526    6.0430 P   0  0  1  0  0  0  0  0  0  0  0  0
   -8.0697  -42.3718    4.9494 P   0  0  2  0  0  0  0  0  0  0  0  0
   -4.2963  -43.2672   12.7024 C   0  0  0  0  0  0  0  0  0  0  0  0
   -2.1981  -43.0738   11.3263 C   0  0  0  0  0  0  0  0  0  0  0  0
   -3.3328  -42.4622   11.8680 C   0  0  0  0  0  0  0  0  0  0  0  0
   -3.6023  -41.1153   11.6101 C   0  0  0  0  0  0  0  0  0  0  0  0
   -4.6808  -40.5496   12.1100 N   0  0  0  0  0  0  0  0  0  0  0  0
   -2.7220  -40.3769   10.8574 N   0  0  0  0  0  0  0  0  0  0  0  0
   -1.6118  -40.9930   10.3148 C   0  0  0  0  0  0  0  0  0  0  0  0
   -1.3375  -42.3263   10.5547 N   0  0  0  0  0  0  0  0  0  0  0  0
   -7.0844  -45.3274    5.2607 O   0  5  0  0  0  0  0  0  0  0  0  0
   -8.8081  -43.4284    4.2282 O   0  0  0  0  0  0  0  0  0  0  0  0
   -7.5784  -43.6913   10.7841 S   0  0  0  0  0  0  0  0  0  0  0  0
   -6.5455  -42.9917   11.7568 C   0  0  0  0  0  0  0  0  0  0  0  0
   -5.1233  -43.7416    5.4611 O   0  0  0  0  0  0  0  0  0  0  0  0
   -6.9850  -41.7922    4.1346 O   0  5  0  0  0  0  0  0  0  0  0  0
   -5.3821  -43.7006   11.8671 N   0  0  0  0  0  0  0  0  0  0  0  0
   -7.5206  -43.1546    6.2138 O   0  0  0  0  0  0  0  0  0  0  0  0
   -8.8459  -41.1749    5.3945 O   0  0  0  0  0  0  0  0  0  0  0  0
   -5.4209  -44.8510   11.1306 C   0  0  1  0  0  0  0  0  0  0  0  0
   -6.6242  -44.9394   10.4769 C   0  0  2  0  0  0  0  0  0  0  0  0
   -7.1654  -45.9883    9.5373 C   0  0  0  0  0  0  0  0  0  0  0  0
   -7.3306  -45.4515    8.1110 C   0  0  0  0  0  0  0  0  0  0  0  0
   -6.1954  -44.9038    7.4657 O   0  0  0  0  0  0  0  0  0  0  0  0
  1 11  1  0  0  0  0
  3 13  1  6  0  0  0
  3 17  2  0  0  0  0
  3 20  1  0  0  0  0
  3 26  1  0  0  0  0
  4 14  1  6  0  0  0
  4 18  1  0  0  0  0
  4 21  2  0  0  0  0
  4 20  1  0  0  0  0
  5 19  1  0  0  0  0
  5  7  1  0  0  0  0
  6  7  2  0  0  0  0
  6 12  1  0  0  0  0
  7  8  1  0  0  0  0
  8  9  1  0  0  0  0
  8 10  2  0  0  0  0
 10 11  1  0  0  0  0
 11 12  2  0  0  0  0
 15 23  1  0  0  0  0
 15 16  1  0  0  0  0
 16 19  1  0  0  0  0
 19 22  1  0  0  0  0
 22  2  1  6  0  0  0
 22 23  1  0  0  0  0
 23 24  1  6  0  0  0
 24 25  1  0  0  0  0
 25 26  1  0  0  0  0
M  CHG  2  13  -1  18  -1
M  END
>  <CHROM.1>
-66.51326236,-93.60800233,-96.65656964,69.32689806,66.80630337,56.57868425
-175.38487227,-52.83046022,-5.71216519,-43.20462546,8.62856302,-0.74972174
-0.68248531,-1.14267907

>  <Name>
ligand

>  <RI>
0

>  <Rbt.Current_Directory>
/home/itssahil/PROJECTS/Mol_Feturizer/New_Systems/rnas/3D2G

>  <Rbt.Executable>
rbdock ($Id: //depot/dev/client3/rdock/2013.1/src/exe/rbdock.cxx#4 $)

>  <Rbt.Library>
libRbt.so (2013.1, Build901 2013/11/27)

>  <Rbt.Parameter_File>
/export/apps/rDock/src/rDock_2013.1_src/data/scripts/dock_solv.prm

>  <Rbt.Receptor>
prm/pocket_docking_5.prm

>  <SCORE>
-15.2695

>  <SCORE.INTER>
-12.2371

>  <SCORE.INTER.CONST>
1

>  <SCORE.INTER.POLAR>
0

>  <SCORE.INTER.ROT>
8

>  <SCORE.INTER.SOLV>
11.117

>  <SCORE.INTER.VDW>
-20.7971

>  <SCORE.INTER.norm>
-0.470658

>  <SCORE.INTRA>
-3.03238

>  <SCORE.INTRA.DIHEDRAL>
-3.54844

>  <SCORE.INTRA.DIHEDRAL.0>
9.09364

>  <SCORE.INTRA.POLAR>
0

>  <SCORE.INTRA.POLAR.0>
0

>  <SCORE.INTRA.REPUL>
0

>  <SCORE.INTRA.REPUL.0>
0

>  <SCORE.INTRA.SOLV>
-0.780776

>  <SCORE.INTRA.SOLV.lig_0>
-78.5846

>  <SCORE.INTRA.VDW>
-0.867769

>  <SCORE.INTRA.VDW.0>
-2.81163

>  <SCORE.INTRA.norm>
-0.11663

>  <SCORE.RESTR>
0

>  <SCORE.RESTR.CAVITY>
0

>  <SCORE.RESTR.norm>
0

>  <SCORE.SYSTEM>
0

>  <SCORE.SYSTEM.CONST>
0

>  <SCORE.SYSTEM.DIHEDRAL>
0

>  <SCORE.SYSTEM.SOLV>
0

>  <SCORE.SYSTEM.norm>
0

>  <SCORE.heavy>
26

>  <SCORE.norm>
-0.587288

>  <RMSD>
8.961

$$$$
ligand
 OpenBabel11021811463D
libRbt.so/2013.1/901 2013/11/27
 26 27  0  0  0  0  0  0  0  0999 V2000
   -1.2624  -32.8439    8.9631 C   0  0  0  0  0  0  0  0  0  0  0  0
   -1.6764  -40.1576    9.5151 C   0  0  0  0  0  0  0  0  0  0  0  0
   -7.8160  -41.0068    7.9738 P   0  0  1  0  0  0  0  0  0  0  0  0
   -8.6306  -40.6669    5.3731 P   0  0  2  0  0  0  0  0  0  0  0  0
   -1.9475  -37.8782   11.6325 C   0  0  0  0  0  0  0  0  0  0  0  0
   -2.7138  -35.5359   11.1231 C   0  0  0  0  0  0  0  0  0  0  0  0
   -1.7812  -36.5583   10.9233 C   0  0  0  0  0  0  0  0  0  0  0  0
   -0.6717  -36.3533   10.0988 C   0  0  0  0  0  0  0  0  0  0  0  0
    0.2112  -37.3146    9.9276 N   0  0  0  0  0  0  0  0  0  0  0  0
   -0.5218  -35.1548    9.4445 N   0  0  0  0  0  0  0  0  0  0  0  0
   -1.4400  -34.1462    9.6592 C   0  0  0  0  0  0  0  0  0  0  0  0
   -2.5374  -34.3324   10.4787 N   0  0  0  0  0  0  0  0  0  0  0  0
   -8.9784  -40.1019    8.2463 O   0  5  0  0  0  0  0  0  0  0  0  0
  -10.0013  -40.3079    5.7904 O   0  0  0  0  0  0  0  0  0  0  0  0
   -5.3430  -39.2790   10.5646 S   0  0  0  0  0  0  0  0  0  0  0  0
   -4.3420  -38.3505   11.3635 C   0  0  0  0  0  0  0  0  0  0  0  0
   -7.5254  -42.0227    9.0213 O   0  0  0  0  0  0  0  0  0  0  0  0
   -8.6048  -41.3473    4.0644 O   0  5  0  0  0  0  0  0  0  0  0  0
   -3.0388  -38.5932   11.0304 N   0  0  0  0  0  0  0  0  0  0  0  0
   -8.1618  -41.6149    6.5540 O   0  0  0  0  0  0  0  0  0  0  0  0
   -7.6515  -39.5509    5.2025 O   0  0  0  0  0  0  0  0  0  0  0  0
   -2.9321  -39.5997   10.1123 C   0  0  1  0  0  0  0  0  0  0  0  0
   -4.1832  -40.0560    9.7811 C   0  0  2  0  0  0  0  0  0  0  0  0
   -4.6216  -41.1317    8.8187 C   0  0  0  0  0  0  0  0  0  0  0  0
   -5.3198  -40.5487    7.5849 C   0  0  0  0  0  0  0  0  0  0  0  0
   -6.6183  -40.0068    7.7436 O   0  0  0  0  0  0  0  0  0  0  0  0
  1 11  1  0  0  0  0
  3 13  1  1  0  0  0
  3 17  2  0  0  0  0
  3 20  1  0  0  0  0
  3 26  1  0  0  0  0
  4 14  1  1  0  0  0
  4 18  1  0  0  0  0
  4 21  2  0  0  0  0
  4 20  1  0  0  0  0
  5 19  1  0  0  0  0
  5  7  1  0  0  0  0
  6  7  2  0  0  0  0
  6 12  1  0  0  0  0
  7  8  1  0  0  0  0
  8  9  1  0  0  0  0
  8 10  2  0  0  0  0
 10 11  1  0  0  0  0
 11 12  2  0  0  0  0
 15 23  1  0  0  0  0
 15 16  1  0  0  0  0
 16 19  1  0  0  0  0
 19 22  1  0  0  0  0
 22  2  1  6  0  0  0
 22 23  1  0  0  0  0
 23 24  1  6  0  0  0
 24 25  1  0  0  0  0
 25 26  1  0  0  0  0
M  CHG  2  13  -1  18  -1
M  END
>  <CHROM.1>
47.50355195,-82.26863438,72.70125067,-72.83691738,69.63158666,-71.79535860
-72.40160143,174.01191110,-5.04884924,-38.94554939,8.65317784,0.18570925
-0.72022350,-0.61723558

>  <Name>
ligand

>  <RI>
0

>  <Rbt.Current_Directory>
/home/itssahil/PROJECTS/Mol_Feturizer/New_Systems/rnas/3D2G

>  <Rbt.Executable>
rbdock ($Id: //depot/dev/client3/rdock/2013.1/src/exe/rbdock.cxx#4 $)

>  <Rbt.Library>
libRbt.so (2013.1, Build901 2013/11/27)

>  <Rbt.Parameter_File>
/export/apps/rDock/src/rDock_2013.1_src/data/scripts/dock_solv.prm

>  <Rbt.Receptor>
prm/blind_docking_100.prm

>  <SCORE>
-14.7854

>  <SCORE.INTER>
-12.933

>  <SCORE.INTER.CONST>
1

>  <SCORE.INTER.POLAR>
0

>  <SCORE.INTER.ROT>
8

>  <SCORE.INTER.SOLV>
21.8488

>  <SCORE.INTER.VDW>
-24.8382

>  <SCORE.INTER.norm>
-0.497422

>  <SCORE.INTRA>
-1.85244

>  <SCORE.INTRA.DIHEDRAL>
-2.0675

>  <SCORE.INTRA.DIHEDRAL.0>
9.09364

>  <SCORE.INTRA.POLAR>
0

>  <SCORE.INTRA.POLAR.0>
0

>  <SCORE.INTRA.REPUL>
0

>  <SCORE.INTRA.REPUL.0>
0

>  <SCORE.INTRA.SOLV>
0.882359

>  <SCORE.INTRA.SOLV.lig_0>
-78.5846

>  <SCORE.INTRA.VDW>
-1.25987

>  <SCORE.INTRA.VDW.0>
-2.81163

>  <SCORE.INTRA.norm>
-0.0712478

>  <SCORE.RESTR>
0

>  <SCORE.RESTR.CAVITY>
0

>  <SCORE.RESTR.norm>
0

>  <SCORE.SYSTEM>
0

>  <SCORE.SYSTEM.CONST>
0

>  <SCORE.SYSTEM.DIHEDRAL>
0

>  <SCORE.SYSTEM.SOLV>
0

>  <SCORE.SYSTEM.norm>
0

>  <SCORE.heavy>
26

>  <SCORE.norm>
-0.568669

>  <RMSD>
8.966

$$$$
ligand
 OpenBabel11021811463D
libRbt.so/2013.1/901 2013/11/27
 26 27  0  0  0  0  0  0  0  0999 V2000
    1.3500  -37.3863    8.6192 C   0  0  0  0  0  0  0  0  0  0  0  0
   -6.0651  -37.7243   11.6184 C   0  0  0  0  0  0  0  0  0  0  0  0
   -3.9893  -43.2990   12.1701 P   0  0  1  0  0  0  0  0  0  0  0  0
   -4.2971  -43.5197    9.4499 P   0  0  2  0  0  0  0  0  0  0  0  0
   -3.3291  -36.2230   11.7325 C   0  0  0  0  0  0  0  0  0  0  0  0
   -1.8030  -37.8603   10.5820 C   0  0  0  0  0  0  0  0  0  0  0  0
   -2.0941  -36.5370   10.9270 C   0  0  0  0  0  0  0  0  0  0  0  0
   -1.2674  -35.4952   10.4976 C   0  0  0  0  0  0  0  0  0  0  0  0
   -1.5558  -34.2499   10.8123 N   0  0  0  0  0  0  0  0  0  0  0  0
   -0.1368  -35.7787    9.7708 N   0  0  0  0  0  0  0  0  0  0  0  0
    0.1347  -37.0870    9.4227 C   0  0  0  0  0  0  0  0  0  0  0  0
   -0.6789  -38.1262    9.8334 N   0  0  0  0  0  0  0  0  0  0  0  0
   -4.5780  -44.5396   12.7691 O   0  5  0  0  0  0  0  0  0  0  0  0
   -4.2054  -44.9871    9.5917 O   0  0  0  0  0  0  0  0  0  0  0  0
   -3.4385  -39.2235   14.1026 S   0  0  0  0  0  0  0  0  0  0  0  0
   -2.8067  -37.9644   13.3828 C   0  0  0  0  0  0  0  0  0  0  0  0
   -2.5216  -43.3289   11.9286 O   0  0  0  0  0  0  0  0  0  0  0  0
   -2.9897  -42.9040    9.1532 O   0  5  0  0  0  0  0  0  0  0  0  0
   -3.6808  -37.3787   12.5104 N   0  0  0  0  0  0  0  0  0  0  0  0
   -4.8603  -43.0839   10.8662 O   0  0  0  0  0  0  0  0  0  0  0  0
   -5.1827  -42.9894    8.3694 O   0  0  0  0  0  0  0  0  0  0  0  0
   -4.8696  -38.0507   12.4605 C   0  0  1  0  0  0  0  0  0  0  0  0
   -4.8352  -39.1133   13.3281 C   0  0  2  0  0  0  0  0  0  0  0  0
   -5.8768  -40.1521   13.6623 C   0  0  0  0  0  0  0  0  0  0  0  0
   -5.6286  -41.4725   12.9242 C   0  0  0  0  0  0  0  0  0  0  0  0
   -4.4198  -42.1648   13.1779 O   0  0  0  0  0  0  0  0  0  0  0  0
  1 11  1  0  0  0  0
  3 13  1  1  0  0  0
  3 17  2  0  0  0  0
  3 20  1  0  0  0  0
  3 26  1  0  0  0  0
  4 14  1  6  0  0  0
  4 18  1  0  0  0  0
  4 21  2  0  0  0  0
  4 20  1  0  0  0  0
  5 19  1  0  0  0  0
  5  7  1  0  0  0  0
  6  7  2  0  0  0  0
  6 12  1  0  0  0  0
  7  8  1  0  0  0  0
  8  9  1  0  0  0  0
  8 10  2  0  0  0  0
 10 11  1  0  0  0  0
 11 12  2  0  0  0  0
 15 23  1  0  0  0  0
 15 16  1  0  0  0  0
 16 19  1  0  0  0  0
 19 22  1  0  0  0  0
 22  2  1  1  0  0  0
 22 23  1  0  0  0  0
 23 24  1  1  0  0  0
 24 25  1  0  0  0  0
 25 26  1  0  0  0  0
M  CHG  2  13  -1  18  -1
M  END
>  <CHROM.1>
-100.65243561,56.30505555,25.90084037,65.26656638,-80.60297665,61.45587972
-164.39254639,-92.10967458,-3.35066067,-40.11722172,11.34841029,-0.95543949
-0.85333365,-2.69041661

>  <Name>
ligand

>  <RI>
0

>  <Rbt.Current_Directory>
/home/itssahil/PROJECTS/Mol_Feturizer/New_Systems/rnas/3D2G

>  <Rbt.Executable>
rbdock ($Id: //depot/dev/client3/rdock/2013.1/src/exe/rbdock.cxx#4 $)

>  <Rbt.Library>
libRbt.so (2013.1, Build901 2013/11/27)

>  <Rbt.Parameter_File>
/export/apps/rDock/src/rDock_2013.1_src/data/scripts/dock_solv.prm

>  <Rbt.Receptor>
prm/blind_docking_100.prm

>  <SCORE>
-17.0762

>  <SCORE.INTER>
-16.1428

>  <SCORE.INTER.CONST>
1

>  <SCORE.INTER.POLAR>
0

>  <SCORE.INTER.ROT>
8

>  <SCORE.INTER.SOLV>
13.2665

>  <SCORE.INTER.VDW>
-24.1173

>  <SCORE.INTER.norm>
-0.620876

>  <SCORE.INTRA>
-0.964023

>  <SCORE.INTRA.DIHEDRAL>
0.250563

>  <SCORE.INTRA.DIHEDRAL.0>
9.09364

>  <SCORE.INTRA.POLAR>
0

>  <SCORE.INTRA.POLAR.0>
0

>  <SCORE.INTRA.REPUL>
0

>  <SCORE.INTRA.REPUL.0>
0

>  <SCORE.INTRA.SOLV>
-2.65477

>  <SCORE.INTRA.SOLV.lig_0>
-78.5846

>  <SCORE.INTRA.VDW>
0.238082

>  <SCORE.INTRA.VDW.0>
-2.81163

>  <SCORE.INTRA.norm>
-0.0370778

>  <SCORE.RESTR>
0.030614

>  <SCORE.RESTR.CAVITY>
0.030614

>  <SCORE.RESTR.norm>
0.00117746

>  <SCORE.SYSTEM>
0

>  <SCORE.SYSTEM.CONST>
0

>  <SCORE.SYSTEM.DIHEDRAL>
0

>  <SCORE.SYSTEM.SOLV>
0

>  <SCORE.SYSTEM.norm>
0

>  <SCORE.heavy>
26

>  <SCORE.norm>
-0.656777

>  <RMSD>
8.978

$$$$
ligand
 OpenBabel11021811463D
libRbt.so/2013.1/901 2013/11/27
 26 27  0  0  0  0  0  0  0  0999 V2000
   -2.0922  -32.0820    9.4338 C   0  0  0  0  0  0  0  0  0  0  0  0
   -3.2398  -39.4095   14.0675 C   0  0  0  0  0  0  0  0  0  0  0  0
   -4.6944  -43.1962   11.8929 P   0  0  1  0  0  0  0  0  0  0  0  0
   -2.4295  -42.6035   10.4570 P   0  0  2  0  0  0  0  0  0  0  0  0
   -2.1753  -37.0046   12.3834 C   0  0  0  0  0  0  0  0  0  0  0  0
   -1.5691  -35.6790   10.3319 C   0  0  0  0  0  0  0  0  0  0  0  0
   -2.1374  -35.7118   11.6090 C   0  0  0  0  0  0  0  0  0  0  0  0
   -2.7070  -34.5607   12.1601 C   0  0  0  0  0  0  0  0  0  0  0  0
   -3.2548  -34.6021   13.3565 N   0  0  0  0  0  0  0  0  0  0  0  0
   -2.6665  -33.3792   11.4607 N   0  0  0  0  0  0  0  0  0  0  0  0
   -2.1162  -33.3598   10.1945 C   0  0  0  0  0  0  0  0  0  0  0  0
   -1.5570  -34.4927    9.6338 N   0  0  0  0  0  0  0  0  0  0  0  0
   -5.9377  -43.9660   11.5670 O   0  5  0  0  0  0  0  0  0  0  0  0
   -1.6678  -43.2913   11.5193 O   0  0  0  0  0  0  0  0  0  0  0  0
   -5.8495  -37.7762   11.6510 S   0  0  0  0  0  0  0  0  0  0  0  0
   -4.4731  -37.0080   11.5181 C   0  0  0  0  0  0  0  0  0  0  0  0
   -3.9668  -43.6273   13.1169 O   0  0  0  0  0  0  0  0  0  0  0  0
   -2.5059  -41.1468   10.6778 O   0  5  0  0  0  0  0  0  0  0  0  0
   -3.5072  -37.5404   12.3254 N   0  0  0  0  0  0  0  0  0  0  0  0
   -3.8482  -43.3033   10.5596 O   0  0  0  0  0  0  0  0  0  0  0  0
   -1.9113  -42.7152    9.0598 O   0  0  0  0  0  0  0  0  0  0  0  0
   -3.9875  -38.5840   13.0654 C   0  0  1  0  0  0  0  0  0  0  0  0
   -5.3070  -38.7995   12.7562 C   0  0  2  0  0  0  0  0  0  0  0  0
   -6.2895  -39.8224   13.2699 C   0  0  0  0  0  0  0  0  0  0  0  0
   -5.7226  -41.2453   13.2076 C   0  0  0  0  0  0  0  0  0  0  0  0
   -5.1977  -41.7038   11.9751 O   0  0  0  0  0  0  0  0  0  0  0  0
  1 11  1  0  0  0  0
  3 13  1  6  0  0  0
  3 17  2  0  0  0  0
  3 20  1  0  0  0  0
  3 26  1  0  0  0  0
  4 14  1  1  0  0  0
  4 18  1  0  0  0  0
  4 21  2  0  0  0  0
  4 20  1  0  0  0  0
  5 19  1  0  0  0  0
  5  7  1  0  0  0  0
  6  7  2  0  0  0  0
  6 12  1  0  0  0  0
  7  8  1  0  0  0  0
  8  9  1  0  0  0  0
  8 10  2  0  0  0  0
 10 11  1  0  0  0  0
 11 12  2  0  0  0  0
 15 23  1  0  0  0  0
 15 16  1  0  0  0  0
 16 19  1  0  0  0  0
 19 22  1  0  0  0  0
 22  2  1  6  0  0  0
 22 23  1  0  0  0  0
 23 24  1  6  0  0  0
 24 25  1  0  0  0  0
 25 26  1  0  0  0  0
M  CHG  2  13  -1  18  -1
M  END
>  <CHROM.1>
179.51032686,8.49264804,-103.22595834,61.44912649,129.09840439,-52.64745324
-176.42809854,85.90082949,-3.60925107,-39.21974260,11.60884751,-1.37105911
-0.65579311,-3.06827696

>  <Name>
ligand

>  <RI>
0

>  <Rbt.Current_Directory>
/home/itssahil/PROJECTS/Mol_Feturizer/New_Systems/rnas/3D2G

>  <Rbt.Executable>
rbdock ($Id: //depot/dev/client3/rdock/2013.1/src/exe/rbdock.cxx#4 $)

>  <Rbt.Library>
libRbt.so (2013.1, Build901 2013/11/27)

>  <Rbt.Parameter_File>
/export/apps/rDock/src/rDock_2013.1_src/data/scripts/dock_solv.prm

>  <Rbt.Receptor>
prm/blind_docking_60.prm

>  <SCORE>
-16.1161

>  <SCORE.INTER>
-13.6531

>  <SCORE.INTER.CONST>
1

>  <SCORE.INTER.POLAR>
0

>  <SCORE.INTER.ROT>
8

>  <SCORE.INTER.SOLV>
12.3003

>  <SCORE.INTER.VDW>
-22.1355

>  <SCORE.INTER.norm>
-0.525118

>  <SCORE.INTRA>
-2.46298

>  <SCORE.INTRA.DIHEDRAL>
-3.51958

>  <SCORE.INTRA.DIHEDRAL.0>
9.09364

>  <SCORE.INTRA.POLAR>
0

>  <SCORE.INTRA.POLAR.0>
0

>  <SCORE.INTRA.REPUL>
0

>  <SCORE.INTRA.REPUL.0>
0

>  <SCORE.INTRA.SOLV>
-0.681715

>  <SCORE.INTRA.SOLV.lig_0>
-78.5846

>  <SCORE.INTRA.VDW>
-0.362332

>  <SCORE.INTRA.VDW.0>
-2.81163

>  <SCORE.INTRA.norm>
-0.0947299

>  <SCORE.RESTR>
0

>  <SCORE.RESTR.CAVITY>
0

>  <SCORE.RESTR.norm>
0

>  <SCORE.SYSTEM>
0

>  <SCORE.SYSTEM.CONST>
0

>  <SCORE.SYSTEM.DIHEDRAL>
0

>  <SCORE.SYSTEM.SOLV>
0

>  <SCORE.SYSTEM.norm>
0

>  <SCORE.heavy>
26

>  <SCORE.norm>
-0.619848

>  <RMSD>
8.985

$$$$
ligand
 OpenBabel11021811463D
libRbt.so/2013.1/901 2013/11/27
 26 27  0  0  0  0  0  0  0  0999 V2000
    1.1930  -37.1427    8.8678 C   0  0  0  0  0  0  0  0  0  0  0  0
   -5.7667  -38.2103   11.2639 C   0  0  0  0  0  0  0  0  0  0  0  0
   -3.5585  -42.6054   10.7436 P   0  0  1  0  0  0  0  0  0  0  0  0
   -0.8277  -42.3854   10.9371 P   0  0  2  0  0  0  0  0  0  0  0  0
   -3.4756  -36.2538   12.0856 C   0  0  0  0  0  0  0  0  0  0  0  0
   -1.9316  -37.7911   10.8263 C   0  0  0  0  0  0  0  0  0  0  0  0
   -2.2431  -36.4963   11.2521 C   0  0  0  0  0  0  0  0  0  0  0  0
   -1.4396  -35.4156   10.8782 C   0  0  0  0  0  0  0  0  0  0  0  0
   -1.7474  -34.1968   11.2691 N   0  0  0  0  0  0  0  0  0  0  0  0
   -0.3113  -35.6344   10.1260 N   0  0  0  0  0  0  0  0  0  0  0  0
   -0.0197  -36.9144    9.6982 C   0  0  0  0  0  0  0  0  0  0  0  0
   -0.8102  -37.9911   10.0534 N   0  0  0  0  0  0  0  0  0  0  0  0
   -3.2487  -42.0318    9.3947 O   0  5  0  0  0  0  0  0  0  0  0  0
   -0.6509  -41.0636   10.3022 O   0  0  0  0  0  0  0  0  0  0  0  0
   -3.7066  -39.2788   14.4153 S   0  0  0  0  0  0  0  0  0  0  0  0
   -3.1317  -37.9124   13.8631 C   0  0  0  0  0  0  0  0  0  0  0  0
   -3.9293  -44.0461   10.7661 O   0  0  0  0  0  0  0  0  0  0  0  0
   -0.7546  -43.4889    9.9607 O   0  5  0  0  0  0  0  0  0  0  0  0
   -3.8199  -37.4704   12.7680 N   0  0  0  0  0  0  0  0  0  0  0  0
   -2.2672  -42.2513   11.5875 O   0  0  0  0  0  0  0  0  0  0  0  0
    0.1637  -42.7819   11.9826 O   0  0  0  0  0  0  0  0  0  0  0  0
   -4.8119  -38.3399   12.4112 C   0  0  1  0  0  0  0  0  0  0  0  0
   -4.8323  -39.3990   13.2835 C   0  0  2  0  0  0  0  0  0  0  0  0
   -5.7267  -40.6122   13.3465 C   0  0  0  0  0  0  0  0  0  0  0  0
   -5.1068  -41.8203   12.6352 C   0  0  0  0  0  0  0  0  0  0  0  0
   -4.7073  -41.6703   11.2851 O   0  0  0  0  0  0  0  0  0  0  0  0
  1 11  1  0  0  0  0
  3 13  1  6  0  0  0
  3 17  2  0  0  0  0
  3 20  1  0  0  0  0
  3 26  1  0  0  0  0
  4 14  1  6  0  0  0
  4 18  1  0  0  0  0
  4 21  2  0  0  0  0
  4 20  1  0  0  0  0
  5 19  1  0  0  0  0
  5  7  1  0  0  0  0
  6  7  2  0  0  0  0
  6 12  1  0  0  0  0
  7  8  1  0  0  0  0
  8  9  1  0  0  0  0
  8 10  2  0  0  0  0
 10 11  1  0  0  0  0
 11 12  2  0  0  0  0
 15 23  1  0  0  0  0
 15 16  1  0  0  0  0
 16 19  1  0  0  0  0
 19 22  1  0  0  0  0
 22  2  1  1  0  0  0
 22 23  1  0  0  0  0
 23 24  1  1  0  0  0
 24 25  1  0  0  0  0
 25 26  1  0  0  0  0
M  CHG  2  13  -1  18  -1
M  END
>  <CHROM.1>
-40.69317859,76.07130536,24.34854082,87.51572583,-85.50793678,-54.91494676
153.98088137,-171.07494297,-2.59474542,-39.76458209,11.43202425,-1.38311603
-0.57135015,-3.03732243

>  <Name>
ligand

>  <RI>
0

>  <Rbt.Current_Directory>
/home/itssahil/PROJECTS/Mol_Feturizer/New_Systems/rnas/3D2G

>  <Rbt.Executable>
rbdock ($Id: //depot/dev/client3/rdock/2013.1/src/exe/rbdock.cxx#4 $)

>  <Rbt.Library>
libRbt.so (2013.1, Build901 2013/11/27)

>  <Rbt.Parameter_File>
/export/apps/rDock/src/rDock_2013.1_src/data/scripts/dock_solv.prm

>  <Rbt.Receptor>
prm/blind_docking_80.prm

>  <SCORE>
-20.0315

>  <SCORE.INTER>
-17.9743

>  <SCORE.INTER.CONST>
1

>  <SCORE.INTER.POLAR>
0

>  <SCORE.INTER.ROT>
8

>  <SCORE.INTER.SOLV>
17.0829

>  <SCORE.INTER.VDW>
-26.6105

>  <SCORE.INTER.norm>
-0.691319

>  <SCORE.INTRA>
-2.05721

>  <SCORE.INTRA.DIHEDRAL>
0.808295

>  <SCORE.INTRA.DIHEDRAL.0>
9.09364

>  <SCORE.INTRA.POLAR>
0

>  <SCORE.INTRA.POLAR.0>
0

>  <SCORE.INTRA.REPUL>
0

>  <SCORE.INTRA.REPUL.0>
0

>  <SCORE.INTRA.SOLV>
-2.07604

>  <SCORE.INTRA.SOLV.lig_0>
-78.5846

>  <SCORE.INTRA.VDW>
-1.42334

>  <SCORE.INTRA.VDW.0>
-2.81163

>  <SCORE.INTRA.norm>
-0.0791235

>  <SCORE.RESTR>
0

>  <SCORE.RESTR.CAVITY>
0

>  <SCORE.RESTR.norm>
0

>  <SCORE.SYSTEM>
0

>  <SCORE.SYSTEM.CONST>
0

>  <SCORE.SYSTEM.DIHEDRAL>
0

>  <SCORE.SYSTEM.SOLV>
0

>  <SCORE.SYSTEM.norm>
0

>  <SCORE.heavy>
26

>  <SCORE.norm>
-0.770443

>  <RMSD>
8.986

$$$$
ligand
 OpenBabel11021811463D
libRbt.so/2013.1/901 2013/11/27
 26 27  0  0  0  0  0  0  0  0999 V2000
   -3.2317  -38.3557   13.0946 C   0  0  0  0  0  0  0  0  0  0  0  0
   -4.9575  -46.2688   10.4742 C   0  0  0  0  0  0  0  0  0  0  0  0
   -6.7405  -46.1462    5.1111 P   0  0  1  0  0  0  0  0  0  0  0  0
   -5.3129  -44.2628    3.7120 P   0  0  2  0  0  0  0  0  0  0  0  0
   -4.5227  -43.9139   12.4786 C   0  0  0  0  0  0  0  0  0  0  0  0
   -4.8994  -41.6749   13.5641 C   0  0  0  0  0  0  0  0  0  0  0  0
   -4.1983  -42.4500   12.6354 C   0  0  0  0  0  0  0  0  0  0  0  0
   -3.1697  -41.8863   11.8756 C   0  0  0  0  0  0  0  0  0  0  0  0
   -2.5027  -42.6255   11.0144 N   0  0  0  0  0  0  0  0  0  0  0  0
   -2.8774  -40.5509   12.0099 N   0  0  0  0  0  0  0  0  0  0  0  0
   -3.5654  -39.7968   12.9397 C   0  0  0  0  0  0  0  0  0  0  0  0
   -4.5792  -40.3434   13.7039 N   0  0  0  0  0  0  0  0  0  0  0  0
   -7.8090  -46.2951    4.0717 O   0  5  0  0  0  0  0  0  0  0  0  0
   -6.1480  -44.6014    2.5416 O   0  0  0  0  0  0  0  0  0  0  0  0
   -7.7485  -43.5252   10.4601 S   0  0  0  0  0  0  0  0  0  0  0  0
   -6.6506  -43.1376   11.5309 C   0  0  0  0  0  0  0  0  0  0  0  0
   -5.6437  -47.1503    5.0621 O   0  0  0  0  0  0  0  0  0  0  0  0
   -4.0457  -45.0179    3.7317 O   0  5  0  0  0  0  0  0  0  0  0  0
   -5.6323  -44.0482   11.5758 N   0  0  0  0  0  0  0  0  0  0  0  0
   -6.2630  -44.6493    4.9207 O   0  0  0  0  0  0  0  0  0  0  0  0
   -4.8715  -42.8419    3.8511 O   0  0  0  0  0  0  0  0  0  0  0  0
   -5.8392  -45.0793   10.7031 C   0  0  1  0  0  0  0  0  0  0  0  0
   -7.0123  -44.8771   10.0205 C   0  0  2  0  0  0  0  0  0  0  0  0
   -7.6878  -45.6966    8.9492 C   0  0  0  0  0  0  0  0  0  0  0  0
   -6.9127  -45.6645    7.6271 C   0  0  0  0  0  0  0  0  0  0  0  0
   -7.5417  -46.1824    6.4691 O   0  0  0  0  0  0  0  0  0  0  0  0
  1 11  1  0  0  0  0
  3 13  1  6  0  0  0
  3 17  2  0  0  0  0
  3 20  1  0  0  0  0
  3 26  1  0  0  0  0
  4 14  1  6  0  0  0
  4 18  1  0  0  0  0
  4 21  2  0  0  0  0
  4 20  1  0  0  0  0
  5 19  1  0  0  0  0
  5  7  1  0  0  0  0
  6  7  2  0  0  0  0
  6 12  1  0  0  0  0
  7  8  1  0  0  0  0
  8  9  1  0  0  0  0
  8 10  2  0  0  0  0
 10 11  1  0  0  0  0
 11 12  2  0  0  0  0
 15 23  1  0  0  0  0
 15 16  1  0  0  0  0
 16 19  1  0  0  0  0
 19 22  1  0  0  0  0
 22  2  1  6  0  0  0
 22 23  1  0  0  0  0
 23 24  1  6  0  0  0
 24 25  1  0  0  0  0
 25 26  1  0  0  0  0
M  CHG  2  13  -1  18  -1
M  END
>  <CHROM.1>
-76.89586217,-35.06935611,84.47011506,61.94983371,110.02984015,-168.76288928
179.96131729,-160.92283392,-5.57801591,-43.92112715,8.45794809,-1.25765156
-0.86762057,-1.76634795

>  <Name>
ligand

>  <RI>
0

>  <Rbt.Current_Directory>
/home/itssahil/PROJECTS/Mol_Feturizer/New_Systems/rnas/3D2G

>  <Rbt.Executable>
rbdock ($Id: //depot/dev/client3/rdock/2013.1/src/exe/rbdock.cxx#4 $)

>  <Rbt.Library>
libRbt.so (2013.1, Build901 2013/11/27)

>  <Rbt.Parameter_File>
/export/apps/rDock/src/rDock_2013.1_src/data/scripts/dock_solv.prm

>  <Rbt.Receptor>
prm/pocket_docking_7.prm

>  <SCORE>
-19.1258

>  <SCORE.INTER>
-16.4043

>  <SCORE.INTER.CONST>
1

>  <SCORE.INTER.POLAR>
0

>  <SCORE.INTER.ROT>
8

>  <SCORE.INTER.SOLV>
6.04738

>  <SCORE.INTER.VDW>
-21.8853

>  <SCORE.INTER.norm>
-0.630934

>  <SCORE.INTRA>
-2.72153

>  <SCORE.INTRA.DIHEDRAL>
-3.48178

>  <SCORE.INTRA.DIHEDRAL.0>
9.09364

>  <SCORE.INTRA.POLAR>
0

>  <SCORE.INTRA.POLAR.0>
0

>  <SCORE.INTRA.REPUL>
0

>  <SCORE.INTRA.REPUL.0>
0

>  <SCORE.INTRA.SOLV>
-1.67405

>  <SCORE.INTRA.SOLV.lig_0>
-78.5846

>  <SCORE.INTRA.VDW>
-0.143612

>  <SCORE.INTRA.VDW.0>
-2.81163

>  <SCORE.INTRA.norm>
-0.104674

>  <SCORE.RESTR>
0

>  <SCORE.RESTR.CAVITY>
0

>  <SCORE.RESTR.norm>
0

>  <SCORE.SYSTEM>
0

>  <SCORE.SYSTEM.CONST>
0

>  <SCORE.SYSTEM.DIHEDRAL>
0

>  <SCORE.SYSTEM.SOLV>
0

>  <SCORE.SYSTEM.norm>
0

>  <SCORE.heavy>
26

>  <SCORE.norm>
-0.735608

>  <RMSD>
8.990

$$$$
ligand
 OpenBabel11021811463D
libRbt.so/2013.1/901 2013/11/27
 26 27  0  0  0  0  0  0  0  0999 V2000
   -0.1908  -35.1785    8.7511 C   0  0  0  0  0  0  0  0  0  0  0  0
   -5.9061  -37.9513   11.5092 C   0  0  0  0  0  0  0  0  0  0  0  0
   -2.6606  -42.5928   10.5036 P   0  0  1  0  0  0  0  0  0  0  0  0
   -0.8818  -40.6877    9.6379 P   0  0  2  0  0  0  0  0  0  0  0  0
   -3.9846  -35.9791   12.9826 C   0  0  0  0  0  0  0  0  0  0  0  0
   -2.3370  -36.8774   11.3058 C   0  0  0  0  0  0  0  0  0  0  0  0
   -2.9765  -35.7749   11.8805 C   0  0  0  0  0  0  0  0  0  0  0  0
   -2.7166  -34.4833   11.4142 C   0  0  0  0  0  0  0  0  0  0  0  0
   -3.3341  -33.4508   11.9488 N   0  0  0  0  0  0  0  0  0  0  0  0
   -1.7923  -34.2930   10.4160 N   0  0  0  0  0  0  0  0  0  0  0  0
   -1.1766  -35.3889    9.8448 C   0  0  0  0  0  0  0  0  0  0  0  0
   -1.4305  -36.6725   10.2904 N   0  0  0  0  0  0  0  0  0  0  0  0
   -3.5823  -43.5265    9.7803 O   0  5  0  0  0  0  0  0  0  0  0  0
    0.0776  -41.3173   10.5679 O   0  0  0  0  0  0  0  0  0  0  0  0
   -3.6523  -39.5650   14.2722 S   0  0  0  0  0  0  0  0  0  0  0  0
   -3.3332  -38.0180   14.1857 C   0  0  0  0  0  0  0  0  0  0  0  0
   -1.7873  -43.2138   11.5357 O   0  0  0  0  0  0  0  0  0  0  0  0
   -1.5689  -39.5305   10.2422 O   0  5  0  0  0  0  0  0  0  0  0  0
   -4.1015  -37.3863   13.2483 N   0  0  0  0  0  0  0  0  0  0  0  0
   -1.8756  -41.8829    9.3267 O   0  0  0  0  0  0  0  0  0  0  0  0
   -0.3372  -40.1380    8.3594 O   0  0  0  0  0  0  0  0  0  0  0  0
   -4.9296  -38.2609   12.6026 C   0  0  1  0  0  0  0  0  0  0  0  0
   -4.7531  -39.5233   13.1106 C   0  0  2  0  0  0  0  0  0  0  0  0
   -5.4196  -40.8316   12.7643 C   0  0  0  0  0  0  0  0  0  0  0  0
   -4.4197  -41.8604   12.2243 C   0  0  0  0  0  0  0  0  0  0  0  0
   -3.6342  -41.5054   11.1009 O   0  0  0  0  0  0  0  0  0  0  0  0
  1 11  1  0  0  0  0
  3 13  1  6  0  0  0
  3 17  2  0  0  0  0
  3 20  1  0  0  0  0
  3 26  1  0  0  0  0
  4 14  1  1  0  0  0
  4 18  1  0  0  0  0
  4 21  2  0  0  0  0
  4 20  1  0  0  0  0
  5 19  1  0  0  0  0
  5  7  1  0  0  0  0
  6  7  2  0  0  0  0
  6 12  1  0  0  0  0
  7  8  1  0  0  0  0
  8  9  1  0  0  0  0
  8 10  2  0  0  0  0
 10 11  1  0  0  0  0
 11 12  2  0  0  0  0
 15 23  1  0  0  0  0
 15 16  1  0  0  0  0
 16 19  1  0  0  0  0
 19 22  1  0  0  0  0
 22  2  1  1  0  0  0
 22 23  1  0  0  0  0
 23 24  1  1  0  0  0
 24 25  1  0  0  0  0
 25 26  1  0  0  0  0
M  CHG  2  13  -1  18  -1
M  END
>  <CHROM.1>
173.68052340,91.15515180,-0.05758298,58.41820584,-62.86072671,-55.92752031
-176.91759725,74.87773702,-2.70624576,-39.11144561,11.25915575,-1.61841744
-0.79660834,-3.05528415

>  <Name>
ligand

>  <RI>
0

>  <Rbt.Current_Directory>
/home/itssahil/PROJECTS/Mol_Feturizer/New_Systems/rnas/3D2G

>  <Rbt.Executable>
rbdock ($Id: //depot/dev/client3/rdock/2013.1/src/exe/rbdock.cxx#4 $)

>  <Rbt.Library>
libRbt.so (2013.1, Build901 2013/11/27)

>  <Rbt.Parameter_File>
/export/apps/rDock/src/rDock_2013.1_src/data/scripts/dock_solv.prm

>  <Rbt.Receptor>
prm/blind_docking_100.prm

>  <SCORE>
-19.3642

>  <SCORE.INTER>
-15.128

>  <SCORE.INTER.CONST>
1

>  <SCORE.INTER.POLAR>
0

>  <SCORE.INTER.ROT>
8

>  <SCORE.INTER.SOLV>
14.836

>  <SCORE.INTER.VDW>
-23.964

>  <SCORE.INTER.norm>
-0.581847

>  <SCORE.INTRA>
-4.23619

>  <SCORE.INTRA.DIHEDRAL>
-3.6737

>  <SCORE.INTRA.DIHEDRAL.0>
9.09364

>  <SCORE.INTRA.POLAR>
0

>  <SCORE.INTRA.POLAR.0>
0

>  <SCORE.INTRA.REPUL>
0

>  <SCORE.INTRA.REPUL.0>
0

>  <SCORE.INTRA.SOLV>
-2.33301

>  <SCORE.INTRA.SOLV.lig_0>
-78.5846

>  <SCORE.INTRA.VDW>
-1.23283

>  <SCORE.INTRA.VDW.0>
-2.81163

>  <SCORE.INTRA.norm>
-0.16293

>  <SCORE.RESTR>
0

>  <SCORE.RESTR.CAVITY>
0

>  <SCORE.RESTR.norm>
0

>  <SCORE.SYSTEM>
0

>  <SCORE.SYSTEM.CONST>
0

>  <SCORE.SYSTEM.DIHEDRAL>
0

>  <SCORE.SYSTEM.SOLV>
0

>  <SCORE.SYSTEM.norm>
0

>  <SCORE.heavy>
26

>  <SCORE.norm>
-0.744778

>  <RMSD>
9.001

$$$$
ligand
 OpenBabel11021811463D
libRbt.so/2013.1/901 2013/11/27
 26 27  0  0  0  0  0  0  0  0999 V2000
   -0.1556  -35.2466    8.7559 C   0  0  0  0  0  0  0  0  0  0  0  0
   -5.9380  -37.9573   11.4914 C   0  0  0  0  0  0  0  0  0  0  0  0
   -2.6499  -42.9777   10.9262 P   0  0  1  0  0  0  0  0  0  0  0  0
   -1.5570  -40.7251    9.7972 P   0  0  2  0  0  0  0  0  0  0  0  0
   -3.9826  -36.0173   12.9630 C   0  0  0  0  0  0  0  0  0  0  0  0
   -2.3569  -36.9309   11.2730 C   0  0  0  0  0  0  0  0  0  0  0  0
   -2.9660  -35.8214   11.8672 C   0  0  0  0  0  0  0  0  0  0  0  0
   -2.6676  -34.5293   11.4261 C   0  0  0  0  0  0  0  0  0  0  0  0
   -3.2566  -33.4898   11.9788 N   0  0  0  0  0  0  0  0  0  0  0  0
   -1.7356  -34.3470   10.4337 N   0  0  0  0  0  0  0  0  0  0  0  0
   -1.1500  -35.4492    9.8432 C   0  0  0  0  0  0  0  0  0  0  0  0
   -1.4421  -36.7331   10.2637 N   0  0  0  0  0  0  0  0  0  0  0  0
   -3.6306  -43.9956   10.4298 O   0  5  0  0  0  0  0  0  0  0  0  0
   -1.4819  -40.2843    8.3894 O   0  0  0  0  0  0  0  0  0  0  0  0
   -3.6926  -39.6126   14.2366 S   0  0  0  0  0  0  0  0  0  0  0  0
   -3.3529  -38.0698   14.1546 C   0  0  0  0  0  0  0  0  0  0  0  0
   -1.3570  -43.5145   11.4300 O   0  0  0  0  0  0  0  0  0  0  0  0
   -0.2314  -41.0658   10.3477 O   0  5  0  0  0  0  0  0  0  0  0  0
   -4.1173  -37.4239   13.2236 N   0  0  0  0  0  0  0  0  0  0  0  0
   -2.5109  -41.9875    9.6993 O   0  0  0  0  0  0  0  0  0  0  0  0
   -2.1056  -39.7537   10.7914 O   0  0  0  0  0  0  0  0  0  0  0  0
   -4.9603  -38.2845   12.5786 C   0  0  1  0  0  0  0  0  0  0  0  0
   -4.7985  -39.5513   13.0807 C   0  0  2  0  0  0  0  0  0  0  0  0
   -5.4844  -40.8490   12.7325 C   0  0  0  0  0  0  0  0  0  0  0  0
   -4.7111  -41.6409   11.6721 C   0  0  0  0  0  0  0  0  0  0  0  0
   -3.4593  -42.1965   12.0317 O   0  0  0  0  0  0  0  0  0  0  0  0
  1 11  1  0  0  0  0
  3 13  1  6  0  0  0
  3 17  2  0  0  0  0
  3 20  1  0  0  0  0
  3 26  1  0  0  0  0
  4 14  1  6  0  0  0
  4 18  1  0  0  0  0
  4 21  2  0  0  0  0
  4 20  1  0  0  0  0
  5 19  1  0  0  0  0
  5  7  1  0  0  0  0
  6  7  2  0  0  0  0
  6 12  1  0  0  0  0
  7  8  1  0  0  0  0
  8  9  1  0  0  0  0
  8 10  2  0  0  0  0
 10 11  1  0  0  0  0
 11 12  2  0  0  0  0
 15 23  1  0  0  0  0
 15 16  1  0  0  0  0
 16 19  1  0  0  0  0
 19 22  1  0  0  0  0
 22  2  1  1  0  0  0
 22 23  1  0  0  0  0
 23 24  1  1  0  0  0
 24 25  1  0  0  0  0
 25 26  1  0  0  0  0
M  CHG  2  13  -1  18  -1
M  END
>  <CHROM.1>
179.51210794,90.53238145,1.29818079,167.37745944,-87.47175527,68.43034211
-178.40051407,-53.90579837,-2.84671359,-39.22322893,11.35961805,-1.53522935
-0.81972035,-3.06425207

>  <Name>
ligand

>  <RI>
0

>  <Rbt.Current_Directory>
/home/itssahil/PROJECTS/Mol_Feturizer/New_Systems/rnas/3D2G

>  <Rbt.Executable>
rbdock ($Id: //depot/dev/client3/rdock/2013.1/src/exe/rbdock.cxx#4 $)

>  <Rbt.Library>
libRbt.so (2013.1, Build901 2013/11/27)

>  <Rbt.Parameter_File>
/export/apps/rDock/src/rDock_2013.1_src/data/scripts/dock_solv.prm

>  <Rbt.Receptor>
prm/blind_docking_100.prm

>  <SCORE>
-18.5409

>  <SCORE.INTER>
-14.9936

>  <SCORE.INTER.CONST>
1

>  <SCORE.INTER.POLAR>
0

>  <SCORE.INTER.ROT>
8

>  <SCORE.INTER.SOLV>
15.2759

>  <SCORE.INTER.VDW>
-24.021

>  <SCORE.INTER.norm>
-0.576676

>  <SCORE.INTRA>
-3.54733

>  <SCORE.INTRA.DIHEDRAL>
-3.62249

>  <SCORE.INTRA.DIHEDRAL.0>
9.09364

>  <SCORE.INTRA.POLAR>
0

>  <SCORE.INTRA.POLAR.0>
0

>  <SCORE.INTRA.REPUL>
0

>  <SCORE.INTRA.REPUL.0>
0

>  <SCORE.INTRA.SOLV>
0.64133

>  <SCORE.INTRA.SOLV.lig_0>
-78.5846

>  <SCORE.INTRA.VDW>
-2.05675

>  <SCORE.INTRA.VDW.0>
-2.81163

>  <SCORE.INTRA.norm>
-0.136436

>  <SCORE.RESTR>
0

>  <SCORE.RESTR.CAVITY>
0

>  <SCORE.RESTR.norm>
0

>  <SCORE.SYSTEM>
0

>  <SCORE.SYSTEM.CONST>
0

>  <SCORE.SYSTEM.DIHEDRAL>
0

>  <SCORE.SYSTEM.SOLV>
0

>  <SCORE.SYSTEM.norm>
0

>  <SCORE.heavy>
26

>  <SCORE.norm>
-0.713112

>  <RMSD>
9.004

$$$$
ligand
 OpenBabel11021811463D
libRbt.so/2013.1/901 2013/11/27
 26 27  0  0  0  0  0  0  0  0999 V2000
   -0.9656  -40.2832   10.0291 C   0  0  0  0  0  0  0  0  0  0  0  0
   -7.3202  -43.5026   11.1565 C   0  0  0  0  0  0  0  0  0  0  0  0
   -5.4227  -46.4698    5.9655 P   0  0  1  0  0  0  0  0  0  0  0  0
   -4.8073  -49.0623    5.2997 P   0  0  2  0  0  0  0  0  0  0  0  0
   -4.6403  -43.7607   12.7388 C   0  0  0  0  0  0  0  0  0  0  0  0
   -2.4667  -43.3657   11.5336 C   0  0  0  0  0  0  0  0  0  0  0  0
   -3.6642  -42.8500   12.0385 C   0  0  0  0  0  0  0  0  0  0  0  0
   -3.9825  -41.5003   11.8653 C   0  0  0  0  0  0  0  0  0  0  0  0
   -5.1189  -41.0244   12.3291 N   0  0  0  0  0  0  0  0  0  0  0  0
   -3.0915  -40.6661   11.2353 N   0  0  0  0  0  0  0  0  0  0  0  0
   -1.9181  -41.1872   10.7273 C   0  0  0  0  0  0  0  0  0  0  0  0
   -1.5944  -42.5219   10.8840 N   0  0  0  0  0  0  0  0  0  0  0  0
   -4.5828  -45.2510    6.1968 O   0  5  0  0  0  0  0  0  0  0  0  0
   -5.6801  -49.4390    6.4302 O   0  0  0  0  0  0  0  0  0  0  0  0
   -5.2302  -46.7214   10.3897 S   0  0  0  0  0  0  0  0  0  0  0  0
   -4.4598  -45.8504   11.4621 C   0  0  0  0  0  0  0  0  0  0  0  0
   -6.4556  -46.3533    4.9011 O   0  0  0  0  0  0  0  0  0  0  0  0
   -3.6677  -49.9857    5.1414 O   0  5  0  0  0  0  0  0  0  0  0  0
   -5.1457  -44.7147   11.7906 N   0  0  0  0  0  0  0  0  0  0  0  0
   -4.3465  -47.6016    5.7085 O   0  0  0  0  0  0  0  0  0  0  0  0
   -5.4225  -49.0350    3.9381 O   0  0  0  0  0  0  0  0  0  0  0  0
   -6.3104  -44.6069   11.0840 C   0  0  1  0  0  0  0  0  0  0  0  0
   -6.4528  -45.6960   10.2614 C   0  0  2  0  0  0  0  0  0  0  0  0
   -7.5498  -46.0702    9.2958 C   0  0  0  0  0  0  0  0  0  0  0  0
   -7.0994  -45.9403    7.8364 C   0  0  0  0  0  0  0  0  0  0  0  0
   -6.0402  -46.7652    7.3863 O   0  0  0  0  0  0  0  0  0  0  0  0
  1 11  1  0  0  0  0
  3 13  1  1  0  0  0
  3 17  2  0  0  0  0
  3 20  1  0  0  0  0
  3 26  1  0  0  0  0
  4 14  1  1  0  0  0
  4 18  1  0  0  0  0
  4 21  2  0  0  0  0
  4 20  1  0  0  0  0
  5 19  1  0  0  0  0
  5  7  1  0  0  0  0
  6  7  2  0  0  0  0
  6 12  1  0  0  0  0
  7  8  1  0  0  0  0
  8  9  1  0  0  0  0
  8 10  2  0  0  0  0
 10 11  1  0  0  0  0
 11 12  2  0  0  0  0
 15 23  1  0  0  0  0
 15 16  1  0  0  0  0
 16 19  1  0  0  0  0
 19 22  1  0  0  0  0
 22  2  1  1  0  0  0
 22 23  1  0  0  0  0
 23 24  1  1  0  0  0
 24 25  1  0  0  0  0
 25 26  1  0  0  0  0
M  CHG  2  13  -1  18  -1
M  END
>  <CHROM.1>
-175.11004396,82.34438768,-65.28541877,-57.90483407,-71.60386759,62.80680259
-170.20517225,75.62402904,-4.82854216,-45.43104547,8.72892077,-1.33821294
-0.64283772,-2.21762949

>  <Name>
ligand

>  <RI>
0

>  <Rbt.Current_Directory>
/home/itssahil/PROJECTS/Mol_Feturizer/New_Systems/rnas/3D2G

>  <Rbt.Executable>
rbdock ($Id: //depot/dev/client3/rdock/2013.1/src/exe/rbdock.cxx#4 $)

>  <Rbt.Library>
libRbt.so (2013.1, Build901 2013/11/27)

>  <Rbt.Parameter_File>
/export/apps/rDock/src/rDock_2013.1_src/data/scripts/dock_solv.prm

>  <Rbt.Receptor>
prm/pocket_docking_7.prm

>  <SCORE>
-17.9964

>  <SCORE.INTER>
-14.2935

>  <SCORE.INTER.CONST>
1

>  <SCORE.INTER.POLAR>
0

>  <SCORE.INTER.ROT>
8

>  <SCORE.INTER.SOLV>
6.46146

>  <SCORE.INTER.VDW>
-20.6161

>  <SCORE.INTER.norm>
-0.549749

>  <SCORE.INTRA>
-3.70292

>  <SCORE.INTRA.DIHEDRAL>
-3.12406

>  <SCORE.INTRA.DIHEDRAL.0>
9.09364

>  <SCORE.INTRA.POLAR>
0

>  <SCORE.INTRA.POLAR.0>
0

>  <SCORE.INTRA.REPUL>
0

>  <SCORE.INTRA.REPUL.0>
0

>  <SCORE.INTRA.SOLV>
-1.79749

>  <SCORE.INTRA.SOLV.lig_0>
-78.5846

>  <SCORE.INTRA.VDW>
-1.24214

>  <SCORE.INTRA.VDW.0>
-2.81163

>  <SCORE.INTRA.norm>
-0.14242

>  <SCORE.RESTR>
0

>  <SCORE.RESTR.CAVITY>
0

>  <SCORE.RESTR.norm>
0

>  <SCORE.SYSTEM>
0

>  <SCORE.SYSTEM.CONST>
0

>  <SCORE.SYSTEM.DIHEDRAL>
0

>  <SCORE.SYSTEM.SOLV>
0

>  <SCORE.SYSTEM.norm>
0

>  <SCORE.heavy>
26

>  <SCORE.norm>
-0.692169

>  <RMSD>
9.005

$$$$
ligand
 OpenBabel11021811463D
libRbt.so/2013.1/901 2013/11/27
 26 27  0  0  0  0  0  0  0  0999 V2000
    1.2398  -37.4536    8.7102 C   0  0  0  0  0  0  0  0  0  0  0  0
   -5.9453  -37.8975   11.4660 C   0  0  0  0  0  0  0  0  0  0  0  0
   -4.2037  -43.4902   11.6228 P   0  0  1  0  0  0  0  0  0  0  0  0
   -1.8057  -42.6191   10.6061 P   0  0  2  0  0  0  0  0  0  0  0  0
   -3.3135  -36.3071   12.0106 C   0  0  0  0  0  0  0  0  0  0  0  0
   -1.9150  -37.9158   10.6728 C   0  0  0  0  0  0  0  0  0  0  0  0
   -2.1120  -36.6183   11.1549 C   0  0  0  0  0  0  0  0  0  0  0  0
   -1.2218  -35.5951   10.8176 C   0  0  0  0  0  0  0  0  0  0  0  0
   -1.4218  -34.3720   11.2616 N   0  0  0  0  0  0  0  0  0  0  0  0
   -0.1215  -35.8771   10.0452 N   0  0  0  0  0  0  0  0  0  0  0  0
    0.0569  -37.1581    9.5619 C   0  0  0  0  0  0  0  0  0  0  0  0
   -0.8202  -38.1778    9.8807 N   0  0  0  0  0  0  0  0  0  0  0  0
   -5.3975  -44.1455   10.9984 O   0  5  0  0  0  0  0  0  0  0  0  0
   -1.0606  -43.5701   11.4560 O   0  0  0  0  0  0  0  0  0  0  0  0
   -3.6236  -39.4052   14.2326 S   0  0  0  0  0  0  0  0  0  0  0  0
   -2.9510  -38.0960   13.6529 C   0  0  0  0  0  0  0  0  0  0  0  0
   -3.6430  -44.1707   12.8212 O   0  0  0  0  0  0  0  0  0  0  0  0
   -1.9625  -41.3001   11.2479 O   0  5  0  0  0  0  0  0  0  0  0  0
   -3.7209  -37.5057   12.6902 N   0  0  0  0  0  0  0  0  0  0  0  0
   -3.1920  -43.3631   10.4122 O   0  0  0  0  0  0  0  0  0  0  0  0
   -1.2197  -42.2876    9.2720 O   0  0  0  0  0  0  0  0  0  0  0  0
   -4.8637  -38.2164   12.4525 C   0  0  1  0  0  0  0  0  0  0  0  0
   -4.9049  -39.3122   13.2775 C   0  0  2  0  0  0  0  0  0  0  0  0
   -5.9394  -40.3999   13.4271 C   0  0  0  0  0  0  0  0  0  0  0  0
   -5.3509  -41.7916   13.1690 C   0  0  0  0  0  0  0  0  0  0  0  0
   -4.7068  -42.0274   11.9303 O   0  0  0  0  0  0  0  0  0  0  0  0
  1 11  1  0  0  0  0
  3 13  1  6  0  0  0
  3 17  2  0  0  0  0
  3 20  1  0  0  0  0
  3 26  1  0  0  0  0
  4 14  1  1  0  0  0
  4 18  1  0  0  0  0
  4 21  2  0  0  0  0
  4 20  1  0  0  0  0
  5 19  1  0  0  0  0
  5  7  1  0  0  0  0
  6  7  2  0  0  0  0
  6 12  1  0  0  0  0
  7  8  1  0  0  0  0
  8  9  1  0  0  0  0
  8 10  2  0  0  0  0
 10 11  1  0  0  0  0
 11 12  2  0  0  0  0
 15 23  1  0  0  0  0
 15 16  1  0  0  0  0
 16 19  1  0  0  0  0
 19 22  1  0  0  0  0
 22  2  1  1  0  0  0
 22 23  1  0  0  0  0
 23 24  1  1  0  0  0
 24 25  1  0  0  0  0
 25 26  1  0  0  0  0
M  CHG  2  13  -1  18  -1
M  END
>  <CHROM.1>
175.72121029,67.19407608,26.77562308,71.03202805,-58.96543427,-56.07518367
-175.27073274,87.70053600,-2.91005118,-40.02569006,11.55844376,-1.14037647
-0.64105566,-2.99874479

>  <Name>
ligand

>  <RI>
0

>  <Rbt.Current_Directory>
/home/itssahil/PROJECTS/Mol_Feturizer/New_Systems/rnas/3D2G

>  <Rbt.Executable>
rbdock ($Id: //depot/dev/client3/rdock/2013.1/src/exe/rbdock.cxx#4 $)

>  <Rbt.Library>
libRbt.so (2013.1, Build901 2013/11/27)

>  <Rbt.Parameter_File>
/export/apps/rDock/src/rDock_2013.1_src/data/scripts/dock_solv.prm

>  <Rbt.Receptor>
prm/blind_docking_60.prm

>  <SCORE>
-23.0377

>  <SCORE.INTER>
-19.3684

>  <SCORE.INTER.CONST>
1

>  <SCORE.INTER.POLAR>
0

>  <SCORE.INTER.ROT>
8

>  <SCORE.INTER.SOLV>
12.374

>  <SCORE.INTER.VDW>
-25.9703

>  <SCORE.INTER.norm>
-0.744938

>  <SCORE.INTRA>
-3.66936

>  <SCORE.INTRA.DIHEDRAL>
-2.85851

>  <SCORE.INTRA.DIHEDRAL.0>
9.09364

>  <SCORE.INTRA.POLAR>
0

>  <SCORE.INTRA.POLAR.0>
0

>  <SCORE.INTRA.REPUL>
0

>  <SCORE.INTRA.REPUL.0>
0

>  <SCORE.INTRA.SOLV>
-2.28448

>  <SCORE.INTRA.SOLV.lig_0>
-78.5846

>  <SCORE.INTRA.VDW>
-1.09786

>  <SCORE.INTRA.VDW.0>
-2.81163

>  <SCORE.INTRA.norm>
-0.141129

>  <SCORE.RESTR>
0

>  <SCORE.RESTR.CAVITY>
0

>  <SCORE.RESTR.norm>
0

>  <SCORE.SYSTEM>
0

>  <SCORE.SYSTEM.CONST>
0

>  <SCORE.SYSTEM.DIHEDRAL>
0

>  <SCORE.SYSTEM.SOLV>
0

>  <SCORE.SYSTEM.norm>
0

>  <SCORE.heavy>
26

>  <SCORE.norm>
-0.886067

>  <RMSD>
9.017

$$$$
ligand
 OpenBabel11021811463D
libRbt.so/2013.1/901 2013/11/27
 26 27  0  0  0  0  0  0  0  0999 V2000
   -7.6180  -35.9510   12.0305 C   0  0  0  0  0  0  0  0  0  0  0  0
   -0.8716  -35.8762   12.3002 C   0  0  0  0  0  0  0  0  0  0  0  0
   -1.8202  -39.9087   10.2816 P   0  0  1  0  0  0  0  0  0  0  0  0
   -3.7599  -40.9610    8.6466 P   0  0  2  0  0  0  0  0  0  0  0  0
   -2.5303  -33.3388   11.5499 C   0  0  0  0  0  0  0  0  0  0  0  0
   -3.9175  -35.4210   11.8205 C   0  0  0  0  0  0  0  0  0  0  0  0
   -3.8638  -34.0328   11.6625 C   0  0  0  0  0  0  0  0  0  0  0  0
   -5.0387  -33.2762   11.6463 C   0  0  0  0  0  0  0  0  0  0  0  0
   -4.9804  -31.9678   11.5133 N   0  0  0  0  0  0  0  0  0  0  0  0
   -6.2556  -33.9064   11.7401 N   0  0  0  0  0  0  0  0  0  0  0  0
   -6.2982  -35.2759   11.9103 C   0  0  0  0  0  0  0  0  0  0  0  0
   -5.1437  -36.0356   11.9366 N   0  0  0  0  0  0  0  0  0  0  0  0
   -2.7931  -39.9311   11.4207 O   0  5  0  0  0  0  0  0  0  0  0  0
   -4.4317  -40.4299    7.4431 O   0  0  0  0  0  0  0  0  0  0  0  0
   -0.5962  -34.7441    8.5639 S   0  0  0  0  0  0  0  0  0  0  0  0
   -1.5659  -33.7574    9.3310 C   0  0  0  0  0  0  0  0  0  0  0  0
   -0.8591  -41.0430   10.2272 O   0  0  0  0  0  0  0  0  0  0  0  0
   -4.7111  -41.2468    9.7375 O   0  5  0  0  0  0  0  0  0  0  0  0
   -1.6938  -34.0857   10.6516 N   0  0  0  0  0  0  0  0  0  0  0  0
   -2.7586  -39.7878    9.0127 O   0  0  0  0  0  0  0  0  0  0  0  0
   -3.0048  -42.2423    8.5011 O   0  0  0  0  0  0  0  0  0  0  0  0
   -0.9732  -35.2036   10.9653 C   0  0  1  0  0  0  0  0  0  0  0  0
   -0.3127  -35.6542    9.8501 C   0  0  2  0  0  0  0  0  0  0  0  0
    0.6157  -36.8273    9.6562 C   0  0  0  0  0  0  0  0  0  0  0  0
   -0.1508  -38.1400    9.4590 C   0  0  0  0  0  0  0  0  0  0  0  0
   -1.1071  -38.5104   10.4354 O   0  0  0  0  0  0  0  0  0  0  0  0
  1 11  1  0  0  0  0
  3 13  1  1  0  0  0
  3 17  2  0  0  0  0
  3 20  1  0  0  0  0
  3 26  1  0  0  0  0
  4 14  1  6  0  0  0
  4 18  1  0  0  0  0
  4 21  2  0  0  0  0
  4 20  1  0  0  0  0
  5 19  1  0  0  0  0
  5  7  1  0  0  0  0
  6  7  2  0  0  0  0
  6 12  1  0  0  0  0
  7  8  1  0  0  0  0
  8  9  1  0  0  0  0
  8 10  2  0  0  0  0
 10 11  1  0  0  0  0
 11 12  2  0  0  0  0
 15 23  1  0  0  0  0
 15 16  1  0  0  0  0
 16 19  1  0  0  0  0
 19 22  1  0  0  0  0
 22  2  1  1  0  0  0
 22 23  1  0  0  0  0
 23 24  1  1  0  0  0
 24 25  1  0  0  0  0
 25 26  1  0  0  0  0
M  CHG  2  13  -1  18  -1
M  END
>  <CHROM.1>
-64.74492829,96.70682080,44.58073203,179.05924021,-98.82267937,-54.17616487
-175.80786243,-177.15610982,-2.82178474,-37.22041672,10.26725274,1.71145602
0.25267274,0.24672372

>  <Name>
ligand

>  <RI>
0

>  <Rbt.Current_Directory>
/home/itssahil/PROJECTS/Mol_Feturizer/New_Systems/rnas/3D2G

>  <Rbt.Executable>
rbdock ($Id: //depot/dev/client3/rdock/2013.1/src/exe/rbdock.cxx#4 $)

>  <Rbt.Library>
libRbt.so (2013.1, Build901 2013/11/27)

>  <Rbt.Parameter_File>
/export/apps/rDock/src/rDock_2013.1_src/data/scripts/dock_solv.prm

>  <Rbt.Receptor>
prm/blind_docking_60.prm

>  <SCORE>
-20.784

>  <SCORE.INTER>
-17.549

>  <SCORE.INTER.CONST>
1

>  <SCORE.INTER.POLAR>
0

>  <SCORE.INTER.ROT>
8

>  <SCORE.INTER.SOLV>
12.1693

>  <SCORE.INTER.VDW>
-24.6891

>  <SCORE.INTER.norm>
-0.674962

>  <SCORE.INTRA>
-3.23496

>  <SCORE.INTRA.DIHEDRAL>
-4.14089

>  <SCORE.INTRA.DIHEDRAL.0>
9.09364

>  <SCORE.INTRA.POLAR>
0

>  <SCORE.INTRA.POLAR.0>
0

>  <SCORE.INTRA.REPUL>
0

>  <SCORE.INTRA.REPUL.0>
0

>  <SCORE.INTRA.SOLV>
-0.510984

>  <SCORE.INTRA.SOLV.lig_0>
-78.5846

>  <SCORE.INTRA.VDW>
-0.909023

>  <SCORE.INTRA.VDW.0>
-2.81163

>  <SCORE.INTRA.norm>
-0.124422

>  <SCORE.RESTR>
0

>  <SCORE.RESTR.CAVITY>
0

>  <SCORE.RESTR.norm>
0

>  <SCORE.SYSTEM>
0

>  <SCORE.SYSTEM.CONST>
0

>  <SCORE.SYSTEM.DIHEDRAL>
0

>  <SCORE.SYSTEM.SOLV>
0

>  <SCORE.SYSTEM.norm>
0

>  <SCORE.heavy>
26

>  <SCORE.norm>
-0.799383

>  <RMSD>
9.018

$$$$
ligand
 OpenBabel11021811463D
libRbt.so/2013.1/901 2013/11/27
 26 27  0  0  0  0  0  0  0  0999 V2000
   -0.4483  -33.7595    8.4714 C   0  0  0  0  0  0  0  0  0  0  0  0
   -3.0042  -37.5650   13.9232 C   0  0  0  0  0  0  0  0  0  0  0  0
   -4.6764  -43.2834   12.2634 P   0  0  1  0  0  0  0  0  0  0  0  0
   -6.9390  -43.9739   10.8682 P   0  0  2  0  0  0  0  0  0  0  0  0
   -4.2831  -35.0783   12.5328 C   0  0  0  0  0  0  0  0  0  0  0  0
   -2.5208  -35.7542   10.8682 C   0  0  0  0  0  0  0  0  0  0  0  0
   -3.2641  -34.7375   11.4754 C   0  0  0  0  0  0  0  0  0  0  0  0
   -3.0970  -33.4069   11.0820 C   0  0  0  0  0  0  0  0  0  0  0  0
   -3.8115  -32.4561   11.6464 N   0  0  0  0  0  0  0  0  0  0  0  0
   -2.1634  -33.0920   10.1249 N   0  0  0  0  0  0  0  0  0  0  0  0
   -1.4444  -34.1042    9.5208 C   0  0  0  0  0  0  0  0  0  0  0  0
   -1.6055  -35.4253    9.8941 N   0  0  0  0  0  0  0  0  0  0  0  0
   -5.5720  -42.6372   13.2758 O   0  5  0  0  0  0  0  0  0  0  0  0
   -6.6230  -45.2867   11.4669 O   0  0  0  0  0  0  0  0  0  0  0  0
   -6.0041  -38.3451   11.5338 S   0  0  0  0  0  0  0  0  0  0  0  0
   -5.7496  -36.7839   11.5482 C   0  0  0  0  0  0  0  0  0  0  0  0
   -4.1727  -44.6386   12.6142 O   0  0  0  0  0  0  0  0  0  0  0  0
   -7.4403  -44.0960    9.4861 O   0  5  0  0  0  0  0  0  0  0  0  0
   -4.6989  -36.4419   12.3528 N   0  0  0  0  0  0  0  0  0  0  0  0
   -5.5400  -43.2318   10.9380 O   0  0  0  0  0  0  0  0  0  0  0  0
   -7.9839  -43.1461   11.5436 O   0  0  0  0  0  0  0  0  0  0  0  0
   -4.1550  -37.5362   12.9643 C   0  0  1  0  0  0  0  0  0  0  0  0
   -4.8229  -38.6667   12.5654 C   0  0  2  0  0  0  0  0  0  0  0  0
   -4.6177  -40.1168   12.9268 C   0  0  0  0  0  0  0  0  0  0  0  0
   -3.8755  -40.8835   11.8264 C   0  0  0  0  0  0  0  0  0  0  0  0
   -3.5173  -42.2309   12.0737 O   0  0  0  0  0  0  0  0  0  0  0  0
  1 11  1  0  0  0  0
  3 13  1  1  0  0  0
  3 17  2  0  0  0  0
  3 20  1  0  0  0  0
  3 26  1  0  0  0  0
  4 14  1  1  0  0  0
  4 18  1  0  0  0  0
  4 21  2  0  0  0  0
  4 20  1  0  0  0  0
  5 19  1  0  0  0  0
  5  7  1  0  0  0  0
  6  7  2  0  0  0  0
  6 12  1  0  0  0  0
  7  8  1  0  0  0  0
  8  9  1  0  0  0  0
  8 10  2  0  0  0  0
 10 11  1  0  0  0  0
 11 12  2  0  0  0  0
 15 23  1  0  0  0  0
 15 16  1  0  0  0  0
 16 19  1  0  0  0  0
 19 22  1  0  0  0  0
 22  2  1  6  0  0  0
 22 23  1  0  0  0  0
 23 24  1  6  0  0  0
 24 25  1  0  0  0  0
 25 26  1  0  0  0  0
M  CHG  2  13  -1  18  -1
M  END
>  <CHROM.1>
-60.90269526,-89.37844742,-23.57142746,-45.67018794,77.97712285,175.01383544
64.82295100,-49.88811425,-4.56624021,-39.34438484,11.53833779,-1.20732298
-0.37554297,-3.07927695

>  <Name>
ligand

>  <RI>
0

>  <Rbt.Current_Directory>
/home/itssahil/PROJECTS/Mol_Feturizer/New_Systems/rnas/3D2G

>  <Rbt.Executable>
rbdock ($Id: //depot/dev/client3/rdock/2013.1/src/exe/rbdock.cxx#4 $)

>  <Rbt.Library>
libRbt.so (2013.1, Build901 2013/11/27)

>  <Rbt.Parameter_File>
/export/apps/rDock/src/rDock_2013.1_src/data/scripts/dock_solv.prm

>  <Rbt.Receptor>
prm/blind_docking_80.prm

>  <SCORE>
-18.2273

>  <SCORE.INTER>
-16.9796

>  <SCORE.INTER.CONST>
1

>  <SCORE.INTER.POLAR>
0

>  <SCORE.INTER.ROT>
8

>  <SCORE.INTER.SOLV>
22.773

>  <SCORE.INTER.VDW>
-27.8441

>  <SCORE.INTER.norm>
-0.653062

>  <SCORE.INTRA>
-1.24772

>  <SCORE.INTRA.DIHEDRAL>
-3.19039

>  <SCORE.INTRA.DIHEDRAL.0>
9.09364

>  <SCORE.INTRA.POLAR>
0

>  <SCORE.INTRA.POLAR.0>
0

>  <SCORE.INTRA.REPUL>
0

>  <SCORE.INTRA.REPUL.0>
0

>  <SCORE.INTRA.SOLV>
-1.4408

>  <SCORE.INTRA.SOLV.lig_0>
-78.5846

>  <SCORE.INTRA.VDW>
1.06787

>  <SCORE.INTRA.VDW.0>
-2.81163

>  <SCORE.INTRA.norm>
-0.0479894

>  <SCORE.RESTR>
0

>  <SCORE.RESTR.CAVITY>
0

>  <SCORE.RESTR.norm>
0

>  <SCORE.SYSTEM>
0

>  <SCORE.SYSTEM.CONST>
0

>  <SCORE.SYSTEM.DIHEDRAL>
0

>  <SCORE.SYSTEM.SOLV>
0

>  <SCORE.SYSTEM.norm>
0

>  <SCORE.heavy>
26

>  <SCORE.norm>
-0.701052

>  <RMSD>
9.034

$$$$
ligand
 OpenBabel11021811463D
libRbt.so/2013.1/901 2013/11/27
 26 27  0  0  0  0  0  0  0  0999 V2000
    1.0460  -37.1756    8.7881 C   0  0  0  0  0  0  0  0  0  0  0  0
   -5.6317  -38.5792   11.1171 C   0  0  0  0  0  0  0  0  0  0  0  0
   -5.3625  -44.4263   11.6436 P   0  0  1  0  0  0  0  0  0  0  0  0
   -6.9125  -45.5985    9.7030 P   0  0  2  0  0  0  0  0  0  0  0  0
   -3.5202  -36.5538   12.2090 C   0  0  0  0  0  0  0  0  0  0  0  0
   -1.9693  -37.9967   10.8503 C   0  0  0  0  0  0  0  0  0  0  0  0
   -2.3138  -36.7262   11.3216 C   0  0  0  0  0  0  0  0  0  0  0  0
   -1.5689  -35.6054   10.9448 C   0  0  0  0  0  0  0  0  0  0  0  0
   -1.9082  -34.4098   11.3792 N   0  0  0  0  0  0  0  0  0  0  0  0
   -0.4642  -35.7601   10.1434 N   0  0  0  0  0  0  0  0  0  0  0  0
   -0.1402  -37.0165    9.6712 C   0  0  0  0  0  0  0  0  0  0  0  0
   -0.8730  -38.1325   10.0290 N   0  0  0  0  0  0  0  0  0  0  0  0
   -5.2307  -44.6533   13.1185 O   0  5  0  0  0  0  0  0  0  0  0  0
   -7.7410  -44.3800    9.5993 O   0  0  0  0  0  0  0  0  0  0  0  0
   -3.7515  -39.7098   14.3581 S   0  0  0  0  0  0  0  0  0  0  0  0
   -3.2152  -38.2872   13.9212 C   0  0  0  0  0  0  0  0  0  0  0  0
   -4.0924  -44.4424   10.8689 O   0  0  0  0  0  0  0  0  0  0  0  0
   -7.6848  -46.8247    9.4265 O   0  5  0  0  0  0  0  0  0  0  0  0
   -3.8449  -37.8223   12.8007 N   0  0  0  0  0  0  0  0  0  0  0  0
   -6.4081  -45.5302   11.2043 O   0  0  0  0  0  0  0  0  0  0  0  0
   -5.7414  -45.7117    8.7816 O   0  0  0  0  0  0  0  0  0  0  0  0
   -4.7578  -38.7214   12.3258 C   0  0  1  0  0  0  0  0  0  0  0  0
   -4.7828  -39.8263   13.1392 C   0  0  2  0  0  0  0  0  0  0  0  0
   -5.6100  -41.0860   13.0723 C   0  0  0  0  0  0  0  0  0  0  0  0
   -5.3706  -41.8620   11.7722 C   0  0  0  0  0  0  0  0  0  0  0  0
   -6.1172  -43.0446   11.5508 O   0  0  0  0  0  0  0  0  0  0  0  0
  1 11  1  0  0  0  0
  3 13  1  1  0  0  0
  3 17  2  0  0  0  0
  3 20  1  0  0  0  0
  3 26  1  0  0  0  0
  4 14  1  6  0  0  0
  4 18  1  0  0  0  0
  4 21  2  0  0  0  0
  4 20  1  0  0  0  0
  5 19  1  0  0  0  0
  5  7  1  0  0  0  0
  6  7  2  0  0  0  0
  6 12  1  0  0  0  0
  7  8  1  0  0  0  0
  8  9  1  0  0  0  0
  8 10  2  0  0  0  0
 10 11  1  0  0  0  0
 11 12  2  0  0  0  0
 15 23  1  0  0  0  0
 15 16  1  0  0  0  0
 16 19  1  0  0  0  0
 19 22  1  0  0  0  0
 22  2  1  1  0  0  0
 22 23  1  0  0  0  0
 23 24  1  1  0  0  0
 24 25  1  0  0  0  0
 25 26  1  0  0  0  0
M  CHG  2  13  -1  18  -1
M  END
>  <CHROM.1>
176.46106796,83.03267104,20.39571253,-69.87938166,-119.97548328,-177.80776031
-108.44063943,77.67547579,-4.26900811,-40.95492771,11.33630148,-0.71625755
-0.87740621,-2.33604358

>  <Name>
ligand

>  <RI>
0

>  <Rbt.Current_Directory>
/home/itssahil/PROJECTS/Mol_Feturizer/New_Systems/rnas/3D2G

>  <Rbt.Executable>
rbdock ($Id: //depot/dev/client3/rdock/2013.1/src/exe/rbdock.cxx#4 $)

>  <Rbt.Library>
libRbt.so (2013.1, Build901 2013/11/27)

>  <Rbt.Parameter_File>
/export/apps/rDock/src/rDock_2013.1_src/data/scripts/dock_solv.prm

>  <Rbt.Receptor>
prm/pocket_docking_8.prm

>  <SCORE>
-20.9896

>  <SCORE.INTER>
-20.4336

>  <SCORE.INTER.CONST>
1

>  <SCORE.INTER.POLAR>
0

>  <SCORE.INTER.ROT>
8

>  <SCORE.INTER.SOLV>
17.0283

>  <SCORE.INTER.VDW>
-28.2318

>  <SCORE.INTER.norm>
-0.785909

>  <SCORE.INTRA>
-0.62825

>  <SCORE.INTRA.DIHEDRAL>
2.33437

>  <SCORE.INTRA.DIHEDRAL.0>
9.09364

>  <SCORE.INTRA.POLAR>
0

>  <SCORE.INTRA.POLAR.0>
0

>  <SCORE.INTRA.REPUL>
0

>  <SCORE.INTRA.REPUL.0>
0

>  <SCORE.INTRA.SOLV>
-2.65572

>  <SCORE.INTRA.SOLV.lig_0>
-78.5846

>  <SCORE.INTRA.VDW>
-0.467578

>  <SCORE.INTRA.VDW.0>
-2.81163

>  <SCORE.INTRA.norm>
-0.0241635

>  <SCORE.RESTR>
0.07231

>  <SCORE.RESTR.CAVITY>
0.07231

>  <SCORE.RESTR.norm>
0.00278115

>  <SCORE.SYSTEM>
0

>  <SCORE.SYSTEM.CONST>
0

>  <SCORE.SYSTEM.DIHEDRAL>
0

>  <SCORE.SYSTEM.SOLV>
0

>  <SCORE.SYSTEM.norm>
0

>  <SCORE.heavy>
26

>  <SCORE.norm>
-0.807291

>  <RMSD>
9.034

$$$$
ligand
 OpenBabel11021811463D
libRbt.so/2013.1/901 2013/11/27
 26 27  0  0  0  0  0  0  0  0999 V2000
   -0.5096  -33.4977    8.4145 C   0  0  0  0  0  0  0  0  0  0  0  0
   -2.9618  -38.1003   13.8725 C   0  0  0  0  0  0  0  0  0  0  0  0
   -5.1078  -42.6478    9.7884 P   0  0  1  0  0  0  0  0  0  0  0  0
   -6.6526  -44.8271   10.4264 P   0  0  2  0  0  0  0  0  0  0  0  0
   -3.5109  -35.1465   13.0203 C   0  0  0  0  0  0  0  0  0  0  0  0
   -2.0430  -35.6757   11.0458 C   0  0  0  0  0  0  0  0  0  0  0  0
   -2.7091  -34.7188   11.8175 C   0  0  0  0  0  0  0  0  0  0  0  0
   -2.6692  -33.3684   11.4599 C   0  0  0  0  0  0  0  0  0  0  0  0
   -3.3119  -32.4743   12.1815 N   0  0  0  0  0  0  0  0  0  0  0  0
   -1.9326  -32.9743   10.3695 N   0  0  0  0  0  0  0  0  0  0  0  0
   -1.2901  -33.9280    9.6053 C   0  0  0  0  0  0  0  0  0  0  0  0
   -1.3281  -35.2679    9.9425 N   0  0  0  0  0  0  0  0  0  0  0  0
   -3.6456  -42.4800    9.5088 O   0  5  0  0  0  0  0  0  0  0  0  0
   -6.9996  -44.0679   11.6449 O   0  0  0  0  0  0  0  0  0  0  0  0
   -6.1500  -37.5623   11.6672 S   0  0  0  0  0  0  0  0  0  0  0  0
   -5.4496  -36.1648   11.9096 C   0  0  0  0  0  0  0  0  0  0  0  0
   -6.0318  -42.1061    8.7558 O   0  0  0  0  0  0  0  0  0  0  0  0
   -6.5724  -46.2789   10.6761 O   0  5  0  0  0  0  0  0  0  0  0  0
   -4.3141  -36.2825   12.6613 N   0  0  0  0  0  0  0  0  0  0  0  0
   -5.2478  -44.2047   10.0363 O   0  0  0  0  0  0  0  0  0  0  0  0
   -7.5890  -44.7266    9.2661 O   0  0  0  0  0  0  0  0  0  0  0  0
   -4.0906  -37.5771   13.0377 C   0  0  1  0  0  0  0  0  0  0  0  0
   -5.0751  -38.3831   12.5237 C   0  0  2  0  0  0  0  0  0  0  0  0
   -5.2890  -39.8728   12.6274 C   0  0  0  0  0  0  0  0  0  0  0  0
   -4.9382  -40.5956   11.3219 C   0  0  0  0  0  0  0  0  0  0  0  0
   -5.2937  -41.9604   11.1956 O   0  0  0  0  0  0  0  0  0  0  0  0
  1 11  1  0  0  0  0
  3 13  1  6  0  0  0
  3 17  2  0  0  0  0
  3 20  1  0  0  0  0
  3 26  1  0  0  0  0
  4 14  1  1  0  0  0
  4 18  1  0  0  0  0
  4 21  2  0  0  0  0
  4 20  1  0  0  0  0
  5 19  1  0  0  0  0
  5  7  1  0  0  0  0
  6  7  2  0  0  0  0
  6 12  1  0  0  0  0
  7  8  1  0  0  0  0
  8  9  1  0  0  0  0
  8 10  2  0  0  0  0
 10 11  1  0  0  0  0
 11 12  2  0  0  0  0
 15 23  1  0  0  0  0
 15 16  1  0  0  0  0
 16 19  1  0  0  0  0
 19 22  1  0  0  0  0
 22  2  1  6  0  0  0
 22 23  1  0  0  0  0
 23 24  1  6  0  0  0
 24 25  1  0  0  0  0
 25 26  1  0  0  0  0
M  CHG  2  13  -1  18  -1
M  END
>  <CHROM.1>
177.74558659,-76.01689397,-45.60934787,-56.94112621,74.03625454,-169.83694360
171.97503053,58.71661039,-4.54516307,-39.26845503,11.00106937,-0.99846631
-0.87388160,-2.59156513

>  <Name>
ligand

>  <RI>
0

>  <Rbt.Current_Directory>
/home/itssahil/PROJECTS/Mol_Feturizer/New_Systems/rnas/3D2G

>  <Rbt.Executable>
rbdock ($Id: //depot/dev/client3/rdock/2013.1/src/exe/rbdock.cxx#4 $)

>  <Rbt.Library>
libRbt.so (2013.1, Build901 2013/11/27)

>  <Rbt.Parameter_File>
/export/apps/rDock/src/rDock_2013.1_src/data/scripts/dock_solv.prm

>  <Rbt.Receptor>
prm/blind_docking_60.prm

>  <SCORE>
-18.6718

>  <SCORE.INTER>
-15.0783

>  <SCORE.INTER.CONST>
1

>  <SCORE.INTER.POLAR>
0

>  <SCORE.INTER.ROT>
8

>  <SCORE.INTER.SOLV>
12.6308

>  <SCORE.INTER.VDW>
-23.1958

>  <SCORE.INTER.norm>
-0.579935

>  <SCORE.INTRA>
-3.5935

>  <SCORE.INTRA.DIHEDRAL>
-3.01518

>  <SCORE.INTRA.DIHEDRAL.0>
9.09364

>  <SCORE.INTRA.POLAR>
0

>  <SCORE.INTRA.POLAR.0>
0

>  <SCORE.INTRA.REPUL>
0

>  <SCORE.INTRA.REPUL.0>
0

>  <SCORE.INTRA.SOLV>
-3.46133

>  <SCORE.INTRA.SOLV.lig_0>
-78.5846

>  <SCORE.INTRA.VDW>
-0.355243

>  <SCORE.INTRA.VDW.0>
-2.81163

>  <SCORE.INTRA.norm>
-0.138211

>  <SCORE.RESTR>
0

>  <SCORE.RESTR.CAVITY>
0

>  <SCORE.RESTR.norm>
0

>  <SCORE.SYSTEM>
0

>  <SCORE.SYSTEM.CONST>
0

>  <SCORE.SYSTEM.DIHEDRAL>
0

>  <SCORE.SYSTEM.SOLV>
0

>  <SCORE.SYSTEM.norm>
0

>  <SCORE.heavy>
26

>  <SCORE.norm>
-0.718146

>  <RMSD>
9.039

$$$$
ligand
 OpenBabel11021811463D
libRbt.so/2013.1/901 2013/11/27
 26 27  0  0  0  0  0  0  0  0999 V2000
   -0.5257  -44.5063    6.9669 C   0  0  0  0  0  0  0  0  0  0  0  0
   -7.3728  -43.3823    9.1332 C   0  0  0  0  0  0  0  0  0  0  0  0
   -9.2926  -39.4536    3.9510 P   0  0  1  0  0  0  0  0  0  0  0  0
   -7.8030  -40.0356    1.7182 P   0  0  2  0  0  0  0  0  0  0  0  0
   -4.6626  -42.4438   10.3687 C   0  0  0  0  0  0  0  0  0  0  0  0
   -3.9206  -43.6007    8.2605 C   0  0  0  0  0  0  0  0  0  0  0  0
   -3.5819  -43.0003    9.4770 C   0  0  0  0  0  0  0  0  0  0  0  0
   -2.2427  -42.8772    9.8570 C   0  0  0  0  0  0  0  0  0  0  0  0
   -1.9297  -42.2964   10.9962 N   0  0  0  0  0  0  0  0  0  0  0  0
   -1.2562  -43.3908    9.0509 N   0  0  0  0  0  0  0  0  0  0  0  0
   -1.5993  -43.9690    7.8448 C   0  0  0  0  0  0  0  0  0  0  0  0
   -2.9192  -44.0898    7.4526 N   0  0  0  0  0  0  0  0  0  0  0  0
   -8.3231  -38.3497    4.2439 O   0  5  0  0  0  0  0  0  0  0  0  0
   -6.7879  -39.0464    2.1339 O   0  0  0  0  0  0  0  0  0  0  0  0
   -6.4143  -39.6547    8.4234 S   0  0  0  0  0  0  0  0  0  0  0  0
   -5.2812  -40.3190    9.3049 C   0  0  0  0  0  0  0  0  0  0  0  0
  -10.5646  -39.0431    3.2974 O   0  0  0  0  0  0  0  0  0  0  0  0
   -8.8107  -39.4549    0.8106 O   0  5  0  0  0  0  0  0  0  0  0  0
   -5.5447  -41.6325    9.5762 N   0  0  0  0  0  0  0  0  0  0  0  0
   -8.4265  -40.4753    3.1078 O   0  0  0  0  0  0  0  0  0  0  0  0
   -7.3225  -41.2407    0.9765 O   0  0  0  0  0  0  0  0  0  0  0  0
   -6.7379  -42.0283    9.0405 C   0  0  1  0  0  0  0  0  0  0  0  0
   -7.3104  -40.9800    8.3650 C   0  0  2  0  0  0  0  0  0  0  0  0
   -8.6032  -40.8879    7.5931 C   0  0  0  0  0  0  0  0  0  0  0  0
   -8.3814  -40.3983    6.1575 C   0  0  0  0  0  0  0  0  0  0  0  0
   -9.5188  -40.1268    5.3591 O   0  0  0  0  0  0  0  0  0  0  0  0
  1 11  1  0  0  0  0
  3 13  1  1  0  0  0
  3 17  2  0  0  0  0
  3 20  1  0  0  0  0
  3 26  1  0  0  0  0
  4 14  1  1  0  0  0
  4 18  1  0  0  0  0
  4 21  2  0  0  0  0
  4 20  1  0  0  0  0
  5 19  1  0  0  0  0
  5  7  1  0  0  0  0
  6  7  2  0  0  0  0
  6 12  1  0  0  0  0
  7  8  1  0  0  0  0
  8  9  1  0  0  0  0
  8 10  2  0  0  0  0
 10 11  1  0  0  0  0
 11 12  2  0  0  0  0
 15 23  1  0  0  0  0
 15 16  1  0  0  0  0
 16 19  1  0  0  0  0
 19 22  1  0  0  0  0
 22  2  1  6  0  0  0
 22 23  1  0  0  0  0
 23 24  1  6  0  0  0
 24 25  1  0  0  0  0
 25 26  1  0  0  0  0
M  CHG  2  13  -1  18  -1
M  END
>  <CHROM.1>
-61.55289431,-84.77745774,-48.15266590,68.37058095,54.70507699,-173.38219177
172.45546801,-45.81571483,-6.32430243,-41.12158437,6.24177862,-0.80386719
0.49918224,-1.52962221

>  <Name>
ligand

>  <RI>
0

>  <Rbt.Current_Directory>
/home/itssahil/PROJECTS/Mol_Feturizer/New_Systems/rnas/3D2G

>  <Rbt.Executable>
rbdock ($Id: //depot/dev/client3/rdock/2013.1/src/exe/rbdock.cxx#4 $)

>  <Rbt.Library>
libRbt.so (2013.1, Build901 2013/11/27)

>  <Rbt.Parameter_File>
/export/apps/rDock/src/rDock_2013.1_src/data/scripts/dock_solv.prm

>  <Rbt.Receptor>
prm/pocket_docking_3.prm

>  <SCORE>
-9.49709

>  <SCORE.INTER>
-7.46231

>  <SCORE.INTER.CONST>
1

>  <SCORE.INTER.POLAR>
0

>  <SCORE.INTER.ROT>
8

>  <SCORE.INTER.SOLV>
21.4148

>  <SCORE.INTER.VDW>
-21.0465

>  <SCORE.INTER.norm>
-0.287012

>  <SCORE.INTRA>
-2.03478

>  <SCORE.INTRA.DIHEDRAL>
-3.00843

>  <SCORE.INTRA.DIHEDRAL.0>
9.09364

>  <SCORE.INTRA.POLAR>
0

>  <SCORE.INTRA.POLAR.0>
0

>  <SCORE.INTRA.REPUL>
0

>  <SCORE.INTRA.REPUL.0>
0

>  <SCORE.INTRA.SOLV>
-1.98053

>  <SCORE.INTRA.SOLV.lig_0>
-78.5846

>  <SCORE.INTRA.VDW>
0.459697

>  <SCORE.INTRA.VDW.0>
-2.81163

>  <SCORE.INTRA.norm>
-0.0782608

>  <SCORE.RESTR>
0

>  <SCORE.RESTR.CAVITY>
0

>  <SCORE.RESTR.norm>
0

>  <SCORE.SYSTEM>
0

>  <SCORE.SYSTEM.CONST>
0

>  <SCORE.SYSTEM.DIHEDRAL>
0

>  <SCORE.SYSTEM.SOLV>
0

>  <SCORE.SYSTEM.norm>
0

>  <SCORE.heavy>
26

>  <SCORE.norm>
-0.365273

>  <RMSD>
9.039

$$$$
ligand
 OpenBabel11021811463D
libRbt.so/2013.1/901 2013/11/27
 26 27  0  0  0  0  0  0  0  0999 V2000
    0.1239  -40.4915    7.8386 C   0  0  0  0  0  0  0  0  0  0  0  0
   -4.8703  -41.6234   10.9450 C   0  0  0  0  0  0  0  0  0  0  0  0
   -8.1537  -40.3042    7.1908 P   0  0  1  0  0  0  0  0  0  0  0  0
   -7.3446  -40.4083    4.5683 P   0  0  2  0  0  0  0  0  0  0  0  0
   -2.7083  -43.7819   11.5925 C   0  0  0  0  0  0  0  0  0  0  0  0
   -1.4801  -41.6633   11.0124 C   0  0  0  0  0  0  0  0  0  0  0  0
   -1.9758  -42.9065   10.6077 C   0  0  0  0  0  0  0  0  0  0  0  0
   -1.7641  -43.3626    9.3038 C   0  0  0  0  0  0  0  0  0  0  0  0
   -2.2195  -44.5410    8.9337 N   0  0  0  0  0  0  0  0  0  0  0  0
   -1.1046  -42.5638    8.4017 N   0  0  0  0  0  0  0  0  0  0  0  0
   -0.6062  -41.3441    8.8144 C   0  0  0  0  0  0  0  0  0  0  0  0
   -0.8009  -40.8842   10.1033 N   0  0  0  0  0  0  0  0  0  0  0  0
   -6.8523  -39.6451    7.5319 O   0  5  0  0  0  0  0  0  0  0  0  0
   -6.0196  -39.8771    4.9480 O   0  0  0  0  0  0  0  0  0  0  0  0
   -5.9422  -45.3231   10.2517 S   0  0  0  0  0  0  0  0  0  0  0  0
   -4.4602  -45.3112   10.8047 C   0  0  0  0  0  0  0  0  0  0  0  0
   -9.3196  -39.3939    7.0312 O   0  0  0  0  0  0  0  0  0  0  0  0
   -8.2814  -39.3408    4.1693 O   0  5  0  0  0  0  0  0  0  0  0  0
   -4.0267  -44.0459   11.0861 N   0  0  0  0  0  0  0  0  0  0  0  0
   -7.8003  -41.1439    5.8965 O   0  0  0  0  0  0  0  0  0  0  0  0
   -7.3970  -41.3624    3.4193 O   0  0  0  0  0  0  0  0  0  0  0  0
   -4.9765  -43.1097   10.7881 C   0  0  1  0  0  0  0  0  0  0  0  0
   -6.1022  -43.7313   10.3090 C   0  0  2  0  0  0  0  0  0  0  0  0
   -7.4256  -43.1685    9.8537 C   0  0  0  0  0  0  0  0  0  0  0  0
   -7.2631  -42.1977    8.6785 C   0  0  0  0  0  0  0  0  0  0  0  0
   -8.3508  -41.3513    8.3536 O   0  0  0  0  0  0  0  0  0  0  0  0
  1 11  1  0  0  0  0
  3 13  1  1  0  0  0
  3 17  2  0  0  0  0
  3 20  1  0  0  0  0
  3 26  1  0  0  0  0
  4 14  1  1  0  0  0
  4 18  1  0  0  0  0
  4 21  2  0  0  0  0
  4 20  1  0  0  0  0
  5 19  1  0  0  0  0
  5  7  1  0  0  0  0
  6  7  2  0  0  0  0
  6 12  1  0  0  0  0
  7  8  1  0  0  0  0
  8  9  1  0  0  0  0
  8 10  2  0  0  0  0
 10 11  1  0  0  0  0
 11 12  2  0  0  0  0
 15 23  1  0  0  0  0
 15 16  1  0  0  0  0
 16 19  1  0  0  0  0
 19 22  1  0  0  0  0
 22  2  1  1  0  0  0
 22 23  1  0  0  0  0
 23 24  1  1  0  0  0
 24 25  1  0  0  0  0
 25 26  1  0  0  0  0
M  CHG  2  13  -1  18  -1
M  END
>  <CHROM.1>
-63.42410013,118.76085908,121.60079916,68.76652537,-120.74868101,-164.97872717
176.98609279,-48.75420922,-5.31023139,-41.94286925,8.27121160,-0.78018131
-0.12285323,-0.89262423

>  <Name>
ligand

>  <RI>
0

>  <Rbt.Current_Directory>
/home/itssahil/PROJECTS/Mol_Feturizer/New_Systems/rnas/3D2G

>  <Rbt.Executable>
rbdock ($Id: //depot/dev/client3/rdock/2013.1/src/exe/rbdock.cxx#4 $)

>  <Rbt.Library>
libRbt.so (2013.1, Build901 2013/11/27)

>  <Rbt.Parameter_File>
/export/apps/rDock/src/rDock_2013.1_src/data/scripts/dock_solv.prm

>  <Rbt.Receptor>
prm/blind_docking_60.prm

>  <SCORE>
-9.59126

>  <SCORE.INTER>
-7.87471

>  <SCORE.INTER.CONST>
1

>  <SCORE.INTER.POLAR>
0

>  <SCORE.INTER.ROT>
8

>  <SCORE.INTER.SOLV>
11.5359

>  <SCORE.INTER.VDW>
-18.0284

>  <SCORE.INTER.norm>
-0.302874

>  <SCORE.INTRA>
-1.71655

>  <SCORE.INTRA.DIHEDRAL>
-3.37191

>  <SCORE.INTRA.DIHEDRAL.0>
9.09364

>  <SCORE.INTRA.POLAR>
0

>  <SCORE.INTRA.POLAR.0>
0

>  <SCORE.INTRA.REPUL>
0

>  <SCORE.INTRA.REPUL.0>
0

>  <SCORE.INTRA.SOLV>
0.505048

>  <SCORE.INTRA.SOLV.lig_0>
-78.5846

>  <SCORE.INTRA.VDW>
-0.283116

>  <SCORE.INTRA.VDW.0>
-2.81163

>  <SCORE.INTRA.norm>
-0.066021

>  <SCORE.RESTR>
0

>  <SCORE.RESTR.CAVITY>
0

>  <SCORE.RESTR.norm>
0

>  <SCORE.SYSTEM>
0

>  <SCORE.SYSTEM.CONST>
0

>  <SCORE.SYSTEM.DIHEDRAL>
0

>  <SCORE.SYSTEM.SOLV>
0

>  <SCORE.SYSTEM.norm>
0

>  <SCORE.heavy>
26

>  <SCORE.norm>
-0.368895

>  <RMSD>
9.041

$$$$
ligand
 OpenBabel11021811463D
libRbt.so/2013.1/901 2013/11/27
 26 27  0  0  0  0  0  0  0  0999 V2000
    2.3384  -38.6048    6.6424 C   0  0  0  0  0  0  0  0  0  0  0  0
   -4.3796  -40.8721   11.4926 C   0  0  0  0  0  0  0  0  0  0  0  0
   -6.8206  -43.5581   10.0773 P   0  0  1  0  0  0  0  0  0  0  0  0
   -7.0641  -41.9414    7.8706 P   0  0  2  0  0  0  0  0  0  0  0  0
   -1.8473  -39.3376   10.5002 C   0  0  0  0  0  0  0  0  0  0  0  0
   -0.5367  -40.1219    8.5000 C   0  0  0  0  0  0  0  0  0  0  0  0
   -0.7406  -39.1582    9.4924 C   0  0  0  0  0  0  0  0  0  0  0  0
    0.0513  -38.0075    9.5350 C   0  0  0  0  0  0  0  0  0  0  0  0
   -0.1562  -37.0963   10.4622 N   0  0  0  0  0  0  0  0  0  0  0  0
    1.0660  -37.8452    8.6235 N   0  0  0  0  0  0  0  0  0  0  0  0
    1.2504  -38.7950    7.6385 C   0  0  0  0  0  0  0  0  0  0  0  0
    0.4692  -39.9337    7.5794 N   0  0  0  0  0  0  0  0  0  0  0  0
   -8.1001  -43.0333   10.6535 O   0  5  0  0  0  0  0  0  0  0  0  0
   -8.3193  -41.3682    8.3975 O   0  0  0  0  0  0  0  0  0  0  0  0
   -1.0883  -42.9858   11.3640 S   0  0  0  0  0  0  0  0  0  0  0  0
   -0.7756  -41.5152   10.8721 C   0  0  0  0  0  0  0  0  0  0  0  0
   -6.9208  -44.8486    9.3438 O   0  0  0  0  0  0  0  0  0  0  0  0
   -7.3052  -43.0977    6.9868 O   0  5  0  0  0  0  0  0  0  0  0  0
   -1.8828  -40.7146   10.9089 N   0  0  0  0  0  0  0  0  0  0  0  0
   -6.3012  -42.3479    9.1994 O   0  0  0  0  0  0  0  0  0  0  0  0
   -6.1969  -41.0485    7.0436 O   0  0  0  0  0  0  0  0  0  0  0  0
   -2.9864  -41.3996   11.3335 C   0  0  1  0  0  0  0  0  0  0  0  0
   -2.6421  -42.6970   11.6187 C   0  0  2  0  0  0  0  0  0  0  0  0
   -3.4693  -43.8513   12.1276 C   0  0  0  0  0  0  0  0  0  0  0  0
   -4.5875  -44.2315   11.1505 C   0  0  0  0  0  0  0  0  0  0  0  0
   -5.8611  -43.6383   11.3264 O   0  0  0  0  0  0  0  0  0  0  0  0
  1 11  1  0  0  0  0
  3 13  1  1  0  0  0
  3 17  2  0  0  0  0
  3 20  1  0  0  0  0
  3 26  1  0  0  0  0
  4 14  1  1  0  0  0
  4 18  1  0  0  0  0
  4 21  2  0  0  0  0
  4 20  1  0  0  0  0
  5 19  1  0  0  0  0
  5  7  1  0  0  0  0
  6  7  2  0  0  0  0
  6 12  1  0  0  0  0
  7  8  1  0  0  0  0
  8  9  1  0  0  0  0
  8 10  2  0  0  0  0
 10 11  1  0  0  0  0
 11 12  2  0  0  0  0
 15 23  1  0  0  0  0
 15 16  1  0  0  0  0
 16 19  1  0  0  0  0
 19 22  1  0  0  0  0
 22  2  1  1  0  0  0
 22 23  1  0  0  0  0
 23 24  1  1  0  0  0
 24 25  1  0  0  0  0
 25 26  1  0  0  0  0
M  CHG  2  13  -1  18  -1
M  END
>  <CHROM.1>
-69.71025024,26.72559310,41.31241684,70.26458830,-118.38664589,-92.61699810
156.60464650,173.76992165,-3.59181285,-41.50858558,9.63236239,0.32725035
-0.37624848,-0.91160602

>  <Name>
ligand

>  <RI>
0

>  <Rbt.Current_Directory>
/home/itssahil/PROJECTS/Mol_Feturizer/New_Systems/rnas/3D2G

>  <Rbt.Executable>
rbdock ($Id: //depot/dev/client3/rdock/2013.1/src/exe/rbdock.cxx#4 $)

>  <Rbt.Library>
libRbt.so (2013.1, Build901 2013/11/27)

>  <Rbt.Parameter_File>
/export/apps/rDock/src/rDock_2013.1_src/data/scripts/dock_solv.prm

>  <Rbt.Receptor>
prm/pocket_docking_8.prm

>  <SCORE>
-15.4349

>  <SCORE.INTER>
-15.6537

>  <SCORE.INTER.CONST>
1

>  <SCORE.INTER.POLAR>
0

>  <SCORE.INTER.ROT>
8

>  <SCORE.INTER.SOLV>
18.5563

>  <SCORE.INTER.VDW>
-25.5546

>  <SCORE.INTER.norm>
-0.602065

>  <SCORE.INTRA>
0.218765

>  <SCORE.INTRA.DIHEDRAL>
1.53896

>  <SCORE.INTRA.DIHEDRAL.0>
9.09364

>  <SCORE.INTRA.POLAR>
0

>  <SCORE.INTRA.POLAR.0>
0

>  <SCORE.INTRA.REPUL>
0

>  <SCORE.INTRA.REPUL.0>
0

>  <SCORE.INTRA.SOLV>
-1.65503

>  <SCORE.INTRA.SOLV.lig_0>
-78.5846

>  <SCORE.INTRA.VDW>
0.276796

>  <SCORE.INTRA.VDW.0>
-2.81163

>  <SCORE.INTRA.norm>
0.00841405

>  <SCORE.RESTR>
0

>  <SCORE.RESTR.CAVITY>
0

>  <SCORE.RESTR.norm>
0

>  <SCORE.SYSTEM>
0

>  <SCORE.SYSTEM.CONST>
0

>  <SCORE.SYSTEM.DIHEDRAL>
0

>  <SCORE.SYSTEM.SOLV>
0

>  <SCORE.SYSTEM.norm>
0

>  <SCORE.heavy>
26

>  <SCORE.norm>
-0.593651

>  <RMSD>
9.045

$$$$
ligand
 OpenBabel11021811463D
libRbt.so/2013.1/901 2013/11/27
 26 27  0  0  0  0  0  0  0  0999 V2000
   -0.5387  -33.4056    8.4521 C   0  0  0  0  0  0  0  0  0  0  0  0
   -2.8114  -38.0342   13.0901 C   0  0  0  0  0  0  0  0  0  0  0  0
   -2.7451  -40.6479    9.8801 P   0  0  1  0  0  0  0  0  0  0  0  0
   -0.3740  -40.6170    8.4943 P   0  0  2  0  0  0  0  0  0  0  0  0
   -3.7870  -35.0751   12.8794 C   0  0  0  0  0  0  0  0  0  0  0  0
   -2.3002  -35.6035   10.9189 C   0  0  0  0  0  0  0  0  0  0  0  0
   -2.9209  -34.6432   11.7235 C   0  0  0  0  0  0  0  0  0  0  0  0
   -2.7758  -33.2822   11.4412 C   0  0  0  0  0  0  0  0  0  0  0  0
   -3.3760  -32.3836   12.1931 N   0  0  0  0  0  0  0  0  0  0  0  0
   -1.9805  -32.8851   10.3940 N   0  0  0  0  0  0  0  0  0  0  0  0
   -1.3832  -33.8409    9.5964 C   0  0  0  0  0  0  0  0  0  0  0  0
   -1.5252  -35.1905    9.8590 N   0  0  0  0  0  0  0  0  0  0  0  0
   -2.9598  -41.9910    9.2519 O   0  5  0  0  0  0  0  0  0  0  0  0
    0.4272  -39.4618    8.0412 O   0  0  0  0  0  0  0  0  0  0  0  0
   -6.4183  -37.5624   11.6460 S   0  0  0  0  0  0  0  0  0  0  0  0
   -5.8119  -36.1428   11.9913 C   0  0  0  0  0  0  0  0  0  0  0  0
   -2.2771  -40.6598   11.2923 O   0  0  0  0  0  0  0  0  0  0  0  0
   -0.5227  -41.6411    7.4428 O   0  5  0  0  0  0  0  0  0  0  0  0
   -4.5409  -36.2332   12.4858 N   0  0  0  0  0  0  0  0  0  0  0  0
   -1.7550  -39.9359    8.8711 O   0  0  0  0  0  0  0  0  0  0  0  0
    0.1416  -41.3929    9.6628 O   0  0  0  0  0  0  0  0  0  0  0  0
   -4.1294  -37.5326   12.5842 C   0  0  1  0  0  0  0  0  0  0  0  0
   -5.1215  -38.3657   12.1316 C   0  0  2  0  0  0  0  0  0  0  0  0
   -5.1746  -39.8687   12.0142 C   0  0  0  0  0  0  0  0  0  0  0  0
   -5.2024  -40.3301   10.5526 C   0  0  0  0  0  0  0  0  0  0  0  0
   -4.1400  -39.9334    9.7047 O   0  0  0  0  0  0  0  0  0  0  0  0
  1 11  1  0  0  0  0
  3 13  1  6  0  0  0
  3 17  2  0  0  0  0
  3 20  1  0  0  0  0
  3 26  1  0  0  0  0
  4 14  1  6  0  0  0
  4 18  1  0  0  0  0
  4 21  2  0  0  0  0
  4 20  1  0  0  0  0
  5 19  1  0  0  0  0
  5  7  1  0  0  0  0
  6  7  2  0  0  0  0
  6 12  1  0  0  0  0
  7  8  1  0  0  0  0
  8  9  1  0  0  0  0
  8 10  2  0  0  0  0
 10 11  1  0  0  0  0
 11 12  2  0  0  0  0
 15 23  1  0  0  0  0
 15 16  1  0  0  0  0
 16 19  1  0  0  0  0
 19 22  1  0  0  0  0
 22  2  1  6  0  0  0
 22 23  1  0  0  0  0
 23 24  1  6  0  0  0
 24 25  1  0  0  0  0
 25 26  1  0  0  0  0
M  CHG  2  13  -1  18  -1
M  END
>  <CHROM.1>
-55.77439937,-94.71825953,-38.78410200,-157.60597175,67.24459255,57.72399878
74.47747079,75.35464162,-2.82688022,-37.97355779,10.48800215,-1.88063601
-0.58479003,-2.96841980

>  <Name>
ligand

>  <RI>
0

>  <Rbt.Current_Directory>
/home/itssahil/PROJECTS/Mol_Feturizer/New_Systems/rnas/3D2G

>  <Rbt.Executable>
rbdock ($Id: //depot/dev/client3/rdock/2013.1/src/exe/rbdock.cxx#4 $)

>  <Rbt.Library>
libRbt.so (2013.1, Build901 2013/11/27)

>  <Rbt.Parameter_File>
/export/apps/rDock/src/rDock_2013.1_src/data/scripts/dock_solv.prm

>  <Rbt.Receptor>
prm/blind_docking_100.prm

>  <SCORE>
-14.8745

>  <SCORE.INTER>
-13.9988

>  <SCORE.INTER.CONST>
1

>  <SCORE.INTER.POLAR>
0

>  <SCORE.INTER.ROT>
8

>  <SCORE.INTER.SOLV>
14.0019

>  <SCORE.INTER.VDW>
-22.9332

>  <SCORE.INTER.norm>
-0.538416

>  <SCORE.INTRA>
-0.880946

>  <SCORE.INTRA.DIHEDRAL>
-1.62052

>  <SCORE.INTRA.DIHEDRAL.0>
9.09364

>  <SCORE.INTRA.POLAR>
0

>  <SCORE.INTRA.POLAR.0>
0

>  <SCORE.INTRA.REPUL>
0

>  <SCORE.INTRA.REPUL.0>
0

>  <SCORE.INTRA.SOLV>
1.60742

>  <SCORE.INTRA.SOLV.lig_0>
-78.5846

>  <SCORE.INTRA.VDW>
-0.874396

>  <SCORE.INTRA.VDW.0>
-2.81163

>  <SCORE.INTRA.norm>
-0.0338825

>  <SCORE.RESTR>
0.00528906

>  <SCORE.RESTR.CAVITY>
0.00528906

>  <SCORE.RESTR.norm>
0.000203425

>  <SCORE.SYSTEM>
0

>  <SCORE.SYSTEM.CONST>
0

>  <SCORE.SYSTEM.DIHEDRAL>
0

>  <SCORE.SYSTEM.SOLV>
0

>  <SCORE.SYSTEM.norm>
0

>  <SCORE.heavy>
26

>  <SCORE.norm>
-0.572095

>  <RMSD>
9.050

$$$$
ligand
 OpenBabel11021811463D
libRbt.so/2013.1/901 2013/11/27
 26 27  0  0  0  0  0  0  0  0999 V2000
    1.2676  -37.2747    8.7099 C   0  0  0  0  0  0  0  0  0  0  0  0
   -5.8712  -37.9995   11.3992 C   0  0  0  0  0  0  0  0  0  0  0  0
   -4.0794  -43.1333   11.1409 P   0  0  1  0  0  0  0  0  0  0  0  0
   -6.3393  -44.6726   11.3991 P   0  0  2  0  0  0  0  0  0  0  0  0
   -3.3614  -36.2199   11.9346 C   0  0  0  0  0  0  0  0  0  0  0  0
   -1.8905  -37.8067   10.6494 C   0  0  0  0  0  0  0  0  0  0  0  0
   -2.1398  -36.5065   11.0991 C   0  0  0  0  0  0  0  0  0  0  0  0
   -1.2835  -35.4595   10.7474 C   0  0  0  0  0  0  0  0  0  0  0  0
   -1.5327  -34.2347   11.1607 N   0  0  0  0  0  0  0  0  0  0  0  0
   -0.1650  -35.7188    9.9935 N   0  0  0  0  0  0  0  0  0  0  0  0
    0.0651  -37.0032    9.5420 C   0  0  0  0  0  0  0  0  0  0  0  0
   -0.7780  -38.0466    9.8751 N   0  0  0  0  0  0  0  0  0  0  0  0
   -2.7598  -43.1299   11.8503 O   0  5  0  0  0  0  0  0  0  0  0  0
   -6.7467  -45.6496   12.4292 O   0  0  0  0  0  0  0  0  0  0  0  0
   -3.5452  -39.2200   14.3005 S   0  0  0  0  0  0  0  0  0  0  0  0
   -2.9383  -37.9002   13.6742 C   0  0  0  0  0  0  0  0  0  0  0  0
   -4.0184  -43.2400    9.6583 O   0  0  0  0  0  0  0  0  0  0  0  0
   -6.3892  -45.2410   10.0387 O   0  5  0  0  0  0  0  0  0  0  0  0
   -3.7139  -37.4076   12.6623 N   0  0  0  0  0  0  0  0  0  0  0  0
   -4.8618  -44.3137   11.8479 O   0  0  0  0  0  0  0  0  0  0  0  0
   -7.1491  -43.4222   11.2818 O   0  0  0  0  0  0  0  0  0  0  0  0
   -4.8023  -38.2004   12.4296 C   0  0  1  0  0  0  0  0  0  0  0  0
   -4.8002  -39.2554   13.3073 C   0  0  2  0  0  0  0  0  0  0  0  0
   -5.7689  -40.3983   13.4832 C   0  0  0  0  0  0  0  0  0  0  0  0
   -5.1902  -41.7247   12.9777 C   0  0  0  0  0  0  0  0  0  0  0  0
   -4.7625  -41.7986   11.6299 O   0  0  0  0  0  0  0  0  0  0  0  0
  1 11  1  0  0  0  0
  3 13  1  1  0  0  0
  3 17  2  0  0  0  0
  3 20  1  0  0  0  0
  3 26  1  0  0  0  0
  4 14  1  1  0  0  0
  4 18  1  0  0  0  0
  4 21  2  0  0  0  0
  4 20  1  0  0  0  0
  5 19  1  0  0  0  0
  5  7  1  0  0  0  0
  6  7  2  0  0  0  0
  6 12  1  0  0  0  0
  7  8  1  0  0  0  0
  8  9  1  0  0  0  0
  8 10  2  0  0  0  0
 10 11  1  0  0  0  0
 11 12  2  0  0  0  0
 15 23  1  0  0  0  0
 15 16  1  0  0  0  0
 16 19  1  0  0  0  0
 19 22  1  0  0  0  0
 22  2  1  1  0  0  0
 22 23  1  0  0  0  0
 23 24  1  1  0  0  0
 24 25  1  0  0  0  0
 25 26  1  0  0  0  0
M  CHG  2  13  -1  18  -1
M  END
>  <CHROM.1>
179.84013211,68.75715183,28.14469106,-171.50130802,-73.16455024,-57.18717147
175.97936276,-69.95521404,-3.81056467,-40.31603324,11.58978333,-0.85849578
-0.72385790,-2.69720289

>  <Name>
ligand

>  <RI>
0

>  <Rbt.Current_Directory>
/home/itssahil/PROJECTS/Mol_Feturizer/New_Systems/rnas/3D2G

>  <Rbt.Executable>
rbdock ($Id: //depot/dev/client3/rdock/2013.1/src/exe/rbdock.cxx#4 $)

>  <Rbt.Library>
libRbt.so (2013.1, Build901 2013/11/27)

>  <Rbt.Parameter_File>
/export/apps/rDock/src/rDock_2013.1_src/data/scripts/dock_solv.prm

>  <Rbt.Receptor>
prm/blind_docking_60.prm

>  <SCORE>
-23.1039

>  <SCORE.INTER>
-20.4164

>  <SCORE.INTER.CONST>
1

>  <SCORE.INTER.POLAR>
0

>  <SCORE.INTER.ROT>
8

>  <SCORE.INTER.SOLV>
12.6537

>  <SCORE.INTER.VDW>
-26.7621

>  <SCORE.INTER.norm>
-0.785245

>  <SCORE.INTRA>
-2.68757

>  <SCORE.INTRA.DIHEDRAL>
-3.30303

>  <SCORE.INTRA.DIHEDRAL.0>
9.09364

>  <SCORE.INTRA.POLAR>
0

>  <SCORE.INTRA.POLAR.0>
0

>  <SCORE.INTRA.REPUL>
0

>  <SCORE.INTRA.REPUL.0>
0

>  <SCORE.INTRA.SOLV>
-0.616915

>  <SCORE.INTRA.SOLV.lig_0>
-78.5846

>  <SCORE.INTRA.VDW>
-0.727598

>  <SCORE.INTRA.VDW.0>
-2.81163

>  <SCORE.INTRA.norm>
-0.103368

>  <SCORE.RESTR>
0

>  <SCORE.RESTR.CAVITY>
0

>  <SCORE.RESTR.norm>
0

>  <SCORE.SYSTEM>
0

>  <SCORE.SYSTEM.CONST>
0

>  <SCORE.SYSTEM.DIHEDRAL>
0

>  <SCORE.SYSTEM.SOLV>
0

>  <SCORE.SYSTEM.norm>
0

>  <SCORE.heavy>
26

>  <SCORE.norm>
-0.888613

>  <RMSD>
9.057

$$$$
ligand
 OpenBabel11021811463D
libRbt.so/2013.1/901 2013/11/27
 26 27  0  0  0  0  0  0  0  0999 V2000
   -2.2039  -47.2035    8.2775 C   0  0  0  0  0  0  0  0  0  0  0  0
   -4.0518  -40.9403    9.3134 C   0  0  0  0  0  0  0  0  0  0  0  0
   -9.2418  -40.4587    4.9571 P   0  0  1  0  0  0  0  0  0  0  0  0
   -8.1458  -39.5016    2.6277 P   0  0  2  0  0  0  0  0  0  0  0  0
   -5.4806  -43.2545   10.8482 C   0  0  0  0  0  0  0  0  0  0  0  0
   -3.2229  -44.1479   10.1864 C   0  0  0  0  0  0  0  0  0  0  0  0
   -4.6146  -44.2806   10.1628 C   0  0  0  0  0  0  0  0  0  0  0  0
   -5.2104  -45.3806    9.5397 C   0  0  0  0  0  0  0  0  0  0  0  0
   -6.5206  -45.5079    9.5350 N   0  0  0  0  0  0  0  0  0  0  0  0
   -4.4246  -46.3127    8.9070 N   0  0  0  0  0  0  0  0  0  0  0  0
   -3.0507  -46.1809    8.9479 C   0  0  0  0  0  0  0  0  0  0  0  0
   -2.4479  -45.1026    9.5678 N   0  0  0  0  0  0  0  0  0  0  0  0
  -10.6122  -40.3547    5.5534 O   0  5  0  0  0  0  0  0  0  0  0  0
   -8.7771  -38.8669    1.4528 O   0  0  0  0  0  0  0  0  0  0  0  0
   -7.7926  -41.5381    8.3302 S   0  0  0  0  0  0  0  0  0  0  0  0
   -7.3800  -42.5816    9.4451 C   0  0  0  0  0  0  0  0  0  0  0  0
   -8.7472  -41.8390    4.7049 O   0  0  0  0  0  0  0  0  0  0  0  0
   -7.6100  -40.8410    2.3192 O   0  5  0  0  0  0  0  0  0  0  0  0
   -6.0847  -42.4167    9.8493 N   0  0  0  0  0  0  0  0  0  0  0  0
   -9.3471  -39.5568    3.6606 O   0  0  0  0  0  0  0  0  0  0  0  0
   -6.9815  -38.7967    3.2448 O   0  0  0  0  0  0  0  0  0  0  0  0
   -5.4667  -41.4095    9.1631 C   0  0  1  0  0  0  0  0  0  0  0  0
   -6.3503  -40.8455    8.2774 C   0  0  2  0  0  0  0  0  0  0  0  0
   -6.1831  -39.7063    7.3028 C   0  0  0  0  0  0  0  0  0  0  0  0
   -6.9511  -39.9489    5.9985 C   0  0  0  0  0  0  0  0  0  0  0  0
   -8.3374  -39.6619    5.9742 O   0  0  0  0  0  0  0  0  0  0  0  0
  1 11  1  0  0  0  0
  3 13  1  1  0  0  0
  3 17  2  0  0  0  0
  3 20  1  0  0  0  0
  3 26  1  0  0  0  0
  4 14  1  6  0  0  0
  4 18  1  0  0  0  0
  4 21  2  0  0  0  0
  4 20  1  0  0  0  0
  5 19  1  0  0  0  0
  5  7  1  0  0  0  0
  6  7  2  0  0  0  0
  6 12  1  0  0  0  0
  7  8  1  0  0  0  0
  8  9  1  0  0  0  0
  8 10  2  0  0  0  0
 10 11  1  0  0  0  0
 11 12  2  0  0  0  0
 15 23  1  0  0  0  0
 15 16  1  0  0  0  0
 16 19  1  0  0  0  0
 19 22  1  0  0  0  0
 22  2  1  1  0  0  0
 22 23  1  0  0  0  0
 23 24  1  1  0  0  0
 24 25  1  0  0  0  0
 25 26  1  0  0  0  0
M  CHG  2  13  -1  18  -1
M  END
>  <CHROM.1>
-173.54662487,101.22232751,105.11852808,165.86043981,-37.27627437,81.44263555
-153.12231574,157.56510306,-6.71088490,-41.86268198,6.82693854,-0.76509598
0.82385172,-1.52182825

>  <Name>
ligand

>  <RI>
0

>  <Rbt.Current_Directory>
/home/itssahil/PROJECTS/Mol_Feturizer/New_Systems/rnas/3D2G

>  <Rbt.Executable>
rbdock ($Id: //depot/dev/client3/rdock/2013.1/src/exe/rbdock.cxx#4 $)

>  <Rbt.Library>
libRbt.so (2013.1, Build901 2013/11/27)

>  <Rbt.Parameter_File>
/export/apps/rDock/src/rDock_2013.1_src/data/scripts/dock_solv.prm

>  <Rbt.Receptor>
prm/pocket_docking_3.prm

>  <SCORE>
-5.76965

>  <SCORE.INTER>
-7.23959

>  <SCORE.INTER.CONST>
1

>  <SCORE.INTER.POLAR>
0

>  <SCORE.INTER.ROT>
8

>  <SCORE.INTER.SOLV>
20.7951

>  <SCORE.INTER.VDW>
-20.6914

>  <SCORE.INTER.norm>
-0.278446

>  <SCORE.INTRA>
1.46994

>  <SCORE.INTRA.DIHEDRAL>
2.0705

>  <SCORE.INTRA.DIHEDRAL.0>
9.09364

>  <SCORE.INTRA.POLAR>
0

>  <SCORE.INTRA.POLAR.0>
0

>  <SCORE.INTRA.REPUL>
0

>  <SCORE.INTRA.REPUL.0>
0

>  <SCORE.INTRA.SOLV>
1.62808

>  <SCORE.INTRA.SOLV.lig_0>
-78.5846

>  <SCORE.INTRA.VDW>
-0.379347

>  <SCORE.INTRA.VDW.0>
-2.81163

>  <SCORE.INTRA.norm>
0.0565362

>  <SCORE.RESTR>
0

>  <SCORE.RESTR.CAVITY>
0

>  <SCORE.RESTR.norm>
0

>  <SCORE.SYSTEM>
0

>  <SCORE.SYSTEM.CONST>
0

>  <SCORE.SYSTEM.DIHEDRAL>
0

>  <SCORE.SYSTEM.SOLV>
0

>  <SCORE.SYSTEM.norm>
0

>  <SCORE.heavy>
26

>  <SCORE.norm>
-0.221909

>  <RMSD>
9.061

$$$$
ligand
 OpenBabel11021811463D
libRbt.so/2013.1/901 2013/11/27
 26 27  0  0  0  0  0  0  0  0999 V2000
    1.2030  -37.2336    8.7593 C   0  0  0  0  0  0  0  0  0  0  0  0
   -5.8113  -38.1319   11.3491 C   0  0  0  0  0  0  0  0  0  0  0  0
   -4.6009  -42.4305   10.7676 P   0  0  1  0  0  0  0  0  0  0  0  0
   -6.6998  -44.1782   10.4799 P   0  0  2  0  0  0  0  0  0  0  0  0
   -3.3738  -36.3310   12.1026 C   0  0  0  0  0  0  0  0  0  0  0  0
   -1.8934  -37.8664   10.7668 C   0  0  0  0  0  0  0  0  0  0  0  0
   -2.1654  -36.5776   11.2357 C   0  0  0  0  0  0  0  0  0  0  0  0
   -1.3449  -35.5053   10.8750 C   0  0  0  0  0  0  0  0  0  0  0  0
   -1.6156  -34.2915   11.3068 N   0  0  0  0  0  0  0  0  0  0  0  0
   -0.2383  -35.7281   10.0923 N   0  0  0  0  0  0  0  0  0  0  0  0
    0.0140  -37.0016    9.6223 C   0  0  0  0  0  0  0  0  0  0  0  0
   -0.7938  -38.0697    9.9642 N   0  0  0  0  0  0  0  0  0  0  0  0
   -3.3455  -42.5421    9.9576 O   0  5  0  0  0  0  0  0  0  0  0  0
   -7.3345  -43.6555   11.7070 O   0  0  0  0  0  0  0  0  0  0  0  0
   -3.6120  -39.4481   14.3068 S   0  0  0  0  0  0  0  0  0  0  0  0
   -3.0035  -38.0869   13.7785 C   0  0  0  0  0  0  0  0  0  0  0  0
   -5.5761  -41.4025   10.3140 O   0  0  0  0  0  0  0  0  0  0  0  0
   -6.9892  -45.6091   10.2669 O   0  5  0  0  0  0  0  0  0  0  0  0
   -3.7365  -37.5603   12.7520 N   0  0  0  0  0  0  0  0  0  0  0  0
   -5.1629  -43.9101   10.7611 O   0  0  0  0  0  0  0  0  0  0  0  0
   -7.0932  -43.5486    9.1830 O   0  0  0  0  0  0  0  0  0  0  0  0
   -4.7931  -38.3623   12.4238 C   0  0  1  0  0  0  0  0  0  0  0  0
   -4.8126  -39.4593   13.2480 C   0  0  2  0  0  0  0  0  0  0  0  0
   -5.7630  -40.6289   13.3165 C   0  0  0  0  0  0  0  0  0  0  0  0
   -5.0262  -41.9718   13.2577 C   0  0  0  0  0  0  0  0  0  0  0  0
   -4.0721  -42.1679   12.2300 O   0  0  0  0  0  0  0  0  0  0  0  0
  1 11  1  0  0  0  0
  3 13  1  6  0  0  0
  3 17  2  0  0  0  0
  3 20  1  0  0  0  0
  3 26  1  0  0  0  0
  4 14  1  1  0  0  0
  4 18  1  0  0  0  0
  4 21  2  0  0  0  0
  4 20  1  0  0  0  0
  5 19  1  0  0  0  0
  5  7  1  0  0  0  0
  6  7  2  0  0  0  0
  6 12  1  0  0  0  0
  7  8  1  0  0  0  0
  8  9  1  0  0  0  0
  8 10  2  0  0  0  0
 10 11  1  0  0  0  0
 11 12  2  0  0  0  0
 15 23  1  0  0  0  0
 15 16  1  0  0  0  0
 16 19  1  0  0  0  0
 19 22  1  0  0  0  0
 22  2  1  1  0  0  0
 22 23  1  0  0  0  0
 23 24  1  1  0  0  0
 24 25  1  0  0  0  0
 25 26  1  0  0  0  0
M  CHG  2  13  -1  18  -1
M  END
>  <CHROM.1>
-134.52451829,73.07536621,24.03106165,-70.14338122,-53.18692676,-49.78591403
-74.94110754,178.17107919,-3.99881529,-40.14543607,11.36742854,-0.66821488
-0.78097468,-2.38833237

>  <Name>
ligand

>  <RI>
0

>  <Rbt.Current_Directory>
/home/itssahil/PROJECTS/Mol_Feturizer/New_Systems/rnas/3D2G

>  <Rbt.Executable>
rbdock ($Id: //depot/dev/client3/rdock/2013.1/src/exe/rbdock.cxx#4 $)

>  <Rbt.Library>
libRbt.so (2013.1, Build901 2013/11/27)

>  <Rbt.Parameter_File>
/export/apps/rDock/src/rDock_2013.1_src/data/scripts/dock_solv.prm

>  <Rbt.Receptor>
prm/blind_docking_60.prm

>  <SCORE>
-21.4955

>  <SCORE.INTER>
-20.0783

>  <SCORE.INTER.CONST>
1

>  <SCORE.INTER.POLAR>
0

>  <SCORE.INTER.ROT>
8

>  <SCORE.INTER.SOLV>
9.42285

>  <SCORE.INTER.VDW>
-25.4598

>  <SCORE.INTER.norm>
-0.772241

>  <SCORE.INTRA>
-1.41724

>  <SCORE.INTRA.DIHEDRAL>
-0.13887

>  <SCORE.INTRA.DIHEDRAL.0>
9.09364

>  <SCORE.INTRA.POLAR>
0

>  <SCORE.INTRA.POLAR.0>
0

>  <SCORE.INTRA.REPUL>
0

>  <SCORE.INTRA.REPUL.0>
0

>  <SCORE.INTRA.SOLV>
-0.839929

>  <SCORE.INTRA.SOLV.lig_0>
-78.5846

>  <SCORE.INTRA.VDW>
-0.92784

>  <SCORE.INTRA.VDW.0>
-2.81163

>  <SCORE.INTRA.norm>
-0.0545092

>  <SCORE.RESTR>
0

>  <SCORE.RESTR.CAVITY>
0

>  <SCORE.RESTR.norm>
0

>  <SCORE.SYSTEM>
0

>  <SCORE.SYSTEM.CONST>
0

>  <SCORE.SYSTEM.DIHEDRAL>
0

>  <SCORE.SYSTEM.SOLV>
0

>  <SCORE.SYSTEM.norm>
0

>  <SCORE.heavy>
26

>  <SCORE.norm>
-0.82675

>  <RMSD>
9.066

$$$$
ligand
 OpenBabel11021811463D
libRbt.so/2013.1/901 2013/11/27
 26 27  0  0  0  0  0  0  0  0999 V2000
   -4.7759  -40.6474   13.2840 C   0  0  0  0  0  0  0  0  0  0  0  0
   -4.0578  -45.2129    7.9890 C   0  0  0  0  0  0  0  0  0  0  0  0
   -7.6304  -42.0039    6.3396 P   0  0  1  0  0  0  0  0  0  0  0  0
   -9.3278  -39.9184    6.8988 P   0  0  2  0  0  0  0  0  0  0  0  0
   -4.4520  -45.9063   11.0083 C   0  0  0  0  0  0  0  0  0  0  0  0
   -5.5799  -44.2182   12.4954 C   0  0  0  0  0  0  0  0  0  0  0  0
   -4.5512  -44.5228   11.5988 C   0  0  0  0  0  0  0  0  0  0  0  0
   -3.5884  -43.5634   11.2736 C   0  0  0  0  0  0  0  0  0  0  0  0
   -2.6131  -43.8615   10.4411 N   0  0  0  0  0  0  0  0  0  0  0  0
   -3.6808  -42.2994   11.8032 N   0  0  0  0  0  0  0  0  0  0  0  0
   -4.6917  -42.0122   12.6988 C   0  0  0  0  0  0  0  0  0  0  0  0
   -5.6457  -42.9539   13.0358 N   0  0  0  0  0  0  0  0  0  0  0  0
   -8.4203  -42.2410    5.0889 O   0  5  0  0  0  0  0  0  0  0  0  0
  -10.1896  -39.6320    8.0637 O   0  0  0  0  0  0  0  0  0  0  0  0
   -7.5942  -46.5950    8.9384 S   0  0  0  0  0  0  0  0  0  0  0  0
   -6.6972  -46.5372   10.2401 C   0  0  0  0  0  0  0  0  0  0  0  0
   -6.3602  -41.2478    6.1710 O   0  0  0  0  0  0  0  0  0  0  0  0
  -10.0956  -39.9986    5.6416 O   0  5  0  0  0  0  0  0  0  0  0  0
   -5.4485  -46.0445    9.9825 N   0  0  0  0  0  0  0  0  0  0  0  0
   -8.6804  -41.3090    7.2988 O   0  0  0  0  0  0  0  0  0  0  0  0
   -8.2504  -38.9318    6.5841 O   0  0  0  0  0  0  0  0  0  0  0  0
   -5.2841  -45.7557    8.6570 C   0  0  1  0  0  0  0  0  0  0  0  0
   -6.4442  -46.0314    7.9778 C   0  0  2  0  0  0  0  0  0  0  0  0
   -6.7963  -45.8811    6.5187 C   0  0  0  0  0  0  0  0  0  0  0  0
   -6.7871  -44.4143    6.0737 C   0  0  0  0  0  0  0  0  0  0  0  0
   -7.4057  -43.4559    6.9127 O   0  0  0  0  0  0  0  0  0  0  0  0
  1 11  1  0  0  0  0
  3 13  1  6  0  0  0
  3 17  2  0  0  0  0
  3 20  1  0  0  0  0
  3 26  1  0  0  0  0
  4 14  1  1  0  0  0
  4 18  1  0  0  0  0
  4 21  2  0  0  0  0
  4 20  1  0  0  0  0
  5 19  1  0  0  0  0
  5  7  1  0  0  0  0
  6  7  2  0  0  0  0
  6 12  1  0  0  0  0
  7  8  1  0  0  0  0
  8  9  1  0  0  0  0
  8 10  2  0  0  0  0
 10 11  1  0  0  0  0
 11 12  2  0  0  0  0
 15 23  1  0  0  0  0
 15 16  1  0  0  0  0
 16 19  1  0  0  0  0
 19 22  1  0  0  0  0
 22  2  1  1  0  0  0
 22 23  1  0  0  0  0
 23 24  1  1  0  0  0
 24 25  1  0  0  0  0
 25 26  1  0  0  0  0
M  CHG  2  13  -1  18  -1
M  END
>  <CHROM.1>
-61.58067569,-91.78068926,76.42380856,-178.43053312,114.78840256,-44.65862451
-168.97804022,55.92489806,-6.67273822,-43.10758107,8.63995694,-0.19333742
-0.96750428,0.44679668

>  <Name>
ligand

>  <RI>
0

>  <Rbt.Current_Directory>
/home/itssahil/PROJECTS/Mol_Feturizer/New_Systems/rnas/3D2G

>  <Rbt.Executable>
rbdock ($Id: //depot/dev/client3/rdock/2013.1/src/exe/rbdock.cxx#4 $)

>  <Rbt.Library>
libRbt.so (2013.1, Build901 2013/11/27)

>  <Rbt.Parameter_File>
/export/apps/rDock/src/rDock_2013.1_src/data/scripts/dock_solv.prm

>  <Rbt.Receptor>
prm/pocket_docking_5.prm

>  <SCORE>
-19.2201

>  <SCORE.INTER>
-17.9005

>  <SCORE.INTER.CONST>
1

>  <SCORE.INTER.POLAR>
0

>  <SCORE.INTER.ROT>
8

>  <SCORE.INTER.SOLV>
16.9805

>  <SCORE.INTER.VDW>
-26.5272

>  <SCORE.INTER.norm>
-0.688482

>  <SCORE.INTRA>
-1.3301

>  <SCORE.INTRA.DIHEDRAL>
-2.69136

>  <SCORE.INTRA.DIHEDRAL.0>
9.09364

>  <SCORE.INTRA.POLAR>
0

>  <SCORE.INTRA.POLAR.0>
0

>  <SCORE.INTRA.REPUL>
0

>  <SCORE.INTRA.REPUL.0>
0

>  <SCORE.INTRA.SOLV>
1.98169

>  <SCORE.INTRA.SOLV.lig_0>
-78.5846

>  <SCORE.INTRA.VDW>
-0.975261

>  <SCORE.INTRA.VDW.0>
-2.81163

>  <SCORE.INTRA.norm>
-0.0511576

>  <SCORE.RESTR>
0.0104974

>  <SCORE.RESTR.CAVITY>
0.0104974

>  <SCORE.RESTR.norm>
0.000403747

>  <SCORE.SYSTEM>
0

>  <SCORE.SYSTEM.CONST>
0

>  <SCORE.SYSTEM.DIHEDRAL>
0

>  <SCORE.SYSTEM.SOLV>
0

>  <SCORE.SYSTEM.norm>
0

>  <SCORE.heavy>
26

>  <SCORE.norm>
-0.739235

>  <RMSD>
9.067

$$$$
ligand
 OpenBabel11021811463D
libRbt.so/2013.1/901 2013/11/27
 26 27  0  0  0  0  0  0  0  0999 V2000
    1.1622  -37.2496    8.7904 C   0  0  0  0  0  0  0  0  0  0  0  0
   -5.7916  -38.3196   11.2426 C   0  0  0  0  0  0  0  0  0  0  0  0
   -5.4831  -44.2988   11.2871 P   0  0  1  0  0  0  0  0  0  0  0  0
   -6.8023  -45.8169    9.4167 P   0  0  2  0  0  0  0  0  0  0  0  0
   -3.4483  -36.4479   12.1131 C   0  0  0  0  0  0  0  0  0  0  0  0
   -1.9619  -37.9397   10.7353 C   0  0  0  0  0  0  0  0  0  0  0  0
   -2.2312  -36.6685   11.2513 C   0  0  0  0  0  0  0  0  0  0  0  0
   -1.3997  -35.5885   10.9426 C   0  0  0  0  0  0  0  0  0  0  0  0
   -1.6679  -34.3907   11.4186 N   0  0  0  0  0  0  0  0  0  0  0  0
   -0.2853  -35.7878   10.1647 N   0  0  0  0  0  0  0  0  0  0  0  0
   -0.0355  -37.0436    9.6479 C   0  0  0  0  0  0  0  0  0  0  0  0
   -0.8540  -38.1188    9.9382 N   0  0  0  0  0  0  0  0  0  0  0  0
   -4.7928  -45.1955   12.2688 O   0  5  0  0  0  0  0  0  0  0  0  0
   -7.8803  -46.8132    9.5811 O   0  0  0  0  0  0  0  0  0  0  0  0
   -3.6910  -39.5807   14.2946 S   0  0  0  0  0  0  0  0  0  0  0  0
   -3.1013  -38.1990   13.7990 C   0  0  0  0  0  0  0  0  0  0  0  0
   -4.6502  -43.8160   10.1527 O   0  0  0  0  0  0  0  0  0  0  0  0
   -5.5195  -46.4387    9.0370 O   0  5  0  0  0  0  0  0  0  0  0  0
   -3.8022  -37.6907   12.7414 N   0  0  0  0  0  0  0  0  0  0  0  0
   -6.7457  -45.1489   10.8533 O   0  0  0  0  0  0  0  0  0  0  0  0
   -6.9968  -44.7617    8.3766 O   0  0  0  0  0  0  0  0  0  0  0  0
   -4.8173  -38.5234   12.3623 C   0  0  1  0  0  0  0  0  0  0  0  0
   -4.8407  -39.6241   13.1815 C   0  0  2  0  0  0  0  0  0  0  0  0
   -5.7565  -40.8226   13.2026 C   0  0  0  0  0  0  0  0  0  0  0  0
   -5.2529  -41.9464   12.2898 C   0  0  0  0  0  0  0  0  0  0  0  0
   -6.0318  -43.1243   12.1854 O   0  0  0  0  0  0  0  0  0  0  0  0
  1 11  1  0  0  0  0
  3 13  1  1  0  0  0
  3 17  2  0  0  0  0
  3 20  1  0  0  0  0
  3 26  1  0  0  0  0
  4 14  1  6  0  0  0
  4 18  1  0  0  0  0
  4 21  2  0  0  0  0
  4 20  1  0  0  0  0
  5 19  1  0  0  0  0
  5  7  1  0  0  0  0
  6  7  2  0  0  0  0
  6 12  1  0  0  0  0
  7  8  1  0  0  0  0
  8  9  1  0  0  0  0
  8 10  2  0  0  0  0
 10 11  1  0  0  0  0
 11 12  2  0  0  0  0
 15 23  1  0  0  0  0
 15 16  1  0  0  0  0
 16 19  1  0  0  0  0
 19 22  1  0  0  0  0
 22  2  1  1  0  0  0
 22 23  1  0  0  0  0
 23 24  1  1  0  0  0
 24 25  1  0  0  0  0
 25 26  1  0  0  0  0
M  CHG  2  13  -1  18  -1
M  END
>  <CHROM.1>
-106.88374362,75.67193332,25.75828663,163.12130199,-92.08677766,-178.52229363
-177.77980123,95.79690132,-4.22356909,-40.94113467,11.21651157,-0.78550353
-0.83848195,-2.38197737

>  <Name>
ligand

>  <RI>
0

>  <Rbt.Current_Directory>
/home/itssahil/PROJECTS/Mol_Feturizer/New_Systems/rnas/3D2G

>  <Rbt.Executable>
rbdock ($Id: //depot/dev/client3/rdock/2013.1/src/exe/rbdock.cxx#4 $)

>  <Rbt.Library>
libRbt.so (2013.1, Build901 2013/11/27)

>  <Rbt.Parameter_File>
/export/apps/rDock/src/rDock_2013.1_src/data/scripts/dock_solv.prm

>  <Rbt.Receptor>
prm/blind_docking_100.prm

>  <SCORE>
-23.9875

>  <SCORE.INTER>
-22.8096

>  <SCORE.INTER.CONST>
1

>  <SCORE.INTER.POLAR>
0

>  <SCORE.INTER.ROT>
8

>  <SCORE.INTER.SOLV>
11.387

>  <SCORE.INTER.VDW>
-27.9354

>  <SCORE.INTER.norm>
-0.877291

>  <SCORE.INTRA>
-1.20401

>  <SCORE.INTRA.DIHEDRAL>
-0.939221

>  <SCORE.INTRA.DIHEDRAL.0>
9.09364

>  <SCORE.INTRA.POLAR>
0

>  <SCORE.INTRA.POLAR.0>
0

>  <SCORE.INTRA.REPUL>
0

>  <SCORE.INTRA.REPUL.0>
0

>  <SCORE.INTRA.SOLV>
-0.879745

>  <SCORE.INTRA.SOLV.lig_0>
-78.5846

>  <SCORE.INTRA.VDW>
-0.294528

>  <SCORE.INTRA.VDW.0>
-2.81163

>  <SCORE.INTRA.norm>
-0.0463081

>  <SCORE.RESTR>
0.0260856

>  <SCORE.RESTR.CAVITY>
0.0260856

>  <SCORE.RESTR.norm>
0.00100329

>  <SCORE.SYSTEM>
0

>  <SCORE.SYSTEM.CONST>
0

>  <SCORE.SYSTEM.DIHEDRAL>
0

>  <SCORE.SYSTEM.SOLV>
0

>  <SCORE.SYSTEM.norm>
0

>  <SCORE.heavy>
26

>  <SCORE.norm>
-0.922596

>  <RMSD>
9.069

$$$$
ligand
 OpenBabel11021811463D
libRbt.so/2013.1/901 2013/11/27
 26 27  0  0  0  0  0  0  0  0999 V2000
    1.3967  -37.1393    8.7478 C   0  0  0  0  0  0  0  0  0  0  0  0
   -5.8246  -37.9461   11.3169 C   0  0  0  0  0  0  0  0  0  0  0  0
   -5.3048  -44.1363   12.5115 P   0  0  1  0  0  0  0  0  0  0  0  0
   -3.8001  -44.8861   10.3397 P   0  0  2  0  0  0  0  0  0  0  0  0
   -3.3426  -36.1188   11.8198 C   0  0  0  0  0  0  0  0  0  0  0  0
   -1.8163  -37.6956   10.5880 C   0  0  0  0  0  0  0  0  0  0  0  0
   -2.0923  -36.3963   11.0246 C   0  0  0  0  0  0  0  0  0  0  0  0
   -1.2353  -35.3422   10.6965 C   0  0  0  0  0  0  0  0  0  0  0  0
   -1.5093  -34.1185   11.0971 N   0  0  0  0  0  0  0  0  0  0  0  0
   -0.0909  -35.5931    9.9794 N   0  0  0  0  0  0  0  0  0  0  0  0
    0.1658  -36.8767    9.5403 C   0  0  0  0  0  0  0  0  0  0  0  0
   -0.6774  -37.9272    9.8503 N   0  0  0  0  0  0  0  0  0  0  0  0
   -6.4879  -45.0515   12.4275 O   0  5  0  0  0  0  0  0  0  0  0  0
   -4.2214  -46.2218   10.8088 O   0  0  0  0  0  0  0  0  0  0  0  0
   -3.4951  -39.0631   14.2569 S   0  0  0  0  0  0  0  0  0  0  0  0
   -2.9039  -37.7504   13.6015 C   0  0  0  0  0  0  0  0  0  0  0  0
   -4.1962  -44.5890   13.3944 O   0  0  0  0  0  0  0  0  0  0  0  0
   -2.4327  -44.5457   10.7764 O   0  5  0  0  0  0  0  0  0  0  0  0
   -3.6816  -37.2934   12.5746 N   0  0  0  0  0  0  0  0  0  0  0  0
   -4.8936  -43.9440   10.9952 O   0  0  0  0  0  0  0  0  0  0  0  0
   -3.7584  -44.6597    8.8632 O   0  0  0  0  0  0  0  0  0  0  0  0
   -4.7577  -38.1070   12.3565 C   0  0  1  0  0  0  0  0  0  0  0  0
   -4.7449  -39.1402   13.2595 C   0  0  2  0  0  0  0  0  0  0  0  0
   -5.6983  -40.2922   13.4588 C   0  0  0  0  0  0  0  0  0  0  0  0
   -5.0977  -41.6224   12.9903 C   0  0  0  0  0  0  0  0  0  0  0  0
   -5.9331  -42.7656   12.9736 O   0  0  0  0  0  0  0  0  0  0  0  0
  1 11  1  0  0  0  0
  3 13  1  1  0  0  0
  3 17  2  0  0  0  0
  3 20  1  0  0  0  0
  3 26  1  0  0  0  0
  4 14  1  1  0  0  0
  4 18  1  0  0  0  0
  4 21  2  0  0  0  0
  4 20  1  0  0  0  0
  5 19  1  0  0  0  0
  5  7  1  0  0  0  0
  6  7  2  0  0  0  0
  6 12  1  0  0  0  0
  7  8  1  0  0  0  0
  8  9  1  0  0  0  0
  8 10  2  0  0  0  0
 10 11  1  0  0  0  0
 11 12  2  0  0  0  0
 15 23  1  0  0  0  0
 15 16  1  0  0  0  0
 16 19  1  0  0  0  0
 19 22  1  0  0  0  0
 22  2  1  1  0  0  0
 22 23  1  0  0  0  0
 23 24  1  1  0  0  0
 24 25  1  0  0  0  0
 25 26  1  0  0  0  0
M  CHG  2  13  -1  18  -1
M  END
>  <CHROM.1>
-93.06113509,67.28062086,30.02041632,45.37685766,-73.07213987,-172.88441480
-179.09178287,-172.15997472,-3.49544536,-40.52795887,11.64381503,-1.05651446
-0.75490970,-2.84877447

>  <Name>
ligand

>  <RI>
0

>  <Rbt.Current_Directory>
/home/itssahil/PROJECTS/Mol_Feturizer/New_Systems/rnas/3D2G

>  <Rbt.Executable>
rbdock ($Id: //depot/dev/client3/rdock/2013.1/src/exe/rbdock.cxx#4 $)

>  <Rbt.Library>
libRbt.so (2013.1, Build901 2013/11/27)

>  <Rbt.Parameter_File>
/export/apps/rDock/src/rDock_2013.1_src/data/scripts/dock_solv.prm

>  <Rbt.Receptor>
prm/blind_docking_60.prm

>  <SCORE>
-22.2704

>  <SCORE.INTER>
-19.5193

>  <SCORE.INTER.CONST>
1

>  <SCORE.INTER.POLAR>
0

>  <SCORE.INTER.ROT>
8

>  <SCORE.INTER.SOLV>
21.2134

>  <SCORE.INTER.VDW>
-29.0174

>  <SCORE.INTER.norm>
-0.750743

>  <SCORE.INTRA>
-2.78796

>  <SCORE.INTRA.DIHEDRAL>
-2.55448

>  <SCORE.INTRA.DIHEDRAL.0>
9.09364

>  <SCORE.INTRA.POLAR>
0

>  <SCORE.INTRA.POLAR.0>
0

>  <SCORE.INTRA.REPUL>
0

>  <SCORE.INTRA.REPUL.0>
0

>  <SCORE.INTRA.SOLV>
-2.7795

>  <SCORE.INTRA.SOLV.lig_0>
-78.5846

>  <SCORE.INTRA.VDW>
-0.120969

>  <SCORE.INTRA.VDW.0>
-2.81163

>  <SCORE.INTRA.norm>
-0.107229

>  <SCORE.RESTR>
0.0368441

>  <SCORE.RESTR.CAVITY>
0.0368441

>  <SCORE.RESTR.norm>
0.00141708

>  <SCORE.SYSTEM>
0

>  <SCORE.SYSTEM.CONST>
0

>  <SCORE.SYSTEM.DIHEDRAL>
0

>  <SCORE.SYSTEM.SOLV>
0

>  <SCORE.SYSTEM.norm>
0

>  <SCORE.heavy>
26

>  <SCORE.norm>
-0.856556

>  <RMSD>
9.069

$$$$
ligand
 OpenBabel11021811463D
libRbt.so/2013.1/901 2013/11/27
 26 27  0  0  0  0  0  0  0  0999 V2000
    1.0944  -37.6016    8.6460 C   0  0  0  0  0  0  0  0  0  0  0  0
   -3.0822  -38.7125   14.0078 C   0  0  0  0  0  0  0  0  0  0  0  0
   -4.2963  -42.8616   10.8209 P   0  0  1  0  0  0  0  0  0  0  0  0
   -6.4356  -44.5126   11.3109 P   0  0  2  0  0  0  0  0  0  0  0  0
   -2.9632  -36.0419   12.3934 C   0  0  0  0  0  0  0  0  0  0  0  0
   -1.7425  -37.8083   11.0809 C   0  0  0  0  0  0  0  0  0  0  0  0
   -1.8902  -36.4601   11.4206 C   0  0  0  0  0  0  0  0  0  0  0  0
   -1.0737  -35.4889   10.8349 C   0  0  0  0  0  0  0  0  0  0  0  0
   -1.2286  -34.2194   11.1469 N   0  0  0  0  0  0  0  0  0  0  0  0
   -0.0895  -35.8675    9.9546 N   0  0  0  0  0  0  0  0  0  0  0  0
    0.0394  -37.1995    9.6143 C   0  0  0  0  0  0  0  0  0  0  0  0
   -0.7668  -38.1695   10.1795 N   0  0  0  0  0  0  0  0  0  0  0  0
   -2.9126  -42.7879   11.3905 O   0  5  0  0  0  0  0  0  0  0  0  0
   -6.6898  -45.5024   12.3775 O   0  0  0  0  0  0  0  0  0  0  0  0
   -6.1732  -38.0079   11.7130 S   0  0  0  0  0  0  0  0  0  0  0  0
   -5.1486  -36.8101   11.5792 C   0  0  0  0  0  0  0  0  0  0  0  0
   -4.3821  -43.0100    9.3430 O   0  0  0  0  0  0  0  0  0  0  0  0
   -6.5569  -45.0997    9.9630 O   0  5  0  0  0  0  0  0  0  0  0  0
   -4.0322  -37.0008   12.3443 N   0  0  0  0  0  0  0  0  0  0  0  0
   -4.9548  -44.0488   11.6347 O   0  0  0  0  0  0  0  0  0  0  0  0
   -7.3363  -43.3216   11.2522 O   0  0  0  0  0  0  0  0  0  0  0  0
   -4.1007  -38.1663   13.0544 C   0  0  1  0  0  0  0  0  0  0  0  0
   -5.2761  -38.8132   12.7663 C   0  0  2  0  0  0  0  0  0  0  0  0
   -5.8309  -40.1254   13.2622 C   0  0  0  0  0  0  0  0  0  0  0  0
   -5.0272  -41.3223   12.7413 C   0  0  0  0  0  0  0  0  0  0  0  0
   -4.9791  -41.5393   11.3429 O   0  0  0  0  0  0  0  0  0  0  0  0
  1 11  1  0  0  0  0
  3 13  1  1  0  0  0
  3 17  2  0  0  0  0
  3 20  1  0  0  0  0
  3 26  1  0  0  0  0
  4 14  1  1  0  0  0
  4 18  1  0  0  0  0
  4 21  2  0  0  0  0
  4 20  1  0  0  0  0
  5 19  1  0  0  0  0
  5  7  1  0  0  0  0
  6  7  2  0  0  0  0
  6 12  1  0  0  0  0
  7  8  1  0  0  0  0
  8  9  1  0  0  0  0
  8 10  2  0  0  0  0
 10 11  1  0  0  0  0
 11 12  2  0  0  0  0
 15 23  1  0  0  0  0
 15 16  1  0  0  0  0
 16 19  1  0  0  0  0
 19 22  1  0  0  0  0
 22  2  1  6  0  0  0
 22 23  1  0  0  0  0
 23 24  1  6  0  0  0
 24 25  1  0  0  0  0
 25 26  1  0  0  0  0
M  CHG  2  13  -1  18  -1
M  END
>  <CHROM.1>
-177.78938164,-96.22962201,-26.45600883,-173.78311514,110.86203773,-62.18709512
-172.96046654,-57.50982126,-4.00529767,-40.09828755,11.36419216,-0.95624308
-0.51420027,-2.85129954

>  <Name>
ligand

>  <RI>
0

>  <Rbt.Current_Directory>
/home/itssahil/PROJECTS/Mol_Feturizer/New_Systems/rnas/3D2G

>  <Rbt.Executable>
rbdock ($Id: //depot/dev/client3/rdock/2013.1/src/exe/rbdock.cxx#4 $)

>  <Rbt.Library>
libRbt.so (2013.1, Build901 2013/11/27)

>  <Rbt.Parameter_File>
/export/apps/rDock/src/rDock_2013.1_src/data/scripts/dock_solv.prm

>  <Rbt.Receptor>
prm/blind_docking_100.prm

>  <SCORE>
-21.1482

>  <SCORE.INTER>
-17.9036

>  <SCORE.INTER.CONST>
1

>  <SCORE.INTER.POLAR>
0

>  <SCORE.INTER.ROT>
8

>  <SCORE.INTER.SOLV>
11.5496

>  <SCORE.INTER.VDW>
-24.7189

>  <SCORE.INTER.norm>
-0.688598

>  <SCORE.INTRA>
-3.24465

>  <SCORE.INTRA.DIHEDRAL>
-3.80333

>  <SCORE.INTRA.DIHEDRAL.0>
9.09364

>  <SCORE.INTRA.POLAR>
0

>  <SCORE.INTRA.POLAR.0>
0

>  <SCORE.INTRA.REPUL>
0

>  <SCORE.INTRA.REPUL.0>
0

>  <SCORE.INTRA.SOLV>
-0.773709

>  <SCORE.INTRA.SOLV.lig_0>
-78.5846

>  <SCORE.INTRA.VDW>
-0.956132

>  <SCORE.INTRA.VDW.0>
-2.81163

>  <SCORE.INTRA.norm>
-0.124794

>  <SCORE.RESTR>
0

>  <SCORE.RESTR.CAVITY>
0

>  <SCORE.RESTR.norm>
0

>  <SCORE.SYSTEM>
0

>  <SCORE.SYSTEM.CONST>
0

>  <SCORE.SYSTEM.DIHEDRAL>
0

>  <SCORE.SYSTEM.SOLV>
0

>  <SCORE.SYSTEM.norm>
0

>  <SCORE.heavy>
26

>  <SCORE.norm>
-0.813392

>  <RMSD>
9.076

$$$$
ligand
 OpenBabel11021811463D
libRbt.so/2013.1/901 2013/11/27
 26 27  0  0  0  0  0  0  0  0999 V2000
   -2.0760  -40.5706    9.8253 C   0  0  0  0  0  0  0  0  0  0  0  0
   -3.5707  -46.3272    8.5983 C   0  0  0  0  0  0  0  0  0  0  0  0
   -7.2201  -45.2747    3.6574 P   0  0  1  0  0  0  0  0  0  0  0  0
   -6.2592  -42.7798    3.0289 P   0  0  2  0  0  0  0  0  0  0  0  0
   -4.5324  -45.4964   11.4509 C   0  0  0  0  0  0  0  0  0  0  0  0
   -2.5076  -44.1697   10.7629 C   0  0  0  0  0  0  0  0  0  0  0  0
   -3.8782  -44.2028   11.0372 C   0  0  0  0  0  0  0  0  0  0  0  0
   -4.6568  -43.0511   10.8937 C   0  0  0  0  0  0  0  0  0  0  0  0
   -5.9497  -43.0927   11.1381 N   0  0  0  0  0  0  0  0  0  0  0  0
   -4.0623  -41.8689   10.5252 N   0  0  0  0  0  0  0  0  0  0  0  0
   -2.7110  -41.8493   10.2425 C   0  0  0  0  0  0  0  0  0  0  0  0
   -1.9305  -42.9827   10.3720 N   0  0  0  0  0  0  0  0  0  0  0  0
   -8.4529  -44.6956    4.2813 O   0  5  0  0  0  0  0  0  0  0  0  0
   -7.5644  -42.2512    3.4749 O   0  0  0  0  0  0  0  0  0  0  0  0
   -7.4257  -46.6118    9.2112 S   0  0  0  0  0  0  0  0  0  0  0  0
   -6.7312  -46.0893   10.5329 C   0  0  0  0  0  0  0  0  0  0  0  0
   -7.3634  -45.7443    2.2530 O   0  0  0  0  0  0  0  0  0  0  0  0
   -6.2176  -43.0102    1.5723 O   0  5  0  0  0  0  0  0  0  0  0  0
   -5.3799  -45.9491   10.3826 N   0  0  0  0  0  0  0  0  0  0  0  0
   -6.1472  -44.1280    3.8552 O   0  0  0  0  0  0  0  0  0  0  0  0
   -5.0544  -41.9322    3.2799 O   0  0  0  0  0  0  0  0  0  0  0  0
   -4.9696  -46.3264    9.1349 C   0  0  1  0  0  0  0  0  0  0  0  0
   -6.0546  -46.7180    8.3916 C   0  0  2  0  0  0  0  0  0  0  0  0
   -6.1547  -47.2061    6.9678 C   0  0  0  0  0  0  0  0  0  0  0  0
   -6.6222  -46.1014    6.0134 C   0  0  0  0  0  0  0  0  0  0  0  0
   -6.8150  -46.4314    4.6500 O   0  0  0  0  0  0  0  0  0  0  0  0
  1 11  1  0  0  0  0
  3 13  1  1  0  0  0
  3 17  2  0  0  0  0
  3 20  1  0  0  0  0
  3 26  1  0  0  0  0
  4 14  1  1  0  0  0
  4 18  1  0  0  0  0
  4 21  2  0  0  0  0
  4 20  1  0  0  0  0
  5 19  1  0  0  0  0
  5  7  1  0  0  0  0
  6  7  2  0  0  0  0
  6 12  1  0  0  0  0
  7  8  1  0  0  0  0
  8  9  1  0  0  0  0
  8 10  2  0  0  0  0
 10 11  1  0  0  0  0
 11 12  2  0  0  0  0
 15 23  1  0  0  0  0
 15 16  1  0  0  0  0
 16 19  1  0  0  0  0
 19 22  1  0  0  0  0
 22  2  1  6  0  0  0
 22 23  1  0  0  0  0
 23 24  1  6  0  0  0
 24 25  1  0  0  0  0
 25 26  1  0  0  0  0
M  CHG  2  13  -1  18  -1
M  END
>  <CHROM.1>
-70.33463775,-117.94832712,-109.87353145,61.18722838,79.00608618,-177.44408686
-176.74482926,-55.31172019,-5.65719620,-44.45617168,7.03588631,-0.94576236
-0.94168030,-1.05112163

>  <Name>
ligand

>  <RI>
0

>  <Rbt.Current_Directory>
/home/itssahil/PROJECTS/Mol_Feturizer/New_Systems/rnas/3D2G

>  <Rbt.Executable>
rbdock ($Id: //depot/dev/client3/rdock/2013.1/src/exe/rbdock.cxx#4 $)

>  <Rbt.Library>
libRbt.so (2013.1, Build901 2013/11/27)

>  <Rbt.Parameter_File>
/export/apps/rDock/src/rDock_2013.1_src/data/scripts/dock_solv.prm

>  <Rbt.Receptor>
prm/pocket_docking_7.prm

>  <SCORE>
-11.3714

>  <SCORE.INTER>
-8.71804

>  <SCORE.INTER.CONST>
1

>  <SCORE.INTER.POLAR>
0

>  <SCORE.INTER.ROT>
8

>  <SCORE.INTER.SOLV>
8.02968

>  <SCORE.INTER.VDW>
-17.4219

>  <SCORE.INTER.norm>
-0.335309

>  <SCORE.INTRA>
-2.65341

>  <SCORE.INTRA.DIHEDRAL>
-3.91846

>  <SCORE.INTRA.DIHEDRAL.0>
9.09364

>  <SCORE.INTRA.POLAR>
0

>  <SCORE.INTRA.POLAR.0>
0

>  <SCORE.INTRA.REPUL>
0

>  <SCORE.INTRA.REPUL.0>
0

>  <SCORE.INTRA.SOLV>
-0.665374

>  <SCORE.INTRA.SOLV.lig_0>
-78.5846

>  <SCORE.INTRA.VDW>
-0.361496

>  <SCORE.INTRA.VDW.0>
-2.81163

>  <SCORE.INTRA.norm>
-0.102054

>  <SCORE.RESTR>
0

>  <SCORE.RESTR.CAVITY>
0

>  <SCORE.RESTR.norm>
0

>  <SCORE.SYSTEM>
0

>  <SCORE.SYSTEM.CONST>
0

>  <SCORE.SYSTEM.DIHEDRAL>
0

>  <SCORE.SYSTEM.SOLV>
0

>  <SCORE.SYSTEM.norm>
0

>  <SCORE.heavy>
26

>  <SCORE.norm>
-0.437363

>  <RMSD>
9.085

$$$$
ligand
 OpenBabel11021811463D
libRbt.so/2013.1/901 2013/11/27
 26 27  0  0  0  0  0  0  0  0999 V2000
   -0.5403  -40.8423    9.8373 C   0  0  0  0  0  0  0  0  0  0  0  0
   -7.2100  -43.6348   11.0842 C   0  0  0  0  0  0  0  0  0  0  0  0
   -5.9147  -45.9375    5.5612 P   0  0  1  0  0  0  0  0  0  0  0  0
   -4.3182  -44.8031    3.6358 P   0  0  2  0  0  0  0  0  0  0  0  0
   -4.4718  -44.0415   12.5296 C   0  0  0  0  0  0  0  0  0  0  0  0
   -2.2884  -43.8132   11.2991 C   0  0  0  0  0  0  0  0  0  0  0  0
   -3.4284  -43.2051   11.8336 C   0  0  0  0  0  0  0  0  0  0  0  0
   -3.6279  -41.8289   11.6943 C   0  0  0  0  0  0  0  0  0  0  0  0
   -4.7111  -41.2650   12.1859 N   0  0  0  0  0  0  0  0  0  0  0  0
   -2.6750  -41.0628   11.0683 N   0  0  0  0  0  0  0  0  0  0  0  0
   -1.5596  -41.6742   10.5310 C   0  0  0  0  0  0  0  0  0  0  0  0
   -1.3537  -43.0354   10.6541 N   0  0  0  0  0  0  0  0  0  0  0  0
   -7.1537  -45.8005    4.7303 O   0  5  0  0  0  0  0  0  0  0  0  0
   -3.6833  -43.4728    3.5400 O   0  0  0  0  0  0  0  0  0  0  0  0
   -5.2761  -46.8960   10.1137 S   0  0  0  0  0  0  0  0  0  0  0  0
   -4.4263  -46.0903   11.1771 C   0  0  0  0  0  0  0  0  0  0  0  0
   -5.2469  -47.2663    5.5157 O   0  0  0  0  0  0  0  0  0  0  0  0
   -5.2875  -45.0395    2.5492 O   0  5  0  0  0  0  0  0  0  0  0  0
   -5.0545  -44.9435   11.5750 N   0  0  0  0  0  0  0  0  0  0  0  0
   -5.0133  -44.7374    5.0591 O   0  0  0  0  0  0  0  0  0  0  0  0
   -3.4221  -45.9969    3.5663 O   0  0  0  0  0  0  0  0  0  0  0  0
   -6.2455  -44.7706   10.9277 C   0  0  1  0  0  0  0  0  0  0  0  0
   -6.4651  -45.8247   10.0769 C   0  0  2  0  0  0  0  0  0  0  0  0
   -7.6180  -46.1264    9.1520 C   0  0  0  0  0  0  0  0  0  0  0  0
   -7.1417  -46.5030    7.7445 C   0  0  0  0  0  0  0  0  0  0  0  0
   -6.3993  -45.5466    7.0102 O   0  0  0  0  0  0  0  0  0  0  0  0
  1 11  1  0  0  0  0
  3 13  1  6  0  0  0
  3 17  2  0  0  0  0
  3 20  1  0  0  0  0
  3 26  1  0  0  0  0
  4 14  1  6  0  0  0
  4 18  1  0  0  0  0
  4 21  2  0  0  0  0
  4 20  1  0  0  0  0
  5 19  1  0  0  0  0
  5  7  1  0  0  0  0
  6  7  2  0  0  0  0
  6 12  1  0  0  0  0
  7  8  1  0  0  0  0
  8  9  1  0  0  0  0
  8 10  2  0  0  0  0
 10 11  1  0  0  0  0
 11 12  2  0  0  0  0
 15 23  1  0  0  0  0
 15 16  1  0  0  0  0
 16 19  1  0  0  0  0
 19 22  1  0  0  0  0
 22  2  1  1  0  0  0
 22 23  1  0  0  0  0
 23 24  1  1  0  0  0
 24 25  1  0  0  0  0
 25 26  1  0  0  0  0
M  CHG  2  13  -1  18  -1
M  END
>  <CHROM.1>
-73.07622070,78.54006231,-64.16640159,175.92476088,-49.17866902,-61.07480351
-179.85031062,76.96157467,-4.73793720,-44.61868621,8.16798869,-1.29509162
-0.73945814,-1.71129496

>  <Name>
ligand

>  <RI>
0

>  <Rbt.Current_Directory>
/home/itssahil/PROJECTS/Mol_Feturizer/New_Systems/rnas/3D2G

>  <Rbt.Executable>
rbdock ($Id: //depot/dev/client3/rdock/2013.1/src/exe/rbdock.cxx#4 $)

>  <Rbt.Library>
libRbt.so (2013.1, Build901 2013/11/27)

>  <Rbt.Parameter_File>
/export/apps/rDock/src/rDock_2013.1_src/data/scripts/dock_solv.prm

>  <Rbt.Receptor>
prm/pocket_docking_6.prm

>  <SCORE>
-16.0528

>  <SCORE.INTER>
-14.4107

>  <SCORE.INTER.CONST>
1

>  <SCORE.INTER.POLAR>
0

>  <SCORE.INTER.ROT>
8

>  <SCORE.INTER.SOLV>
6.98327

>  <SCORE.INTER.VDW>
-20.8682

>  <SCORE.INTER.norm>
-0.554256

>  <SCORE.INTRA>
-1.64218

>  <SCORE.INTRA.DIHEDRAL>
-3.70923

>  <SCORE.INTRA.DIHEDRAL.0>
9.09364

>  <SCORE.INTRA.POLAR>
0

>  <SCORE.INTRA.POLAR.0>
0

>  <SCORE.INTRA.REPUL>
0

>  <SCORE.INTRA.REPUL.0>
0

>  <SCORE.INTRA.SOLV>
1.09078

>  <SCORE.INTRA.SOLV.lig_0>
-78.5846

>  <SCORE.INTRA.VDW>
-0.332957

>  <SCORE.INTRA.VDW.0>
-2.81163

>  <SCORE.INTRA.norm>
-0.0631609

>  <SCORE.RESTR>
0

>  <SCORE.RESTR.CAVITY>
0

>  <SCORE.RESTR.norm>
0

>  <SCORE.SYSTEM>
0

>  <SCORE.SYSTEM.CONST>
0

>  <SCORE.SYSTEM.DIHEDRAL>
0

>  <SCORE.SYSTEM.SOLV>
0

>  <SCORE.SYSTEM.norm>
0

>  <SCORE.heavy>
26

>  <SCORE.norm>
-0.617417

>  <RMSD>
9.086

$$$$
ligand
 OpenBabel11021811463D
libRbt.so/2013.1/901 2013/11/27
 26 27  0  0  0  0  0  0  0  0999 V2000
   -0.8766  -33.6289    8.8198 C   0  0  0  0  0  0  0  0  0  0  0  0
   -5.5698  -37.0034   11.7838 C   0  0  0  0  0  0  0  0  0  0  0  0
   -5.6839  -42.6909   10.4109 P   0  0  1  0  0  0  0  0  0  0  0  0
   -3.2924  -43.5974   11.4119 P   0  0  2  0  0  0  0  0  0  0  0  0
   -3.4833  -35.5186   13.5710 C   0  0  0  0  0  0  0  0  0  0  0  0
   -1.8919  -35.8584   11.6513 C   0  0  0  0  0  0  0  0  0  0  0  0
   -2.7844  -35.0235   12.3304 C   0  0  0  0  0  0  0  0  0  0  0  0
   -3.0642  -33.7429   11.8457 C   0  0  0  0  0  0  0  0  0  0  0  0
   -3.9177  -32.9676   12.4810 N   0  0  0  0  0  0  0  0  0  0  0  0
   -2.4227  -33.2856   10.7205 N   0  0  0  0  0  0  0  0  0  0  0  0
   -1.5539  -34.1224   10.0485 C   0  0  0  0  0  0  0  0  0  0  0  0
   -1.2745  -35.3943   10.5119 N   0  0  0  0  0  0  0  0  0  0  0  0
   -6.5208  -43.2915    9.3231 O   0  5  0  0  0  0  0  0  0  0  0  0
   -2.1992  -44.3742   10.7929 O   0  0  0  0  0  0  0  0  0  0  0  0
   -3.2129  -39.3218   13.8784 S   0  0  0  0  0  0  0  0  0  0  0  0
   -2.8389  -37.8119   14.1662 C   0  0  0  0  0  0  0  0  0  0  0  0
   -6.2166  -42.8336   11.7927 O   0  0  0  0  0  0  0  0  0  0  0  0
   -3.9438  -44.3297   12.5145 O   0  5  0  0  0  0  0  0  0  0  0  0
   -3.6389  -36.9439   13.4772 N   0  0  0  0  0  0  0  0  0  0  0  0
   -4.2688  -43.3629   10.1852 O   0  0  0  0  0  0  0  0  0  0  0  0
   -2.9355  -42.2850   12.0311 O   0  0  0  0  0  0  0  0  0  0  0  0
   -4.5397  -37.6048   12.6904 C   0  0  1  0  0  0  0  0  0  0  0  0
   -4.3818  -38.9590   12.8465 C   0  0  2  0  0  0  0  0  0  0  0  0
   -5.1199  -40.1194   12.2265 C   0  0  0  0  0  0  0  0  0  0  0  0
   -4.7229  -40.3361   10.7619 C   0  0  0  0  0  0  0  0  0  0  0  0
   -5.5310  -41.1851    9.9675 O   0  0  0  0  0  0  0  0  0  0  0  0
  1 11  1  0  0  0  0
  3 13  1  6  0  0  0
  3 17  2  0  0  0  0
  3 20  1  0  0  0  0
  3 26  1  0  0  0  0
  4 14  1  6  0  0  0
  4 18  1  0  0  0  0
  4 21  2  0  0  0  0
  4 20  1  0  0  0  0
  5 19  1  0  0  0  0
  5  7  1  0  0  0  0
  6  7  2  0  0  0  0
  6 12  1  0  0  0  0
  7  8  1  0  0  0  0
  8  9  1  0  0  0  0
  8 10  2  0  0  0  0
 10 11  1  0  0  0  0
 11 12  2  0  0  0  0
 15 23  1  0  0  0  0
 15 16  1  0  0  0  0
 16 19  1  0  0  0  0
 19 22  1  0  0  0  0
 22  2  1  1  0  0  0
 22 23  1  0  0  0  0
 23 24  1  1  0  0  0
 24 25  1  0  0  0  0
 25 26  1  0  0  0  0
M  CHG  2  13  -1  18  -1
M  END
>  <CHROM.1>
-150.53962485,102.99738942,-29.19293333,173.39906547,-105.89205254,-166.35521440
-60.64750915,-176.91786958,-3.78051093,-39.28183920,11.61484762,-0.59026037
-1.30840148,-2.11712751

>  <Name>
ligand

>  <RI>
0

>  <Rbt.Current_Directory>
/home/itssahil/PROJECTS/Mol_Feturizer/New_Systems/rnas/3D2G

>  <Rbt.Executable>
rbdock ($Id: //depot/dev/client3/rdock/2013.1/src/exe/rbdock.cxx#4 $)

>  <Rbt.Library>
libRbt.so (2013.1, Build901 2013/11/27)

>  <Rbt.Parameter_File>
/export/apps/rDock/src/rDock_2013.1_src/data/scripts/dock_solv.prm

>  <Rbt.Receptor>
prm/blind_docking_80.prm

>  <SCORE>
-14.7778

>  <SCORE.INTER>
-14.0437

>  <SCORE.INTER.CONST>
1

>  <SCORE.INTER.POLAR>
0

>  <SCORE.INTER.ROT>
8

>  <SCORE.INTER.SOLV>
12.7681

>  <SCORE.INTER.VDW>
-22.5518

>  <SCORE.INTER.norm>
-0.540142

>  <SCORE.INTRA>
-0.741584

>  <SCORE.INTRA.DIHEDRAL>
-2.09

>  <SCORE.INTRA.DIHEDRAL.0>
9.09364

>  <SCORE.INTRA.POLAR>
0

>  <SCORE.INTRA.POLAR.0>
0

>  <SCORE.INTRA.REPUL>
0

>  <SCORE.INTRA.REPUL.0>
0

>  <SCORE.INTRA.SOLV>
2.45637

>  <SCORE.INTRA.SOLV.lig_0>
-78.5846

>  <SCORE.INTRA.VDW>
-0.924765

>  <SCORE.INTRA.VDW.0>
-2.81163

>  <SCORE.INTRA.norm>
-0.0285225

>  <SCORE.RESTR>
0.00750676

>  <SCORE.RESTR.CAVITY>
0.00750676

>  <SCORE.RESTR.norm>
0.000288722

>  <SCORE.SYSTEM>
0

>  <SCORE.SYSTEM.CONST>
0

>  <SCORE.SYSTEM.DIHEDRAL>
0

>  <SCORE.SYSTEM.SOLV>
0

>  <SCORE.SYSTEM.norm>
0

>  <SCORE.heavy>
26

>  <SCORE.norm>
-0.568376

>  <RMSD>
9.088

$$$$
ligand
 OpenBabel11021811463D
libRbt.so/2013.1/901 2013/11/27
 26 27  0  0  0  0  0  0  0  0999 V2000
   -6.1624  -43.6712   11.0900 C   0  0  0  0  0  0  0  0  0  0  0  0
   -0.9293  -44.8669    7.4662 C   0  0  0  0  0  0  0  0  0  0  0  0
   -4.0736  -42.4082    3.9835 P   0  0  1  0  0  0  0  0  0  0  0  0
   -5.1148  -41.7479    1.5294 P   0  0  2  0  0  0  0  0  0  0  0  0
   -0.5326  -43.2013   10.0779 C   0  0  0  0  0  0  0  0  0  0  0  0
   -2.6021  -44.5980   10.3940 C   0  0  0  0  0  0  0  0  0  0  0  0
   -2.0133  -43.3314   10.3293 C   0  0  0  0  0  0  0  0  0  0  0  0
   -2.7817  -42.1823   10.5344 C   0  0  0  0  0  0  0  0  0  0  0  0
   -2.2182  -40.9934   10.4881 N   0  0  0  0  0  0  0  0  0  0  0  0
   -4.1326  -42.2970   10.7551 N   0  0  0  0  0  0  0  0  0  0  0  0
   -4.7025  -43.5523   10.8316 C   0  0  0  0  0  0  0  0  0  0  0  0
   -3.9529  -44.6975   10.6392 N   0  0  0  0  0  0  0  0  0  0  0  0
   -4.9669  -41.4240    4.6747 O   0  5  0  0  0  0  0  0  0  0  0  0
   -5.4328  -43.1830    1.3847 O   0  0  0  0  0  0  0  0  0  0  0  0
    0.1833  -41.1535    6.9274 S   0  0  0  0  0  0  0  0  0  0  0  0
    0.0397  -41.4283    8.4786 C   0  0  0  0  0  0  0  0  0  0  0  0
   -4.5428  -43.8200    3.9818 O   0  0  0  0  0  0  0  0  0  0  0  0
   -4.7582  -41.1217    0.2421 O   0  5  0  0  0  0  0  0  0  0  0  0
   -0.3308  -42.7177    8.7401 N   0  0  0  0  0  0  0  0  0  0  0  0
   -3.8958  -41.7784    2.5424 O   0  0  0  0  0  0  0  0  0  0  0  0
   -6.1908  -40.8576    2.0611 O   0  0  0  0  0  0  0  0  0  0  0  0
   -0.5124  -43.4332    7.5900 C   0  0  1  0  0  0  0  0  0  0  0  0
   -0.2447  -42.6371    6.5048 C   0  0  2  0  0  0  0  0  0  0  0  0
   -0.2791  -42.9350    5.0264 C   0  0  0  0  0  0  0  0  0  0  0  0
   -1.7011  -43.2225    4.5314 C   0  0  0  0  0  0  0  0  0  0  0  0
   -2.6892  -42.2254    4.7167 O   0  0  0  0  0  0  0  0  0  0  0  0
  1 11  1  0  0  0  0
  3 13  1  1  0  0  0
  3 17  2  0  0  0  0
  3 20  1  0  0  0  0
  3 26  1  0  0  0  0
  4 14  1  6  0  0  0
  4 18  1  0  0  0  0
  4 21  2  0  0  0  0
  4 20  1  0  0  0  0
  5 19  1  0  0  0  0
  5  7  1  0  0  0  0
  6  7  2  0  0  0  0
  6 12  1  0  0  0  0
  7  8  1  0  0  0  0
  8  9  1  0  0  0  0
  8 10  2  0  0  0  0
 10 11  1  0  0  0  0
 11 12  2  0  0  0  0
 15 23  1  0  0  0  0
 15 16  1  0  0  0  0
 16 19  1  0  0  0  0
 19 22  1  0  0  0  0
 22  2  1  1  0  0  0
 22 23  1  0  0  0  0
 23 24  1  1  0  0  0
 24 25  1  0  0  0  0
 25 26  1  0  0  0  0
M  CHG  2  13  -1  18  -1
M  END
>  <CHROM.1>
-69.85619884,105.02385550,107.46444360,-59.65775911,-114.15535627,58.35117303
169.16031968,165.14455090,-2.97209781,-42.53442010,6.23192714,1.25959318
0.10809981,1.74249173

>  <Name>
ligand

>  <RI>
0

>  <Rbt.Current_Directory>
/home/itssahil/PROJECTS/Mol_Feturizer/New_Systems/rnas/3D2G

>  <Rbt.Executable>
rbdock ($Id: //depot/dev/client3/rdock/2013.1/src/exe/rbdock.cxx#4 $)

>  <Rbt.Library>
libRbt.so (2013.1, Build901 2013/11/27)

>  <Rbt.Parameter_File>
/export/apps/rDock/src/rDock_2013.1_src/data/scripts/dock_solv.prm

>  <Rbt.Receptor>
prm/pocket_docking_6.prm

>  <SCORE>
-12.5502

>  <SCORE.INTER>
-9.22126

>  <SCORE.INTER.CONST>
1

>  <SCORE.INTER.POLAR>
0

>  <SCORE.INTER.ROT>
8

>  <SCORE.INTER.SOLV>
14.4973

>  <SCORE.INTER.VDW>
-19.9133

>  <SCORE.INTER.norm>
-0.354664

>  <SCORE.INTRA>
-3.32898

>  <SCORE.INTRA.DIHEDRAL>
-3.18923

>  <SCORE.INTRA.DIHEDRAL.0>
9.09364

>  <SCORE.INTRA.POLAR>
0

>  <SCORE.INTRA.POLAR.0>
0

>  <SCORE.INTRA.REPUL>
0

>  <SCORE.INTRA.REPUL.0>
0

>  <SCORE.INTRA.SOLV>
-0.928155

>  <SCORE.INTRA.SOLV.lig_0>
-78.5846

>  <SCORE.INTRA.VDW>
-1.27029

>  <SCORE.INTRA.VDW.0>
-2.81163

>  <SCORE.INTRA.norm>
-0.128038

>  <SCORE.RESTR>
0

>  <SCORE.RESTR.CAVITY>
0

>  <SCORE.RESTR.norm>
0

>  <SCORE.SYSTEM>
0

>  <SCORE.SYSTEM.CONST>
0

>  <SCORE.SYSTEM.DIHEDRAL>
0

>  <SCORE.SYSTEM.SOLV>
0

>  <SCORE.SYSTEM.norm>
0

>  <SCORE.heavy>
26

>  <SCORE.norm>
-0.482701

>  <RMSD>
9.090

$$$$
ligand
 OpenBabel11021811463D
libRbt.so/2013.1/901 2013/11/27
 26 27  0  0  0  0  0  0  0  0999 V2000
    1.3629  -37.0047    8.8068 C   0  0  0  0  0  0  0  0  0  0  0  0
   -5.8432  -37.8946   11.3456 C   0  0  0  0  0  0  0  0  0  0  0  0
   -5.2966  -44.1031   12.4187 P   0  0  1  0  0  0  0  0  0  0  0  0
   -3.6194  -44.4728   10.2756 P   0  0  2  0  0  0  0  0  0  0  0  0
   -3.3774  -36.0608   11.9017 C   0  0  0  0  0  0  0  0  0  0  0  0
   -1.8211  -37.6157   10.6795 C   0  0  0  0  0  0  0  0  0  0  0  0
   -2.1265  -36.3179   11.1006 C   0  0  0  0  0  0  0  0  0  0  0  0
   -1.2988  -35.2473   10.7514 C   0  0  0  0  0  0  0  0  0  0  0  0
   -1.6005  -34.0254   11.1374 N   0  0  0  0  0  0  0  0  0  0  0  0
   -0.1539  -35.4793   10.0288 N   0  0  0  0  0  0  0  0  0  0  0  0
    0.1318  -36.7621    9.6052 C   0  0  0  0  0  0  0  0  0  0  0  0
   -0.6824  -37.8289    9.9361 N   0  0  0  0  0  0  0  0  0  0  0  0
   -6.4944  -44.9902   12.2682 O   0  5  0  0  0  0  0  0  0  0  0  0
   -3.6910  -44.0046    8.8765 O   0  0  0  0  0  0  0  0  0  0  0  0
   -3.5262  -39.0537   14.2790 S   0  0  0  0  0  0  0  0  0  0  0  0
   -2.9396  -37.7244   13.6538 C   0  0  0  0  0  0  0  0  0  0  0  0
   -4.1878  -44.6460   13.2490 O   0  0  0  0  0  0  0  0  0  0  0  0
   -3.6626  -45.9440   10.3756 O   0  5  0  0  0  0  0  0  0  0  0  0
   -3.7134  -37.2524   12.6307 N   0  0  0  0  0  0  0  0  0  0  0  0
   -4.8951  -43.7877   10.9206 O   0  0  0  0  0  0  0  0  0  0  0  0
   -2.4001  -44.1082   11.0589 O   0  0  0  0  0  0  0  0  0  0  0  0
   -4.7824  -38.0688   12.3892 C   0  0  1  0  0  0  0  0  0  0  0  0
   -4.7686  -39.1196   13.2716 C   0  0  2  0  0  0  0  0  0  0  0  0
   -5.7153  -40.2817   13.4416 C   0  0  0  0  0  0  0  0  0  0  0  0
   -5.1078  -41.5958   12.9380 C   0  0  0  0  0  0  0  0  0  0  0  0
   -5.8997  -42.7679   13.0024 O   0  0  0  0  0  0  0  0  0  0  0  0
  1 11  1  0  0  0  0
  3 13  1  6  0  0  0
  3 17  2  0  0  0  0
  3 20  1  0  0  0  0
  3 26  1  0  0  0  0
  4 14  1  6  0  0  0
  4 18  1  0  0  0  0
  4 21  2  0  0  0  0
  4 20  1  0  0  0  0
  5 19  1  0  0  0  0
  5  7  1  0  0  0  0
  6  7  2  0  0  0  0
  6 12  1  0  0  0  0
  7  8  1  0  0  0  0
  8  9  1  0  0  0  0
  8 10  2  0  0  0  0
 10 11  1  0  0  0  0
 11 12  2  0  0  0  0
 15 23  1  0  0  0  0
 15 16  1  0  0  0  0
 16 19  1  0  0  0  0
 19 22  1  0  0  0  0
 22  2  1  1  0  0  0
 22 23  1  0  0  0  0
 23 24  1  1  0  0  0
 24 25  1  0  0  0  0
 25 26  1  0  0  0  0
M  CHG  2  13  -1  18  -1
M  END
>  <CHROM.1>
-106.07082890,67.76333793,27.57063142,175.19514241,-73.64942140,-178.35199862
177.07989944,-163.56343134,-3.47402251,-40.40121797,11.63758123,-1.06257166
-0.74910964,-2.85076450

>  <Name>
ligand

>  <RI>
0

>  <Rbt.Current_Directory>
/home/itssahil/PROJECTS/Mol_Feturizer/New_Systems/rnas/3D2G

>  <Rbt.Executable>
rbdock ($Id: //depot/dev/client3/rdock/2013.1/src/exe/rbdock.cxx#4 $)

>  <Rbt.Library>
libRbt.so (2013.1, Build901 2013/11/27)

>  <Rbt.Parameter_File>
/export/apps/rDock/src/rDock_2013.1_src/data/scripts/dock_solv.prm

>  <Rbt.Receptor>
prm/blind_docking_60.prm

>  <SCORE>
-19.5508

>  <SCORE.INTER>
-17.9373

>  <SCORE.INTER.CONST>
1

>  <SCORE.INTER.POLAR>
0

>  <SCORE.INTER.ROT>
8

>  <SCORE.INTER.SOLV>
22.8067

>  <SCORE.INTER.VDW>
-28.4938

>  <SCORE.INTER.norm>
-0.689897

>  <SCORE.INTRA>
-1.63703

>  <SCORE.INTRA.DIHEDRAL>
-2.02225

>  <SCORE.INTRA.DIHEDRAL.0>
9.09364

>  <SCORE.INTRA.POLAR>
0

>  <SCORE.INTRA.POLAR.0>
0

>  <SCORE.INTRA.REPUL>
0

>  <SCORE.INTRA.REPUL.0>
0

>  <SCORE.INTRA.SOLV>
-0.679725

>  <SCORE.INTRA.SOLV.lig_0>
-78.5846

>  <SCORE.INTRA.VDW>
-0.286044

>  <SCORE.INTRA.VDW.0>
-2.81163

>  <SCORE.INTRA.norm>
-0.0629627

>  <SCORE.RESTR>
0.0235175

>  <SCORE.RESTR.CAVITY>
0.0235175

>  <SCORE.RESTR.norm>
0.000904519

>  <SCORE.SYSTEM>
0

>  <SCORE.SYSTEM.CONST>
0

>  <SCORE.SYSTEM.DIHEDRAL>
0

>  <SCORE.SYSTEM.SOLV>
0

>  <SCORE.SYSTEM.norm>
0

>  <SCORE.heavy>
26

>  <SCORE.norm>
-0.751956

>  <RMSD>
9.099

$$$$
ligand
 OpenBabel11021811463D
libRbt.so/2013.1/901 2013/11/27
 26 27  0  0  0  0  0  0  0  0999 V2000
   -1.0287  -50.0335    5.8593 C   0  0  0  0  0  0  0  0  0  0  0  0
    0.1521  -41.4632    4.6525 C   0  0  0  0  0  0  0  0  0  0  0  0
   -2.4706  -40.1200   10.2200 P   0  0  1  0  0  0  0  0  0  0  0  0
   -4.8693  -41.0842    9.2929 P   0  0  2  0  0  0  0  0  0  0  0  0
   -0.7281  -44.4572    4.5347 C   0  0  0  0  0  0  0  0  0  0  0  0
    0.3619  -46.6124    5.2421 C   0  0  0  0  0  0  0  0  0  0  0  0
   -0.7976  -45.9253    4.8701 C   0  0  0  0  0  0  0  0  0  0  0  0
   -2.0313  -46.5812    4.8435 C   0  0  0  0  0  0  0  0  0  0  0  0
   -3.1219  -45.9246    4.5079 N   0  0  0  0  0  0  0  0  0  0  0  0
   -2.0967  -47.9208    5.1403 N   0  0  0  0  0  0  0  0  0  0  0  0
   -0.9489  -48.5875    5.5204 C   0  0  0  0  0  0  0  0  0  0  0  0
    0.2765  -47.9491    5.5593 N   0  0  0  0  0  0  0  0  0  0  0  0
   -2.0177  -38.7598   10.6552 O   0  5  0  0  0  0  0  0  0  0  0  0
   -6.1069  -40.4004    8.8655 O   0  0  0  0  0  0  0  0  0  0  0  0
   -0.1399  -43.2569    8.1187 S   0  0  0  0  0  0  0  0  0  0  0  0
   -0.5214  -44.2810    6.9750 C   0  0  0  0  0  0  0  0  0  0  0  0
   -2.3051  -41.2093   11.2197 O   0  0  0  0  0  0  0  0  0  0  0  0
   -5.1135  -42.0586   10.3733 O   0  5  0  0  0  0  0  0  0  0  0  0
   -0.4230  -43.7227    5.7313 N   0  0  0  0  0  0  0  0  0  0  0  0
   -3.9672  -39.8707    9.7691 O   0  0  0  0  0  0  0  0  0  0  0  0
   -4.1377  -41.8839    8.2641 O   0  0  0  0  0  0  0  0  0  0  0  0
   -0.0485  -42.4101    5.7961 C   0  0  1  0  0  0  0  0  0  0  0  0
    0.1386  -42.0483    7.1066 C   0  0  2  0  0  0  0  0  0  0  0  0
    0.5617  -40.7369    7.7204 C   0  0  0  0  0  0  0  0  0  0  0  0
   -0.2373  -40.4115    8.9875 C   0  0  0  0  0  0  0  0  0  0  0  0
   -1.6499  -40.3745    8.8975 O   0  0  0  0  0  0  0  0  0  0  0  0
  1 11  1  0  0  0  0
  3 13  1  1  0  0  0
  3 17  2  0  0  0  0
  3 20  1  0  0  0  0
  3 26  1  0  0  0  0
  4 14  1  6  0  0  0
  4 18  1  0  0  0  0
  4 21  2  0  0  0  0
  4 20  1  0  0  0  0
  5 19  1  0  0  0  0
  5  7  1  0  0  0  0
  6  7  2  0  0  0  0
  6 12  1  0  0  0  0
  7  8  1  0  0  0  0
  8  9  1  0  0  0  0
  8 10  2  0  0  0  0
 10 11  1  0  0  0  0
 11 12  2  0  0  0  0
 15 23  1  0  0  0  0
 15 16  1  0  0  0  0
 16 19  1  0  0  0  0
 19 22  1  0  0  0  0
 22  2  1  6  0  0  0
 22 23  1  0  0  0  0
 23 24  1  6  0  0  0
 24 25  1  0  0  0  0
 25 26  1  0  0  0  0
M  CHG  2  13  -1  18  -1
M  END
>  <CHROM.1>
-176.90902457,-14.34534660,-67.98120774,-175.28987320,-41.50843551,-55.70760242
176.60851698,61.78902441,-1.85720124,-43.01552072,7.62050577,1.25727330,-0.36021762
-2.65925643

>  <Name>
ligand

>  <RI>
0

>  <Rbt.Current_Directory>
/home/itssahil/PROJECTS/Mol_Feturizer/New_Systems/rnas/3D2G

>  <Rbt.Executable>
rbdock ($Id: //depot/dev/client3/rdock/2013.1/src/exe/rbdock.cxx#4 $)

>  <Rbt.Library>
libRbt.so (2013.1, Build901 2013/11/27)

>  <Rbt.Parameter_File>
/export/apps/rDock/src/rDock_2013.1_src/data/scripts/dock_solv.prm

>  <Rbt.Receptor>
prm/pocket_docking_8.prm

>  <SCORE>
-12.9614

>  <SCORE.INTER>
-11.3903

>  <SCORE.INTER.CONST>
1

>  <SCORE.INTER.POLAR>
0

>  <SCORE.INTER.ROT>
8

>  <SCORE.INTER.SOLV>
8.12096

>  <SCORE.INTER.VDW>
-19.2338

>  <SCORE.INTER.norm>
-0.438088

>  <SCORE.INTRA>
-1.57116

>  <SCORE.INTRA.DIHEDRAL>
-3.73574

>  <SCORE.INTRA.DIHEDRAL.0>
9.09364

>  <SCORE.INTRA.POLAR>
0

>  <SCORE.INTRA.POLAR.0>
0

>  <SCORE.INTRA.REPUL>
0

>  <SCORE.INTRA.REPUL.0>
0

>  <SCORE.INTRA.SOLV>
-1.08268

>  <SCORE.INTRA.SOLV.lig_0>
-78.5846

>  <SCORE.INTRA.VDW>
0.838048

>  <SCORE.INTRA.VDW.0>
-2.81163

>  <SCORE.INTRA.norm>
-0.0604292

>  <SCORE.RESTR>
0

>  <SCORE.RESTR.CAVITY>
0

>  <SCORE.RESTR.norm>
0

>  <SCORE.SYSTEM>
0

>  <SCORE.SYSTEM.CONST>
0

>  <SCORE.SYSTEM.DIHEDRAL>
0

>  <SCORE.SYSTEM.SOLV>
0

>  <SCORE.SYSTEM.norm>
0

>  <SCORE.heavy>
26

>  <SCORE.norm>
-0.498517

>  <RMSD>
9.101

$$$$
ligand
 OpenBabel11021811463D
libRbt.so/2013.1/901 2013/11/27
 26 27  0  0  0  0  0  0  0  0999 V2000
   -0.4143  -33.6302    8.9342 C   0  0  0  0  0  0  0  0  0  0  0  0
   -5.4711  -38.1510   11.3780 C   0  0  0  0  0  0  0  0  0  0  0  0
   -5.3576  -42.7034   11.7271 P   0  0  1  0  0  0  0  0  0  0  0  0
   -5.0575  -41.6810    9.1957 P   0  0  2  0  0  0  0  0  0  0  0  0
   -4.6682  -35.3116   12.4007 C   0  0  0  0  0  0  0  0  0  0  0  0
   -2.7680  -35.8352   10.8360 C   0  0  0  0  0  0  0  0  0  0  0  0
   -3.5403  -34.8772   11.4998 C   0  0  0  0  0  0  0  0  0  0  0  0
   -3.2991  -33.5145   11.3048 C   0  0  0  0  0  0  0  0  0  0  0  0
   -4.0403  -32.6173   11.9203 N   0  0  0  0  0  0  0  0  0  0  0  0
   -2.2667  -33.1154   10.4913 N   0  0  0  0  0  0  0  0  0  0  0  0
   -1.5187  -34.0684    9.8289 C   0  0  0  0  0  0  0  0  0  0  0  0
   -1.7518  -35.4192   10.0059 N   0  0  0  0  0  0  0  0  0  0  0  0
   -6.2968  -43.8373   11.4502 O   0  5  0  0  0  0  0  0  0  0  0  0
   -3.6627  -41.3151    9.5156 O   0  0  0  0  0  0  0  0  0  0  0  0
   -3.2802  -38.1003   14.6207 S   0  0  0  0  0  0  0  0  0  0  0  0
   -3.5331  -36.6125   14.1466 C   0  0  0  0  0  0  0  0  0  0  0  0
   -3.9116  -43.0522   11.7590 O   0  0  0  0  0  0  0  0  0  0  0  0
   -5.6786  -40.7393    8.2451 O   0  5  0  0  0  0  0  0  0  0  0  0
   -4.3103  -36.5559   13.0236 N   0  0  0  0  0  0  0  0  0  0  0  0
   -5.7472  -41.6389   10.6225 O   0  0  0  0  0  0  0  0  0  0  0  0
   -5.2883  -43.0148    8.5626 O   0  0  0  0  0  0  0  0  0  0  0  0
   -4.6456  -37.8039   12.5792 C   0  0  1  0  0  0  0  0  0  0  0  0
   -4.1113  -38.7505   13.4168 C   0  0  2  0  0  0  0  0  0  0  0  0
   -4.1913  -40.2566   13.3871 C   0  0  0  0  0  0  0  0  0  0  0  0
   -5.6410  -40.7546   13.3744 C   0  0  0  0  0  0  0  0  0  0  0  0
   -5.8766  -42.1233   13.0987 O   0  0  0  0  0  0  0  0  0  0  0  0
  1 11  1  0  0  0  0
  3 13  1  6  0  0  0
  3 17  2  0  0  0  0
  3 20  1  0  0  0  0
  3 26  1  0  0  0  0
  4 14  1  1  0  0  0
  4 18  1  0  0  0  0
  4 21  2  0  0  0  0
  4 20  1  0  0  0  0
  5 19  1  0  0  0  0
  5  7  1  0  0  0  0
  6  7  2  0  0  0  0
  6 12  1  0  0  0  0
  7  8  1  0  0  0  0
  8  9  1  0  0  0  0
  8 10  2  0  0  0  0
 10 11  1  0  0  0  0
 11 12  2  0  0  0  0
 15 23  1  0  0  0  0
 15 16  1  0  0  0  0
 16 19  1  0  0  0  0
 19 22  1  0  0  0  0
 22  2  1  1  0  0  0
 22 23  1  0  0  0  0
 23 24  1  1  0  0  0
 24 25  1  0  0  0  0
 25 26  1  0  0  0  0
M  CHG  2  13  -1  18  -1
M  END
>  <CHROM.1>
-88.14726633,83.21337326,33.20944873,-67.57999059,123.81854468,168.52005603
-58.44795649,-152.65628514,-4.20198893,-38.79566820,11.43856072,-0.42611136
-1.22537576,-1.97662335

>  <Name>
ligand

>  <RI>
0

>  <Rbt.Current_Directory>
/home/itssahil/PROJECTS/Mol_Feturizer/New_Systems/rnas/3D2G

>  <Rbt.Executable>
rbdock ($Id: //depot/dev/client3/rdock/2013.1/src/exe/rbdock.cxx#4 $)

>  <Rbt.Library>
libRbt.so (2013.1, Build901 2013/11/27)

>  <Rbt.Parameter_File>
/export/apps/rDock/src/rDock_2013.1_src/data/scripts/dock_solv.prm

>  <Rbt.Receptor>
prm/blind_docking_100.prm

>  <SCORE>
-19.9307

>  <SCORE.INTER>
-17.4212

>  <SCORE.INTER.CONST>
1

>  <SCORE.INTER.POLAR>
0

>  <SCORE.INTER.ROT>
8

>  <SCORE.INTER.SOLV>
8.47725

>  <SCORE.INTER.VDW>
-23.3732

>  <SCORE.INTER.norm>
-0.670047

>  <SCORE.INTRA>
-2.50946

>  <SCORE.INTRA.DIHEDRAL>
-2.67134

>  <SCORE.INTRA.DIHEDRAL.0>
9.09364

>  <SCORE.INTRA.POLAR>
0

>  <SCORE.INTRA.POLAR.0>
0

>  <SCORE.INTRA.REPUL>
0

>  <SCORE.INTRA.REPUL.0>
0

>  <SCORE.INTRA.SOLV>
-0.661252

>  <SCORE.INTRA.SOLV.lig_0>
-78.5846

>  <SCORE.INTRA.VDW>
-0.843168

>  <SCORE.INTRA.VDW.0>
-2.81163

>  <SCORE.INTRA.norm>
-0.0965178

>  <SCORE.RESTR>
0

>  <SCORE.RESTR.CAVITY>
0

>  <SCORE.RESTR.norm>
0

>  <SCORE.SYSTEM>
0

>  <SCORE.SYSTEM.CONST>
0

>  <SCORE.SYSTEM.DIHEDRAL>
0

>  <SCORE.SYSTEM.SOLV>
0

>  <SCORE.SYSTEM.norm>
0

>  <SCORE.heavy>
26

>  <SCORE.norm>
-0.766565

>  <RMSD>
9.102

$$$$
ligand
 OpenBabel11021811463D
libRbt.so/2013.1/901 2013/11/27
 26 27  0  0  0  0  0  0  0  0999 V2000
    1.1212  -37.4933    8.6198 C   0  0  0  0  0  0  0  0  0  0  0  0
   -3.2385  -38.6245   14.3236 C   0  0  0  0  0  0  0  0  0  0  0  0
   -4.2374  -43.1694   11.3458 P   0  0  1  0  0  0  0  0  0  0  0  0
   -1.8885  -41.7768   11.0523 P   0  0  2  0  0  0  0  0  0  0  0  0
   -2.9482  -36.1519   12.4382 C   0  0  0  0  0  0  0  0  0  0  0  0
   -1.6850  -37.8472   11.0730 C   0  0  0  0  0  0  0  0  0  0  0  0
   -1.8717  -36.5128   11.4465 C   0  0  0  0  0  0  0  0  0  0  0  0
   -1.0914  -35.5027   10.8774 C   0  0  0  0  0  0  0  0  0  0  0  0
   -1.2830  -34.2465   11.2214 N   0  0  0  0  0  0  0  0  0  0  0  0
   -0.1040  -35.8291    9.9800 N   0  0  0  0  0  0  0  0  0  0  0  0
    0.0633  -37.1478    9.6065 C   0  0  0  0  0  0  0  0  0  0  0  0
   -0.7070  -38.1559   10.1549 N   0  0  0  0  0  0  0  0  0  0  0  0
   -4.2394  -43.1925    9.8478 O   0  5  0  0  0  0  0  0  0  0  0  0
   -2.4690  -40.6008   11.7320 O   0  0  0  0  0  0  0  0  0  0  0  0
   -6.0242  -38.2648   11.5982 S   0  0  0  0  0  0  0  0  0  0  0  0
   -5.0048  -37.0638   11.4544 C   0  0  0  0  0  0  0  0  0  0  0  0
   -4.8733  -44.3372   12.0132 O   0  0  0  0  0  0  0  0  0  0  0  0
   -2.0517  -41.7129    9.5875 O   0  5  0  0  0  0  0  0  0  0  0  0
   -3.9913  -37.1376   12.3685 N   0  0  0  0  0  0  0  0  0  0  0  0
   -2.7071  -42.9709   11.6979 O   0  0  0  0  0  0  0  0  0  0  0  0
   -0.4238  -42.0160   11.2273 O   0  0  0  0  0  0  0  0  0  0  0  0
   -4.1353  -38.2164   13.1948 C   0  0  1  0  0  0  0  0  0  0  0  0
   -5.2576  -38.9220   12.8403 C   0  0  2  0  0  0  0  0  0  0  0  0
   -5.8552  -40.1835   13.4123 C   0  0  0  0  0  0  0  0  0  0  0  0
   -5.0290  -41.4241   13.0543 C   0  0  0  0  0  0  0  0  0  0  0  0
   -4.9486  -41.8052   11.6930 O   0  0  0  0  0  0  0  0  0  0  0  0
  1 11  1  0  0  0  0
  3 13  1  6  0  0  0
  3 17  2  0  0  0  0
  3 20  1  0  0  0  0
  3 26  1  0  0  0  0
  4 14  1  1  0  0  0
  4 18  1  0  0  0  0
  4 21  2  0  0  0  0
  4 20  1  0  0  0  0
  5 19  1  0  0  0  0
  5  7  1  0  0  0  0
  6  7  2  0  0  0  0
  6 12  1  0  0  0  0
  7  8  1  0  0  0  0
  8  9  1  0  0  0  0
  8 10  2  0  0  0  0
 10 11  1  0  0  0  0
 11 12  2  0  0  0  0
 15 23  1  0  0  0  0
 15 16  1  0  0  0  0
 16 19  1  0  0  0  0
 19 22  1  0  0  0  0
 22  2  1  6  0  0  0
 22 23  1  0  0  0  0
 23 24  1  6  0  0  0
 24 25  1  0  0  0  0
 25 26  1  0  0  0  0
M  CHG  2  13  -1  18  -1
M  END
>  <CHROM.1>
52.84358938,-85.01308940,-26.84422130,70.42766493,106.92511122,-65.46409973
-173.17689350,-175.67673149,-3.03488289,-39.62549218,11.42890241,-1.11021096
-0.48585404,-3.02913830

>  <Name>
ligand

>  <RI>
0

>  <Rbt.Current_Directory>
/home/itssahil/PROJECTS/Mol_Feturizer/New_Systems/rnas/3D2G

>  <Rbt.Executable>
rbdock ($Id: //depot/dev/client3/rdock/2013.1/src/exe/rbdock.cxx#4 $)

>  <Rbt.Library>
libRbt.so (2013.1, Build901 2013/11/27)

>  <Rbt.Parameter_File>
/export/apps/rDock/src/rDock_2013.1_src/data/scripts/dock_solv.prm

>  <Rbt.Receptor>
prm/blind_docking_80.prm

>  <SCORE>
-20.2352

>  <SCORE.INTER>
-14.904

>  <SCORE.INTER.CONST>
1

>  <SCORE.INTER.POLAR>
0

>  <SCORE.INTER.ROT>
8

>  <SCORE.INTER.SOLV>
12.0203

>  <SCORE.INTER.VDW>
-22.8761

>  <SCORE.INTER.norm>
-0.573229

>  <SCORE.INTRA>
-5.33125

>  <SCORE.INTRA.DIHEDRAL>
-3.68686

>  <SCORE.INTRA.DIHEDRAL.0>
9.09364

>  <SCORE.INTRA.POLAR>
0

>  <SCORE.INTRA.POLAR.0>
0

>  <SCORE.INTRA.REPUL>
0

>  <SCORE.INTRA.REPUL.0>
0

>  <SCORE.INTRA.SOLV>
-2.60954

>  <SCORE.INTRA.SOLV.lig_0>
-78.5846

>  <SCORE.INTRA.VDW>
-2.18305

>  <SCORE.INTRA.VDW.0>
-2.81163

>  <SCORE.INTRA.norm>
-0.205048

>  <SCORE.RESTR>
0

>  <SCORE.RESTR.CAVITY>
0

>  <SCORE.RESTR.norm>
0

>  <SCORE.SYSTEM>
0

>  <SCORE.SYSTEM.CONST>
0

>  <SCORE.SYSTEM.DIHEDRAL>
0

>  <SCORE.SYSTEM.SOLV>
0

>  <SCORE.SYSTEM.norm>
0

>  <SCORE.heavy>
26

>  <SCORE.norm>
-0.778277

>  <RMSD>
9.105

$$$$
ligand
 OpenBabel11021811463D
libRbt.so/2013.1/901 2013/11/27
 26 27  0  0  0  0  0  0  0  0999 V2000
   -0.8057  -33.1980    8.6047 C   0  0  0  0  0  0  0  0  0  0  0  0
   -2.5543  -40.4350    9.1982 C   0  0  0  0  0  0  0  0  0  0  0  0
   -7.6279  -37.9327    7.2017 P   0  0  1  0  0  0  0  0  0  0  0  0
   -9.4872  -39.8893    6.6939 P   0  0  2  0  0  0  0  0  0  0  0  0
   -1.7887  -38.2003   11.2409 C   0  0  0  0  0  0  0  0  0  0  0  0
   -2.3707  -35.7909   10.8062 C   0  0  0  0  0  0  0  0  0  0  0  0
   -1.5448  -36.8875   10.5412 C   0  0  0  0  0  0  0  0  0  0  0  0
   -0.4679  -36.7658    9.6589 C   0  0  0  0  0  0  0  0  0  0  0  0
    0.3156  -37.7977    9.4260 N   0  0  0  0  0  0  0  0  0  0  0  0
   -0.2481  -35.5734    9.0133 N   0  0  0  0  0  0  0  0  0  0  0  0
   -1.0601  -34.4921    9.2922 C   0  0  0  0  0  0  0  0  0  0  0  0
   -2.1235  -34.5960   10.1690 N   0  0  0  0  0  0  0  0  0  0  0  0
   -6.8906  -36.9747    6.3167 O   0  5  0  0  0  0  0  0  0  0  0  0
   -9.8840  -39.4430    8.0449 O   0  0  0  0  0  0  0  0  0  0  0  0
   -5.5652  -38.7862   11.0779 S   0  0  0  0  0  0  0  0  0  0  0  0
   -4.2196  -38.1218   11.5781 C   0  0  0  0  0  0  0  0  0  0  0  0
   -8.3146  -37.3325    8.3772 O   0  0  0  0  0  0  0  0  0  0  0  0
   -8.7423  -41.1623    6.7220 O   0  5  0  0  0  0  0  0  0  0  0  0
   -3.1243  -38.6409   10.9464 N   0  0  0  0  0  0  0  0  0  0  0  0
   -8.5933  -38.6794    6.1939 O   0  0  0  0  0  0  0  0  0  0  0  0
  -10.5808  -40.1497    5.7093 O   0  0  0  0  0  0  0  0  0  0  0  0
   -3.4705  -39.6252   10.0639 C   0  0  1  0  0  0  0  0  0  0  0  0
   -4.8335  -39.7842   10.0623 C   0  0  2  0  0  0  0  0  0  0  0  0
   -5.7205  -40.7136    9.2717 C   0  0  0  0  0  0  0  0  0  0  0  0
   -6.8594  -39.9635    8.5717 C   0  0  0  0  0  0  0  0  0  0  0  0
   -6.5224  -38.9810    7.6094 O   0  0  0  0  0  0  0  0  0  0  0  0
  1 11  1  0  0  0  0
  3 13  1  6  0  0  0
  3 17  2  0  0  0  0
  3 20  1  0  0  0  0
  3 26  1  0  0  0  0
  4 14  1  1  0  0  0
  4 18  1  0  0  0  0
  4 21  2  0  0  0  0
  4 20  1  0  0  0  0
  5 19  1  0  0  0  0
  5  7  1  0  0  0  0
  6  7  2  0  0  0  0
  6 12  1  0  0  0  0
  7  8  1  0  0  0  0
  8  9  1  0  0  0  0
  8 10  2  0  0  0  0
 10 11  1  0  0  0  0
 11 12  2  0  0  0  0
 15 23  1  0  0  0  0
 15 16  1  0  0  0  0
 16 19  1  0  0  0  0
 19 22  1  0  0  0  0
 22  2  1  6  0  0  0
 22 23  1  0  0  0  0
 23 24  1  6  0  0  0
 24 25  1  0  0  0  0
 25 26  1  0  0  0  0
M  CHG  2  13  -1  18  -1
M  END
>  <CHROM.1>
174.70966056,-78.57606017,58.31748093,37.94056537,50.90888976,61.59988453
-162.52516677,173.49554944,-5.26324302,-38.22010828,8.75914697,0.13685545
-0.50164153,-0.53345996

>  <Name>
ligand

>  <RI>
0

>  <Rbt.Current_Directory>
/home/itssahil/PROJECTS/Mol_Feturizer/New_Systems/rnas/3D2G

>  <Rbt.Executable>
rbdock ($Id: //depot/dev/client3/rdock/2013.1/src/exe/rbdock.cxx#4 $)

>  <Rbt.Library>
libRbt.so (2013.1, Build901 2013/11/27)

>  <Rbt.Parameter_File>
/export/apps/rDock/src/rDock_2013.1_src/data/scripts/dock_solv.prm

>  <Rbt.Receptor>
prm/blind_docking_60.prm

>  <SCORE>
-16.852

>  <SCORE.INTER>
-15.6629

>  <SCORE.INTER.CONST>
1

>  <SCORE.INTER.POLAR>
0

>  <SCORE.INTER.ROT>
8

>  <SCORE.INTER.SOLV>
26.7319

>  <SCORE.INTER.VDW>
-28.2859

>  <SCORE.INTER.norm>
-0.602418

>  <SCORE.INTRA>
-1.18913

>  <SCORE.INTRA.DIHEDRAL>
-1.55005

>  <SCORE.INTRA.DIHEDRAL.0>
9.09364

>  <SCORE.INTRA.POLAR>
0

>  <SCORE.INTRA.POLAR.0>
0

>  <SCORE.INTRA.REPUL>
0

>  <SCORE.INTRA.REPUL.0>
0

>  <SCORE.INTRA.SOLV>
-1.30897

>  <SCORE.INTRA.SOLV.lig_0>
-78.5846

>  <SCORE.INTRA.VDW>
0.240377

>  <SCORE.INTRA.VDW.0>
-2.81163

>  <SCORE.INTRA.norm>
-0.0457359

>  <SCORE.RESTR>
0

>  <SCORE.RESTR.CAVITY>
0

>  <SCORE.RESTR.norm>
0

>  <SCORE.SYSTEM>
0

>  <SCORE.SYSTEM.CONST>
0

>  <SCORE.SYSTEM.DIHEDRAL>
0

>  <SCORE.SYSTEM.SOLV>
0

>  <SCORE.SYSTEM.norm>
0

>  <SCORE.heavy>
26

>  <SCORE.norm>
-0.648154

>  <RMSD>
9.106

$$$$
ligand
 OpenBabel11021811463D
libRbt.so/2013.1/901 2013/11/27
 26 27  0  0  0  0  0  0  0  0999 V2000
   -7.0317  -46.6351    9.1333 C   0  0  0  0  0  0  0  0  0  0  0  0
   -3.7986  -40.7514   10.3838 C   0  0  0  0  0  0  0  0  0  0  0  0
   -7.8423  -37.6394    8.2440 P   0  0  1  0  0  0  0  0  0  0  0  0
   -9.1571  -39.8039    7.1814 P   0  0  2  0  0  0  0  0  0  0  0  0
   -3.9288  -43.1073   12.4297 C   0  0  0  0  0  0  0  0  0  0  0  0
   -6.0301  -44.4164   11.9782 C   0  0  0  0  0  0  0  0  0  0  0  0
   -4.7438  -44.0448   11.5756 C   0  0  0  0  0  0  0  0  0  0  0  0
   -4.2198  -44.5065   10.3650 C   0  0  0  0  0  0  0  0  0  0  0  0
   -3.0141  -44.1400    9.9841 N   0  0  0  0  0  0  0  0  0  0  0  0
   -4.9564  -45.3676    9.5887 N   0  0  0  0  0  0  0  0  0  0  0  0
   -6.2312  -45.7175    9.9873 C   0  0  0  0  0  0  0  0  0  0  0  0
   -6.7651  -45.2616   11.1779 N   0  0  0  0  0  0  0  0  0  0  0  0
   -6.9094  -37.2030    7.1561 O   0  5  0  0  0  0  0  0  0  0  0  0
  -10.2951  -39.6188    8.1048 O   0  0  0  0  0  0  0  0  0  0  0  0
   -6.1251  -40.1547   13.4739 S   0  0  0  0  0  0  0  0  0  0  0  0
   -5.4732  -41.5913   13.5897 C   0  0  0  0  0  0  0  0  0  0  0  0
   -9.1518  -36.9350    8.2967 O   0  0  0  0  0  0  0  0  0  0  0  0
   -8.9449  -41.2216    6.8328 O   0  5  0  0  0  0  0  0  0  0  0  0
   -4.6310  -41.8592   12.5471 N   0  0  0  0  0  0  0  0  0  0  0  0
   -7.9512  -39.2018    8.0158 O   0  0  0  0  0  0  0  0  0  0  0  0
   -9.2372  -39.1284    5.8508 O   0  0  0  0  0  0  0  0  0  0  0  0
   -4.5911  -40.8265   11.6531 C   0  0  1  0  0  0  0  0  0  0  0  0
   -5.4034  -39.8093   12.0873 C   0  0  2  0  0  0  0  0  0  0  0  0
   -5.7037  -38.4580   11.4877 C   0  0  0  0  0  0  0  0  0  0  0  0
   -6.3229  -38.5745   10.0903 C   0  0  0  0  0  0  0  0  0  0  0  0
   -6.9910  -37.4455    9.5574 O   0  0  0  0  0  0  0  0  0  0  0  0
  1 11  1  0  0  0  0
  3 13  1  6  0  0  0
  3 17  2  0  0  0  0
  3 20  1  0  0  0  0
  3 26  1  0  0  0  0
  4 14  1  1  0  0  0
  4 18  1  0  0  0  0
  4 21  2  0  0  0  0
  4 20  1  0  0  0  0
  5 19  1  0  0  0  0
  5  7  1  0  0  0  0
  6  7  2  0  0  0  0
  6 12  1  0  0  0  0
  7  8  1  0  0  0  0
  8  9  1  0  0  0  0
  8 10  2  0  0  0  0
 10 11  1  0  0  0  0
 11 12  2  0  0  0  0
 15 23  1  0  0  0  0
 15 16  1  0  0  0  0
 16 19  1  0  0  0  0
 19 22  1  0  0  0  0
 22  2  1  1  0  0  0
 22 23  1  0  0  0  0
 23 24  1  1  0  0  0
 24 25  1  0  0  0  0
 25 26  1  0  0  0  0
M  CHG  2  13  -1  18  -1
M  END
>  <CHROM.1>
-96.03775609,93.50717740,-60.54158308,-71.64312005,-120.70490315,162.83591188
-169.33462898,-96.83980027,-6.63032720,-40.89642630,9.85850217,0.67285770
0.94064411,-2.92384095

>  <Name>
ligand

>  <RI>
0

>  <Rbt.Current_Directory>
/home/itssahil/PROJECTS/Mol_Feturizer/New_Systems/rnas/3D2G

>  <Rbt.Executable>
rbdock ($Id: //depot/dev/client3/rdock/2013.1/src/exe/rbdock.cxx#4 $)

>  <Rbt.Library>
libRbt.so (2013.1, Build901 2013/11/27)

>  <Rbt.Parameter_File>
/export/apps/rDock/src/rDock_2013.1_src/data/scripts/dock_solv.prm

>  <Rbt.Receptor>
prm/blind_docking_60.prm

>  <SCORE>
-17.7456

>  <SCORE.INTER>
-17.462

>  <SCORE.INTER.CONST>
1

>  <SCORE.INTER.POLAR>
0

>  <SCORE.INTER.ROT>
8

>  <SCORE.INTER.SOLV>
22.7846

>  <SCORE.INTER.VDW>
-28.1695

>  <SCORE.INTER.norm>
-0.671616

>  <SCORE.INTRA>
-0.283559

>  <SCORE.INTRA.DIHEDRAL>
0.27637

>  <SCORE.INTRA.DIHEDRAL.0>
9.09364

>  <SCORE.INTRA.POLAR>
0

>  <SCORE.INTRA.POLAR.0>
0

>  <SCORE.INTRA.REPUL>
0

>  <SCORE.INTRA.REPUL.0>
0

>  <SCORE.INTRA.SOLV>
-0.797417

>  <SCORE.INTRA.SOLV.lig_0>
-78.5846

>  <SCORE.INTRA.VDW>
-0.0230354

>  <SCORE.INTRA.VDW.0>
-2.81163

>  <SCORE.INTRA.norm>
-0.0109061

>  <SCORE.RESTR>
0

>  <SCORE.RESTR.CAVITY>
0

>  <SCORE.RESTR.norm>
0

>  <SCORE.SYSTEM>
0

>  <SCORE.SYSTEM.CONST>
0

>  <SCORE.SYSTEM.DIHEDRAL>
0

>  <SCORE.SYSTEM.SOLV>
0

>  <SCORE.SYSTEM.norm>
0

>  <SCORE.heavy>
26

>  <SCORE.norm>
-0.682522

>  <RMSD>
9.108

$$$$
ligand
 OpenBabel11021811463D
libRbt.so/2013.1/901 2013/11/27
 26 27  0  0  0  0  0  0  0  0999 V2000
   -5.3482  -42.0418   12.7950 C   0  0  0  0  0  0  0  0  0  0  0  0
   -7.7292  -45.8855    8.9970 C   0  0  0  0  0  0  0  0  0  0  0  0
   -5.4416  -43.1613    3.7375 P   0  0  1  0  0  0  0  0  0  0  0  0
   -6.3387  -41.7808    1.5393 P   0  0  2  0  0  0  0  0  0  0  0  0
   -5.0742  -47.1028   10.1023 C   0  0  0  0  0  0  0  0  0  0  0  0
   -6.1770  -45.5353   11.7333 C   0  0  0  0  0  0  0  0  0  0  0  0
   -5.1604  -45.7706   10.8027 C   0  0  0  0  0  0  0  0  0  0  0  0
   -4.1975  -44.7915   10.5434 C   0  0  0  0  0  0  0  0  0  0  0  0
   -3.2335  -45.0253    9.6778 N   0  0  0  0  0  0  0  0  0  0  0  0
   -4.2781  -43.5736   11.1735 N   0  0  0  0  0  0  0  0  0  0  0  0
   -5.2770  -43.3556   12.1015 C   0  0  0  0  0  0  0  0  0  0  0  0
   -6.2309  -44.3182   12.3739 N   0  0  0  0  0  0  0  0  0  0  0  0
   -4.1715  -43.5150    3.0260 O   0  5  0  0  0  0  0  0  0  0  0  0
   -7.3515  -42.1154    0.5175 O   0  0  0  0  0  0  0  0  0  0  0  0
   -5.1123  -46.9312    6.2812 S   0  0  0  0  0  0  0  0  0  0  0  0
   -4.5201  -47.2435    7.7144 C   0  0  0  0  0  0  0  0  0  0  0  0
   -5.3658  -41.9955    4.6587 O   0  0  0  0  0  0  0  0  0  0  0  0
   -4.9815  -41.6812    0.9695 O   0  5  0  0  0  0  0  0  0  0  0  0
   -5.3937  -46.9175    8.7138 N   0  0  0  0  0  0  0  0  0  0  0  0
   -6.4785  -42.9907    2.5539 O   0  0  0  0  0  0  0  0  0  0  0  0
   -6.5032  -40.4876    2.2699 O   0  0  0  0  0  0  0  0  0  0  0  0
   -6.5464  -46.3755    8.2188 C   0  0  1  0  0  0  0  0  0  0  0  0
   -6.4878  -46.3401    6.8483 C   0  0  2  0  0  0  0  0  0  0  0  0
   -7.4876  -45.8574    5.8271 C   0  0  0  0  0  0  0  0  0  0  0  0
   -7.0588  -44.5334    5.1846 C   0  0  0  0  0  0  0  0  0  0  0  0
   -5.8336  -44.4988    4.4756 O   0  0  0  0  0  0  0  0  0  0  0  0
  1 11  1  0  0  0  0
  3 13  1  6  0  0  0
  3 17  2  0  0  0  0
  3 20  1  0  0  0  0
  3 26  1  0  0  0  0
  4 14  1  6  0  0  0
  4 18  1  0  0  0  0
  4 21  2  0  0  0  0
  4 20  1  0  0  0  0
  5 19  1  0  0  0  0
  5  7  1  0  0  0  0
  6  7  2  0  0  0  0
  6 12  1  0  0  0  0
  7  8  1  0  0  0  0
  8  9  1  0  0  0  0
  8 10  2  0  0  0  0
 10 11  1  0  0  0  0
 11 12  2  0  0  0  0
 15 23  1  0  0  0  0
 15 16  1  0  0  0  0
 16 19  1  0  0  0  0
 19 22  1  0  0  0  0
 22  2  1  6  0  0  0
 22 23  1  0  0  0  0
 23 24  1  6  0  0  0
 24 25  1  0  0  0  0
 25 26  1  0  0  0  0
M  CHG  2  13  -1  18  -1
M  END
>  <CHROM.1>
-68.24182954,121.21899577,111.37260519,171.95181209,-73.33444270,60.35454037
176.10377803,-175.88634249,-5.69125470,-44.22606812,6.42632859,-0.74459397
-1.46296471,-0.43232495

>  <Name>
ligand

>  <RI>
0

>  <Rbt.Current_Directory>
/home/itssahil/PROJECTS/Mol_Feturizer/New_Systems/rnas/3D2G

>  <Rbt.Executable>
rbdock ($Id: //depot/dev/client3/rdock/2013.1/src/exe/rbdock.cxx#4 $)

>  <Rbt.Library>
libRbt.so (2013.1, Build901 2013/11/27)

>  <Rbt.Parameter_File>
/export/apps/rDock/src/rDock_2013.1_src/data/scripts/dock_solv.prm

>  <Rbt.Receptor>
prm/pocket_docking_6.prm

>  <SCORE>
-12.2279

>  <SCORE.INTER>
-9.86328

>  <SCORE.INTER.CONST>
1

>  <SCORE.INTER.POLAR>
0

>  <SCORE.INTER.ROT>
8

>  <SCORE.INTER.SOLV>
11.6459

>  <SCORE.INTER.VDW>
-19.3908

>  <SCORE.INTER.norm>
-0.379357

>  <SCORE.INTRA>
-2.36459

>  <SCORE.INTRA.DIHEDRAL>
-3.69529

>  <SCORE.INTRA.DIHEDRAL.0>
9.09364

>  <SCORE.INTRA.POLAR>
0

>  <SCORE.INTRA.POLAR.0>
0

>  <SCORE.INTRA.REPUL>
0

>  <SCORE.INTRA.REPUL.0>
0

>  <SCORE.INTRA.SOLV>
0.989652

>  <SCORE.INTRA.SOLV.lig_0>
-78.5846

>  <SCORE.INTRA.VDW>
-1.01177

>  <SCORE.INTRA.VDW.0>
-2.81163

>  <SCORE.INTRA.norm>
-0.0909458

>  <SCORE.RESTR>
0

>  <SCORE.RESTR.CAVITY>
0

>  <SCORE.RESTR.norm>
0

>  <SCORE.SYSTEM>
0

>  <SCORE.SYSTEM.CONST>
0

>  <SCORE.SYSTEM.DIHEDRAL>
0

>  <SCORE.SYSTEM.SOLV>
0

>  <SCORE.SYSTEM.norm>
0

>  <SCORE.heavy>
26

>  <SCORE.norm>
-0.470303

>  <RMSD>
9.113

$$$$
ligand
 OpenBabel11021811463D
libRbt.so/2013.1/901 2013/11/27
 26 27  0  0  0  0  0  0  0  0999 V2000
   -0.2332  -32.8548    8.0464 C   0  0  0  0  0  0  0  0  0  0  0  0
   -3.1534  -37.3131   13.3014 C   0  0  0  0  0  0  0  0  0  0  0  0
   -4.2799  -41.7660   10.6097 P   0  0  1  0  0  0  0  0  0  0  0  0
   -3.7108  -44.4523   10.5565 P   0  0  2  0  0  0  0  0  0  0  0  0
   -3.2091  -34.2390   12.7546 C   0  0  0  0  0  0  0  0  0  0  0  0
   -2.9872  -32.9933   10.5792 C   0  0  0  0  0  0  0  0  0  0  0  0
   -2.4388  -33.8821   11.5088 C   0  0  0  0  0  0  0  0  0  0  0  0
   -1.1620  -34.4149   11.3111 C   0  0  0  0  0  0  0  0  0  0  0  0
   -0.6449  -35.2387   12.1982 N   0  0  0  0  0  0  0  0  0  0  0  0
   -0.4611  -34.0985   10.1729 N   0  0  0  0  0  0  0  0  0  0  0  0
   -1.0047  -33.2088    9.2677 C   0  0  0  0  0  0  0  0  0  0  0  0
   -2.2628  -32.6678    9.4549 N   0  0  0  0  0  0  0  0  0  0  0  0
   -2.9071  -41.4829   11.1386 O   0  5  0  0  0  0  0  0  0  0  0  0
   -2.3721  -44.1767   11.1166 O   0  0  0  0  0  0  0  0  0  0  0  0
   -6.3879  -35.9871   11.5415 S   0  0  0  0  0  0  0  0  0  0  0  0
   -5.4109  -34.7717   11.8071 C   0  0  0  0  0  0  0  0  0  0  0  0
   -4.4623  -41.5776    9.1452 O   0  0  0  0  0  0  0  0  0  0  0  0
   -3.7017  -44.4960    9.0819 O   0  5  0  0  0  0  0  0  0  0  0  0
   -4.2482  -35.1683   12.4063 N   0  0  0  0  0  0  0  0  0  0  0  0
   -4.5618  -43.2383   11.1177 O   0  0  0  0  0  0  0  0  0  0  0  0
   -4.3608  -45.7430   10.9371 O   0  0  0  0  0  0  0  0  0  0  0  0
   -4.2402  -36.5127   12.6509 C   0  0  1  0  0  0  0  0  0  0  0  0
   -5.4086  -37.0708   12.1966 C   0  0  2  0  0  0  0  0  0  0  0  0
   -5.8930  -38.4994   12.2082 C   0  0  0  0  0  0  0  0  0  0  0  0
   -4.9694  -39.4256   11.4089 C   0  0  0  0  0  0  0  0  0  0  0  0
   -5.2059  -40.8205   11.4674 O   0  0  0  0  0  0  0  0  0  0  0  0
  1 11  1  0  0  0  0
  3 13  1  1  0  0  0
  3 17  2  0  0  0  0
  3 20  1  0  0  0  0
  3 26  1  0  0  0  0
  4 14  1  1  0  0  0
  4 18  1  0  0  0  0
  4 21  2  0  0  0  0
  4 20  1  0  0  0  0
  5 19  1  0  0  0  0
  5  7  1  0  0  0  0
  6  7  2  0  0  0  0
  6 12  1  0  0  0  0
  7  8  1  0  0  0  0
  8  9  1  0  0  0  0
  8 10  2  0  0  0  0
 10 11  1  0  0  0  0
 11 12  2  0  0  0  0
 15 23  1  0  0  0  0
 15 16  1  0  0  0  0
 16 19  1  0  0  0  0
 19 22  1  0  0  0  0
 22  2  1  6  0  0  0
 22 23  1  0  0  0  0
 23 24  1  6  0  0  0
 24 25  1  0  0  0  0
 25 26  1  0  0  0  0
M  CHG  2  13  -1  18  -1
M  END
>  <CHROM.1>
-66.49672873,-77.86487386,76.27359236,67.84896805,118.57008190,172.35341145
178.22205314,59.62577577,-3.63530384,-38.52935920,11.02924414,-1.39881776
-0.49246793,-3.03263612

>  <Name>
ligand

>  <RI>
0

>  <Rbt.Current_Directory>
/home/itssahil/PROJECTS/Mol_Feturizer/New_Systems/rnas/3D2G

>  <Rbt.Executable>
rbdock ($Id: //depot/dev/client3/rdock/2013.1/src/exe/rbdock.cxx#4 $)

>  <Rbt.Library>
libRbt.so (2013.1, Build901 2013/11/27)

>  <Rbt.Parameter_File>
/export/apps/rDock/src/rDock_2013.1_src/data/scripts/dock_solv.prm

>  <Rbt.Receptor>
prm/blind_docking_100.prm

>  <SCORE>
-14.1518

>  <SCORE.INTER>
-11.6714

>  <SCORE.INTER.CONST>
1

>  <SCORE.INTER.POLAR>
0

>  <SCORE.INTER.ROT>
8

>  <SCORE.INTER.SOLV>
13.8832

>  <SCORE.INTER.VDW>
-21.342

>  <SCORE.INTER.norm>
-0.448899

>  <SCORE.INTRA>
-2.48045

>  <SCORE.INTRA.DIHEDRAL>
-3.90271

>  <SCORE.INTRA.DIHEDRAL.0>
9.09364

>  <SCORE.INTRA.POLAR>
0

>  <SCORE.INTRA.POLAR.0>
0

>  <SCORE.INTRA.REPUL>
0

>  <SCORE.INTRA.REPUL.0>
0

>  <SCORE.INTRA.SOLV>
0.0356606

>  <SCORE.INTRA.SOLV.lig_0>
-78.5846

>  <SCORE.INTRA.VDW>
-0.546927

>  <SCORE.INTRA.VDW.0>
-2.81163

>  <SCORE.INTRA.norm>
-0.095402

>  <SCORE.RESTR>
0

>  <SCORE.RESTR.CAVITY>
0

>  <SCORE.RESTR.norm>
0

>  <SCORE.SYSTEM>
0

>  <SCORE.SYSTEM.CONST>
0

>  <SCORE.SYSTEM.DIHEDRAL>
0

>  <SCORE.SYSTEM.SOLV>
0

>  <SCORE.SYSTEM.norm>
0

>  <SCORE.heavy>
26

>  <SCORE.norm>
-0.544301

>  <RMSD>
9.122

$$$$
ligand
 OpenBabel11021811463D
libRbt.so/2013.1/901 2013/11/27
 26 27  0  0  0  0  0  0  0  0999 V2000
   -0.5065  -32.9791    8.2357 C   0  0  0  0  0  0  0  0  0  0  0  0
   -3.0969  -38.5915   14.0190 C   0  0  0  0  0  0  0  0  0  0  0  0
   -5.1834  -43.1204   12.1866 P   0  0  1  0  0  0  0  0  0  0  0  0
   -4.2832  -43.7959    9.6813 P   0  0  2  0  0  0  0  0  0  0  0  0
   -2.2988  -35.7826   12.9120 C   0  0  0  0  0  0  0  0  0  0  0  0
   -2.1128  -33.6780   11.5448 C   0  0  0  0  0  0  0  0  0  0  0  0
   -1.8433  -35.0433   11.6797 C   0  0  0  0  0  0  0  0  0  0  0  0
   -1.1193  -35.7225   10.6960 C   0  0  0  0  0  0  0  0  0  0  0  0
   -0.8550  -37.0044   10.8367 N   0  0  0  0  0  0  0  0  0  0  0  0
   -0.7102  -35.0537    9.5681 N   0  0  0  0  0  0  0  0  0  0  0  0
   -0.9685  -33.7024    9.4504 C   0  0  0  0  0  0  0  0  0  0  0  0
   -1.6760  -33.0164   10.4195 N   0  0  0  0  0  0  0  0  0  0  0  0
   -6.3048  -44.1054   12.3156 O   0  5  0  0  0  0  0  0  0  0  0  0
   -4.4917  -43.1763    8.3568 O   0  0  0  0  0  0  0  0  0  0  0  0
   -5.7168  -36.9292   11.6337 S   0  0  0  0  0  0  0  0  0  0  0  0
   -4.4795  -35.9573   11.7971 C   0  0  0  0  0  0  0  0  0  0  0  0
   -3.8849  -43.5342   12.7834 O   0  0  0  0  0  0  0  0  0  0  0  0
   -4.7547  -45.1931    9.7254 O   0  5  0  0  0  0  0  0  0  0  0  0
   -3.5139  -36.4862   12.6072 N   0  0  0  0  0  0  0  0  0  0  0  0
   -5.1269  -42.8455   10.6289 O   0  0  0  0  0  0  0  0  0  0  0  0
   -2.8779  -43.8888   10.1811 O   0  0  0  0  0  0  0  0  0  0  0  0
   -3.8791  -37.7095   13.0945 C   0  0  1  0  0  0  0  0  0  0  0  0
   -5.1127  -38.0528   12.6009 C   0  0  2  0  0  0  0  0  0  0  0  0
   -5.9547  -39.2865   12.8118 C   0  0  0  0  0  0  0  0  0  0  0  0
   -5.1827  -40.5709   12.4892 C   0  0  0  0  0  0  0  0  0  0  0  0
   -5.7678  -41.8108   12.8429 O   0  0  0  0  0  0  0  0  0  0  0  0
  1 11  1  0  0  0  0
  3 13  1  1  0  0  0
  3 17  2  0  0  0  0
  3 20  1  0  0  0  0
  3 26  1  0  0  0  0
  4 14  1  6  0  0  0
  4 18  1  0  0  0  0
  4 21  2  0  0  0  0
  4 20  1  0  0  0  0
  5 19  1  0  0  0  0
  5  7  1  0  0  0  0
  6  7  2  0  0  0  0
  6 12  1  0  0  0  0
  7  8  1  0  0  0  0
  8  9  1  0  0  0  0
  8 10  2  0  0  0  0
 10 11  1  0  0  0  0
 11 12  2  0  0  0  0
 15 23  1  0  0  0  0
 15 16  1  0  0  0  0
 16 19  1  0  0  0  0
 19 22  1  0  0  0  0
 22  2  1  6  0  0  0
 22 23  1  0  0  0  0
 23 24  1  6  0  0  0
 24 25  1  0  0  0  0
 25 26  1  0  0  0  0
M  CHG  2  13  -1  18  -1
M  END
>  <CHROM.1>
-86.05668288,-37.77255175,99.37868120,-179.27517846,125.64945406,170.03181650
164.02500379,-158.22727653,-3.77633165,-39.28400530,11.30831923,-1.07095286
-0.86532332,-2.77614848

>  <Name>
ligand

>  <RI>
0

>  <Rbt.Current_Directory>
/home/itssahil/PROJECTS/Mol_Feturizer/New_Systems/rnas/3D2G

>  <Rbt.Executable>
rbdock ($Id: //depot/dev/client3/rdock/2013.1/src/exe/rbdock.cxx#4 $)

>  <Rbt.Library>
libRbt.so (2013.1, Build901 2013/11/27)

>  <Rbt.Parameter_File>
/export/apps/rDock/src/rDock_2013.1_src/data/scripts/dock_solv.prm

>  <Rbt.Receptor>
prm/blind_docking_100.prm

>  <SCORE>
-11.6713

>  <SCORE.INTER>
-11.1492

>  <SCORE.INTER.CONST>
1

>  <SCORE.INTER.POLAR>
0

>  <SCORE.INTER.ROT>
8

>  <SCORE.INTER.SOLV>
14.9733

>  <SCORE.INTER.VDW>
-21.3572

>  <SCORE.INTER.norm>
-0.428814

>  <SCORE.INTRA>
-0.717669

>  <SCORE.INTRA.DIHEDRAL>
-1.89207

>  <SCORE.INTRA.DIHEDRAL.0>
9.09364

>  <SCORE.INTRA.POLAR>
0

>  <SCORE.INTRA.POLAR.0>
0

>  <SCORE.INTRA.REPUL>
0

>  <SCORE.INTRA.REPUL.0>
0

>  <SCORE.INTRA.SOLV>
0.700175

>  <SCORE.INTRA.SOLV.lig_0>
-78.5846

>  <SCORE.INTRA.VDW>
-0.121719

>  <SCORE.INTRA.VDW.0>
-2.81163

>  <SCORE.INTRA.norm>
-0.0276026

>  <SCORE.RESTR>
0.195516

>  <SCORE.RESTR.CAVITY>
0.195516

>  <SCORE.RESTR.norm>
0.00751985

>  <SCORE.SYSTEM>
0

>  <SCORE.SYSTEM.CONST>
0

>  <SCORE.SYSTEM.DIHEDRAL>
0

>  <SCORE.SYSTEM.SOLV>
0

>  <SCORE.SYSTEM.norm>
0

>  <SCORE.heavy>
26

>  <SCORE.norm>
-0.448897

>  <RMSD>
9.125

$$$$
ligand
 OpenBabel11021811463D
libRbt.so/2013.1/901 2013/11/27
 26 27  0  0  0  0  0  0  0  0999 V2000
   -8.1277  -37.1813    7.2426 C   0  0  0  0  0  0  0  0  0  0  0  0
   -5.4874  -32.8177   11.4999 C   0  0  0  0  0  0  0  0  0  0  0  0
   -1.0276  -35.4070   10.2926 P   0  0  1  0  0  0  0  0  0  0  0  0
    0.9012  -36.8825    9.0098 P   0  0  2  0  0  0  0  0  0  0  0  0
   -6.8673  -35.4128   12.5552 C   0  0  0  0  0  0  0  0  0  0  0  0
   -7.9691  -35.0558   10.3209 C   0  0  0  0  0  0  0  0  0  0  0  0
   -7.2139  -35.8772   11.1635 C   0  0  0  0  0  0  0  0  0  0  0  0
   -6.7437  -37.1133   10.7117 C   0  0  0  0  0  0  0  0  0  0  0  0
   -6.0197  -37.8749   11.5046 N   0  0  0  0  0  0  0  0  0  0  0  0
   -7.0650  -37.5431    9.4473 N   0  0  0  0  0  0  0  0  0  0  0  0
   -7.7989  -36.7189    8.6175 C   0  0  0  0  0  0  0  0  0  0  0  0
   -8.2632  -35.4904    9.0483 N   0  0  0  0  0  0  0  0  0  0  0  0
   -1.8905  -36.6063   10.5411 O   0  5  0  0  0  0  0  0  0  0  0  0
    0.2441  -38.0019    9.7148 O   0  0  0  0  0  0  0  0  0  0  0  0
   -3.0847  -35.4464   13.1231 S   0  0  0  0  0  0  0  0  0  0  0  0
   -4.5663  -35.9976   13.1815 C   0  0  0  0  0  0  0  0  0  0  0  0
   -0.1494  -34.9950   11.4206 O   0  0  0  0  0  0  0  0  0  0  0  0
    2.1015  -36.4019    9.7203 O   0  5  0  0  0  0  0  0  0  0  0  0
   -5.4592  -35.1330   12.6127 N   0  0  0  0  0  0  0  0  0  0  0  0
   -0.2506  -35.7941    8.9691 O   0  0  0  0  0  0  0  0  0  0  0  0
    1.3994  -37.1424    7.6251 O   0  0  0  0  0  0  0  0  0  0  0  0
   -4.8457  -33.9968   12.1652 C   0  0  1  0  0  0  0  0  0  0  0  0
   -3.4971  -34.0757   12.4061 C   0  0  2  0  0  0  0  0  0  0  0  0
   -2.3792  -33.1098   12.1012 C   0  0  0  0  0  0  0  0  0  0  0  0
   -2.0457  -33.0709   10.6055 C   0  0  0  0  0  0  0  0  0  0  0  0
   -2.0620  -34.2889    9.8836 O   0  0  0  0  0  0  0  0  0  0  0  0
  1 11  1  0  0  0  0
  3 13  1  1  0  0  0
  3 17  2  0  0  0  0
  3 20  1  0  0  0  0
  3 26  1  0  0  0  0
  4 14  1  1  0  0  0
  4 18  1  0  0  0  0
  4 21  2  0  0  0  0
  4 20  1  0  0  0  0
  5 19  1  0  0  0  0
  5  7  1  0  0  0  0
  6  7  2  0  0  0  0
  6 12  1  0  0  0  0
  7  8  1  0  0  0  0
  8  9  1  0  0  0  0
  8 10  2  0  0  0  0
 10 11  1  0  0  0  0
 11 12  2  0  0  0  0
 15 23  1  0  0  0  0
 15 16  1  0  0  0  0
 16 19  1  0  0  0  0
 19 22  1  0  0  0  0
 22  2  1  6  0  0  0
 22 23  1  0  0  0  0
 23 24  1  6  0  0  0
 24 25  1  0  0  0  0
 25 26  1  0  0  0  0
M  CHG  2  13  -1  18  -1
M  END
>  <CHROM.1>
-72.80216933,-102.07422438,-109.81768867,50.50372927,106.46210049,-39.13950972
-63.19208772,125.72939503,-3.25919116,-35.71678456,10.57117744,3.01456941
0.03688464,0.92943387

>  <Name>
ligand

>  <RI>
0

>  <Rbt.Current_Directory>
/home/itssahil/PROJECTS/Mol_Feturizer/New_Systems/rnas/3D2G

>  <Rbt.Executable>
rbdock ($Id: //depot/dev/client3/rdock/2013.1/src/exe/rbdock.cxx#4 $)

>  <Rbt.Library>
libRbt.so (2013.1, Build901 2013/11/27)

>  <Rbt.Parameter_File>
/export/apps/rDock/src/rDock_2013.1_src/data/scripts/dock_solv.prm

>  <Rbt.Receptor>
prm/blind_docking_40.prm

>  <SCORE>
-12.5758

>  <SCORE.INTER>
-12.4748

>  <SCORE.INTER.CONST>
1

>  <SCORE.INTER.POLAR>
0

>  <SCORE.INTER.ROT>
8

>  <SCORE.INTER.SOLV>
26.4997

>  <SCORE.INTER.VDW>
-26.0831

>  <SCORE.INTER.norm>
-0.479798

>  <SCORE.INTRA>
-0.935218

>  <SCORE.INTRA.DIHEDRAL>
-0.343482

>  <SCORE.INTRA.DIHEDRAL.0>
9.09364

>  <SCORE.INTRA.POLAR>
0

>  <SCORE.INTRA.POLAR.0>
0

>  <SCORE.INTRA.REPUL>
0

>  <SCORE.INTRA.REPUL.0>
0

>  <SCORE.INTRA.SOLV>
1.68543

>  <SCORE.INTRA.SOLV.lig_0>
-78.5846

>  <SCORE.INTRA.VDW>
-1.60619

>  <SCORE.INTRA.VDW.0>
-2.81163

>  <SCORE.INTRA.norm>
-0.0359699

>  <SCORE.RESTR>
0.834182

>  <SCORE.RESTR.CAVITY>
0.834182

>  <SCORE.RESTR.norm>
0.0320839

>  <SCORE.SYSTEM>
0

>  <SCORE.SYSTEM.CONST>
0

>  <SCORE.SYSTEM.DIHEDRAL>
0

>  <SCORE.SYSTEM.SOLV>
0

>  <SCORE.SYSTEM.norm>
0

>  <SCORE.heavy>
26

>  <SCORE.norm>
-0.483684

>  <RMSD>
9.144

$$$$
ligand
 OpenBabel11021811463D
libRbt.so/2013.1/901 2013/11/27
 26 27  0  0  0  0  0  0  0  0999 V2000
   -8.4628  -36.5370    7.5318 C   0  0  0  0  0  0  0  0  0  0  0  0
   -3.2405  -36.4020   13.6648 C   0  0  0  0  0  0  0  0  0  0  0  0
   -0.5519  -36.2151    9.5563 P   0  0  1  0  0  0  0  0  0  0  0  0
    1.6422  -37.2511    8.2697 P   0  0  2  0  0  0  0  0  0  0  0  0
   -5.9450  -35.3161   12.5428 C   0  0  0  0  0  0  0  0  0  0  0  0
   -6.5726  -36.9527   10.7370 C   0  0  0  0  0  0  0  0  0  0  0  0
   -6.5921  -35.6409   11.2205 C   0  0  0  0  0  0  0  0  0  0  0  0
   -7.2419  -34.6321   10.5043 C   0  0  0  0  0  0  0  0  0  0  0  0
   -7.2705  -33.4022   10.9729 N   0  0  0  0  0  0  0  0  0  0  0  0
   -7.8251  -34.9230    9.2951 N   0  0  0  0  0  0  0  0  0  0  0  0
   -7.8132  -36.2240    8.8326 C   0  0  0  0  0  0  0  0  0  0  0  0
   -7.1816  -37.2332    9.5348 N   0  0  0  0  0  0  0  0  0  0  0  0
   -1.3522  -34.9659    9.3480 O   0  5  0  0  0  0  0  0  0  0  0  0
    0.9393  -38.5267    8.5158 O   0  0  0  0  0  0  0  0  0  0  0  0
   -2.9522  -33.2348   11.3837 S   0  0  0  0  0  0  0  0  0  0  0  0
   -4.4740  -33.6520   11.4959 C   0  0  0  0  0  0  0  0  0  0  0  0
   -1.3356  -37.4729    9.6885 O   0  0  0  0  0  0  0  0  0  0  0  0
    2.6854  -36.9842    9.2780 O   0  5  0  0  0  0  0  0  0  0  0  0
   -4.6494  -34.7458   12.2966 N   0  0  0  0  0  0  0  0  0  0  0  0
    0.4569  -36.2006    8.3368 O   0  0  0  0  0  0  0  0  0  0  0  0
    2.3701  -37.1087    6.9724 O   0  0  0  0  0  0  0  0  0  0  0  0
   -3.4587  -35.2187   12.7721 C   0  0  1  0  0  0  0  0  0  0  0  0
   -2.4334  -34.4304   12.3133 C   0  0  2  0  0  0  0  0  0  0  0  0
   -0.9453  -34.5059   12.5492 C   0  0  0  0  0  0  0  0  0  0  0  0
   -0.3582  -35.8452   12.0896 C   0  0  0  0  0  0  0  0  0  0  0  0
    0.3057  -35.8920   10.8398 O   0  0  0  0  0  0  0  0  0  0  0  0
  1 11  1  0  0  0  0
  3 13  1  6  0  0  0
  3 17  2  0  0  0  0
  3 20  1  0  0  0  0
  3 26  1  0  0  0  0
  4 14  1  1  0  0  0
  4 18  1  0  0  0  0
  4 21  2  0  0  0  0
  4 20  1  0  0  0  0
  5 19  1  0  0  0  0
  5  7  1  0  0  0  0
  6  7  2  0  0  0  0
  6 12  1  0  0  0  0
  7  8  1  0  0  0  0
  8  9  1  0  0  0  0
  8 10  2  0  0  0  0
 10 11  1  0  0  0  0
 11 12  2  0  0  0  0
 15 23  1  0  0  0  0
 15 16  1  0  0  0  0
 16 19  1  0  0  0  0
 19 22  1  0  0  0  0
 22  2  1  1  0  0  0
 22 23  1  0  0  0  0
 23 24  1  1  0  0  0
 24 25  1  0  0  0  0
 25 26  1  0  0  0  0
M  CHG  2  13  -1  18  -1
M  END
>  <CHROM.1>
171.44552370,55.07947261,99.79212083,49.84238352,-121.63387437,100.50509233
-89.43475906,72.03997475,-2.66341668,-35.77470042,10.25682864,2.87339321
-0.06798832,1.02644716

>  <Name>
ligand

>  <RI>
0

>  <Rbt.Current_Directory>
/home/itssahil/PROJECTS/Mol_Feturizer/New_Systems/rnas/3D2G

>  <Rbt.Executable>
rbdock ($Id: //depot/dev/client3/rdock/2013.1/src/exe/rbdock.cxx#4 $)

>  <Rbt.Library>
libRbt.so (2013.1, Build901 2013/11/27)

>  <Rbt.Parameter_File>
/export/apps/rDock/src/rDock_2013.1_src/data/scripts/dock_solv.prm

>  <Rbt.Receptor>
prm/blind_docking_40.prm

>  <SCORE>
-14.4837

>  <SCORE.INTER>
-14.9772

>  <SCORE.INTER.CONST>
1

>  <SCORE.INTER.POLAR>
0

>  <SCORE.INTER.ROT>
8

>  <SCORE.INTER.SOLV>
28.9299

>  <SCORE.INTER.VDW>
-28.5614

>  <SCORE.INTER.norm>
-0.576046

>  <SCORE.INTRA>
0.360311

>  <SCORE.INTRA.DIHEDRAL>
3.51932

>  <SCORE.INTRA.DIHEDRAL.0>
9.09364

>  <SCORE.INTRA.POLAR>
0

>  <SCORE.INTRA.POLAR.0>
0

>  <SCORE.INTRA.REPUL>
0

>  <SCORE.INTRA.REPUL.0>
0

>  <SCORE.INTRA.SOLV>
-0.0201632

>  <SCORE.INTRA.SOLV.lig_0>
-78.5846

>  <SCORE.INTRA.VDW>
-1.38927

>  <SCORE.INTRA.VDW.0>
-2.81163

>  <SCORE.INTRA.norm>
0.0138581

>  <SCORE.RESTR>
0.133212

>  <SCORE.RESTR.CAVITY>
0.133212

>  <SCORE.RESTR.norm>
0.00512353

>  <SCORE.SYSTEM>
0

>  <SCORE.SYSTEM.CONST>
0

>  <SCORE.SYSTEM.DIHEDRAL>
0

>  <SCORE.SYSTEM.SOLV>
0

>  <SCORE.SYSTEM.norm>
0

>  <SCORE.heavy>
26

>  <SCORE.norm>
-0.557064

>  <RMSD>
9.150

$$$$
ligand
 OpenBabel11021811463D
libRbt.so/2013.1/901 2013/11/27
 26 27  0  0  0  0  0  0  0  0999 V2000
   -5.5055  -32.8578   11.6143 C   0  0  0  0  0  0  0  0  0  0  0  0
   -5.0301  -39.2088   12.0052 C   0  0  0  0  0  0  0  0  0  0  0  0
   -7.6235  -40.1453    7.3666 P   0  0  1  0  0  0  0  0  0  0  0  0
   -9.0642  -40.1540    5.0284 P   0  0  2  0  0  0  0  0  0  0  0  0
   -2.4710  -37.5903   12.7694 C   0  0  0  0  0  0  0  0  0  0  0  0
   -4.5740  -36.2223   12.9675 C   0  0  0  0  0  0  0  0  0  0  0  0
   -3.2788  -36.3561   12.4581 C   0  0  0  0  0  0  0  0  0  0  0  0
   -2.7105  -35.3350   11.6917 C   0  0  0  0  0  0  0  0  0  0  0  0
   -1.4846  -35.4603   11.2285 N   0  0  0  0  0  0  0  0  0  0  0  0
   -3.4469  -34.2130   11.3991 N   0  0  0  0  0  0  0  0  0  0  0  0
   -4.7197  -34.0833   11.9184 C   0  0  0  0  0  0  0  0  0  0  0  0
   -5.2910  -35.0817   12.6849 N   0  0  0  0  0  0  0  0  0  0  0  0
   -7.1419  -38.7652    7.0382 O   0  5  0  0  0  0  0  0  0  0  0  0
   -8.9465  -40.9660    3.8001 O   0  0  0  0  0  0  0  0  0  0  0  0
   -1.9346  -39.7804    9.6796 S   0  0  0  0  0  0  0  0  0  0  0  0
   -1.5473  -38.7397   10.8062 C   0  0  0  0  0  0  0  0  0  0  0  0
   -8.7611  -40.2251    8.3220 O   0  0  0  0  0  0  0  0  0  0  0  0
   -8.8622  -38.7158    4.7693 O   0  5  0  0  0  0  0  0  0  0  0  0
   -2.5821  -38.5064   11.6682 N   0  0  0  0  0  0  0  0  0  0  0  0
   -7.9234  -40.7673    5.9424 O   0  0  0  0  0  0  0  0  0  0  0  0
  -10.3696  -40.1949    5.7547 O   0  0  0  0  0  0  0  0  0  0  0  0
   -3.6992  -39.2109   11.3171 C   0  0  1  0  0  0  0  0  0  0  0  0
   -3.4363  -39.9664   10.2022 C   0  0  2  0  0  0  0  0  0  0  0  0
   -4.3088  -40.9205    9.4250 C   0  0  0  0  0  0  0  0  0  0  0  0
   -5.6064  -40.2561    8.9511 C   0  0  0  0  0  0  0  0  0  0  0  0
   -6.3273  -40.8697    7.8982 O   0  0  0  0  0  0  0  0  0  0  0  0
  1 11  1  0  0  0  0
  3 13  1  6  0  0  0
  3 17  2  0  0  0  0
  3 20  1  0  0  0  0
  3 26  1  0  0  0  0
  4 14  1  6  0  0  0
  4 18  1  0  0  0  0
  4 21  2  0  0  0  0
  4 20  1  0  0  0  0
  5 19  1  0  0  0  0
  5  7  1  0  0  0  0
  6  7  2  0  0  0  0
  6 12  1  0  0  0  0
  7  8  1  0  0  0  0
  8  9  1  0  0  0  0
  8 10  2  0  0  0  0
 10 11  1  0  0  0  0
 11 12  2  0  0  0  0
 15 23  1  0  0  0  0
 15 16  1  0  0  0  0
 16 19  1  0  0  0  0
 19 22  1  0  0  0  0
 22  2  1  1  0  0  0
 22 23  1  0  0  0  0
 23 24  1  1  0  0  0
 24 25  1  0  0  0  0
 25 26  1  0  0  0  0
M  CHG  2  13  -1  18  -1
M  END
>  <CHROM.1>
-64.30963929,107.68104346,97.54679041,176.88032492,-124.96034167,161.45179082
-177.06228442,53.60861541,-5.52657878,-38.56072641,9.12805225,0.76317634
-0.58638767,0.47925853

>  <Name>
ligand

>  <RI>
0

>  <Rbt.Current_Directory>
/home/itssahil/PROJECTS/Mol_Feturizer/New_Systems/rnas/3D2G

>  <Rbt.Executable>
rbdock ($Id: //depot/dev/client3/rdock/2013.1/src/exe/rbdock.cxx#4 $)

>  <Rbt.Library>
libRbt.so (2013.1, Build901 2013/11/27)

>  <Rbt.Parameter_File>
/export/apps/rDock/src/rDock_2013.1_src/data/scripts/dock_solv.prm

>  <Rbt.Receptor>
prm/blind_docking_100.prm

>  <SCORE>
-9.72744

>  <SCORE.INTER>
-8.67413

>  <SCORE.INTER.CONST>
1

>  <SCORE.INTER.POLAR>
0

>  <SCORE.INTER.ROT>
8

>  <SCORE.INTER.SOLV>
16.9012

>  <SCORE.INTER.VDW>
-20.3498

>  <SCORE.INTER.norm>
-0.33362

>  <SCORE.INTRA>
-1.19449

>  <SCORE.INTRA.DIHEDRAL>
-2.91954

>  <SCORE.INTRA.DIHEDRAL.0>
9.09364

>  <SCORE.INTRA.POLAR>
0

>  <SCORE.INTRA.POLAR.0>
0

>  <SCORE.INTRA.REPUL>
0

>  <SCORE.INTRA.REPUL.0>
0

>  <SCORE.INTRA.SOLV>
0.925347

>  <SCORE.INTRA.SOLV.lig_0>
-78.5846

>  <SCORE.INTRA.VDW>
-0.197393

>  <SCORE.INTRA.VDW.0>
-2.81163

>  <SCORE.INTRA.norm>
-0.045942

>  <SCORE.RESTR>
0.141176

>  <SCORE.RESTR.CAVITY>
0.141176

>  <SCORE.RESTR.norm>
0.00542985

>  <SCORE.SYSTEM>
0

>  <SCORE.SYSTEM.CONST>
0

>  <SCORE.SYSTEM.DIHEDRAL>
0

>  <SCORE.SYSTEM.SOLV>
0

>  <SCORE.SYSTEM.norm>
0

>  <SCORE.heavy>
26

>  <SCORE.norm>
-0.374132

>  <RMSD>
9.160

$$$$
ligand
 OpenBabel11021811463D
libRbt.so/2013.1/901 2013/11/27
 26 27  0  0  0  0  0  0  0  0999 V2000
   -3.6886  -35.8781   13.8391 C   0  0  0  0  0  0  0  0  0  0  0  0
   -3.7769  -42.0746    9.0477 C   0  0  0  0  0  0  0  0  0  0  0  0
   -7.8168  -40.4104    7.5887 P   0  0  1  0  0  0  0  0  0  0  0  0
   -8.8964  -40.5192    5.0657 P   0  0  2  0  0  0  0  0  0  0  0  0
   -2.6240  -41.1336   11.7932 C   0  0  0  0  0  0  0  0  0  0  0  0
   -3.4321  -39.6072   13.6236 C   0  0  0  0  0  0  0  0  0  0  0  0
   -2.9192  -39.7568   12.3315 C   0  0  0  0  0  0  0  0  0  0  0  0
   -2.6410  -38.6348   11.5461 C   0  0  0  0  0  0  0  0  0  0  0  0
   -2.1431  -38.7819   10.3363 N   0  0  0  0  0  0  0  0  0  0  0  0
   -2.9169  -37.3794   12.0304 N   0  0  0  0  0  0  0  0  0  0  0  0
   -3.4097  -37.2409   13.3127 C   0  0  0  0  0  0  0  0  0  0  0  0
   -3.6815  -38.3414   14.1036 N   0  0  0  0  0  0  0  0  0  0  0  0
   -6.9043  -39.2886    7.1970 O   0  5  0  0  0  0  0  0  0  0  0  0
   -8.8632  -41.5635    4.0216 O   0  0  0  0  0  0  0  0  0  0  0  0
   -5.9669  -42.9543   12.1697 S   0  0  0  0  0  0  0  0  0  0  0  0
   -4.6696  -42.1872   12.6502 C   0  0  0  0  0  0  0  0  0  0  0  0
   -9.0719  -40.0135    8.2819 O   0  0  0  0  0  0  0  0  0  0  0  0
   -8.3176  -39.2446    4.6001 O   0  5  0  0  0  0  0  0  0  0  0  0
   -3.8649  -41.8326   11.6037 N   0  0  0  0  0  0  0  0  0  0  0  0
   -8.0411  -41.1813    6.2247 O   0  0  0  0  0  0  0  0  0  0  0  0
  -10.2363  -40.1190    5.5926 O   0  0  0  0  0  0  0  0  0  0  0  0
   -4.3736  -42.2595   10.4094 C   0  0  1  0  0  0  0  0  0  0  0  0
   -5.5653  -42.9063   10.6208 C   0  0  2  0  0  0  0  0  0  0  0  0
   -6.5284  -43.5478    9.6530 C   0  0  0  0  0  0  0  0  0  0  0  0
   -7.4661  -42.5199    9.0095 C   0  0  0  0  0  0  0  0  0  0  0  0
   -6.8982  -41.3393    8.4723 O   0  0  0  0  0  0  0  0  0  0  0  0
  1 11  1  0  0  0  0
  3 13  1  6  0  0  0
  3 17  2  0  0  0  0
  3 20  1  0  0  0  0
  3 26  1  0  0  0  0
  4 14  1  6  0  0  0
  4 18  1  0  0  0  0
  4 21  2  0  0  0  0
  4 20  1  0  0  0  0
  5 19  1  0  0  0  0
  5  7  1  0  0  0  0
  6  7  2  0  0  0  0
  6 12  1  0  0  0  0
  7  8  1  0  0  0  0
  8  9  1  0  0  0  0
  8 10  2  0  0  0  0
 10 11  1  0  0  0  0
 11 12  2  0  0  0  0
 15 23  1  0  0  0  0
 15 16  1  0  0  0  0
 16 19  1  0  0  0  0
 19 22  1  0  0  0  0
 22  2  1  6  0  0  0
 22 23  1  0  0  0  0
 23 24  1  6  0  0  0
 24 25  1  0  0  0  0
 25 26  1  0  0  0  0
M  CHG  2  13  -1  18  -1
M  END
>  <CHROM.1>
-69.93896019,-66.14561807,68.24593387,-179.20182108,97.27831499,48.19943199
169.26217498,-179.76595771,-5.94995750,-40.52012137,9.44834100,-0.08114510
-0.92492873,-0.28623314

>  <Name>
ligand

>  <RI>
0

>  <Rbt.Current_Directory>
/home/itssahil/PROJECTS/Mol_Feturizer/New_Systems/rnas/3D2G

>  <Rbt.Executable>
rbdock ($Id: //depot/dev/client3/rdock/2013.1/src/exe/rbdock.cxx#4 $)

>  <Rbt.Library>
libRbt.so (2013.1, Build901 2013/11/27)

>  <Rbt.Parameter_File>
/export/apps/rDock/src/rDock_2013.1_src/data/scripts/dock_solv.prm

>  <Rbt.Receptor>
prm/blind_docking_100.prm

>  <SCORE>
-11.8952

>  <SCORE.INTER>
-9.49669

>  <SCORE.INTER.CONST>
1

>  <SCORE.INTER.POLAR>
0

>  <SCORE.INTER.ROT>
8

>  <SCORE.INTER.SOLV>
20.7166

>  <SCORE.INTER.VDW>
-22.17

>  <SCORE.INTER.norm>
-0.365257

>  <SCORE.INTRA>
-2.39855

>  <SCORE.INTRA.DIHEDRAL>
-3.09368

>  <SCORE.INTRA.DIHEDRAL.0>
9.09364

>  <SCORE.INTRA.POLAR>
0

>  <SCORE.INTRA.POLAR.0>
0

>  <SCORE.INTRA.REPUL>
0

>  <SCORE.INTRA.REPUL.0>
0

>  <SCORE.INTRA.SOLV>
0.649053

>  <SCORE.INTRA.SOLV.lig_0>
-78.5846

>  <SCORE.INTRA.VDW>
-1.17624

>  <SCORE.INTRA.VDW.0>
-2.81163

>  <SCORE.INTRA.norm>
-0.0922521

>  <SCORE.RESTR>
0

>  <SCORE.RESTR.CAVITY>
0

>  <SCORE.RESTR.norm>
0

>  <SCORE.SYSTEM>
0

>  <SCORE.SYSTEM.CONST>
0

>  <SCORE.SYSTEM.DIHEDRAL>
0

>  <SCORE.SYSTEM.SOLV>
0

>  <SCORE.SYSTEM.norm>
0

>  <SCORE.heavy>
26

>  <SCORE.norm>
-0.457509

>  <RMSD>
9.167

$$$$
ligand
 OpenBabel11021811463D
libRbt.so/2013.1/901 2013/11/27
 26 27  0  0  0  0  0  0  0  0999 V2000
   -0.6516  -40.7086    9.2731 C   0  0  0  0  0  0  0  0  0  0  0  0
   -7.2755  -43.6793   10.9809 C   0  0  0  0  0  0  0  0  0  0  0  0
   -6.8577  -44.9625    5.7445 P   0  0  1  0  0  0  0  0  0  0  0  0
   -8.3008  -45.9595    3.6311 P   0  0  2  0  0  0  0  0  0  0  0  0
   -4.4775  -43.6625   12.3677 C   0  0  0  0  0  0  0  0  0  0  0  0
   -2.2512  -43.4867   11.2075 C   0  0  0  0  0  0  0  0  0  0  0  0
   -3.4622  -42.8874   11.5670 C   0  0  0  0  0  0  0  0  0  0  0  0
   -3.7565  -41.5844   11.1565 C   0  0  0  0  0  0  0  0  0  0  0  0
   -4.9053  -41.0316   11.4847 N   0  0  0  0  0  0  0  0  0  0  0  0
   -2.8301  -40.8725   10.4342 N   0  0  0  0  0  0  0  0  0  0  0  0
   -1.6431  -41.4776   10.0716 C   0  0  0  0  0  0  0  0  0  0  0  0
   -1.3426  -42.7685   10.4636 N   0  0  0  0  0  0  0  0  0  0  0  0
   -5.7167  -45.8632    5.3824 O   0  5  0  0  0  0  0  0  0  0  0  0
   -7.1468  -46.8206    3.3015 O   0  0  0  0  0  0  0  0  0  0  0  0
   -5.0773  -46.8549   10.3476 S   0  0  0  0  0  0  0  0  0  0  0  0
   -4.2787  -45.8520   11.2743 C   0  0  0  0  0  0  0  0  0  0  0  0
   -6.7501  -43.5566    5.2697 O   0  0  0  0  0  0  0  0  0  0  0  0
   -8.2814  -44.6883    2.8828 O   0  5  0  0  0  0  0  0  0  0  0  0
   -4.9988  -44.7237   11.5513 N   0  0  0  0  0  0  0  0  0  0  0  0
   -8.1185  -45.7429    5.1909 O   0  0  0  0  0  0  0  0  0  0  0  0
   -9.6642  -46.5042    3.3530 O   0  0  0  0  0  0  0  0  0  0  0  0
   -6.2159  -44.7373   10.9301 C   0  0  1  0  0  0  0  0  0  0  0  0
   -6.3592  -45.9042   10.2224 C   0  0  2  0  0  0  0  0  0  0  0  0
   -7.5020  -46.4182    9.3824 C   0  0  0  0  0  0  0  0  0  0  0  0
   -7.1916  -46.3434    7.8831 C   0  0  0  0  0  0  0  0  0  0  0  0
   -6.9281  -45.0729    7.3162 O   0  0  0  0  0  0  0  0  0  0  0  0
  1 11  1  0  0  0  0
  3 13  1  6  0  0  0
  3 17  2  0  0  0  0
  3 20  1  0  0  0  0
  3 26  1  0  0  0  0
  4 14  1  6  0  0  0
  4 18  1  0  0  0  0
  4 21  2  0  0  0  0
  4 20  1  0  0  0  0
  5 19  1  0  0  0  0
  5  7  1  0  0  0  0
  6  7  2  0  0  0  0
  6 12  1  0  0  0  0
  7  8  1  0  0  0  0
  8  9  1  0  0  0  0
  8 10  2  0  0  0  0
 10 11  1  0  0  0  0
 11 12  2  0  0  0  0
 15 23  1  0  0  0  0
 15 16  1  0  0  0  0
 16 19  1  0  0  0  0
 19 22  1  0  0  0  0
 22  2  1  1  0  0  0
 22 23  1  0  0  0  0
 23 24  1  1  0  0  0
 24 25  1  0  0  0  0
 25 26  1  0  0  0  0
M  CHG  2  13  -1  18  -1
M  END
>  <CHROM.1>
-65.73639009,74.78528270,-67.83039403,64.62569252,-74.28859008,-60.60040332
-169.57096740,-61.44166316,-5.72646330,-44.56518309,8.12606836,-0.67812776
-0.82014204,-1.25052997

>  <Name>
ligand

>  <RI>
0

>  <Rbt.Current_Directory>
/home/itssahil/PROJECTS/Mol_Feturizer/New_Systems/rnas/3D2G

>  <Rbt.Executable>
rbdock ($Id: //depot/dev/client3/rdock/2013.1/src/exe/rbdock.cxx#4 $)

>  <Rbt.Library>
libRbt.so (2013.1, Build901 2013/11/27)

>  <Rbt.Parameter_File>
/export/apps/rDock/src/rDock_2013.1_src/data/scripts/dock_solv.prm

>  <Rbt.Receptor>
prm/pocket_docking_8.prm

>  <SCORE>
-18.2598

>  <SCORE.INTER>
-15.5999

>  <SCORE.INTER.CONST>
1

>  <SCORE.INTER.POLAR>
0

>  <SCORE.INTER.ROT>
8

>  <SCORE.INTER.SOLV>
10.2377

>  <SCORE.INTER.VDW>
-22.7458

>  <SCORE.INTER.norm>
-0.599994

>  <SCORE.INTRA>
-2.65995

>  <SCORE.INTRA.DIHEDRAL>
-3.31783

>  <SCORE.INTRA.DIHEDRAL.0>
9.09364

>  <SCORE.INTRA.POLAR>
0

>  <SCORE.INTRA.POLAR.0>
0

>  <SCORE.INTRA.REPUL>
0

>  <SCORE.INTRA.REPUL.0>
0

>  <SCORE.INTRA.SOLV>
-0.729036

>  <SCORE.INTRA.SOLV.lig_0>
-78.5846

>  <SCORE.INTRA.VDW>
-0.636518

>  <SCORE.INTRA.VDW.0>
-2.81163

>  <SCORE.INTRA.norm>
-0.102306

>  <SCORE.RESTR>
0

>  <SCORE.RESTR.CAVITY>
0

>  <SCORE.RESTR.norm>
0

>  <SCORE.SYSTEM>
0

>  <SCORE.SYSTEM.CONST>
0

>  <SCORE.SYSTEM.DIHEDRAL>
0

>  <SCORE.SYSTEM.SOLV>
0

>  <SCORE.SYSTEM.norm>
0

>  <SCORE.heavy>
26

>  <SCORE.norm>
-0.7023

>  <RMSD>
9.167

$$$$
ligand
 OpenBabel11021811463D
libRbt.so/2013.1/901 2013/11/27
 26 27  0  0  0  0  0  0  0  0999 V2000
   -0.8941  -33.2118    8.9892 C   0  0  0  0  0  0  0  0  0  0  0  0
   -5.3372  -38.7147   11.3672 C   0  0  0  0  0  0  0  0  0  0  0  0
   -8.0276  -39.9868    7.0123 P   0  0  1  0  0  0  0  0  0  0  0  0
   -7.0863  -37.9891    5.3794 P   0  0  2  0  0  0  0  0  0  0  0  0
   -2.3157  -38.0313   11.7625 C   0  0  0  0  0  0  0  0  0  0  0  0
   -1.1913  -36.8436    9.8498 C   0  0  0  0  0  0  0  0  0  0  0  0
   -1.9268  -36.7686   11.0366 C   0  0  0  0  0  0  0  0  0  0  0  0
   -2.3387  -35.5305   11.5370 C   0  0  0  0  0  0  0  0  0  0  0  0
   -3.0448  -35.4678   12.6464 N   0  0  0  0  0  0  0  0  0  0  0  0
   -1.9787  -34.3777   10.8826 N   0  0  0  0  0  0  0  0  0  0  0  0
   -1.2647  -34.4624    9.7039 C   0  0  0  0  0  0  0  0  0  0  0  0
   -0.8581  -35.6807    9.1930 N   0  0  0  0  0  0  0  0  0  0  0  0
   -8.3413  -40.0410    8.4762 O   0  5  0  0  0  0  0  0  0  0  0  0
   -8.4223  -37.8939    4.7568 O   0  0  0  0  0  0  0  0  0  0  0  0
   -2.8703  -40.6113    8.9934 S   0  0  0  0  0  0  0  0  0  0  0  0
   -2.0404  -39.6524    9.9390 C   0  0  0  0  0  0  0  0  0  0  0  0
   -9.1538  -40.3093    6.0952 O   0  0  0  0  0  0  0  0  0  0  0  0
   -6.1888  -38.8977    4.6409 O   0  5  0  0  0  0  0  0  0  0  0  0
   -2.8422  -38.9695   10.8102 N   0  0  0  0  0  0  0  0  0  0  0  0
   -7.4331  -38.5315    6.8281 O   0  0  0  0  0  0  0  0  0  0  0  0
   -6.2898  -36.7295    5.4893 O   0  0  0  0  0  0  0  0  0  0  0  0
   -4.1622  -39.2679   10.6201 C   0  0  1  0  0  0  0  0  0  0  0  0
   -4.2856  -40.1912    9.6124 C   0  0  2  0  0  0  0  0  0  0  0  0
   -5.5046  -40.8573    9.0244 C   0  0  0  0  0  0  0  0  0  0  0  0
   -5.5974  -40.6500    7.5084 C   0  0  0  0  0  0  0  0  0  0  0  0
   -6.8122  -40.9803    6.8603 O   0  0  0  0  0  0  0  0  0  0  0  0
  1 11  1  0  0  0  0
  3 13  1  1  0  0  0
  3 17  2  0  0  0  0
  3 20  1  0  0  0  0
  3 26  1  0  0  0  0
  4 14  1  6  0  0  0
  4 18  1  0  0  0  0
  4 21  2  0  0  0  0
  4 20  1  0  0  0  0
  5 19  1  0  0  0  0
  5  7  1  0  0  0  0
  6  7  2  0  0  0  0
  6 12  1  0  0  0  0
  7  8  1  0  0  0  0
  8  9  1  0  0  0  0
  8 10  2  0  0  0  0
 10 11  1  0  0  0  0
 11 12  2  0  0  0  0
 15 23  1  0  0  0  0
 15 16  1  0  0  0  0
 16 19  1  0  0  0  0
 19 22  1  0  0  0  0
 22  2  1  1  0  0  0
 22 23  1  0  0  0  0
 23 24  1  1  0  0  0
 24 25  1  0  0  0  0
 25 26  1  0  0  0  0
M  CHG  2  13  -1  18  -1
M  END
>  <CHROM.1>
-174.19751951,74.66221406,-46.37523178,66.51803708,-56.19525913,-167.50502381
76.16973249,-64.56979361,-4.81327426,-38.32262675,8.47213954,0.07725796,-0.75653895
-0.52457022

>  <Name>
ligand

>  <RI>
0

>  <Rbt.Current_Directory>
/home/itssahil/PROJECTS/Mol_Feturizer/New_Systems/rnas/3D2G

>  <Rbt.Executable>
rbdock ($Id: //depot/dev/client3/rdock/2013.1/src/exe/rbdock.cxx#4 $)

>  <Rbt.Library>
libRbt.so (2013.1, Build901 2013/11/27)

>  <Rbt.Parameter_File>
/export/apps/rDock/src/rDock_2013.1_src/data/scripts/dock_solv.prm

>  <Rbt.Receptor>
prm/blind_docking_60.prm

>  <SCORE>
-14.6786

>  <SCORE.INTER>
-13.5963

>  <SCORE.INTER.CONST>
1

>  <SCORE.INTER.POLAR>
0

>  <SCORE.INTER.ROT>
8

>  <SCORE.INTER.SOLV>
15.9341

>  <SCORE.INTER.VDW>
-23.3089

>  <SCORE.INTER.norm>
-0.522933

>  <SCORE.INTRA>
-1.08236

>  <SCORE.INTRA.DIHEDRAL>
-1.58148

>  <SCORE.INTRA.DIHEDRAL.0>
9.09364

>  <SCORE.INTRA.POLAR>
0

>  <SCORE.INTRA.POLAR.0>
0

>  <SCORE.INTRA.REPUL>
0

>  <SCORE.INTRA.REPUL.0>
0

>  <SCORE.INTRA.SOLV>
-0.661506

>  <SCORE.INTRA.SOLV.lig_0>
-78.5846

>  <SCORE.INTRA.VDW>
0.0391333

>  <SCORE.INTRA.VDW.0>
-2.81163

>  <SCORE.INTRA.norm>
-0.0416292

>  <SCORE.RESTR>
0

>  <SCORE.RESTR.CAVITY>
0

>  <SCORE.RESTR.norm>
0

>  <SCORE.SYSTEM>
0

>  <SCORE.SYSTEM.CONST>
0

>  <SCORE.SYSTEM.DIHEDRAL>
0

>  <SCORE.SYSTEM.SOLV>
0

>  <SCORE.SYSTEM.norm>
0

>  <SCORE.heavy>
26

>  <SCORE.norm>
-0.564563

>  <RMSD>
9.191

$$$$
ligand
 OpenBabel11021811463D
libRbt.so/2013.1/901 2013/11/27
 26 27  0  0  0  0  0  0  0  0999 V2000
   -0.7676  -40.5837    9.7932 C   0  0  0  0  0  0  0  0  0  0  0  0
   -7.2835  -43.7005   11.0645 C   0  0  0  0  0  0  0  0  0  0  0  0
   -5.9042  -46.5581    5.5840 P   0  0  1  0  0  0  0  0  0  0  0  0
   -8.1499  -45.4060    4.5012 P   0  0  2  0  0  0  0  0  0  0  0  0
   -4.5415  -43.9211   12.5427 C   0  0  0  0  0  0  0  0  0  0  0  0
   -2.3707  -43.6092   11.3083 C   0  0  0  0  0  0  0  0  0  0  0  0
   -3.5393  -43.0477   11.8318 C   0  0  0  0  0  0  0  0  0  0  0  0
   -3.8052  -41.6855   11.6677 C   0  0  0  0  0  0  0  0  0  0  0  0
   -4.9150  -41.1661   12.1491 N   0  0  0  0  0  0  0  0  0  0  0  0
   -2.8902  -40.8854   11.0280 N   0  0  0  0  0  0  0  0  0  0  0  0
   -1.7460  -41.4514   10.5018 C   0  0  0  0  0  0  0  0  0  0  0  0
   -1.4743  -42.7986   10.6493 N   0  0  0  0  0  0  0  0  0  0  0  0
   -5.1649  -47.7945    5.1726 O   0  5  0  0  0  0  0  0  0  0  0  0
   -9.5168  -45.8678    4.8176 O   0  0  0  0  0  0  0  0  0  0  0  0
   -5.1698  -46.8789   10.2000 S   0  0  0  0  0  0  0  0  0  0  0  0
   -4.3742  -46.0005   11.2477 C   0  0  0  0  0  0  0  0  0  0  0  0
   -5.1968  -45.2707    5.3482 O   0  0  0  0  0  0  0  0  0  0  0  0
   -8.0173  -44.9724    3.0973 O   0  5  0  0  0  0  0  0  0  0  0  0
   -5.0663  -44.8785   11.6087 N   0  0  0  0  0  0  0  0  0  0  0  0
   -7.2825  -46.6945    4.8179 O   0  0  0  0  0  0  0  0  0  0  0  0
   -7.6238  -44.2406    5.2746 O   0  0  0  0  0  0  0  0  0  0  0  0
   -6.2586  -44.7870   10.9472 C   0  0  1  0  0  0  0  0  0  0  0  0
   -6.4136  -45.8740   10.1241 C   0  0  2  0  0  0  0  0  0  0  0  0
   -7.5400  -46.2617    9.1985 C   0  0  0  0  0  0  0  0  0  0  0  0
   -7.1953  -45.9911    7.7296 C   0  0  0  0  0  0  0  0  0  0  0  0
   -6.2220  -46.8104    7.1081 O   0  0  0  0  0  0  0  0  0  0  0  0
  1 11  1  0  0  0  0
  3 13  1  6  0  0  0
  3 17  2  0  0  0  0
  3 20  1  0  0  0  0
  3 26  1  0  0  0  0
  4 14  1  1  0  0  0
  4 18  1  0  0  0  0
  4 21  2  0  0  0  0
  4 20  1  0  0  0  0
  5 19  1  0  0  0  0
  5  7  1  0  0  0  0
  6  7  2  0  0  0  0
  6 12  1  0  0  0  0
  7  8  1  0  0  0  0
  8  9  1  0  0  0  0
  8 10  2  0  0  0  0
 10 11  1  0  0  0  0
 11 12  2  0  0  0  0
 15 23  1  0  0  0  0
 15 16  1  0  0  0  0
 16 19  1  0  0  0  0
 19 22  1  0  0  0  0
 22  2  1  1  0  0  0
 22 23  1  0  0  0  0
 23 24  1  1  0  0  0
 24 25  1  0  0  0  0
 25 26  1  0  0  0  0
M  CHG  2  13  -1  18  -1
M  END
>  <CHROM.1>
-156.55273885,78.64491362,-63.43666266,-137.56686431,-77.01626196,70.51952185
178.07791298,-164.67716381,-5.54728214,-44.78844511,8.38074049,-0.71602381
-0.85688668,-1.34092348

>  <Name>
ligand

>  <RI>
0

>  <Rbt.Current_Directory>
/home/itssahil/PROJECTS/Mol_Feturizer/New_Systems/rnas/3D2G

>  <Rbt.Executable>
rbdock ($Id: //depot/dev/client3/rdock/2013.1/src/exe/rbdock.cxx#4 $)

>  <Rbt.Library>
libRbt.so (2013.1, Build901 2013/11/27)

>  <Rbt.Parameter_File>
/export/apps/rDock/src/rDock_2013.1_src/data/scripts/dock_solv.prm

>  <Rbt.Receptor>
prm/pocket_docking_8.prm

>  <SCORE>
-18.1063

>  <SCORE.INTER>
-17.4267

>  <SCORE.INTER.CONST>
1

>  <SCORE.INTER.POLAR>
0

>  <SCORE.INTER.ROT>
8

>  <SCORE.INTER.SOLV>
9.52918

>  <SCORE.INTER.VDW>
-23.7275

>  <SCORE.INTER.norm>
-0.670259

>  <SCORE.INTRA>
-0.679555

>  <SCORE.INTRA.DIHEDRAL>
-0.327028

>  <SCORE.INTRA.DIHEDRAL.0>
9.09364

>  <SCORE.INTRA.POLAR>
0

>  <SCORE.INTRA.POLAR.0>
0

>  <SCORE.INTRA.REPUL>
0

>  <SCORE.INTRA.REPUL.0>
0

>  <SCORE.INTRA.SOLV>
0.703953

>  <SCORE.INTRA.SOLV.lig_0>
-78.5846

>  <SCORE.INTRA.VDW>
-0.868017

>  <SCORE.INTRA.VDW.0>
-2.81163

>  <SCORE.INTRA.norm>
-0.0261367

>  <SCORE.RESTR>
0

>  <SCORE.RESTR.CAVITY>
0

>  <SCORE.RESTR.norm>
0

>  <SCORE.SYSTEM>
0

>  <SCORE.SYSTEM.CONST>
0

>  <SCORE.SYSTEM.DIHEDRAL>
0

>  <SCORE.SYSTEM.SOLV>
0

>  <SCORE.SYSTEM.norm>
0

>  <SCORE.heavy>
26

>  <SCORE.norm>
-0.696395

>  <RMSD>
9.214

$$$$
ligand
 OpenBabel11021811463D
libRbt.so/2013.1/901 2013/11/27
 26 27  0  0  0  0  0  0  0  0999 V2000
   -0.7529  -40.5283    9.8941 C   0  0  0  0  0  0  0  0  0  0  0  0
   -7.2810  -43.5705   11.0974 C   0  0  0  0  0  0  0  0  0  0  0  0
   -5.6061  -46.7770    5.8531 P   0  0  1  0  0  0  0  0  0  0  0  0
   -7.4844  -45.7455    4.1353 P   0  0  2  0  0  0  0  0  0  0  0  0
   -4.5761  -43.8125   12.6394 C   0  0  0  0  0  0  0  0  0  0  0  0
   -2.4351  -43.5424   11.3446 C   0  0  0  0  0  0  0  0  0  0  0  0
   -3.5608  -42.9540   11.9291 C   0  0  0  0  0  0  0  0  0  0  0  0
   -3.7728  -41.5764   11.8271 C   0  0  0  0  0  0  0  0  0  0  0  0
   -4.8429  -41.0307   12.3658 N   0  0  0  0  0  0  0  0  0  0  0  0
   -2.8453  -40.7903   11.1880 N   0  0  0  0  0  0  0  0  0  0  0  0
   -1.7443  -41.3821   10.6015 C   0  0  0  0  0  0  0  0  0  0  0  0
   -1.5264  -42.7443   10.6873 N   0  0  0  0  0  0  0  0  0  0  0  0
   -4.7969  -48.0148    5.6134 O   0  5  0  0  0  0  0  0  0  0  0  0
   -6.4165  -45.4102    3.1715 O   0  0  0  0  0  0  0  0  0  0  0  0
   -5.2062  -46.8004   10.3356 S   0  0  0  0  0  0  0  0  0  0  0  0
   -4.4179  -45.9174   11.3850 C   0  0  0  0  0  0  0  0  0  0  0  0
   -4.8921  -45.4869    5.6551 O   0  0  0  0  0  0  0  0  0  0  0  0
   -7.7969  -44.6206    5.0372 O   0  5  0  0  0  0  0  0  0  0  0  0
   -5.0976  -44.7772   11.7109 N   0  0  0  0  0  0  0  0  0  0  0  0
   -6.8589  -46.9806    4.9074 O   0  0  0  0  0  0  0  0  0  0  0  0
   -8.8183  -46.1222    3.5768 O   0  0  0  0  0  0  0  0  0  0  0  0
   -6.2733  -44.6767   11.0218 C   0  0  1  0  0  0  0  0  0  0  0  0
   -6.4299  -45.7754   10.2147 C   0  0  2  0  0  0  0  0  0  0  0  0
   -7.5426  -46.1599    9.2714 C   0  0  0  0  0  0  0  0  0  0  0  0
   -7.1124  -46.0573    7.8037 C   0  0  0  0  0  0  0  0  0  0  0  0
   -6.1339  -46.9632    7.3275 O   0  0  0  0  0  0  0  0  0  0  0  0
  1 11  1  0  0  0  0
  3 13  1  6  0  0  0
  3 17  2  0  0  0  0
  3 20  1  0  0  0  0
  3 26  1  0  0  0  0
  4 14  1  6  0  0  0
  4 18  1  0  0  0  0
  4 21  2  0  0  0  0
  4 20  1  0  0  0  0
  5 19  1  0  0  0  0
  5  7  1  0  0  0  0
  6  7  2  0  0  0  0
  6 12  1  0  0  0  0
  7  8  1  0  0  0  0
  8  9  1  0  0  0  0
  8 10  2  0  0  0  0
 10 11  1  0  0  0  0
 11 12  2  0  0  0  0
 15 23  1  0  0  0  0
 15 16  1  0  0  0  0
 16 19  1  0  0  0  0
 19 22  1  0  0  0  0
 22  2  1  1  0  0  0
 22 23  1  0  0  0  0
 23 24  1  1  0  0  0
 24 25  1  0  0  0  0
 25 26  1  0  0  0  0
M  CHG  2  13  -1  18  -1
M  END
>  <CHROM.1>
-142.21895354,79.62558428,-59.06891621,67.97227238,-71.20543828,67.42054443
-174.95101437,-170.36809503,-5.35243755,-44.85573524,8.42091721,-0.87780305
-0.85471081,-1.52199158

>  <Name>
ligand

>  <RI>
0

>  <Rbt.Current_Directory>
/home/itssahil/PROJECTS/Mol_Feturizer/New_Systems/rnas/3D2G

>  <Rbt.Executable>
rbdock ($Id: //depot/dev/client3/rdock/2013.1/src/exe/rbdock.cxx#4 $)

>  <Rbt.Library>
libRbt.so (2013.1, Build901 2013/11/27)

>  <Rbt.Parameter_File>
/export/apps/rDock/src/rDock_2013.1_src/data/scripts/dock_solv.prm

>  <Rbt.Receptor>
prm/pocket_docking_8.prm

>  <SCORE>
-17.4798

>  <SCORE.INTER>
-15.1284

>  <SCORE.INTER.CONST>
1

>  <SCORE.INTER.POLAR>
0

>  <SCORE.INTER.ROT>
8

>  <SCORE.INTER.SOLV>
9.07188

>  <SCORE.INTER.VDW>
-22.0429

>  <SCORE.INTER.norm>
-0.58186

>  <SCORE.INTRA>
-2.3514

>  <SCORE.INTRA.DIHEDRAL>
-1.50677

>  <SCORE.INTRA.DIHEDRAL.0>
9.09364

>  <SCORE.INTRA.POLAR>
0

>  <SCORE.INTRA.POLAR.0>
0

>  <SCORE.INTRA.REPUL>
0

>  <SCORE.INTRA.REPUL.0>
0

>  <SCORE.INTRA.SOLV>
-0.589695

>  <SCORE.INTRA.SOLV.lig_0>
-78.5846

>  <SCORE.INTRA.VDW>
-1.30317

>  <SCORE.INTRA.VDW.0>
-2.81163

>  <SCORE.INTRA.norm>
-0.0904384

>  <SCORE.RESTR>
0

>  <SCORE.RESTR.CAVITY>
0

>  <SCORE.RESTR.norm>
0

>  <SCORE.SYSTEM>
0

>  <SCORE.SYSTEM.CONST>
0

>  <SCORE.SYSTEM.DIHEDRAL>
0

>  <SCORE.SYSTEM.SOLV>
0

>  <SCORE.SYSTEM.norm>
0

>  <SCORE.heavy>
26

>  <SCORE.norm>
-0.672298

>  <RMSD>
9.219

$$$$
ligand
 OpenBabel11021811463D
libRbt.so/2013.1/901 2013/11/27
 26 27  0  0  0  0  0  0  0  0999 V2000
    0.3053  -43.9605    7.8190 C   0  0  0  0  0  0  0  0  0  0  0  0
   -5.4857  -44.1861    7.6035 C   0  0  0  0  0  0  0  0  0  0  0  0
   -8.4346  -39.5884    7.0320 P   0  0  1  0  0  0  0  0  0  0  0  0
   -7.7762  -36.9393    7.3353 P   0  0  2  0  0  0  0  0  0  0  0  0
   -4.6021  -45.9965    9.9898 C   0  0  0  0  0  0  0  0  0  0  0  0
   -2.6881  -44.3630   10.0318 C   0  0  0  0  0  0  0  0  0  0  0  0
   -3.3204  -45.4477    9.4165 C   0  0  0  0  0  0  0  0  0  0  0  0
   -2.7521  -46.0540    8.2928 C   0  0  0  0  0  0  0  0  0  0  0  0
   -3.3442  -47.0851    7.7278 N   0  0  0  0  0  0  0  0  0  0  0  0
   -1.5889  -45.5511    7.7630 N   0  0  0  0  0  0  0  0  0  0  0  0
   -0.9643  -44.4889    8.3858 C   0  0  0  0  0  0  0  0  0  0  0  0
   -1.5106  -43.8851    9.5027 N   0  0  0  0  0  0  0  0  0  0  0  0
   -9.7045  -40.2045    7.5341 O   0  5  0  0  0  0  0  0  0  0  0  0
   -6.5647  -37.3255    6.5838 O   0  0  0  0  0  0  0  0  0  0  0  0
   -7.2503  -43.4336   11.0149 S   0  0  0  0  0  0  0  0  0  0  0  0
   -6.2365  -44.6317   11.2126 C   0  0  0  0  0  0  0  0  0  0  0  0
   -7.8644  -40.1925    5.7977 O   0  0  0  0  0  0  0  0  0  0  0  0
   -7.5501  -36.9284    8.7931 O   0  5  0  0  0  0  0  0  0  0  0  0
   -5.5696  -44.9365   10.0591 N   0  0  0  0  0  0  0  0  0  0  0  0
   -8.8105  -38.0570    6.8947 O   0  0  0  0  0  0  0  0  0  0  0  0
   -8.3491  -35.5861    7.0637 O   0  0  0  0  0  0  0  0  0  0  0  0
   -5.9727  -44.1459    9.0198 C   0  0  1  0  0  0  0  0  0  0  0  0
   -6.9233  -43.2584    9.4576 C   0  0  2  0  0  0  0  0  0  0  0  0
   -7.6749  -42.1732    8.7274 C   0  0  0  0  0  0  0  0  0  0  0  0
   -6.8099  -40.9282    8.5007 C   0  0  0  0  0  0  0  0  0  0  0  0
   -7.4618  -39.6928    8.2690 O   0  0  0  0  0  0  0  0  0  0  0  0
  1 11  1  0  0  0  0
  3 13  1  1  0  0  0
  3 17  2  0  0  0  0
  3 20  1  0  0  0  0
  3 26  1  0  0  0  0
  4 14  1  6  0  0  0
  4 18  1  0  0  0  0
  4 21  2  0  0  0  0
  4 20  1  0  0  0  0
  5 19  1  0  0  0  0
  5  7  1  0  0  0  0
  6  7  2  0  0  0  0
  6 12  1  0  0  0  0
  7  8  1  0  0  0  0
  8  9  1  0  0  0  0
  8 10  2  0  0  0  0
 10 11  1  0  0  0  0
 11 12  2  0  0  0  0
 15 23  1  0  0  0  0
 15 16  1  0  0  0  0
 16 19  1  0  0  0  0
 19 22  1  0  0  0  0
 22  2  1  1  0  0  0
 22 23  1  0  0  0  0
 23 24  1  1  0  0  0
 24 25  1  0  0  0  0
 25 26  1  0  0  0  0
M  CHG  2  13  -1  18  -1
M  END
>  <CHROM.1>
139.09233800,-127.07384191,56.71413322,52.96564826,102.55745753,-158.30634333
-58.98323579,81.09545196,-5.96736815,-41.79316410,8.38777101,-0.94081962
0.29445293,-0.43727808

>  <Name>
ligand

>  <RI>
0

>  <Rbt.Current_Directory>
/home/itssahil/PROJECTS/Mol_Feturizer/New_Systems/rnas/3D2G

>  <Rbt.Executable>
rbdock ($Id: //depot/dev/client3/rdock/2013.1/src/exe/rbdock.cxx#4 $)

>  <Rbt.Library>
libRbt.so (2013.1, Build901 2013/11/27)

>  <Rbt.Parameter_File>
/export/apps/rDock/src/rDock_2013.1_src/data/scripts/dock_solv.prm

>  <Rbt.Receptor>
prm/pocket_docking_5.prm

>  <SCORE>
-12.4034

>  <SCORE.INTER>
-11.3964

>  <SCORE.INTER.CONST>
1

>  <SCORE.INTER.POLAR>
0

>  <SCORE.INTER.ROT>
8

>  <SCORE.INTER.SOLV>
19.4181

>  <SCORE.INTER.VDW>
-23.0036

>  <SCORE.INTER.norm>
-0.438322

>  <SCORE.INTRA>
-1.007

>  <SCORE.INTRA.DIHEDRAL>
-0.941217

>  <SCORE.INTRA.DIHEDRAL.0>
9.09364

>  <SCORE.INTRA.POLAR>
0

>  <SCORE.INTRA.POLAR.0>
0

>  <SCORE.INTRA.REPUL>
0

>  <SCORE.INTRA.REPUL.0>
0

>  <SCORE.INTRA.SOLV>
-0.667564

>  <SCORE.INTRA.SOLV.lig_0>
-78.5846

>  <SCORE.INTRA.VDW>
-0.202606

>  <SCORE.INTRA.VDW.0>
-2.81163

>  <SCORE.INTRA.norm>
-0.0387306

>  <SCORE.RESTR>
0

>  <SCORE.RESTR.CAVITY>
0

>  <SCORE.RESTR.norm>
0

>  <SCORE.SYSTEM>
0

>  <SCORE.SYSTEM.CONST>
0

>  <SCORE.SYSTEM.DIHEDRAL>
0

>  <SCORE.SYSTEM.SOLV>
0

>  <SCORE.SYSTEM.norm>
0

>  <SCORE.heavy>
26

>  <SCORE.norm>
-0.477053

>  <RMSD>
9.233

$$$$
ligand
 OpenBabel11021811463D
libRbt.so/2013.1/901 2013/11/27
 26 27  0  0  0  0  0  0  0  0999 V2000
   -7.6528  -46.4728    8.9979 C   0  0  0  0  0  0  0  0  0  0  0  0
   -4.5365  -40.4043    9.2786 C   0  0  0  0  0  0  0  0  0  0  0  0
   -0.8525  -36.8131   10.3077 P   0  0  1  0  0  0  0  0  0  0  0  0
   -1.6817  -34.4213   11.3727 P   0  0  2  0  0  0  0  0  0  0  0  0
   -5.2979  -42.0610   11.8140 C   0  0  0  0  0  0  0  0  0  0  0  0
   -6.8892  -42.9742   10.0914 C   0  0  0  0  0  0  0  0  0  0  0  0
   -5.9308  -43.2160   11.0803 C   0  0  0  0  0  0  0  0  0  0  0  0
   -5.5252  -44.5218   11.3689 C   0  0  0  0  0  0  0  0  0  0  0  0
   -4.6106  -44.7416   12.2900 N   0  0  0  0  0  0  0  0  0  0  0  0
   -6.1061  -45.5768   10.7083 N   0  0  0  0  0  0  0  0  0  0  0  0
   -7.0411  -45.3276    9.7234 C   0  0  0  0  0  0  0  0  0  0  0  0
   -7.4453  -44.0406    9.4218 N   0  0  0  0  0  0  0  0  0  0  0  0
   -0.4631  -36.2300    8.9838 O   0  5  0  0  0  0  0  0  0  0  0  0
   -0.8744  -34.7520   12.5646 O   0  0  0  0  0  0  0  0  0  0  0  0
   -1.5248  -42.0191   11.1865 S   0  0  0  0  0  0  0  0  0  0  0  0
   -2.8674  -42.3871   11.9377 C   0  0  0  0  0  0  0  0  0  0  0  0
    0.2504  -36.9806   11.2921 O   0  0  0  0  0  0  0  0  0  0  0  0
   -2.8963  -33.6570   11.7147 O   0  5  0  0  0  0  0  0  0  0  0  0
   -3.9657  -41.8675   11.3116 N   0  0  0  0  0  0  0  0  0  0  0  0
   -2.0177  -35.8569   10.7904 O   0  0  0  0  0  0  0  0  0  0  0  0
   -1.0337  -33.5868   10.3158 O   0  0  0  0  0  0  0  0  0  0  0  0
   -3.6194  -41.1355   10.2109 C   0  0  1  0  0  0  0  0  0  0  0  0
   -2.2567  -41.1597   10.0513 C   0  0  2  0  0  0  0  0  0  0  0  0
   -1.3718  -40.5331    9.0024 C   0  0  0  0  0  0  0  0  0  0  0  0
   -0.7055  -39.2479    9.5063 C   0  0  0  0  0  0  0  0  0  0  0  0
   -1.5378  -38.1796    9.9197 O   0  0  0  0  0  0  0  0  0  0  0  0
  1 11  1  0  0  0  0
  3 13  1  6  0  0  0
  3 17  2  0  0  0  0
  3 20  1  0  0  0  0
  3 26  1  0  0  0  0
  4 14  1  1  0  0  0
  4 18  1  0  0  0  0
  4 21  2  0  0  0  0
  4 20  1  0  0  0  0
  5 19  1  0  0  0  0
  5  7  1  0  0  0  0
  6  7  2  0  0  0  0
  6 12  1  0  0  0  0
  7  8  1  0  0  0  0
  8  9  1  0  0  0  0
  8 10  2  0  0  0  0
 10 11  1  0  0  0  0
 11 12  2  0  0  0  0
 15 23  1  0  0  0  0
 15 16  1  0  0  0  0
 16 19  1  0  0  0  0
 19 22  1  0  0  0  0
 22  2  1  6  0  0  0
 22 23  1  0  0  0  0
 23 24  1  6  0  0  0
 24 25  1  0  0  0  0
 25 26  1  0  0  0  0
M  CHG  2  13  -1  18  -1
M  END
>  <CHROM.1>
-76.49733561,-96.95966248,-104.40493165,-61.98645175,-79.60593957,-59.74063020
-174.32859630,74.70166888,-3.03907832,-39.77650977,10.63090496,2.04860981
-0.00840348,-3.09028647

>  <Name>
ligand

>  <RI>
0

>  <Rbt.Current_Directory>
/home/itssahil/PROJECTS/Mol_Feturizer/New_Systems/rnas/3D2G

>  <Rbt.Executable>
rbdock ($Id: //depot/dev/client3/rdock/2013.1/src/exe/rbdock.cxx#4 $)

>  <Rbt.Library>
libRbt.so (2013.1, Build901 2013/11/27)

>  <Rbt.Parameter_File>
/export/apps/rDock/src/rDock_2013.1_src/data/scripts/dock_solv.prm

>  <Rbt.Receptor>
prm/blind_docking_100.prm

>  <SCORE>
-16.8092

>  <SCORE.INTER>
-13.5223

>  <SCORE.INTER.CONST>
1

>  <SCORE.INTER.POLAR>
0

>  <SCORE.INTER.ROT>
8

>  <SCORE.INTER.SOLV>
19.0313

>  <SCORE.INTER.VDW>
-24.292

>  <SCORE.INTER.norm>
-0.520087

>  <SCORE.INTRA>
-3.28693

>  <SCORE.INTRA.DIHEDRAL>
-3.51046

>  <SCORE.INTRA.DIHEDRAL.0>
9.09364

>  <SCORE.INTRA.POLAR>
0

>  <SCORE.INTRA.POLAR.0>
0

>  <SCORE.INTRA.REPUL>
0

>  <SCORE.INTRA.REPUL.0>
0

>  <SCORE.INTRA.SOLV>
-0.539961

>  <SCORE.INTRA.SOLV.lig_0>
-78.5846

>  <SCORE.INTRA.VDW>
-1.26172

>  <SCORE.INTRA.VDW.0>
-2.81163

>  <SCORE.INTRA.norm>
-0.12642

>  <SCORE.RESTR>
0

>  <SCORE.RESTR.CAVITY>
0

>  <SCORE.RESTR.norm>
0

>  <SCORE.SYSTEM>
0

>  <SCORE.SYSTEM.CONST>
0

>  <SCORE.SYSTEM.DIHEDRAL>
0

>  <SCORE.SYSTEM.SOLV>
0

>  <SCORE.SYSTEM.norm>
0

>  <SCORE.heavy>
26

>  <SCORE.norm>
-0.646508

>  <RMSD>
9.238

$$$$
ligand
 OpenBabel11021811463D
libRbt.so/2013.1/901 2013/11/27
 26 27  0  0  0  0  0  0  0  0999 V2000
    1.0978  -37.3255    8.7744 C   0  0  0  0  0  0  0  0  0  0  0  0
   -3.2122  -38.6405   14.1104 C   0  0  0  0  0  0  0  0  0  0  0  0
   -4.7727  -43.7569   12.3914 P   0  0  1  0  0  0  0  0  0  0  0  0
   -6.7900  -44.1604   10.5718 P   0  0  2  0  0  0  0  0  0  0  0  0
   -3.0137  -35.9511   12.5356 C   0  0  0  0  0  0  0  0  0  0  0  0
   -1.6715  -37.6639   11.2715 C   0  0  0  0  0  0  0  0  0  0  0  0
   -1.9257  -36.3195   11.5593 C   0  0  0  0  0  0  0  0  0  0  0  0
   -1.2028  -35.3095   10.9187 C   0  0  0  0  0  0  0  0  0  0  0  0
   -1.4581  -34.0452   11.1822 N   0  0  0  0  0  0  0  0  0  0  0  0
   -0.2051  -35.6420   10.0351 N   0  0  0  0  0  0  0  0  0  0  0  0
    0.0290  -36.9718    9.7464 C   0  0  0  0  0  0  0  0  0  0  0  0
   -0.6841  -37.9807   10.3663 N   0  0  0  0  0  0  0  0  0  0  0  0
   -4.3377  -44.5297   13.5988 O   0  5  0  0  0  0  0  0  0  0  0  0
   -7.7851  -43.3654   11.3197 O   0  0  0  0  0  0  0  0  0  0  0  0
   -6.1888  -37.9045   11.6781 S   0  0  0  0  0  0  0  0  0  0  0  0
   -5.1580  -36.7066   11.6081 C   0  0  0  0  0  0  0  0  0  0  0  0
   -3.6870  -43.3337   11.4664 O   0  0  0  0  0  0  0  0  0  0  0  0
   -7.4131  -45.2509    9.7978 O   0  5  0  0  0  0  0  0  0  0  0  0
   -4.0798  -36.9079   12.4236 N   0  0  0  0  0  0  0  0  0  0  0  0
   -5.8577  -44.7030   11.7335 O   0  0  0  0  0  0  0  0  0  0  0  0
   -5.9633  -43.4425    9.5548 O   0  0  0  0  0  0  0  0  0  0  0  0
   -4.1834  -38.0816   13.1157 C   0  0  1  0  0  0  0  0  0  0  0  0
   -5.3440  -38.7235   12.7636 C   0  0  2  0  0  0  0  0  0  0  0  0
   -5.9230  -40.0408   13.2166 C   0  0  0  0  0  0  0  0  0  0  0  0
   -5.0881  -41.2319   12.7328 C   0  0  0  0  0  0  0  0  0  0  0  0
   -5.5652  -42.5376   13.0018 O   0  0  0  0  0  0  0  0  0  0  0  0
  1 11  1  0  0  0  0
  3 13  1  1  0  0  0
  3 17  2  0  0  0  0
  3 20  1  0  0  0  0
  3 26  1  0  0  0  0
  4 14  1  1  0  0  0
  4 18  1  0  0  0  0
  4 21  2  0  0  0  0
  4 20  1  0  0  0  0
  5 19  1  0  0  0  0
  5  7  1  0  0  0  0
  6  7  2  0  0  0  0
  6 12  1  0  0  0  0
  7  8  1  0  0  0  0
  8  9  1  0  0  0  0
  8 10  2  0  0  0  0
 10 11  1  0  0  0  0
 11 12  2  0  0  0  0
 15 23  1  0  0  0  0
 15 16  1  0  0  0  0
 16 19  1  0  0  0  0
 19 22  1  0  0  0  0
 22  2  1  6  0  0  0
 22 23  1  0  0  0  0
 23 24  1  6  0  0  0
 24 25  1  0  0  0  0
 25 26  1  0  0  0  0
M  CHG  2  13  -1  18  -1
M  END
>  <CHROM.1>
168.28947416,-93.36167915,-33.67842864,-78.00021611,111.44849474,-175.53732282
174.60688264,119.41481225,-4.20435898,-40.12935633,11.58654395,-0.97742760
-0.45720515,-2.90571276

>  <Name>
ligand

>  <RI>
0

>  <Rbt.Current_Directory>
/home/itssahil/PROJECTS/Mol_Feturizer/New_Systems/rnas/3D2G

>  <Rbt.Executable>
rbdock ($Id: //depot/dev/client3/rdock/2013.1/src/exe/rbdock.cxx#4 $)

>  <Rbt.Library>
libRbt.so (2013.1, Build901 2013/11/27)

>  <Rbt.Parameter_File>
/export/apps/rDock/src/rDock_2013.1_src/data/scripts/dock_solv.prm

>  <Rbt.Receptor>
prm/blind_docking_80.prm

>  <SCORE>
-23.2626

>  <SCORE.INTER>
-20.5986

>  <SCORE.INTER.CONST>
1

>  <SCORE.INTER.POLAR>
0

>  <SCORE.INTER.ROT>
8

>  <SCORE.INTER.SOLV>
16.4949

>  <SCORE.INTER.VDW>
-28.164

>  <SCORE.INTER.norm>
-0.792254

>  <SCORE.INTRA>
-2.66401

>  <SCORE.INTRA.DIHEDRAL>
-1.35022

>  <SCORE.INTRA.DIHEDRAL.0>
9.09364

>  <SCORE.INTRA.POLAR>
0

>  <SCORE.INTRA.POLAR.0>
0

>  <SCORE.INTRA.REPUL>
0

>  <SCORE.INTRA.REPUL.0>
0

>  <SCORE.INTRA.SOLV>
-2.80134

>  <SCORE.INTRA.SOLV.lig_0>
-78.5846

>  <SCORE.INTRA.VDW>
-0.588234

>  <SCORE.INTRA.VDW.0>
-2.81163

>  <SCORE.INTRA.norm>
-0.102462

>  <SCORE.RESTR>
0

>  <SCORE.RESTR.CAVITY>
0

>  <SCORE.RESTR.norm>
0

>  <SCORE.SYSTEM>
0

>  <SCORE.SYSTEM.CONST>
0

>  <SCORE.SYSTEM.DIHEDRAL>
0

>  <SCORE.SYSTEM.SOLV>
0

>  <SCORE.SYSTEM.norm>
0

>  <SCORE.heavy>
26

>  <SCORE.norm>
-0.894716

>  <RMSD>
9.248

$$$$
ligand
 OpenBabel11021811463D
libRbt.so/2013.1/901 2013/11/27
 26 27  0  0  0  0  0  0  0  0999 V2000
    1.0601  -37.6679    8.6411 C   0  0  0  0  0  0  0  0  0  0  0  0
   -3.1389  -38.7305   13.9705 C   0  0  0  0  0  0  0  0  0  0  0  0
   -5.0584  -43.7232   12.2270 P   0  0  1  0  0  0  0  0  0  0  0  0
   -7.1710  -43.8591   10.4773 P   0  0  2  0  0  0  0  0  0  0  0  0
   -2.9002  -36.0126   12.4511 C   0  0  0  0  0  0  0  0  0  0  0  0
   -1.8062  -37.7916   11.0470 C   0  0  0  0  0  0  0  0  0  0  0  0
   -1.8535  -36.4571   11.4614 C   0  0  0  0  0  0  0  0  0  0  0  0
   -0.9598  -35.5203   10.9352 C   0  0  0  0  0  0  0  0  0  0  0  0
   -1.0201  -34.2621   11.3175 N   0  0  0  0  0  0  0  0  0  0  0  0
    0.0005  -35.9238   10.0397 N   0  0  0  0  0  0  0  0  0  0  0  0
    0.0303  -37.2406    9.6255 C   0  0  0  0  0  0  0  0  0  0  0  0
   -0.8529  -38.1759   10.1313 N   0  0  0  0  0  0  0  0  0  0  0  0
   -4.6962  -44.5778   13.4029 O   0  5  0  0  0  0  0  0  0  0  0  0
   -8.0950  -43.1242   11.3650 O   0  0  0  0  0  0  0  0  0  0  0  0
   -6.2126  -37.7880   11.7384 S   0  0  0  0  0  0  0  0  0  0  0  0
   -5.1297  -36.6394   11.6355 C   0  0  0  0  0  0  0  0  0  0  0  0
   -3.9327  -43.3389   11.3333 O   0  0  0  0  0  0  0  0  0  0  0  0
   -7.8743  -44.8346    9.6228 O   0  5  0  0  0  0  0  0  0  0  0  0
   -4.0169  -36.9139   12.3802 N   0  0  0  0  0  0  0  0  0  0  0  0
   -6.1992  -44.5589   11.5160 O   0  0  0  0  0  0  0  0  0  0  0  0
   -6.3735  -43.0558    9.5017 O   0  0  0  0  0  0  0  0  0  0  0  0
   -4.1377  -38.0994   13.0491 C   0  0  1  0  0  0  0  0  0  0  0  0
   -5.3473  -38.6753   12.7518 C   0  0  2  0  0  0  0  0  0  0  0  0
   -5.9632  -39.9749   13.2070 C   0  0  0  0  0  0  0  0  0  0  0  0
   -5.2534  -41.1905   12.6002 C   0  0  0  0  0  0  0  0  0  0  0  0
   -5.7700  -42.4781   12.8833 O   0  0  0  0  0  0  0  0  0  0  0  0
  1 11  1  0  0  0  0
  3 13  1  1  0  0  0
  3 17  2  0  0  0  0
  3 20  1  0  0  0  0
  3 26  1  0  0  0  0
  4 14  1  1  0  0  0
  4 18  1  0  0  0  0
  4 21  2  0  0  0  0
  4 20  1  0  0  0  0
  5 19  1  0  0  0  0
  5  7  1  0  0  0  0
  6  7  2  0  0  0  0
  6 12  1  0  0  0  0
  7  8  1  0  0  0  0
  8  9  1  0  0  0  0
  8 10  2  0  0  0  0
 10 11  1  0  0  0  0
 11 12  2  0  0  0  0
 15 23  1  0  0  0  0
 15 16  1  0  0  0  0
 16 19  1  0  0  0  0
 19 22  1  0  0  0  0
 22  2  1  6  0  0  0
 22 23  1  0  0  0  0
 23 24  1  6  0  0  0
 24 25  1  0  0  0  0
 25 26  1  0  0  0  0
M  CHG  2  13  -1  18  -1
M  END
>  <CHROM.1>
162.01542259,-96.79596057,-24.20087628,-77.20588588,109.11044942,-176.67997690
178.47306575,123.84361553,-4.32130340,-40.10596670,11.50376411,-0.90497953
-0.44613798,-2.86250897

>  <Name>
ligand

>  <RI>
0

>  <Rbt.Current_Directory>
/home/itssahil/PROJECTS/Mol_Feturizer/New_Systems/rnas/3D2G

>  <Rbt.Executable>
rbdock ($Id: //depot/dev/client3/rdock/2013.1/src/exe/rbdock.cxx#4 $)

>  <Rbt.Library>
libRbt.so (2013.1, Build901 2013/11/27)

>  <Rbt.Parameter_File>
/export/apps/rDock/src/rDock_2013.1_src/data/scripts/dock_solv.prm

>  <Rbt.Receptor>
prm/blind_docking_60.prm

>  <SCORE>
-23.5568

>  <SCORE.INTER>
-20.9834

>  <SCORE.INTER.CONST>
1

>  <SCORE.INTER.POLAR>
0

>  <SCORE.INTER.ROT>
8

>  <SCORE.INTER.SOLV>
17.2678

>  <SCORE.INTER.VDW>
-28.6782

>  <SCORE.INTER.norm>
-0.807054

>  <SCORE.INTRA>
-2.5734

>  <SCORE.INTRA.DIHEDRAL>
-1.3109

>  <SCORE.INTRA.DIHEDRAL.0>
9.09364

>  <SCORE.INTRA.POLAR>
0

>  <SCORE.INTRA.POLAR.0>
0

>  <SCORE.INTRA.REPUL>
0

>  <SCORE.INTRA.REPUL.0>
0

>  <SCORE.INTRA.SOLV>
-2.80555

>  <SCORE.INTRA.SOLV.lig_0>
-78.5846

>  <SCORE.INTRA.VDW>
-0.515172

>  <SCORE.INTRA.VDW.0>
-2.81163

>  <SCORE.INTRA.norm>
-0.0989768

>  <SCORE.RESTR>
0

>  <SCORE.RESTR.CAVITY>
0

>  <SCORE.RESTR.norm>
0

>  <SCORE.SYSTEM>
0

>  <SCORE.SYSTEM.CONST>
0

>  <SCORE.SYSTEM.DIHEDRAL>
0

>  <SCORE.SYSTEM.SOLV>
0

>  <SCORE.SYSTEM.norm>
0

>  <SCORE.heavy>
26

>  <SCORE.norm>
-0.906031

>  <RMSD>
9.256

$$$$
ligand
 OpenBabel11021811463D
libRbt.so/2013.1/901 2013/11/27
 26 27  0  0  0  0  0  0  0  0999 V2000
   -8.0981  -39.2200    7.7883 C   0  0  0  0  0  0  0  0  0  0  0  0
   -3.4398  -37.9274   13.2033 C   0  0  0  0  0  0  0  0  0  0  0  0
   -4.4261  -33.9473   12.8580 P   0  0  1  0  0  0  0  0  0  0  0  0
   -6.5440  -35.4691   11.9969 P   0  0  2  0  0  0  0  0  0  0  0  0
   -3.5294  -40.2416   11.1083 C   0  0  0  0  0  0  0  0  0  0  0  0
   -5.5604  -38.8772   10.5199 C   0  0  0  0  0  0  0  0  0  0  0  0
   -4.7390  -39.9757   10.2489 C   0  0  0  0  0  0  0  0  0  0  0  0
   -5.0091  -40.8103    9.1609 C   0  0  0  0  0  0  0  0  0  0  0  0
   -4.2225  -41.8336    8.9016 N   0  0  0  0  0  0  0  0  0  0  0  0
   -6.1153  -40.5757    8.3811 N   0  0  0  0  0  0  0  0  0  0  0  0
   -6.9124  -39.4803    8.6477 C   0  0  0  0  0  0  0  0  0  0  0  0
   -6.6521  -38.6417    9.7152 N   0  0  0  0  0  0  0  0  0  0  0  0
   -4.5233  -33.1752   11.5777 O   0  5  0  0  0  0  0  0  0  0  0  0
   -6.8404  -36.8948   12.2446 O   0  0  0  0  0  0  0  0  0  0  0  0
   -0.9099  -37.5942   10.2358 S   0  0  0  0  0  0  0  0  0  0  0  0
   -1.7423  -38.9273   10.0558 C   0  0  0  0  0  0  0  0  0  0  0  0
   -5.0543  -33.3120   14.0476 O   0  0  0  0  0  0  0  0  0  0  0  0
   -6.7130  -35.1013   10.5783 O   0  5  0  0  0  0  0  0  0  0  0  0
   -2.6614  -39.0979   11.0530 N   0  0  0  0  0  0  0  0  0  0  0  0
   -5.0361  -35.3560   12.4727 O   0  0  0  0  0  0  0  0  0  0  0  0
   -7.3779  -34.4602   12.7179 O   0  0  0  0  0  0  0  0  0  0  0  0
   -2.6050  -38.0857   11.9692 C   0  0  1  0  0  0  0  0  0  0  0  0
   -1.6440  -37.1797   11.5967 C   0  0  2  0  0  0  0  0  0  0  0  0
   -1.1942  -35.8925   12.2420 C   0  0  0  0  0  0  0  0  0  0  0  0
   -2.1578  -34.7365   11.9505 C   0  0  0  0  0  0  0  0  0  0  0  0
   -2.8752  -34.1733   13.0336 O   0  0  0  0  0  0  0  0  0  0  0  0
  1 11  1  0  0  0  0
  3 13  1  6  0  0  0
  3 17  2  0  0  0  0
  3 20  1  0  0  0  0
  3 26  1  0  0  0  0
  4 14  1  1  0  0  0
  4 18  1  0  0  0  0
  4 21  2  0  0  0  0
  4 20  1  0  0  0  0
  5 19  1  0  0  0  0
  5  7  1  0  0  0  0
  6  7  2  0  0  0  0
  6 12  1  0  0  0  0
  7  8  1  0  0  0  0
  8  9  1  0  0  0  0
  8 10  2  0  0  0  0
 10 11  1  0  0  0  0
 11 12  2  0  0  0  0
 15 23  1  0  0  0  0
 15 16  1  0  0  0  0
 16 19  1  0  0  0  0
 19 22  1  0  0  0  0
 22  2  1  6  0  0  0
 22 23  1  0  0  0  0
 23 24  1  6  0  0  0
 24 25  1  0  0  0  0
 25 26  1  0  0  0  0
M  CHG  2  13  -1  18  -1
M  END
>  <CHROM.1>
-62.01888739,-84.95961704,-58.86546747,-159.25589334,100.70874311,114.46609020
-132.46861568,-52.27680909,-4.46558714,-37.00121070,11.22665985,1.62840087
0.15086994,-2.62665999

>  <Name>
ligand

>  <RI>
0

>  <Rbt.Current_Directory>
/home/itssahil/PROJECTS/Mol_Feturizer/New_Systems/rnas/3D2G

>  <Rbt.Executable>
rbdock ($Id: //depot/dev/client3/rdock/2013.1/src/exe/rbdock.cxx#4 $)

>  <Rbt.Library>
libRbt.so (2013.1, Build901 2013/11/27)

>  <Rbt.Parameter_File>
/export/apps/rDock/src/rDock_2013.1_src/data/scripts/dock_solv.prm

>  <Rbt.Receptor>
prm/blind_docking_80.prm

>  <SCORE>
-13.9559

>  <SCORE.INTER>
-16.1134

>  <SCORE.INTER.CONST>
1

>  <SCORE.INTER.POLAR>
0

>  <SCORE.INTER.ROT>
8

>  <SCORE.INTER.SOLV>
13.1301

>  <SCORE.INTER.VDW>
-24.0523

>  <SCORE.INTER.norm>
-0.619744

>  <SCORE.INTRA>
2.15741

>  <SCORE.INTRA.DIHEDRAL>
8.34632

>  <SCORE.INTRA.DIHEDRAL.0>
9.09364

>  <SCORE.INTRA.POLAR>
0

>  <SCORE.INTRA.POLAR.0>
0

>  <SCORE.INTRA.REPUL>
0

>  <SCORE.INTRA.REPUL.0>
0

>  <SCORE.INTRA.SOLV>
0.404336

>  <SCORE.INTRA.SOLV.lig_0>
-78.5846

>  <SCORE.INTRA.VDW>
-2.21792

>  <SCORE.INTRA.VDW.0>
-2.81163

>  <SCORE.INTRA.norm>
0.0829774

>  <SCORE.RESTR>
0

>  <SCORE.RESTR.CAVITY>
0

>  <SCORE.RESTR.norm>
0

>  <SCORE.SYSTEM>
0

>  <SCORE.SYSTEM.CONST>
0

>  <SCORE.SYSTEM.DIHEDRAL>
0

>  <SCORE.SYSTEM.SOLV>
0

>  <SCORE.SYSTEM.norm>
0

>  <SCORE.heavy>
26

>  <SCORE.norm>
-0.536767

>  <RMSD>
9.257

$$$$
ligand
 OpenBabel11021811463D
libRbt.so/2013.1/901 2013/11/27
 26 27  0  0  0  0  0  0  0  0999 V2000
   -0.1943  -32.7624    8.0941 C   0  0  0  0  0  0  0  0  0  0  0  0
   -2.9908  -37.6079   13.2618 C   0  0  0  0  0  0  0  0  0  0  0  0
   -4.3967  -41.8924   10.4076 P   0  0  1  0  0  0  0  0  0  0  0  0
   -4.8700  -43.4242   12.6375 P   0  0  2  0  0  0  0  0  0  0  0  0
   -2.9123  -34.5153   12.8353 C   0  0  0  0  0  0  0  0  0  0  0  0
   -2.8523  -33.1914   10.6959 C   0  0  0  0  0  0  0  0  0  0  0  0
   -2.2095  -34.0622   11.5810 C   0  0  0  0  0  0  0  0  0  0  0  0
   -0.9019  -34.4875   11.3311 C   0  0  0  0  0  0  0  0  0  0  0  0
   -0.2964  -35.2947   12.1766 N   0  0  0  0  0  0  0  0  0  0  0  0
   -0.2618  -34.0833   10.1849 N   0  0  0  0  0  0  0  0  0  0  0  0
   -0.8993  -33.2120    9.3241 C   0  0  0  0  0  0  0  0  0  0  0  0
   -2.1892  -32.7767    9.5632 N   0  0  0  0  0  0  0  0  0  0  0  0
   -3.2069  -41.0978    9.9632 O   0  5  0  0  0  0  0  0  0  0  0  0
   -5.5106  -42.3192   13.3795 O   0  0  0  0  0  0  0  0  0  0  0  0
   -6.1881  -36.0667   11.6128 S   0  0  0  0  0  0  0  0  0  0  0  0
   -5.1514  -34.9088   11.9076 C   0  0  0  0  0  0  0  0  0  0  0  0
   -5.0028  -42.7820    9.3806 O   0  0  0  0  0  0  0  0  0  0  0  0
   -4.1808  -44.3730   13.5326 O   0  5  0  0  0  0  0  0  0  0  0  0
   -3.9989  -35.3816   12.4701 N   0  0  0  0  0  0  0  0  0  0  0  0
   -3.8621  -42.6483   11.6914 O   0  0  0  0  0  0  0  0  0  0  0  0
   -5.7568  -44.3039   11.8173 O   0  0  0  0  0  0  0  0  0  0  0  0
   -4.0495  -36.7336   12.6623 C   0  0  1  0  0  0  0  0  0  0  0  0
   -5.2498  -37.2192   12.2079 C   0  0  2  0  0  0  0  0  0  0  0  0
   -5.7999  -38.6234   12.1730 C   0  0  0  0  0  0  0  0  0  0  0  0
   -4.8563  -39.5922   11.4514 C   0  0  0  0  0  0  0  0  0  0  0  0
   -5.3983  -40.7922   10.9308 O   0  0  0  0  0  0  0  0  0  0  0  0
  1 11  1  0  0  0  0
  3 13  1  6  0  0  0
  3 17  2  0  0  0  0
  3 20  1  0  0  0  0
  3 26  1  0  0  0  0
  4 14  1  1  0  0  0
  4 18  1  0  0  0  0
  4 21  2  0  0  0  0
  4 20  1  0  0  0  0
  5 19  1  0  0  0  0
  5  7  1  0  0  0  0
  6  7  2  0  0  0  0
  6 12  1  0  0  0  0
  7  8  1  0  0  0  0
  8  9  1  0  0  0  0
  8 10  2  0  0  0  0
 10 11  1  0  0  0  0
 11 12  2  0  0  0  0
 15 23  1  0  0  0  0
 15 16  1  0  0  0  0
 16 19  1  0  0  0  0
 19 22  1  0  0  0  0
 22  2  1  6  0  0  0
 22 23  1  0  0  0  0
 23 24  1  6  0  0  0
 24 25  1  0  0  0  0
 25 26  1  0  0  0  0
M  CHG  2  13  -1  18  -1
M  END
>  <CHROM.1>
169.56995062,-73.65654671,68.98300343,-76.19530935,124.79194933,-158.45288608
-169.92537524,-28.56498198,-3.82728116,-38.41157243,11.44962258,-1.20174411
-0.59364522,-3.05363355

>  <Name>
ligand

>  <RI>
0

>  <Rbt.Current_Directory>
/home/itssahil/PROJECTS/Mol_Feturizer/New_Systems/rnas/3D2G

>  <Rbt.Executable>
rbdock ($Id: //depot/dev/client3/rdock/2013.1/src/exe/rbdock.cxx#4 $)

>  <Rbt.Library>
libRbt.so (2013.1, Build901 2013/11/27)

>  <Rbt.Parameter_File>
/export/apps/rDock/src/rDock_2013.1_src/data/scripts/dock_solv.prm

>  <Rbt.Receptor>
prm/blind_docking_100.prm

>  <SCORE>
-14.5015

>  <SCORE.INTER>
-13.3179

>  <SCORE.INTER.CONST>
1

>  <SCORE.INTER.POLAR>
0

>  <SCORE.INTER.ROT>
8

>  <SCORE.INTER.SOLV>
18.9043

>  <SCORE.INTER.VDW>
-24.1133

>  <SCORE.INTER.norm>
-0.512226

>  <SCORE.INTRA>
-1.18362

>  <SCORE.INTRA.DIHEDRAL>
-1.036

>  <SCORE.INTRA.DIHEDRAL.0>
9.09364

>  <SCORE.INTRA.POLAR>
0

>  <SCORE.INTRA.POLAR.0>
0

>  <SCORE.INTRA.REPUL>
0

>  <SCORE.INTRA.REPUL.0>
0

>  <SCORE.INTRA.SOLV>
-1.78362

>  <SCORE.INTRA.SOLV.lig_0>
-78.5846

>  <SCORE.INTRA.VDW>
0.226188

>  <SCORE.INTRA.VDW.0>
-2.81163

>  <SCORE.INTRA.norm>
-0.0455239

>  <SCORE.RESTR>
0

>  <SCORE.RESTR.CAVITY>
0

>  <SCORE.RESTR.norm>
0

>  <SCORE.SYSTEM>
0

>  <SCORE.SYSTEM.CONST>
0

>  <SCORE.SYSTEM.DIHEDRAL>
0

>  <SCORE.SYSTEM.SOLV>
0

>  <SCORE.SYSTEM.norm>
0

>  <SCORE.heavy>
26

>  <SCORE.norm>
-0.55775

>  <RMSD>
9.282

$$$$
ligand
 OpenBabel11021811463D
libRbt.so/2013.1/901 2013/11/27
 26 27  0  0  0  0  0  0  0  0999 V2000
   -7.8351  -35.5600   12.3290 C   0  0  0  0  0  0  0  0  0  0  0  0
   -1.0659  -35.8972   12.3237 C   0  0  0  0  0  0  0  0  0  0  0  0
   -0.6942  -40.2940    9.1731 P   0  0  1  0  0  0  0  0  0  0  0  0
   -0.7902  -42.3574   10.9831 P   0  0  2  0  0  0  0  0  0  0  0  0
   -2.6116  -33.1919   12.1129 C   0  0  0  0  0  0  0  0  0  0  0  0
   -4.3278  -34.8173   11.2492 C   0  0  0  0  0  0  0  0  0  0  0  0
   -3.9867  -33.8083   12.1550 C   0  0  0  0  0  0  0  0  0  0  0  0
   -4.9000  -33.3914   13.1272 C   0  0  0  0  0  0  0  0  0  0  0  0
   -4.5670  -32.4520   13.9873 N   0  0  0  0  0  0  0  0  0  0  0  0
   -6.1566  -33.9449   13.1627 N   0  0  0  0  0  0  0  0  0  0  0  0
   -6.4794  -34.9507   12.2736 C   0  0  0  0  0  0  0  0  0  0  0  0
   -5.5830  -35.3787   11.3124 N   0  0  0  0  0  0  0  0  0  0  0  0
   -0.0365  -41.1685    8.1498 O   0  5  0  0  0  0  0  0  0  0  0  0
   -2.1718  -42.0342   11.3938 O   0  0  0  0  0  0  0  0  0  0  0  0
   -0.8958  -34.1432    8.8291 S   0  0  0  0  0  0  0  0  0  0  0  0
   -1.7731  -33.2610    9.8061 C   0  0  0  0  0  0  0  0  0  0  0  0
   -2.1666  -40.1304    9.0364 O   0  0  0  0  0  0  0  0  0  0  0  0
   -0.0048  -42.9509   12.0819 O   0  5  0  0  0  0  0  0  0  0  0  0
   -1.8597  -33.8089   11.0553 N   0  0  0  0  0  0  0  0  0  0  0  0
   -0.2344  -40.9395   10.5432 O   0  0  0  0  0  0  0  0  0  0  0  0
   -0.6180  -43.3358    9.8667 O   0  0  0  0  0  0  0  0  0  0  0  0
   -1.1895  -34.9973   11.1322 C   0  0  1  0  0  0  0  0  0  0  0  0
   -0.6062  -35.2767    9.9219 C   0  0  2  0  0  0  0  0  0  0  0  0
    0.2453  -36.4404    9.4788 C   0  0  0  0  0  0  0  0  0  0  0  0
   -0.4796  -37.7803    9.6492 C   0  0  0  0  0  0  0  0  0  0  0  0
    0.0865  -38.9296    9.0464 O   0  0  0  0  0  0  0  0  0  0  0  0
  1 11  1  0  0  0  0
  3 13  1  6  0  0  0
  3 17  2  0  0  0  0
  3 20  1  0  0  0  0
  3 26  1  0  0  0  0
  4 14  1  1  0  0  0
  4 18  1  0  0  0  0
  4 21  2  0  0  0  0
  4 20  1  0  0  0  0
  5 19  1  0  0  0  0
  5  7  1  0  0  0  0
  6  7  2  0  0  0  0
  6 12  1  0  0  0  0
  7  8  1  0  0  0  0
  8  9  1  0  0  0  0
  8 10  2  0  0  0  0
 10 11  1  0  0  0  0
 11 12  2  0  0  0  0
 15 23  1  0  0  0  0
 15 16  1  0  0  0  0
 16 19  1  0  0  0  0
 19 22  1  0  0  0  0
 22  2  1  1  0  0  0
 22 23  1  0  0  0  0
 23 24  1  1  0  0  0
 24 25  1  0  0  0  0
 25 26  1  0  0  0  0
M  CHG  2  13  -1  18  -1
M  END
>  <CHROM.1>
-69.69685012,95.38742517,0.36737360,-74.51100543,-122.17552001,168.23075230
-177.47461343,165.41521791,-2.06721104,-37.42933861,10.73148289,2.08138708
0.57064324,-0.06321828

>  <Name>
ligand

>  <RI>
0

>  <Rbt.Current_Directory>
/home/itssahil/PROJECTS/Mol_Feturizer/New_Systems/rnas/3D2G

>  <Rbt.Executable>
rbdock ($Id: //depot/dev/client3/rdock/2013.1/src/exe/rbdock.cxx#4 $)

>  <Rbt.Library>
libRbt.so (2013.1, Build901 2013/11/27)

>  <Rbt.Parameter_File>
/export/apps/rDock/src/rDock_2013.1_src/data/scripts/dock_solv.prm

>  <Rbt.Receptor>
prm/blind_docking_100.prm

>  <SCORE>
-18.7691

>  <SCORE.INTER>
-16.0858

>  <SCORE.INTER.CONST>
1

>  <SCORE.INTER.POLAR>
0

>  <SCORE.INTER.ROT>
8

>  <SCORE.INTER.SOLV>
25.1515

>  <SCORE.INTER.VDW>
-28.041

>  <SCORE.INTER.norm>
-0.618685

>  <SCORE.INTRA>
-2.69457

>  <SCORE.INTRA.DIHEDRAL>
-3.07686

>  <SCORE.INTRA.DIHEDRAL.0>
9.09364

>  <SCORE.INTRA.POLAR>
0

>  <SCORE.INTRA.POLAR.0>
0

>  <SCORE.INTRA.REPUL>
0

>  <SCORE.INTRA.REPUL.0>
0

>  <SCORE.INTRA.SOLV>
-2.04386

>  <SCORE.INTRA.SOLV.lig_0>
-78.5846

>  <SCORE.INTRA.VDW>
-0.134207

>  <SCORE.INTRA.VDW.0>
-2.81163

>  <SCORE.INTRA.norm>
-0.103637

>  <SCORE.RESTR>
0.0112545

>  <SCORE.RESTR.CAVITY>
0.0112545

>  <SCORE.RESTR.norm>
0.000432865

>  <SCORE.SYSTEM>
0

>  <SCORE.SYSTEM.CONST>
0

>  <SCORE.SYSTEM.DIHEDRAL>
0

>  <SCORE.SYSTEM.SOLV>
0

>  <SCORE.SYSTEM.norm>
0

>  <SCORE.heavy>
26

>  <SCORE.norm>
-0.721889

>  <RMSD>
9.286

$$$$
ligand
 OpenBabel11021811463D
libRbt.so/2013.1/901 2013/11/27
 26 27  0  0  0  0  0  0  0  0999 V2000
   -0.5099  -33.1996    8.2534 C   0  0  0  0  0  0  0  0  0  0  0  0
   -3.4199  -37.8912   14.9280 C   0  0  0  0  0  0  0  0  0  0  0  0
   -4.1788  -43.3754   11.7206 P   0  0  1  0  0  0  0  0  0  0  0  0
   -1.5737  -42.6099   11.3081 P   0  0  2  0  0  0  0  0  0  0  0  0
   -1.5773  -36.3744   12.9140 C   0  0  0  0  0  0  0  0  0  0  0  0
   -0.1864  -35.8431   10.8851 C   0  0  0  0  0  0  0  0  0  0  0  0
   -1.2830  -35.5359   11.6962 C   0  0  0  0  0  0  0  0  0  0  0  0
   -2.1338  -34.4777   11.3654 C   0  0  0  0  0  0  0  0  0  0  0  0
   -3.1738  -34.2036   12.1245 N   0  0  0  0  0  0  0  0  0  0  0  0
   -1.8635  -33.7065   10.2613 N   0  0  0  0  0  0  0  0  0  0  0  0
   -0.7867  -34.0264    9.4584 C   0  0  0  0  0  0  0  0  0  0  0  0
    0.0580  -35.0754    9.7690 N   0  0  0  0  0  0  0  0  0  0  0  0
   -4.1569  -43.6309   10.2445 O   0  5  0  0  0  0  0  0  0  0  0  0
   -0.3314  -42.8976   12.0537 O   0  0  0  0  0  0  0  0  0  0  0  0
   -3.9223  -38.8381   11.1639 S   0  0  0  0  0  0  0  0  0  0  0  0
   -2.7943  -37.7344   11.2713 C   0  0  0  0  0  0  0  0  0  0  0  0
   -5.0622  -44.2665   12.5199 O   0  0  0  0  0  0  0  0  0  0  0  0
   -1.8892  -41.1690   11.2824 O   0  5  0  0  0  0  0  0  0  0  0  0
   -2.5543  -37.3689   12.5663 N   0  0  0  0  0  0  0  0  0  0  0  0
   -2.6485  -43.4473   12.1183 O   0  0  0  0  0  0  0  0  0  0  0  0
   -1.6132  -42.9988    9.8658 O   0  0  0  0  0  0  0  0  0  0  0  0
   -3.3739  -38.0304   13.4370 C   0  0  1  0  0  0  0  0  0  0  0  0
   -4.1879  -38.8891   12.7418 C   0  0  2  0  0  0  0  0  0  0  0  0
   -5.2502  -39.8487   13.2174 C   0  0  0  0  0  0  0  0  0  0  0  0
   -4.7938  -41.3083   13.1137 C   0  0  0  0  0  0  0  0  0  0  0  0
   -4.5887  -41.8560   11.8242 O   0  0  0  0  0  0  0  0  0  0  0  0
  1 11  1  0  0  0  0
  3 13  1  6  0  0  0
  3 17  2  0  0  0  0
  3 20  1  0  0  0  0
  3 26  1  0  0  0  0
  4 14  1  1  0  0  0
  4 18  1  0  0  0  0
  4 21  2  0  0  0  0
  4 20  1  0  0  0  0
  5 19  1  0  0  0  0
  5  7  1  0  0  0  0
  6  7  2  0  0  0  0
  6 12  1  0  0  0  0
  7  8  1  0  0  0  0
  8  9  1  0  0  0  0
  8 10  2  0  0  0  0
 10 11  1  0  0  0  0
 11 12  2  0  0  0  0
 15 23  1  0  0  0  0
 15 16  1  0  0  0  0
 16 19  1  0  0  0  0
 19 22  1  0  0  0  0
 22  2  1  1  0  0  0
 22 23  1  0  0  0  0
 23 24  1  1  0  0  0
 24 25  1  0  0  0  0
 25 26  1  0  0  0  0
M  CHG  2  13  -1  18  -1
M  END
>  <CHROM.1>
50.37335920,19.55401252,-95.58315172,176.48781659,72.18845060,-66.91071069
-177.44038070,175.67915802,-2.70953996,-39.33728257,11.58677163,-1.26875547
-0.71606771,-3.05713777

>  <Name>
ligand

>  <RI>
0

>  <Rbt.Current_Directory>
/home/itssahil/PROJECTS/Mol_Feturizer/New_Systems/rnas/3D2G

>  <Rbt.Executable>
rbdock ($Id: //depot/dev/client3/rdock/2013.1/src/exe/rbdock.cxx#4 $)

>  <Rbt.Library>
libRbt.so (2013.1, Build901 2013/11/27)

>  <Rbt.Parameter_File>
/export/apps/rDock/src/rDock_2013.1_src/data/scripts/dock_solv.prm

>  <Rbt.Receptor>
prm/blind_docking_60.prm

>  <SCORE>
-16.6

>  <SCORE.INTER>
-14.38

>  <SCORE.INTER.CONST>
1

>  <SCORE.INTER.POLAR>
0

>  <SCORE.INTER.ROT>
8

>  <SCORE.INTER.SOLV>
13.0283

>  <SCORE.INTER.VDW>
-22.8628

>  <SCORE.INTER.norm>
-0.553078

>  <SCORE.INTRA>
-2.21995

>  <SCORE.INTRA.DIHEDRAL>
-3.54368

>  <SCORE.INTRA.DIHEDRAL.0>
9.09364

>  <SCORE.INTRA.POLAR>
0

>  <SCORE.INTRA.POLAR.0>
0

>  <SCORE.INTRA.REPUL>
0

>  <SCORE.INTRA.REPUL.0>
0

>  <SCORE.INTRA.SOLV>
1.38714

>  <SCORE.INTRA.SOLV.lig_0>
-78.5846

>  <SCORE.INTRA.VDW>
-1.14167

>  <SCORE.INTRA.VDW.0>
-2.81163

>  <SCORE.INTRA.norm>
-0.0853825

>  <SCORE.RESTR>
0

>  <SCORE.RESTR.CAVITY>
0

>  <SCORE.RESTR.norm>
0

>  <SCORE.SYSTEM>
0

>  <SCORE.SYSTEM.CONST>
0

>  <SCORE.SYSTEM.DIHEDRAL>
0

>  <SCORE.SYSTEM.SOLV>
0

>  <SCORE.SYSTEM.norm>
0

>  <SCORE.heavy>
26

>  <SCORE.norm>
-0.638461

>  <RMSD>
9.292

$$$$
ligand
 OpenBabel11021811463D
libRbt.so/2013.1/901 2013/11/27
 26 27  0  0  0  0  0  0  0  0999 V2000
   -5.0011  -31.9041   11.4919 C   0  0  0  0  0  0  0  0  0  0  0  0
   -2.8853  -38.1723   12.2440 C   0  0  0  0  0  0  0  0  0  0  0  0
   -2.5142  -43.3319   10.9799 P   0  0  1  0  0  0  0  0  0  0  0  0
   -4.8776  -42.6237   12.1864 P   0  0  2  0  0  0  0  0  0  0  0  0
   -0.9278  -35.7749   12.6599 C   0  0  0  0  0  0  0  0  0  0  0  0
   -1.7772  -33.8025   11.3478 C   0  0  0  0  0  0  0  0  0  0  0  0
   -1.9877  -34.7464   12.3575 C   0  0  0  0  0  0  0  0  0  0  0  0
   -3.1923  -34.7687   13.0657 C   0  0  0  0  0  0  0  0  0  0  0  0
   -3.3907  -35.6702   14.0043 N   0  0  0  0  0  0  0  0  0  0  0  0
   -4.1567  -33.8277   12.7985 N   0  0  0  0  0  0  0  0  0  0  0  0
   -3.9456  -32.9087   11.7899 C   0  0  0  0  0  0  0  0  0  0  0  0
   -2.7625  -32.8806   11.0759 N   0  0  0  0  0  0  0  0  0  0  0  0
   -1.1063  -43.4432   11.4798 O   0  5  0  0  0  0  0  0  0  0  0  0
   -5.0086  -41.6687   11.0671 O   0  0  0  0  0  0  0  0  0  0  0  0
   -0.1142  -37.7834    9.5077 S   0  0  0  0  0  0  0  0  0  0  0  0
    0.0537  -36.6310   10.5783 C   0  0  0  0  0  0  0  0  0  0  0  0
   -3.0749  -44.5540   10.3432 O   0  0  0  0  0  0  0  0  0  0  0  0
   -5.4270  -42.0872   13.4461 O   0  5  0  0  0  0  0  0  0  0  0  0
   -0.8754  -36.7180   11.5771 N   0  0  0  0  0  0  0  0  0  0  0  0
   -3.3087  -42.8390   12.2571 O   0  0  0  0  0  0  0  0  0  0  0  0
   -5.5626  -43.9442   12.0446 O   0  0  0  0  0  0  0  0  0  0  0  0
   -1.7329  -37.7632   11.3784 C   0  0  1  0  0  0  0  0  0  0  0  0
   -1.3861  -38.4323   10.2316 C   0  0  2  0  0  0  0  0  0  0  0  0
   -1.9893  -39.6491    9.5749 C   0  0  0  0  0  0  0  0  0  0  0  0
   -1.9267  -40.8824   10.4831 C   0  0  0  0  0  0  0  0  0  0  0  0
   -2.4579  -42.1010    9.9955 O   0  0  0  0  0  0  0  0  0  0  0  0
  1 11  1  0  0  0  0
  3 13  1  1  0  0  0
  3 17  2  0  0  0  0
  3 20  1  0  0  0  0
  3 26  1  0  0  0  0
  4 14  1  6  0  0  0
  4 18  1  0  0  0  0
  4 21  2  0  0  0  0
  4 20  1  0  0  0  0
  5 19  1  0  0  0  0
  5  7  1  0  0  0  0
  6  7  2  0  0  0  0
  6 12  1  0  0  0  0
  7  8  1  0  0  0  0
  8  9  1  0  0  0  0
  8 10  2  0  0  0  0
 10 11  1  0  0  0  0
 11 12  2  0  0  0  0
 15 23  1  0  0  0  0
 15 16  1  0  0  0  0
 16 19  1  0  0  0  0
 19 22  1  0  0  0  0
 22  2  1  1  0  0  0
 22 23  1  0  0  0  0
 23 24  1  1  0  0  0
 24 25  1  0  0  0  0
 25 26  1  0  0  0  0
M  CHG  2  13  -1  18  -1
M  END
>  <CHROM.1>
-178.29519560,98.32703033,-70.95422299,-56.13002228,118.35946521,179.99998340
-174.39501915,-53.30411075,-2.77028470,-38.99127667,11.45428225,1.45959853
0.51650051,0.10103661

>  <Name>
ligand

>  <RI>
0

>  <Rbt.Current_Directory>
/home/itssahil/PROJECTS/Mol_Feturizer/New_Systems/rnas/3D2G

>  <Rbt.Executable>
rbdock ($Id: //depot/dev/client3/rdock/2013.1/src/exe/rbdock.cxx#4 $)

>  <Rbt.Library>
libRbt.so (2013.1, Build901 2013/11/27)

>  <Rbt.Parameter_File>
/export/apps/rDock/src/rDock_2013.1_src/data/scripts/dock_solv.prm

>  <Rbt.Receptor>
prm/blind_docking_80.prm

>  <SCORE>
-13.7268

>  <SCORE.INTER>
-10.1745

>  <SCORE.INTER.CONST>
1

>  <SCORE.INTER.POLAR>
0

>  <SCORE.INTER.ROT>
8

>  <SCORE.INTER.SOLV>
21.0712

>  <SCORE.INTER.VDW>
-22.7401

>  <SCORE.INTER.norm>
-0.391325

>  <SCORE.INTRA>
-3.55642

>  <SCORE.INTRA.DIHEDRAL>
-4.25666

>  <SCORE.INTRA.DIHEDRAL.0>
9.09364

>  <SCORE.INTRA.POLAR>
0

>  <SCORE.INTRA.POLAR.0>
0

>  <SCORE.INTRA.REPUL>
0

>  <SCORE.INTRA.REPUL.0>
0

>  <SCORE.INTRA.SOLV>
-1.18682

>  <SCORE.INTRA.SOLV.lig_0>
-78.5846

>  <SCORE.INTRA.VDW>
-0.834683

>  <SCORE.INTRA.VDW.0>
-2.81163

>  <SCORE.INTRA.norm>
-0.136785

>  <SCORE.RESTR>
0.00410252

>  <SCORE.RESTR.CAVITY>
0.00410252

>  <SCORE.RESTR.norm>
0.000157789

>  <SCORE.SYSTEM>
0

>  <SCORE.SYSTEM.CONST>
0

>  <SCORE.SYSTEM.DIHEDRAL>
0

>  <SCORE.SYSTEM.SOLV>
0

>  <SCORE.SYSTEM.norm>
0

>  <SCORE.heavy>
26

>  <SCORE.norm>
-0.527953

>  <RMSD>
9.292

$$$$
ligand
 OpenBabel11021811463D
libRbt.so/2013.1/901 2013/11/27
 26 27  0  0  0  0  0  0  0  0999 V2000
   -0.7695  -33.3779    8.6283 C   0  0  0  0  0  0  0  0  0  0  0  0
   -5.3870  -38.6909   11.4778 C   0  0  0  0  0  0  0  0  0  0  0  0
   -6.5728  -38.5422    6.0333 P   0  0  1  0  0  0  0  0  0  0  0  0
   -7.7568  -36.2735    7.0304 P   0  0  2  0  0  0  0  0  0  0  0  0
   -2.3428  -38.0108   11.6284 C   0  0  0  0  0  0  0  0  0  0  0  0
   -0.9408  -36.9130    9.8501 C   0  0  0  0  0  0  0  0  0  0  0  0
   -1.9147  -36.7952   10.8463 C   0  0  0  0  0  0  0  0  0  0  0  0
   -2.5243  -35.5631   11.0982 C   0  0  0  0  0  0  0  0  0  0  0  0
   -3.4521  -35.4623   12.0266 N   0  0  0  0  0  0  0  0  0  0  0  0
   -2.1305  -34.4519   10.3933 N   0  0  0  0  0  0  0  0  0  0  0  0
   -1.1784  -34.5808    9.4016 C   0  0  0  0  0  0  0  0  0  0  0  0
   -0.5734  -35.7949    9.1362 N   0  0  0  0  0  0  0  0  0  0  0  0
   -7.9950  -38.9806    5.8615 O   0  5  0  0  0  0  0  0  0  0  0  0
   -9.0255  -36.5734    6.3359 O   0  0  0  0  0  0  0  0  0  0  0  0
   -3.1187  -40.6058    8.9273 S   0  0  0  0  0  0  0  0  0  0  0  0
   -2.2151  -39.6431    9.7985 C   0  0  0  0  0  0  0  0  0  0  0  0
   -5.6098  -39.0534    5.0211 O   0  0  0  0  0  0  0  0  0  0  0  0
   -7.5256  -34.8233    7.1710 O   0  5  0  0  0  0  0  0  0  0  0  0
   -2.9445  -38.9536   10.7263 N   0  0  0  0  0  0  0  0  0  0  0  0
   -6.6890  -36.9645    6.0841 O   0  0  0  0  0  0  0  0  0  0  0  0
   -7.6013  -36.7857    8.4256 O   0  0  0  0  0  0  0  0  0  0  0  0
   -4.2757  -39.2506   10.6432 C   0  0  1  0  0  0  0  0  0  0  0  0
   -4.4799  -40.1795    9.6540 C   0  0  2  0  0  0  0  0  0  0  0  0
   -5.7427  -40.8467    9.1683 C   0  0  0  0  0  0  0  0  0  0  0  0
   -6.1245  -40.3937    7.7546 C   0  0  0  0  0  0  0  0  0  0  0  0
   -6.2209  -39.0042    7.4996 O   0  0  0  0  0  0  0  0  0  0  0  0
  1 11  1  0  0  0  0
  3 13  1  6  0  0  0
  3 17  2  0  0  0  0
  3 20  1  0  0  0  0
  3 26  1  0  0  0  0
  4 14  1  6  0  0  0
  4 18  1  0  0  0  0
  4 21  2  0  0  0  0
  4 20  1  0  0  0  0
  5 19  1  0  0  0  0
  5  7  1  0  0  0  0
  6  7  2  0  0  0  0
  6 12  1  0  0  0  0
  7  8  1  0  0  0  0
  8  9  1  0  0  0  0
  8 10  2  0  0  0  0
 10 11  1  0  0  0  0
 11 12  2  0  0  0  0
 15 23  1  0  0  0  0
 15 16  1  0  0  0  0
 16 19  1  0  0  0  0
 19 22  1  0  0  0  0
 22  2  1  1  0  0  0
 22 23  1  0  0  0  0
 23 24  1  1  0  0  0
 24 25  1  0  0  0  0
 25 26  1  0  0  0  0
M  CHG  2  13  -1  18  -1
M  END
>  <CHROM.1>
48.58662770,70.37105852,-63.02896972,-72.10016735,-69.08273360,-52.58248450
178.25498372,68.73596462,-4.74437452,-37.66688813,8.57005795,0.13004932,-0.62527427
-0.12217663

>  <Name>
ligand

>  <RI>
0

>  <Rbt.Current_Directory>
/home/itssahil/PROJECTS/Mol_Feturizer/New_Systems/rnas/3D2G

>  <Rbt.Executable>
rbdock ($Id: //depot/dev/client3/rdock/2013.1/src/exe/rbdock.cxx#4 $)

>  <Rbt.Library>
libRbt.so (2013.1, Build901 2013/11/27)

>  <Rbt.Parameter_File>
/export/apps/rDock/src/rDock_2013.1_src/data/scripts/dock_solv.prm

>  <Rbt.Receptor>
prm/blind_docking_60.prm

>  <SCORE>
-19.7399

>  <SCORE.INTER>
-16.8984

>  <SCORE.INTER.CONST>
1

>  <SCORE.INTER.POLAR>
0

>  <SCORE.INTER.ROT>
8

>  <SCORE.INTER.SOLV>
19.4633

>  <SCORE.INTER.VDW>
-26.6867

>  <SCORE.INTER.norm>
-0.64994

>  <SCORE.INTRA>
-2.84144

>  <SCORE.INTRA.DIHEDRAL>
-3.46478

>  <SCORE.INTRA.DIHEDRAL.0>
9.09364

>  <SCORE.INTRA.POLAR>
0

>  <SCORE.INTRA.POLAR.0>
0

>  <SCORE.INTRA.REPUL>
0

>  <SCORE.INTRA.REPUL.0>
0

>  <SCORE.INTRA.SOLV>
-0.58448

>  <SCORE.INTRA.SOLV.lig_0>
-78.5846

>  <SCORE.INTRA.VDW>
-0.816809

>  <SCORE.INTRA.VDW.0>
-2.81163

>  <SCORE.INTRA.norm>
-0.109286

>  <SCORE.RESTR>
0

>  <SCORE.RESTR.CAVITY>
0

>  <SCORE.RESTR.norm>
0

>  <SCORE.SYSTEM>
0

>  <SCORE.SYSTEM.CONST>
0

>  <SCORE.SYSTEM.DIHEDRAL>
0

>  <SCORE.SYSTEM.SOLV>
0

>  <SCORE.SYSTEM.norm>
0

>  <SCORE.heavy>
26

>  <SCORE.norm>
-0.759226

>  <RMSD>
9.295

$$$$
ligand
 OpenBabel11021811463D
libRbt.so/2013.1/901 2013/11/27
 26 27  0  0  0  0  0  0  0  0999 V2000
   -0.9738  -42.5387   11.2860 C   0  0  0  0  0  0  0  0  0  0  0  0
   -6.8626  -43.0042    8.1780 C   0  0  0  0  0  0  0  0  0  0  0  0
   -7.2228  -43.9629    3.6791 P   0  0  1  0  0  0  0  0  0  0  0  0
   -7.8768  -45.3550    1.4037 P   0  0  2  0  0  0  0  0  0  0  0  0
   -6.5478  -43.8996   11.1532 C   0  0  0  0  0  0  0  0  0  0  0  0
   -4.6973  -42.1951   11.0953 C   0  0  0  0  0  0  0  0  0  0  0  0
   -5.0849  -43.5362   11.1732 C   0  0  0  0  0  0  0  0  0  0  0  0
   -4.1257  -44.5436   11.3084 C   0  0  0  0  0  0  0  0  0  0  0  0
   -4.4981  -45.8031   11.3974 N   0  0  0  0  0  0  0  0  0  0  0  0
   -2.7917  -44.2165   11.3184 N   0  0  0  0  0  0  0  0  0  0  0  0
   -2.4191  -42.8885   11.2554 C   0  0  0  0  0  0  0  0  0  0  0  0
   -3.3575  -41.8814   11.1301 N   0  0  0  0  0  0  0  0  0  0  0  0
   -6.4879  -42.6788    3.9145 O   0  5  0  0  0  0  0  0  0  0  0  0
   -9.3074  -45.0838    1.6518 O   0  0  0  0  0  0  0  0  0  0  0  0
   -7.1476  -46.8572    8.8027 S   0  0  0  0  0  0  0  0  0  0  0  0
   -6.8853  -46.1297   10.1826 C   0  0  0  0  0  0  0  0  0  0  0  0
   -8.5883  -44.0453    4.2641 O   0  0  0  0  0  0  0  0  0  0  0  0
   -7.4438  -46.6425    1.9793 O   0  5  0  0  0  0  0  0  0  0  0  0
   -6.7927  -44.7735   10.0393 N   0  0  0  0  0  0  0  0  0  0  0  0
   -7.1778  -44.1167    2.1044 O   0  0  0  0  0  0  0  0  0  0  0  0
   -7.4332  -45.4458   -0.0204 O   0  0  0  0  0  0  0  0  0  0  0  0
   -6.9204  -44.3948    8.7325 C   0  0  1  0  0  0  0  0  0  0  0  0
   -7.1266  -45.5028    7.9495 C   0  0  2  0  0  0  0  0  0  0  0  0
   -7.3400  -45.6378    6.4623 C   0  0  0  0  0  0  0  0  0  0  0  0
   -6.1210  -45.1654    5.6619 C   0  0  0  0  0  0  0  0  0  0  0  0
   -6.2441  -45.0570    4.2555 O   0  0  0  0  0  0  0  0  0  0  0  0
  1 11  1  0  0  0  0
  3 13  1  1  0  0  0
  3 17  2  0  0  0  0
  3 20  1  0  0  0  0
  3 26  1  0  0  0  0
  4 14  1  1  0  0  0
  4 18  1  0  0  0  0
  4 21  2  0  0  0  0
  4 20  1  0  0  0  0
  5 19  1  0  0  0  0
  5  7  1  0  0  0  0
  6  7  2  0  0  0  0
  6 12  1  0  0  0  0
  7  8  1  0  0  0  0
  8  9  1  0  0  0  0
  8 10  2  0  0  0  0
 10 11  1  0  0  0  0
 11 12  2  0  0  0  0
 15 23  1  0  0  0  0
 15 16  1  0  0  0  0
 16 19  1  0  0  0  0
 19 22  1  0  0  0  0
 22  2  1  1  0  0  0
 22 23  1  0  0  0  0
 23 24  1  1  0  0  0
 24 25  1  0  0  0  0
 25 26  1  0  0  0  0
M  CHG  2  13  -1  18  -1
M  END
>  <CHROM.1>
-178.88694719,99.45549408,121.33331658,67.90573089,-117.41321253,-171.30085312
66.40814907,73.58443967,-6.28803060,-44.56963305,6.75420539,-1.04755650,-0.76038761
-1.32029596

>  <Name>
ligand

>  <RI>
0

>  <Rbt.Current_Directory>
/home/itssahil/PROJECTS/Mol_Feturizer/New_Systems/rnas/3D2G

>  <Rbt.Executable>
rbdock ($Id: //depot/dev/client3/rdock/2013.1/src/exe/rbdock.cxx#4 $)

>  <Rbt.Library>
libRbt.so (2013.1, Build901 2013/11/27)

>  <Rbt.Parameter_File>
/export/apps/rDock/src/rDock_2013.1_src/data/scripts/dock_solv.prm

>  <Rbt.Receptor>
prm/pocket_docking_6.prm

>  <SCORE>
-12.0076

>  <SCORE.INTER>
-9.85545

>  <SCORE.INTER.CONST>
1

>  <SCORE.INTER.POLAR>
0

>  <SCORE.INTER.ROT>
8

>  <SCORE.INTER.SOLV>
15.7615

>  <SCORE.INTER.VDW>
-20.7575

>  <SCORE.INTER.norm>
-0.379056

>  <SCORE.INTRA>
-2.15212

>  <SCORE.INTRA.DIHEDRAL>
-3.70023

>  <SCORE.INTRA.DIHEDRAL.0>
9.09364

>  <SCORE.INTRA.POLAR>
0

>  <SCORE.INTRA.POLAR.0>
0

>  <SCORE.INTRA.REPUL>
0

>  <SCORE.INTRA.REPUL.0>
0

>  <SCORE.INTRA.SOLV>
1.01118

>  <SCORE.INTRA.SOLV.lig_0>
-78.5846

>  <SCORE.INTRA.VDW>
-0.807596

>  <SCORE.INTRA.VDW.0>
-2.81163

>  <SCORE.INTRA.norm>
-0.082774

>  <SCORE.RESTR>
0

>  <SCORE.RESTR.CAVITY>
0

>  <SCORE.RESTR.norm>
0

>  <SCORE.SYSTEM>
0

>  <SCORE.SYSTEM.CONST>
0

>  <SCORE.SYSTEM.DIHEDRAL>
0

>  <SCORE.SYSTEM.SOLV>
0

>  <SCORE.SYSTEM.norm>
0

>  <SCORE.heavy>
26

>  <SCORE.norm>
-0.46183

>  <RMSD>
9.305

$$$$
ligand
 OpenBabel11021811463D
libRbt.so/2013.1/901 2013/11/27
 26 27  0  0  0  0  0  0  0  0999 V2000
   -3.2611  -38.3378   13.0994 C   0  0  0  0  0  0  0  0  0  0  0  0
   -4.9538  -46.2837   10.5735 C   0  0  0  0  0  0  0  0  0  0  0  0
   -6.6293  -46.2429    5.1666 P   0  0  1  0  0  0  0  0  0  0  0  0
   -8.8735  -46.1165    3.5885 P   0  0  2  0  0  0  0  0  0  0  0  0
   -4.5626  -43.9009   12.5538 C   0  0  0  0  0  0  0  0  0  0  0  0
   -4.9476  -41.6433   13.5972 C   0  0  0  0  0  0  0  0  0  0  0  0
   -4.2354  -42.4358   12.6918 C   0  0  0  0  0  0  0  0  0  0  0  0
   -3.1935  -41.8878   11.9386 C   0  0  0  0  0  0  0  0  0  0  0  0
   -2.5163  -42.6431   11.0995 N   0  0  0  0  0  0  0  0  0  0  0  0
   -2.8985  -40.5514   12.0557 N   0  0  0  0  0  0  0  0  0  0  0  0
   -3.5976  -39.7801   12.9628 C   0  0  0  0  0  0  0  0  0  0  0  0
   -4.6247  -40.3109   13.7203 N   0  0  0  0  0  0  0  0  0  0  0  0
   -5.5248  -47.2474    5.2916 O   0  5  0  0  0  0  0  0  0  0  0  0
   -9.5726  -45.8533    4.8628 O   0  0  0  0  0  0  0  0  0  0  0  0
   -7.7401  -43.5378   10.4554 S   0  0  0  0  0  0  0  0  0  0  0  0
   -6.6669  -43.1361   11.5458 C   0  0  0  0  0  0  0  0  0  0  0  0
   -6.2068  -44.8486    4.8654 O   0  0  0  0  0  0  0  0  0  0  0  0
   -9.6889  -46.9217    2.6595 O   0  5  0  0  0  0  0  0  0  0  0  0
   -5.6511  -44.0470   11.6273 N   0  0  0  0  0  0  0  0  0  0  0  0
   -7.5764  -46.8875    4.0746 O   0  0  0  0  0  0  0  0  0  0  0  0
   -8.4787  -44.9330    2.7659 O   0  0  0  0  0  0  0  0  0  0  0  0
   -5.8390  -45.0902   10.7649 C   0  0  1  0  0  0  0  0  0  0  0  0
   -6.9956  -44.8965   10.0523 C   0  0  2  0  0  0  0  0  0  0  0  0
   -7.6471  -45.7306    8.9773 C   0  0  0  0  0  0  0  0  0  0  0  0
   -6.8560  -45.6958    7.6648 C   0  0  0  0  0  0  0  0  0  0  0  0
   -7.3947  -46.3662    6.5400 O   0  0  0  0  0  0  0  0  0  0  0  0
  1 11  1  0  0  0  0
  3 13  1  1  0  0  0
  3 17  2  0  0  0  0
  3 20  1  0  0  0  0
  3 26  1  0  0  0  0
  4 14  1  1  0  0  0
  4 18  1  0  0  0  0
  4 21  2  0  0  0  0
  4 20  1  0  0  0  0
  5 19  1  0  0  0  0
  5  7  1  0  0  0  0
  6  7  2  0  0  0  0
  6 12  1  0  0  0  0
  7  8  1  0  0  0  0
  8  9  1  0  0  0  0
  8 10  2  0  0  0  0
 10 11  1  0  0  0  0
 11 12  2  0  0  0  0
 15 23  1  0  0  0  0
 15 16  1  0  0  0  0
 16 19  1  0  0  0  0
 19 22  1  0  0  0  0
 22  2  1  6  0  0  0
 22 23  1  0  0  0  0
 23 24  1  6  0  0  0
 24 25  1  0  0  0  0
 25 26  1  0  0  0  0
M  CHG  2  13  -1  18  -1
M  END
>  <CHROM.1>
-177.82654462,-35.35620854,84.98455840,-54.56805336,108.90310609,-176.07067381
175.77422918,80.69808971,-6.30280696,-44.30845876,8.49159458,-0.76422429
-1.02595380,-1.35880981

>  <Name>
ligand

>  <RI>
0

>  <Rbt.Current_Directory>
/home/itssahil/PROJECTS/Mol_Feturizer/New_Systems/rnas/3D2G

>  <Rbt.Executable>
rbdock ($Id: //depot/dev/client3/rdock/2013.1/src/exe/rbdock.cxx#4 $)

>  <Rbt.Library>
libRbt.so (2013.1, Build901 2013/11/27)

>  <Rbt.Parameter_File>
/export/apps/rDock/src/rDock_2013.1_src/data/scripts/dock_solv.prm

>  <Rbt.Receptor>
prm/pocket_docking_8.prm

>  <SCORE>
-22.9137

>  <SCORE.INTER>
-19.4967

>  <SCORE.INTER.CONST>
1

>  <SCORE.INTER.POLAR>
0

>  <SCORE.INTER.ROT>
8

>  <SCORE.INTER.SOLV>
11.6586

>  <SCORE.INTER.VDW>
-25.8173

>  <SCORE.INTER.norm>
-0.749872

>  <SCORE.INTRA>
-3.41704

>  <SCORE.INTRA.DIHEDRAL>
-3.74293

>  <SCORE.INTRA.DIHEDRAL.0>
9.09364

>  <SCORE.INTRA.POLAR>
0

>  <SCORE.INTRA.POLAR.0>
0

>  <SCORE.INTRA.REPUL>
0

>  <SCORE.INTRA.REPUL.0>
0

>  <SCORE.INTRA.SOLV>
-2.64099

>  <SCORE.INTRA.SOLV.lig_0>
-78.5846

>  <SCORE.INTRA.VDW>
-0.225082

>  <SCORE.INTRA.VDW.0>
-2.81163

>  <SCORE.INTRA.norm>
-0.131425

>  <SCORE.RESTR>
0

>  <SCORE.RESTR.CAVITY>
0

>  <SCORE.RESTR.norm>
0

>  <SCORE.SYSTEM>
0

>  <SCORE.SYSTEM.CONST>
0

>  <SCORE.SYSTEM.DIHEDRAL>
0

>  <SCORE.SYSTEM.SOLV>
0

>  <SCORE.SYSTEM.norm>
0

>  <SCORE.heavy>
26

>  <SCORE.norm>
-0.881297

>  <RMSD>
9.307

$$$$
ligand
 OpenBabel11021811463D
libRbt.so/2013.1/901 2013/11/27
 26 27  0  0  0  0  0  0  0  0999 V2000
   -6.4161  -45.2842   12.0216 C   0  0  0  0  0  0  0  0  0  0  0  0
   -1.4078  -39.7220    9.6504 C   0  0  0  0  0  0  0  0  0  0  0  0
    1.1057  -36.9656    9.0230 P   0  0  1  0  0  0  0  0  0  0  0  0
    3.8379  -36.7964    8.8005 P   0  0  2  0  0  0  0  0  0  0  0  0
   -4.2705  -40.8387    9.0936 C   0  0  0  0  0  0  0  0  0  0  0  0
   -6.2157  -42.2563    9.8283 C   0  0  0  0  0  0  0  0  0  0  0  0
   -4.8426  -41.9962    9.8717 C   0  0  0  0  0  0  0  0  0  0  0  0
   -3.9877  -42.8259   10.6023 C   0  0  0  0  0  0  0  0  0  0  0  0
   -2.6937  -42.5850   10.6260 N   0  0  0  0  0  0  0  0  0  0  0  0
   -4.5069  -43.8763   11.3192 N   0  0  0  0  0  0  0  0  0  0  0  0
   -5.8620  -44.1340   11.2587 C   0  0  0  0  0  0  0  0  0  0  0  0
   -6.7179  -43.3266   10.5333 N   0  0  0  0  0  0  0  0  0  0  0  0
    0.4292  -35.6643    8.7174 O   0  5  0  0  0  0  0  0  0  0  0  0
    3.8071  -38.2665    8.6601 O   0  0  0  0  0  0  0  0  0  0  0  0
   -4.2944  -37.9914   11.6478 S   0  0  0  0  0  0  0  0  0  0  0  0
   -4.9106  -39.1184   10.7245 C   0  0  0  0  0  0  0  0  0  0  0  0
    1.1980  -37.9295    7.8934 O   0  0  0  0  0  0  0  0  0  0  0  0
    5.0389  -36.3284    9.5181 O   0  5  0  0  0  0  0  0  0  0  0  0
   -3.9510  -39.7782   10.0089 N   0  0  0  0  0  0  0  0  0  0  0  0
    2.5043  -36.5122    9.6090 O   0  0  0  0  0  0  0  0  0  0  0  0
    3.8484  -35.9878    7.5438 O   0  0  0  0  0  0  0  0  0  0  0  0
   -2.7046  -39.2735   10.2519 C   0  0  1  0  0  0  0  0  0  0  0  0
   -2.7899  -38.2563   11.1691 C   0  0  2  0  0  0  0  0  0  0  0  0
   -1.7222  -37.3858   11.7838 C   0  0  0  0  0  0  0  0  0  0  0  0
   -0.8078  -36.7630   10.7228 C   0  0  0  0  0  0  0  0  0  0  0  0
    0.2808  -37.5308   10.2426 O   0  0  0  0  0  0  0  0  0  0  0  0
  1 11  1  0  0  0  0
  3 13  1  6  0  0  0
  3 17  2  0  0  0  0
  3 20  1  0  0  0  0
  3 26  1  0  0  0  0
  4 14  1  6  0  0  0
  4 18  1  0  0  0  0
  4 21  2  0  0  0  0
  4 20  1  0  0  0  0
  5 19  1  0  0  0  0
  5  7  1  0  0  0  0
  6  7  2  0  0  0  0
  6 12  1  0  0  0  0
  7  8  1  0  0  0  0
  8  9  1  0  0  0  0
  8 10  2  0  0  0  0
 10 11  1  0  0  0  0
 11 12  2  0  0  0  0
 15 23  1  0  0  0  0
 15 16  1  0  0  0  0
 16 19  1  0  0  0  0
 19 22  1  0  0  0  0
 22  2  1  1  0  0  0
 22 23  1  0  0  0  0
 23 24  1  1  0  0  0
 24 25  1  0  0  0  0
 25 26  1  0  0  0  0
M  CHG  2  13  -1  18  -1
M  END
>  <CHROM.1>
-112.19385117,-65.02266004,105.16130143,-58.29737633,-129.97041655,-84.08271430
172.23166962,0.26954829,-1.31559861,-39.10884292,9.96964176,-2.57372930,0.32000689
0.13044251

>  <Name>
ligand

>  <RI>
0

>  <Rbt.Current_Directory>
/home/itssahil/PROJECTS/Mol_Feturizer/New_Systems/rnas/3D2G

>  <Rbt.Executable>
rbdock ($Id: //depot/dev/client3/rdock/2013.1/src/exe/rbdock.cxx#4 $)

>  <Rbt.Library>
libRbt.so (2013.1, Build901 2013/11/27)

>  <Rbt.Parameter_File>
/export/apps/rDock/src/rDock_2013.1_src/data/scripts/dock_solv.prm

>  <Rbt.Receptor>
prm/blind_docking_60.prm

>  <SCORE>
-7.58675

>  <SCORE.INTER>
-11.13

>  <SCORE.INTER.CONST>
1

>  <SCORE.INTER.POLAR>
0

>  <SCORE.INTER.ROT>
8

>  <SCORE.INTER.SOLV>
21.3573

>  <SCORE.INTER.VDW>
-23.4725

>  <SCORE.INTER.norm>
-0.428078

>  <SCORE.INTRA>
3.54329

>  <SCORE.INTRA.DIHEDRAL>
2.18371

>  <SCORE.INTRA.DIHEDRAL.0>
9.09364

>  <SCORE.INTRA.POLAR>
0

>  <SCORE.INTRA.POLAR.0>
0

>  <SCORE.INTRA.REPUL>
0

>  <SCORE.INTRA.REPUL.0>
0

>  <SCORE.INTRA.SOLV>
1.30367

>  <SCORE.INTRA.SOLV.lig_0>
-78.5846

>  <SCORE.INTRA.VDW>
1.7996

>  <SCORE.INTRA.VDW.0>
-2.81163

>  <SCORE.INTRA.norm>
0.13628

>  <SCORE.RESTR>
0

>  <SCORE.RESTR.CAVITY>
0

>  <SCORE.RESTR.norm>
0

>  <SCORE.SYSTEM>
0

>  <SCORE.SYSTEM.CONST>
0

>  <SCORE.SYSTEM.DIHEDRAL>
0

>  <SCORE.SYSTEM.SOLV>
0

>  <SCORE.SYSTEM.norm>
0

>  <SCORE.heavy>
26

>  <SCORE.norm>
-0.291798

>  <RMSD>
9.310

$$$$
ligand
 OpenBabel11021811463D
libRbt.so/2013.1/901 2013/11/27
 26 27  0  0  0  0  0  0  0  0999 V2000
    0.1729  -44.5270    7.3277 C   0  0  0  0  0  0  0  0  0  0  0  0
   -5.5902  -45.0123    7.7910 C   0  0  0  0  0  0  0  0  0  0  0  0
   -6.7022  -40.1177    5.9232 P   0  0  1  0  0  0  0  0  0  0  0  0
   -9.1509  -39.9751    4.6876 P   0  0  2  0  0  0  0  0  0  0  0  0
   -4.3707  -46.2013   10.4086 C   0  0  0  0  0  0  0  0  0  0  0  0
   -2.7025  -46.5823    8.5632 C   0  0  0  0  0  0  0  0  0  0  0  0
   -3.1691  -45.7743    9.6046 C   0  0  0  0  0  0  0  0  0  0  0  0
   -2.5522  -44.5516    9.8828 C   0  0  0  0  0  0  0  0  0  0  0  0
   -3.0063  -43.7880   10.8543 N   0  0  0  0  0  0  0  0  0  0  0  0
   -1.4519  -44.1636    9.1577 N   0  0  0  0  0  0  0  0  0  0  0  0
   -1.0072  -44.9612    8.1220 C   0  0  0  0  0  0  0  0  0  0  0  0
   -1.6131  -46.1688    7.8304 N   0  0  0  0  0  0  0  0  0  0  0  0
   -6.0789  -41.0968    4.9759 O   0  5  0  0  0  0  0  0  0  0  0  0
   -8.7807  -41.2602    4.0604 O   0  0  0  0  0  0  0  0  0  0  0  0
   -6.9770  -43.4936   11.1208 S   0  0  0  0  0  0  0  0  0  0  0  0
   -5.9032  -44.6020   11.4682 C   0  0  0  0  0  0  0  0  0  0  0  0
   -5.7566  -39.2388    6.6626 O   0  0  0  0  0  0  0  0  0  0  0  0
   -9.9549  -39.1254    3.7887 O   0  5  0  0  0  0  0  0  0  0  0  0
   -5.3627  -45.1638   10.3454 N   0  0  0  0  0  0  0  0  0  0  0  0
   -7.7334  -39.3414    5.0072 O   0  0  0  0  0  0  0  0  0  0  0  0
   -9.9712  -40.0325    5.9354 O   0  0  0  0  0  0  0  0  0  0  0  0
   -5.9120  -44.6441    9.2072 C   0  0  1  0  0  0  0  0  0  0  0  0
   -6.8384  -43.6872    9.5378 C   0  0  2  0  0  0  0  0  0  0  0  0
   -7.7091  -42.8116    8.6713 C   0  0  0  0  0  0  0  0  0  0  0  0
   -6.8807  -41.8601    7.8005 C   0  0  0  0  0  0  0  0  0  0  0  0
   -7.5636  -41.0295    6.8793 O   0  0  0  0  0  0  0  0  0  0  0  0
  1 11  1  0  0  0  0
  3 13  1  6  0  0  0
  3 17  2  0  0  0  0
  3 20  1  0  0  0  0
  3 26  1  0  0  0  0
  4 14  1  6  0  0  0
  4 18  1  0  0  0  0
  4 21  2  0  0  0  0
  4 20  1  0  0  0  0
  5 19  1  0  0  0  0
  5  7  1  0  0  0  0
  6  7  2  0  0  0  0
  6 12  1  0  0  0  0
  7  8  1  0  0  0  0
  8  9  1  0  0  0  0
  8 10  2  0  0  0  0
 10 11  1  0  0  0  0
 11 12  2  0  0  0  0
 15 23  1  0  0  0  0
 15 16  1  0  0  0  0
 16 19  1  0  0  0  0
 19 22  1  0  0  0  0
 22  2  1  6  0  0  0
 22 23  1  0  0  0  0
 23 24  1  6  0  0  0
 24 25  1  0  0  0  0
 25 26  1  0  0  0  0
M  CHG  2  13  -1  18  -1
M  END
>  <CHROM.1>
81.09689045,-125.49618245,-123.61043260,-57.85513503,116.17641619,176.50478603
-176.27223929,70.81678961,-5.86480465,-42.67041413,7.69552586,-0.83819346
0.33862947,-0.99254188

>  <Name>
ligand

>  <RI>
0

>  <Rbt.Current_Directory>
/home/itssahil/PROJECTS/Mol_Feturizer/New_Systems/rnas/3D2G

>  <Rbt.Executable>
rbdock ($Id: //depot/dev/client3/rdock/2013.1/src/exe/rbdock.cxx#4 $)

>  <Rbt.Library>
libRbt.so (2013.1, Build901 2013/11/27)

>  <Rbt.Parameter_File>
/export/apps/rDock/src/rDock_2013.1_src/data/scripts/dock_solv.prm

>  <Rbt.Receptor>
prm/pocket_docking_4.prm

>  <SCORE>
-8.36846

>  <SCORE.INTER>
-6.07627

>  <SCORE.INTER.CONST>
1

>  <SCORE.INTER.POLAR>
0

>  <SCORE.INTER.ROT>
8

>  <SCORE.INTER.SOLV>
18.3694

>  <SCORE.INTER.VDW>
-19.1073

>  <SCORE.INTER.norm>
-0.233703

>  <SCORE.INTRA>
-2.313

>  <SCORE.INTRA.DIHEDRAL>
-3.27948

>  <SCORE.INTRA.DIHEDRAL.0>
9.09364

>  <SCORE.INTRA.POLAR>
0

>  <SCORE.INTRA.POLAR.0>
0

>  <SCORE.INTRA.REPUL>
0

>  <SCORE.INTRA.REPUL.0>
0

>  <SCORE.INTRA.SOLV>
-0.0118979

>  <SCORE.INTRA.SOLV.lig_0>
-78.5846

>  <SCORE.INTRA.VDW>
-0.667313

>  <SCORE.INTRA.VDW.0>
-2.81163

>  <SCORE.INTRA.norm>
-0.0889616

>  <SCORE.RESTR>
0.0208139

>  <SCORE.RESTR.CAVITY>
0.0208139

>  <SCORE.RESTR.norm>
0.000800534

>  <SCORE.SYSTEM>
0

>  <SCORE.SYSTEM.CONST>
0

>  <SCORE.SYSTEM.DIHEDRAL>
0

>  <SCORE.SYSTEM.SOLV>
0

>  <SCORE.SYSTEM.norm>
0

>  <SCORE.heavy>
26

>  <SCORE.norm>
-0.321864

>  <RMSD>
9.312

$$$$
ligand
 OpenBabel11021811463D
libRbt.so/2013.1/901 2013/11/27
 26 27  0  0  0  0  0  0  0  0999 V2000
   -0.4627  -32.9652    8.5844 C   0  0  0  0  0  0  0  0  0  0  0  0
   -2.8548  -37.9601   12.9889 C   0  0  0  0  0  0  0  0  0  0  0  0
   -5.3028  -42.3392   12.2476 P   0  0  1  0  0  0  0  0  0  0  0  0
   -5.7345  -44.8633   11.2549 P   0  0  2  0  0  0  0  0  0  0  0  0
   -3.2334  -34.8701   13.2356 C   0  0  0  0  0  0  0  0  0  0  0  0
   -1.4605  -35.1336   11.4690 C   0  0  0  0  0  0  0  0  0  0  0  0
   -2.4920  -34.3690   12.0224 C   0  0  0  0  0  0  0  0  0  0  0  0
   -2.8685  -33.1577   11.4356 C   0  0  0  0  0  0  0  0  0  0  0  0
   -3.8513  -32.4504   11.9522 N   0  0  0  0  0  0  0  0  0  0  0  0
   -2.1895  -32.6942   10.3352 N   0  0  0  0  0  0  0  0  0  0  0  0
   -1.1819  -33.4630    9.7873 C   0  0  0  0  0  0  0  0  0  0  0  0
   -0.8049  -34.6668   10.3523 N   0  0  0  0  0  0  0  0  0  0  0  0
   -4.0862  -42.7096   13.0396 O   0  5  0  0  0  0  0  0  0  0  0  0
   -5.9491  -44.2544    9.9263 O   0  0  0  0  0  0  0  0  0  0  0  0
   -6.4195  -36.6342   12.0658 S   0  0  0  0  0  0  0  0  0  0  0  0
   -5.5095  -35.4121   12.4910 C   0  0  0  0  0  0  0  0  0  0  0  0
   -5.0484  -41.7588   10.9015 O   0  0  0  0  0  0  0  0  0  0  0  0
   -6.5619  -46.0677   11.4581 O   0  5  0  0  0  0  0  0  0  0  0  0
   -4.2395  -35.8036   12.8106 N   0  0  0  0  0  0  0  0  0  0  0  0
   -6.1405  -43.6820   12.2309 O   0  0  0  0  0  0  0  0  0  0  0  0
   -4.3534  -45.3334   11.5785 O   0  0  0  0  0  0  0  0  0  0  0  0
   -4.0892  -37.1582   12.7101 C   0  0  1  0  0  0  0  0  0  0  0  0
   -5.2682  -37.7231   12.2931 C   0  0  2  0  0  0  0  0  0  0  0  0
   -5.6330  -39.1601   12.0146 C   0  0  0  0  0  0  0  0  0  0  0  0
   -5.6191  -40.0134   13.2879 C   0  0  0  0  0  0  0  0  0  0  0  0
   -6.0760  -41.3509   13.2030 O   0  0  0  0  0  0  0  0  0  0  0  0
  1 11  1  0  0  0  0
  3 13  1  1  0  0  0
  3 17  2  0  0  0  0
  3 20  1  0  0  0  0
  3 26  1  0  0  0  0
  4 14  1  6  0  0  0
  4 18  1  0  0  0  0
  4 21  2  0  0  0  0
  4 20  1  0  0  0  0
  5 19  1  0  0  0  0
  5  7  1  0  0  0  0
  6  7  2  0  0  0  0
  6 12  1  0  0  0  0
  7  8  1  0  0  0  0
  8  9  1  0  0  0  0
  8 10  2  0  0  0  0
 10 11  1  0  0  0  0
 11 12  2  0  0  0  0
 15 23  1  0  0  0  0
 15 16  1  0  0  0  0
 16 19  1  0  0  0  0
 19 22  1  0  0  0  0
 22  2  1  6  0  0  0
 22 23  1  0  0  0  0
 23 24  1  6  0  0  0
 24 25  1  0  0  0  0
 25 26  1  0  0  0  0
M  CHG  2  13  -1  18  -1
M  END
>  <CHROM.1>
-77.63602518,-90.10470483,-81.81826506,-64.13566844,-113.85896814,173.55219566
61.39433235,78.60117610,-4.40427877,-38.93075404,11.76567956,-1.21059001
-0.61767708,-2.97693644

>  <Name>
ligand

>  <RI>
0

>  <Rbt.Current_Directory>
/home/itssahil/PROJECTS/Mol_Feturizer/New_Systems/rnas/3D2G

>  <Rbt.Executable>
rbdock ($Id: //depot/dev/client3/rdock/2013.1/src/exe/rbdock.cxx#4 $)

>  <Rbt.Library>
libRbt.so (2013.1, Build901 2013/11/27)

>  <Rbt.Parameter_File>
/export/apps/rDock/src/rDock_2013.1_src/data/scripts/dock_solv.prm

>  <Rbt.Receptor>
prm/blind_docking_100.prm

>  <SCORE>
-18.6779

>  <SCORE.INTER>
-16.3538

>  <SCORE.INTER.CONST>
1

>  <SCORE.INTER.POLAR>
0

>  <SCORE.INTER.ROT>
8

>  <SCORE.INTER.SOLV>
18.5702

>  <SCORE.INTER.VDW>
-26.026

>  <SCORE.INTER.norm>
-0.628993

>  <SCORE.INTRA>
-2.32409

>  <SCORE.INTRA.DIHEDRAL>
-3.80107

>  <SCORE.INTRA.DIHEDRAL.0>
9.09364

>  <SCORE.INTRA.POLAR>
0

>  <SCORE.INTRA.POLAR.0>
0

>  <SCORE.INTRA.REPUL>
0

>  <SCORE.INTRA.REPUL.0>
0

>  <SCORE.INTRA.SOLV>
-0.0218847

>  <SCORE.INTRA.SOLV.lig_0>
-78.5846

>  <SCORE.INTRA.VDW>
-0.41261

>  <SCORE.INTRA.VDW.0>
-2.81163

>  <SCORE.INTRA.norm>
-0.0893879

>  <SCORE.RESTR>
0

>  <SCORE.RESTR.CAVITY>
0

>  <SCORE.RESTR.norm>
0

>  <SCORE.SYSTEM>
0

>  <SCORE.SYSTEM.CONST>
0

>  <SCORE.SYSTEM.DIHEDRAL>
0

>  <SCORE.SYSTEM.SOLV>
0

>  <SCORE.SYSTEM.norm>
0

>  <SCORE.heavy>
26

>  <SCORE.norm>
-0.718381

>  <RMSD>
9.321

$$$$
ligand
 OpenBabel11021811463D
libRbt.so/2013.1/901 2013/11/27
 26 27  0  0  0  0  0  0  0  0999 V2000
   -3.2060  -38.2584   12.9590 C   0  0  0  0  0  0  0  0  0  0  0  0
   -4.8951  -46.2397   10.5926 C   0  0  0  0  0  0  0  0  0  0  0  0
   -7.1083  -45.8284    5.1215 P   0  0  1  0  0  0  0  0  0  0  0  0
   -8.2654  -45.0051    2.7708 P   0  0  2  0  0  0  0  0  0  0  0  0
   -4.4887  -43.8372   12.5458 C   0  0  0  0  0  0  0  0  0  0  0  0
   -4.8682  -41.5610   13.5497 C   0  0  0  0  0  0  0  0  0  0  0  0
   -4.1665  -42.3682   12.6492 C   0  0  0  0  0  0  0  0  0  0  0  0
   -3.1394  -41.8308   11.8687 C   0  0  0  0  0  0  0  0  0  0  0  0
   -2.4718  -42.5997   11.0344 N   0  0  0  0  0  0  0  0  0  0  0  0
   -2.8491  -40.4909   11.9543 N   0  0  0  0  0  0  0  0  0  0  0  0
   -3.5375  -39.7047   12.8567 C   0  0  0  0  0  0  0  0  0  0  0  0
   -4.5499  -40.2248   13.6409 N   0  0  0  0  0  0  0  0  0  0  0  0
   -6.6478  -47.1468    4.5790 O   0  5  0  0  0  0  0  0  0  0  0  0
   -9.6624  -45.0625    2.2943 O   0  0  0  0  0  0  0  0  0  0  0  0
   -7.7241  -43.5360   10.5275 S   0  0  0  0  0  0  0  0  0  0  0  0
   -6.6293  -43.1107   11.5871 C   0  0  0  0  0  0  0  0  0  0  0  0
   -6.0974  -44.7369    5.1181 O   0  0  0  0  0  0  0  0  0  0  0  0
   -7.3648  -45.8516    1.9653 O   0  5  0  0  0  0  0  0  0  0  0  0
   -5.5983  -44.0060   11.6487 N   0  0  0  0  0  0  0  0  0  0  0  0
   -8.4023  -45.5213    4.2633 O   0  0  0  0  0  0  0  0  0  0  0  0
   -7.5909  -43.6716    2.7576 O   0  0  0  0  0  0  0  0  0  0  0  0
   -5.7928  -45.0580   10.7985 C   0  0  1  0  0  0  0  0  0  0  0  0
   -6.9700  -44.8865   10.1146 C   0  0  2  0  0  0  0  0  0  0  0  0
   -7.6364  -45.7377    9.0625 C   0  0  0  0  0  0  0  0  0  0  0  0
   -7.0697  -45.4701    7.6636 C   0  0  0  0  0  0  0  0  0  0  0  0
   -7.6171  -46.1854    6.5710 O   0  0  0  0  0  0  0  0  0  0  0  0
  1 11  1  0  0  0  0
  3 13  1  6  0  0  0
  3 17  2  0  0  0  0
  3 20  1  0  0  0  0
  3 26  1  0  0  0  0
  4 14  1  6  0  0  0
  4 18  1  0  0  0  0
  4 21  2  0  0  0  0
  4 20  1  0  0  0  0
  5 19  1  0  0  0  0
  5  7  1  0  0  0  0
  6  7  2  0  0  0  0
  6 12  1  0  0  0  0
  7  8  1  0  0  0  0
  8  9  1  0  0  0  0
  8 10  2  0  0  0  0
 10 11  1  0  0  0  0
 11 12  2  0  0  0  0
 15 23  1  0  0  0  0
 15 16  1  0  0  0  0
 16 19  1  0  0  0  0
 19 22  1  0  0  0  0
 22  2  1  6  0  0  0
 22 23  1  0  0  0  0
 23 24  1  6  0  0  0
 24 25  1  0  0  0  0
 25 26  1  0  0  0  0
M  CHG  2  13  -1  18  -1
M  END
>  <CHROM.1>
-76.64578781,-36.20099564,84.49911197,171.23213734,96.54067495,-179.03831779
175.43424931,125.27482909,-6.23360753,-43.97691223,8.28588982,-0.69868954
-1.09481987,-1.17136158

>  <Name>
ligand

>  <RI>
0

>  <Rbt.Current_Directory>
/home/itssahil/PROJECTS/Mol_Feturizer/New_Systems/rnas/3D2G

>  <Rbt.Executable>
rbdock ($Id: //depot/dev/client3/rdock/2013.1/src/exe/rbdock.cxx#4 $)

>  <Rbt.Library>
libRbt.so (2013.1, Build901 2013/11/27)

>  <Rbt.Parameter_File>
/export/apps/rDock/src/rDock_2013.1_src/data/scripts/dock_solv.prm

>  <Rbt.Receptor>
prm/pocket_docking_8.prm

>  <SCORE>
-19.4392

>  <SCORE.INTER>
-18.8719

>  <SCORE.INTER.CONST>
1

>  <SCORE.INTER.POLAR>
0

>  <SCORE.INTER.ROT>
8

>  <SCORE.INTER.SOLV>
8.33344

>  <SCORE.INTER.VDW>
-24.2924

>  <SCORE.INTER.norm>
-0.725844

>  <SCORE.INTRA>
-0.567301

>  <SCORE.INTRA.DIHEDRAL>
-1.58031

>  <SCORE.INTRA.DIHEDRAL.0>
9.09364

>  <SCORE.INTRA.POLAR>
0

>  <SCORE.INTRA.POLAR.0>
0

>  <SCORE.INTRA.REPUL>
0

>  <SCORE.INTRA.REPUL.0>
0

>  <SCORE.INTRA.SOLV>
0.30268

>  <SCORE.INTRA.SOLV.lig_0>
-78.5846

>  <SCORE.INTRA.VDW>
0.0715151

>  <SCORE.INTRA.VDW.0>
-2.81163

>  <SCORE.INTRA.norm>
-0.0218193

>  <SCORE.RESTR>
0

>  <SCORE.RESTR.CAVITY>
0

>  <SCORE.RESTR.norm>
0

>  <SCORE.SYSTEM>
0

>  <SCORE.SYSTEM.CONST>
0

>  <SCORE.SYSTEM.DIHEDRAL>
0

>  <SCORE.SYSTEM.SOLV>
0

>  <SCORE.SYSTEM.norm>
0

>  <SCORE.heavy>
26

>  <SCORE.norm>
-0.747663

>  <RMSD>
9.324

$$$$
ligand
 OpenBabel11021811463D
libRbt.so/2013.1/901 2013/11/27
 26 27  0  0  0  0  0  0  0  0999 V2000
   -7.1161  -46.1061    9.3342 C   0  0  0  0  0  0  0  0  0  0  0  0
   -3.1026  -39.1398   11.8797 C   0  0  0  0  0  0  0  0  0  0  0  0
   -0.6739  -35.7097   11.2361 P   0  0  1  0  0  0  0  0  0  0  0  0
   -0.9006  -33.7639    9.3112 P   0  0  2  0  0  0  0  0  0  0  0  0
   -5.3861  -40.7581   10.4943 C   0  0  0  0  0  0  0  0  0  0  0  0
   -6.7290  -42.3878    9.1254 C   0  0  0  0  0  0  0  0  0  0  0  0
   -5.8556  -42.1586   10.1929 C   0  0  0  0  0  0  0  0  0  0  0  0
   -5.3823  -43.2252   10.9619 C   0  0  0  0  0  0  0  0  0  0  0  0
   -4.5475  -43.0043   11.9556 N   0  0  0  0  0  0  0  0  0  0  0  0
   -5.8149  -44.5014   10.6953 N   0  0  0  0  0  0  0  0  0  0  0  0
   -6.6660  -44.7197    9.6303 C   0  0  0  0  0  0  0  0  0  0  0  0
   -7.1352  -43.6752    8.8561 N   0  0  0  0  0  0  0  0  0  0  0  0
    0.5854  -36.0851   11.9555 O   0  5  0  0  0  0  0  0  0  0  0  0
   -0.5051  -33.8218    7.8892 O   0  0  0  0  0  0  0  0  0  0  0  0
   -2.1206  -40.8612    8.5048 S   0  0  0  0  0  0  0  0  0  0  0  0
   -3.6346  -41.1867    8.8276 C   0  0  0  0  0  0  0  0  0  0  0  0
   -1.6438  -34.8899   12.0112 O   0  0  0  0  0  0  0  0  0  0  0  0
   -0.4987  -32.4974    9.9521 O   0  5  0  0  0  0  0  0  0  0  0  0
   -4.0503  -40.5988    9.9894 N   0  0  0  0  0  0  0  0  0  0  0  0
   -0.1389  -35.0144    9.9187 O   0  0  0  0  0  0  0  0  0  0  0  0
   -2.3591  -33.8614    9.6216 O   0  0  0  0  0  0  0  0  0  0  0  0
   -3.0401  -39.9034   10.5921 C   0  0  1  0  0  0  0  0  0  0  0  0
   -1.9028  -39.9885    9.8290 C   0  0  2  0  0  0  0  0  0  0  0  0
   -0.5290  -39.3990   10.0312 C   0  0  0  0  0  0  0  0  0  0  0  0
   -0.5276  -37.8752    9.8647 C   0  0  0  0  0  0  0  0  0  0  0  0
   -1.2693  -37.0998   10.7885 O   0  0  0  0  0  0  0  0  0  0  0  0
  1 11  1  0  0  0  0
  3 13  1  1  0  0  0
  3 17  2  0  0  0  0
  3 20  1  0  0  0  0
  3 26  1  0  0  0  0
  4 14  1  6  0  0  0
  4 18  1  0  0  0  0
  4 21  2  0  0  0  0
  4 20  1  0  0  0  0
  5 19  1  0  0  0  0
  5  7  1  0  0  0  0
  6  7  2  0  0  0  0
  6 12  1  0  0  0  0
  7  8  1  0  0  0  0
  8  9  1  0  0  0  0
  8 10  2  0  0  0  0
 10 11  1  0  0  0  0
 11 12  2  0  0  0  0
 15 23  1  0  0  0  0
 15 16  1  0  0  0  0
 16 19  1  0  0  0  0
 19 22  1  0  0  0  0
 22  2  1  6  0  0  0
 22 23  1  0  0  0  0
 23 24  1  6  0  0  0
 24 25  1  0  0  0  0
 25 26  1  0  0  0  0
M  CHG  2  13  -1  18  -1
M  END
>  <CHROM.1>
-142.96141296,36.10297660,-101.94079591,-155.54259076,110.06440004,64.40630389
143.28188894,-64.19389541,-2.76081109,-38.78817313,10.09034659,2.34846069
0.79295967,2.55483896

>  <Name>
ligand

>  <RI>
0

>  <Rbt.Current_Directory>
/home/itssahil/PROJECTS/Mol_Feturizer/New_Systems/rnas/3D2G

>  <Rbt.Executable>
rbdock ($Id: //depot/dev/client3/rdock/2013.1/src/exe/rbdock.cxx#4 $)

>  <Rbt.Library>
libRbt.so (2013.1, Build901 2013/11/27)

>  <Rbt.Parameter_File>
/export/apps/rDock/src/rDock_2013.1_src/data/scripts/dock_solv.prm

>  <Rbt.Receptor>
prm/blind_docking_100.prm

>  <SCORE>
-9.2101

>  <SCORE.INTER>
-11.5146

>  <SCORE.INTER.CONST>
1

>  <SCORE.INTER.POLAR>
0

>  <SCORE.INTER.ROT>
8

>  <SCORE.INTER.SOLV>
16.9572

>  <SCORE.INTER.VDW>
-22.2622

>  <SCORE.INTER.norm>
-0.44287

>  <SCORE.INTRA>
2.30453

>  <SCORE.INTRA.DIHEDRAL>
3.48982

>  <SCORE.INTRA.DIHEDRAL.0>
9.09364

>  <SCORE.INTRA.POLAR>
0

>  <SCORE.INTRA.POLAR.0>
0

>  <SCORE.INTRA.REPUL>
0

>  <SCORE.INTRA.REPUL.0>
0

>  <SCORE.INTRA.SOLV>
1.27513

>  <SCORE.INTRA.SOLV.lig_0>
-78.5846

>  <SCORE.INTRA.VDW>
-0.0779481

>  <SCORE.INTRA.VDW.0>
-2.81163

>  <SCORE.INTRA.norm>
0.0886357

>  <SCORE.RESTR>
0

>  <SCORE.RESTR.CAVITY>
0

>  <SCORE.RESTR.norm>
0

>  <SCORE.SYSTEM>
0

>  <SCORE.SYSTEM.CONST>
0

>  <SCORE.SYSTEM.DIHEDRAL>
0

>  <SCORE.SYSTEM.SOLV>
0

>  <SCORE.SYSTEM.norm>
0

>  <SCORE.heavy>
26

>  <SCORE.norm>
-0.354234

>  <RMSD>
9.327

$$$$
ligand
 OpenBabel11021811463D
libRbt.so/2013.1/901 2013/11/27
 26 27  0  0  0  0  0  0  0  0999 V2000
   -3.4200  -37.4576   13.4685 C   0  0  0  0  0  0  0  0  0  0  0  0
   -4.1646  -42.6506    9.0729 C   0  0  0  0  0  0  0  0  0  0  0  0
   -8.3167  -39.3032    7.1063 P   0  0  1  0  0  0  0  0  0  0  0  0
   -8.0841  -36.5678    7.1846 P   0  0  2  0  0  0  0  0  0  0  0  0
   -4.4358  -42.9548   12.1691 C   0  0  0  0  0  0  0  0  0  0  0  0
   -5.0847  -40.8076   13.3101 C   0  0  0  0  0  0  0  0  0  0  0  0
   -4.1823  -41.5066   12.5025 C   0  0  0  0  0  0  0  0  0  0  0  0
   -3.0237  -40.8830   12.0316 C   0  0  0  0  0  0  0  0  0  0  0  0
   -2.1701  -41.5515   11.2850 N   0  0  0  0  0  0  0  0  0  0  0  0
   -2.7941  -39.5612   12.3266 N   0  0  0  0  0  0  0  0  0  0  0  0
   -3.6834  -38.8833   13.1365 C   0  0  0  0  0  0  0  0  0  0  0  0
   -4.8289  -39.4901   13.6162 N   0  0  0  0  0  0  0  0  0  0  0  0
   -9.3543  -39.1349    8.1738 O   0  5  0  0  0  0  0  0  0  0  0  0
   -8.9038  -36.6745    5.9605 O   0  0  0  0  0  0  0  0  0  0  0  0
   -7.7940  -43.3211   10.3747 S   0  0  0  0  0  0  0  0  0  0  0  0
   -6.8040  -43.2796   11.6077 C   0  0  0  0  0  0  0  0  0  0  0  0
   -8.8335  -39.5232    5.7286 O   0  0  0  0  0  0  0  0  0  0  0  0
   -7.0772  -35.4936    7.0913 O   0  5  0  0  0  0  0  0  0  0  0  0
   -5.5159  -43.0303   11.2245 N   0  0  0  0  0  0  0  0  0  0  0  0
   -7.4238  -38.0065    7.2684 O   0  0  0  0  0  0  0  0  0  0  0  0
   -8.7968  -36.2643    8.4626 O   0  0  0  0  0  0  0  0  0  0  0  0
   -5.4078  -42.9106    9.8675 C   0  0  1  0  0  0  0  0  0  0  0  0
   -6.6447  -43.0581    9.2918 C   0  0  2  0  0  0  0  0  0  0  0  0
   -7.0771  -43.0023    7.8477 C   0  0  0  0  0  0  0  0  0  0  0  0
   -7.9972  -41.8083    7.5693 C   0  0  0  0  0  0  0  0  0  0  0  0
   -7.4427  -40.5069    7.6304 O   0  0  0  0  0  0  0  0  0  0  0  0
  1 11  1  0  0  0  0
  3 13  1  1  0  0  0
  3 17  2  0  0  0  0
  3 20  1  0  0  0  0
  3 26  1  0  0  0  0
  4 14  1  6  0  0  0
  4 18  1  0  0  0  0
  4 21  2  0  0  0  0
  4 20  1  0  0  0  0
  5 19  1  0  0  0  0
  5  7  1  0  0  0  0
  6  7  2  0  0  0  0
  6 12  1  0  0  0  0
  7  8  1  0  0  0  0
  8  9  1  0  0  0  0
  8 10  2  0  0  0  0
 10 11  1  0  0  0  0
 11 12  2  0  0  0  0
 15 23  1  0  0  0  0
 15 16  1  0  0  0  0
 16 19  1  0  0  0  0
 19 22  1  0  0  0  0
 22  2  1  1  0  0  0
 22 23  1  0  0  0  0
 23 24  1  1  0  0  0
 24 25  1  0  0  0  0
 25 26  1  0  0  0  0
M  CHG  2  13  -1  18  -1
M  END
>  <CHROM.1>
-56.36251495,-97.14952506,72.96869268,-48.27025108,65.18005256,68.69644633
169.69737607,73.30208719,-6.46403975,-40.10938708,9.48374840,-0.60646238
-0.85687592,-0.10620136

>  <Name>
ligand

>  <RI>
0

>  <Rbt.Current_Directory>
/home/itssahil/PROJECTS/Mol_Feturizer/New_Systems/rnas/3D2G

>  <Rbt.Executable>
rbdock ($Id: //depot/dev/client3/rdock/2013.1/src/exe/rbdock.cxx#4 $)

>  <Rbt.Library>
libRbt.so (2013.1, Build901 2013/11/27)

>  <Rbt.Parameter_File>
/export/apps/rDock/src/rDock_2013.1_src/data/scripts/dock_solv.prm

>  <Rbt.Receptor>
prm/pocket_docking_7.prm

>  <SCORE>
-16.2245

>  <SCORE.INTER>
-14.3994

>  <SCORE.INTER.CONST>
1

>  <SCORE.INTER.POLAR>
0

>  <SCORE.INTER.ROT>
8

>  <SCORE.INTER.SOLV>
22.5663

>  <SCORE.INTER.VDW>
-26.055

>  <SCORE.INTER.norm>
-0.553823

>  <SCORE.INTRA>
-1.83649

>  <SCORE.INTRA.DIHEDRAL>
-2.45801

>  <SCORE.INTRA.DIHEDRAL.0>
9.09364

>  <SCORE.INTRA.POLAR>
0

>  <SCORE.INTRA.POLAR.0>
0

>  <SCORE.INTRA.REPUL>
0

>  <SCORE.INTRA.REPUL.0>
0

>  <SCORE.INTRA.SOLV>
-0.0966906

>  <SCORE.INTRA.SOLV.lig_0>
-78.5846

>  <SCORE.INTRA.VDW>
-0.559137

>  <SCORE.INTRA.VDW.0>
-2.81163

>  <SCORE.INTRA.norm>
-0.0706342

>  <SCORE.RESTR>
0.0114159

>  <SCORE.RESTR.CAVITY>
0.0114159

>  <SCORE.RESTR.norm>
0.000439072

>  <SCORE.SYSTEM>
0

>  <SCORE.SYSTEM.CONST>
0

>  <SCORE.SYSTEM.DIHEDRAL>
0

>  <SCORE.SYSTEM.SOLV>
0

>  <SCORE.SYSTEM.norm>
0

>  <SCORE.heavy>
26

>  <SCORE.norm>
-0.624018

>  <RMSD>
9.327

$$$$
ligand
 OpenBabel11021811463D
libRbt.so/2013.1/901 2013/11/27
 26 27  0  0  0  0  0  0  0  0999 V2000
   -3.4620  -34.5346   11.4527 C   0  0  0  0  0  0  0  0  0  0  0  0
   -3.0112  -39.9853   10.8689 C   0  0  0  0  0  0  0  0  0  0  0  0
   -6.9512  -39.3551    7.8082 P   0  0  1  0  0  0  0  0  0  0  0  0
   -8.1720  -36.8949    7.8217 P   0  0  2  0  0  0  0  0  0  0  0  0
   -3.9084  -39.7304   13.8493 C   0  0  0  0  0  0  0  0  0  0  0  0
   -2.6060  -37.6290   13.3790 C   0  0  0  0  0  0  0  0  0  0  0  0
   -3.7896  -38.3592   13.2344 C   0  0  0  0  0  0  0  0  0  0  0  0
   -4.8534  -37.8427   12.4896 C   0  0  0  0  0  0  0  0  0  0  0  0
   -5.9592  -38.5421   12.3438 N   0  0  0  0  0  0  0  0  0  0  0  0
   -4.7516  -36.5901   11.9353 N   0  0  0  0  0  0  0  0  0  0  0  0
   -3.5737  -35.8826   12.0713 C   0  0  0  0  0  0  0  0  0  0  0  0
   -2.5106  -36.3848   12.7979 N   0  0  0  0  0  0  0  0  0  0  0  0
   -8.2450  -39.9990    8.2032 O   0  5  0  0  0  0  0  0  0  0  0  0
   -9.4350  -37.5674    8.1882 O   0  0  0  0  0  0  0  0  0  0  0  0
   -5.9164  -42.3746   11.9498 S   0  0  0  0  0  0  0  0  0  0  0  0
   -5.4804  -41.4986   13.1928 C   0  0  0  0  0  0  0  0  0  0  0  0
   -6.6196  -39.4017    6.3586 O   0  0  0  0  0  0  0  0  0  0  0  0
   -8.0414  -36.7067    6.3644 O   0  5  0  0  0  0  0  0  0  0  0  0
   -4.4768  -40.6252   12.8794 N   0  0  0  0  0  0  0  0  0  0  0  0
   -7.0846  -37.8931    8.3998 O   0  0  0  0  0  0  0  0  0  0  0  0
   -7.9411  -35.5241    8.3700 O   0  0  0  0  0  0  0  0  0  0  0  0
   -4.0850  -40.7539   11.5766 C   0  0  1  0  0  0  0  0  0  0  0  0
   -4.8411  -41.7197   10.9611 C   0  0  2  0  0  0  0  0  0  0  0  0
   -4.8246  -42.2353    9.5436 C   0  0  0  0  0  0  0  0  0  0  0  0
   -5.8431  -41.5101    8.6567 C   0  0  0  0  0  0  0  0  0  0  0  0
   -5.8843  -40.0955    8.7031 O   0  0  0  0  0  0  0  0  0  0  0  0
  1 11  1  0  0  0  0
  3 13  1  1  0  0  0
  3 17  2  0  0  0  0
  3 20  1  0  0  0  0
  3 26  1  0  0  0  0
  4 14  1  1  0  0  0
  4 18  1  0  0  0  0
  4 21  2  0  0  0  0
  4 20  1  0  0  0  0
  5 19  1  0  0  0  0
  5  7  1  0  0  0  0
  6  7  2  0  0  0  0
  6 12  1  0  0  0  0
  7  8  1  0  0  0  0
  8  9  1  0  0  0  0
  8 10  2  0  0  0  0
 10 11  1  0  0  0  0
 11 12  2  0  0  0  0
 15 23  1  0  0  0  0
 15 16  1  0  0  0  0
 16 19  1  0  0  0  0
 19 22  1  0  0  0  0
 22  2  1  6  0  0  0
 22 23  1  0  0  0  0
 23 24  1  6  0  0  0
 24 25  1  0  0  0  0
 25 26  1  0  0  0  0
M  CHG  2  13  -1  18  -1
M  END
>  <CHROM.1>
-66.24649851,-134.44815614,-133.93350015,64.70435884,85.62206769,47.69122438
-178.93227227,53.95774437,-5.76402048,-38.88930112,10.20730236,-0.28762626
-0.91160969,-0.08002398

>  <Name>
ligand

>  <RI>
0

>  <Rbt.Current_Directory>
/home/itssahil/PROJECTS/Mol_Feturizer/New_Systems/rnas/3D2G

>  <Rbt.Executable>
rbdock ($Id: //depot/dev/client3/rdock/2013.1/src/exe/rbdock.cxx#4 $)

>  <Rbt.Library>
libRbt.so (2013.1, Build901 2013/11/27)

>  <Rbt.Parameter_File>
/export/apps/rDock/src/rDock_2013.1_src/data/scripts/dock_solv.prm

>  <Rbt.Receptor>
prm/blind_docking_80.prm

>  <SCORE>
-15.0184

>  <SCORE.INTER>
-14.2394

>  <SCORE.INTER.CONST>
1

>  <SCORE.INTER.POLAR>
0

>  <SCORE.INTER.ROT>
8

>  <SCORE.INTER.SOLV>
20.9086

>  <SCORE.INTER.VDW>
-25.3958

>  <SCORE.INTER.norm>
-0.54767

>  <SCORE.INTRA>
-0.778929

>  <SCORE.INTRA.DIHEDRAL>
-3.25434

>  <SCORE.INTRA.DIHEDRAL.0>
9.09364

>  <SCORE.INTRA.POLAR>
0

>  <SCORE.INTRA.POLAR.0>
0

>  <SCORE.INTRA.REPUL>
0

>  <SCORE.INTRA.REPUL.0>
0

>  <SCORE.INTRA.SOLV>
2.399

>  <SCORE.INTRA.SOLV.lig_0>
-78.5846

>  <SCORE.INTRA.VDW>
-0.35126

>  <SCORE.INTRA.VDW.0>
-2.81163

>  <SCORE.INTRA.norm>
-0.0299588

>  <SCORE.RESTR>
0

>  <SCORE.RESTR.CAVITY>
0

>  <SCORE.RESTR.norm>
0

>  <SCORE.SYSTEM>
0

>  <SCORE.SYSTEM.CONST>
0

>  <SCORE.SYSTEM.DIHEDRAL>
0

>  <SCORE.SYSTEM.SOLV>
0

>  <SCORE.SYSTEM.norm>
0

>  <SCORE.heavy>
26

>  <SCORE.norm>
-0.577629

>  <RMSD>
9.338

$$$$
ligand
 OpenBabel11021811463D
libRbt.so/2013.1/901 2013/11/27
 26 27  0  0  0  0  0  0  0  0999 V2000
    1.4081  -31.9665    8.4248 C   0  0  0  0  0  0  0  0  0  0  0  0
   -4.1536  -37.6714   12.0971 C   0  0  0  0  0  0  0  0  0  0  0  0
   -5.0954  -42.5034   10.2598 P   0  0  1  0  0  0  0  0  0  0  0  0
   -6.8976  -44.5758   10.2489 P   0  0  2  0  0  0  0  0  0  0  0  0
   -2.4016  -35.2514   11.1879 C   0  0  0  0  0  0  0  0  0  0  0  0
   -1.7890  -33.7101    9.2952 C   0  0  0  0  0  0  0  0  0  0  0  0
   -1.4021  -34.3981   10.4493 C   0  0  0  0  0  0  0  0  0  0  0  0
   -0.1025  -34.2709   10.9472 C   0  0  0  0  0  0  0  0  0  0  0  0
    0.2507  -34.9087   12.0433 N   0  0  0  0  0  0  0  0  0  0  0  0
    0.8129  -33.5010   10.2719 N   0  0  0  0  0  0  0  0  0  0  0  0
    0.4178  -32.8139    9.1413 C   0  0  0  0  0  0  0  0  0  0  0  0
   -0.8666  -32.9239    8.6426 N   0  0  0  0  0  0  0  0  0  0  0  0
   -6.0090  -41.7417    9.3490 O   0  5  0  0  0  0  0  0  0  0  0  0
   -7.0073  -44.3631   11.7065 O   0  0  0  0  0  0  0  0  0  0  0  0
   -0.9791  -38.5992   10.0045 S   0  0  0  0  0  0  0  0  0  0  0  0
   -1.0455  -37.0275   10.1703 C   0  0  0  0  0  0  0  0  0  0  0  0
   -5.1744  -42.1486   11.7025 O   0  0  0  0  0  0  0  0  0  0  0  0
   -7.0373  -45.9971    9.8792 O   0  5  0  0  0  0  0  0  0  0  0  0
   -2.1254  -36.6338   10.9099 N   0  0  0  0  0  0  0  0  0  0  0  0
   -5.4485  -44.0126    9.9394 O   0  0  0  0  0  0  0  0  0  0  0  0
   -7.9016  -43.8915    9.3789 O   0  0  0  0  0  0  0  0  0  0  0  0
   -2.8903  -37.6997   11.2920 C   0  0  1  0  0  0  0  0  0  0  0  0
   -2.3254  -38.8618   10.8298 C   0  0  2  0  0  0  0  0  0  0  0  0
   -2.7549  -40.2998   10.9822 C   0  0  0  0  0  0  0  0  0  0  0  0
   -3.1706  -40.9200    9.6434 C   0  0  0  0  0  0  0  0  0  0  0  0
   -3.6661  -42.2465    9.6448 O   0  0  0  0  0  0  0  0  0  0  0  0
  1 11  1  0  0  0  0
  3 13  1  6  0  0  0
  3 17  2  0  0  0  0
  3 20  1  0  0  0  0
  3 26  1  0  0  0  0
  4 14  1  1  0  0  0
  4 18  1  0  0  0  0
  4 21  2  0  0  0  0
  4 20  1  0  0  0  0
  5 19  1  0  0  0  0
  5  7  1  0  0  0  0
  6  7  2  0  0  0  0
  6 12  1  0  0  0  0
  7  8  1  0  0  0  0
  8  9  1  0  0  0  0
  8 10  2  0  0  0  0
 10 11  1  0  0  0  0
 11 12  2  0  0  0  0
 15 23  1  0  0  0  0
 15 16  1  0  0  0  0
 16 19  1  0  0  0  0
 19 22  1  0  0  0  0
 22  2  1  1  0  0  0
 22 23  1  0  0  0  0
 23 24  1  1  0  0  0
 24 25  1  0  0  0  0
 25 26  1  0  0  0  0
M  CHG  2  13  -1  18  -1
M  END
>  <CHROM.1>
-63.80156678,4.64318492,104.54289876,-59.73903409,-67.02113122,-176.69013644
71.14838872,64.24870050,-3.28406906,-39.22516768,10.30239532,-0.83369020
-0.68407006,-2.64727798

>  <Name>
ligand

>  <RI>
0

>  <Rbt.Current_Directory>
/home/itssahil/PROJECTS/Mol_Feturizer/New_Systems/rnas/3D2G

>  <Rbt.Executable>
rbdock ($Id: //depot/dev/client3/rdock/2013.1/src/exe/rbdock.cxx#4 $)

>  <Rbt.Library>
libRbt.so (2013.1, Build901 2013/11/27)

>  <Rbt.Parameter_File>
/export/apps/rDock/src/rDock_2013.1_src/data/scripts/dock_solv.prm

>  <Rbt.Receptor>
prm/blind_docking_60.prm

>  <SCORE>
-14.0776

>  <SCORE.INTER>
-13.4837

>  <SCORE.INTER.CONST>
1

>  <SCORE.INTER.POLAR>
0

>  <SCORE.INTER.ROT>
8

>  <SCORE.INTER.SOLV>
16.9414

>  <SCORE.INTER.VDW>
-23.5696

>  <SCORE.INTER.norm>
-0.518604

>  <SCORE.INTRA>
-0.594042

>  <SCORE.INTRA.DIHEDRAL>
-3.12153

>  <SCORE.INTRA.DIHEDRAL.0>
9.09364

>  <SCORE.INTRA.POLAR>
0

>  <SCORE.INTRA.POLAR.0>
0

>  <SCORE.INTRA.REPUL>
0

>  <SCORE.INTRA.REPUL.0>
0

>  <SCORE.INTRA.SOLV>
0.547135

>  <SCORE.INTRA.SOLV.lig_0>
-78.5846

>  <SCORE.INTRA.VDW>
0.693157

>  <SCORE.INTRA.VDW.0>
-2.81163

>  <SCORE.INTRA.norm>
-0.0228478

>  <SCORE.RESTR>
0.000174102

>  <SCORE.RESTR.CAVITY>
0.000174102

>  <SCORE.RESTR.norm>
6.69623e-06

>  <SCORE.SYSTEM>
0

>  <SCORE.SYSTEM.CONST>
0

>  <SCORE.SYSTEM.DIHEDRAL>
0

>  <SCORE.SYSTEM.SOLV>
0

>  <SCORE.SYSTEM.norm>
0

>  <SCORE.heavy>
26

>  <SCORE.norm>
-0.541446

>  <RMSD>
9.343

$$$$
ligand
 OpenBabel11021811463D
libRbt.so/2013.1/901 2013/11/27
 26 27  0  0  0  0  0  0  0  0999 V2000
   -8.5736  -36.3151    7.7260 C   0  0  0  0  0  0  0  0  0  0  0  0
   -3.2982  -33.6477   13.1648 C   0  0  0  0  0  0  0  0  0  0  0  0
   -0.7464  -35.0671    9.3341 P   0  0  1  0  0  0  0  0  0  0  0  0
    1.1436  -36.9181    8.5963 P   0  0  2  0  0  0  0  0  0  0  0  0
   -5.8250  -35.4187   12.6840 C   0  0  0  0  0  0  0  0  0  0  0  0
   -6.5706  -36.9439   10.8262 C   0  0  0  0  0  0  0  0  0  0  0  0
   -6.5331  -35.6584   11.3749 C   0  0  0  0  0  0  0  0  0  0  0  0
   -7.1814  -34.5973   10.7369 C   0  0  0  0  0  0  0  0  0  0  0  0
   -7.1559  -33.3926   11.2670 N   0  0  0  0  0  0  0  0  0  0  0  0
   -7.8201  -34.8106    9.5397 N   0  0  0  0  0  0  0  0  0  0  0  0
   -7.8641  -36.0862    9.0130 C   0  0  0  0  0  0  0  0  0  0  0  0
   -7.2346  -37.1464    9.6376 N   0  0  0  0  0  0  0  0  0  0  0  0
   -1.1643  -33.7686    8.7146 O   0  5  0  0  0  0  0  0  0  0  0  0
    1.6097  -37.3576    7.2653 O   0  0  0  0  0  0  0  0  0  0  0  0
   -2.5708  -37.3639   12.1759 S   0  0  0  0  0  0  0  0  0  0  0  0
   -4.1361  -37.1439   12.2364 C   0  0  0  0  0  0  0  0  0  0  0  0
   -1.8511  -35.9557    9.7850 O   0  0  0  0  0  0  0  0  0  0  0  0
    0.4320  -37.9881    9.3209 O   0  5  0  0  0  0  0  0  0  0  0  0
   -4.4622  -35.8566   12.5603 N   0  0  0  0  0  0  0  0  0  0  0  0
    0.1930  -35.7034    8.2305 O   0  0  0  0  0  0  0  0  0  0  0  0
    2.1822  -36.4701    9.5728 O   0  0  0  0  0  0  0  0  0  0  0  0
   -3.3492  -35.0946   12.7794 C   0  0  1  0  0  0  0  0  0  0  0  0
   -2.2239  -35.8557   12.5856 C   0  0  2  0  0  0  0  0  0  0  0  0
   -0.7608  -35.5020   12.6846 C   0  0  0  0  0  0  0  0  0  0  0  0
   -0.3897  -34.3310   11.7678 C   0  0  0  0  0  0  0  0  0  0  0  0
    0.2007  -34.6227   10.5143 O   0  0  0  0  0  0  0  0  0  0  0  0
  1 11  1  0  0  0  0
  3 13  1  6  0  0  0
  3 17  2  0  0  0  0
  3 20  1  0  0  0  0
  3 26  1  0  0  0  0
  4 14  1  6  0  0  0
  4 18  1  0  0  0  0
  4 21  2  0  0  0  0
  4 20  1  0  0  0  0
  5 19  1  0  0  0  0
  5  7  1  0  0  0  0
  6  7  2  0  0  0  0
  6 12  1  0  0  0  0
  7  8  1  0  0  0  0
  8  9  1  0  0  0  0
  8 10  2  0  0  0  0
 10 11  1  0  0  0  0
 11 12  2  0  0  0  0
 15 23  1  0  0  0  0
 15 16  1  0  0  0  0
 16 19  1  0  0  0  0
 19 22  1  0  0  0  0
 22  2  1  6  0  0  0
 22 23  1  0  0  0  0
 23 24  1  6  0  0  0
 24 25  1  0  0  0  0
 25 26  1  0  0  0  0
M  CHG  2  13  -1  18  -1
M  END
>  <CHROM.1>
165.00932822,-58.73303346,56.75536083,169.09353389,122.98194600,-98.50067432
79.96969068,87.44675407,-2.74741772,-35.82157046,10.40745270,2.95187156,-0.03961077
1.30958349

>  <Name>
ligand

>  <RI>
0

>  <Rbt.Current_Directory>
/home/itssahil/PROJECTS/Mol_Feturizer/New_Systems/rnas/3D2G

>  <Rbt.Executable>
rbdock ($Id: //depot/dev/client3/rdock/2013.1/src/exe/rbdock.cxx#4 $)

>  <Rbt.Library>
libRbt.so (2013.1, Build901 2013/11/27)

>  <Rbt.Parameter_File>
/export/apps/rDock/src/rDock_2013.1_src/data/scripts/dock_solv.prm

>  <Rbt.Receptor>
prm/blind_docking_40.prm

>  <SCORE>
-14.4451

>  <SCORE.INTER>
-15.6325

>  <SCORE.INTER.CONST>
1

>  <SCORE.INTER.POLAR>
0

>  <SCORE.INTER.ROT>
8

>  <SCORE.INTER.SOLV>
27.7558

>  <SCORE.INTER.VDW>
-28.6069

>  <SCORE.INTER.norm>
-0.60125

>  <SCORE.INTRA>
1.10042

>  <SCORE.INTRA.DIHEDRAL>
2.20624

>  <SCORE.INTRA.DIHEDRAL.0>
9.09364

>  <SCORE.INTRA.POLAR>
0

>  <SCORE.INTRA.POLAR.0>
0

>  <SCORE.INTRA.REPUL>
0

>  <SCORE.INTRA.REPUL.0>
0

>  <SCORE.INTRA.SOLV>
2.09412

>  <SCORE.INTRA.SOLV.lig_0>
-78.5846

>  <SCORE.INTRA.VDW>
-1.04976

>  <SCORE.INTRA.VDW.0>
-2.81163

>  <SCORE.INTRA.norm>
0.0423237

>  <SCORE.RESTR>
0.0870045

>  <SCORE.RESTR.CAVITY>
0.0870045

>  <SCORE.RESTR.norm>
0.00334633

>  <SCORE.SYSTEM>
0

>  <SCORE.SYSTEM.CONST>
0

>  <SCORE.SYSTEM.DIHEDRAL>
0

>  <SCORE.SYSTEM.SOLV>
0

>  <SCORE.SYSTEM.norm>
0

>  <SCORE.heavy>
26

>  <SCORE.norm>
-0.55558

>  <RMSD>
9.350

$$$$
ligand
 OpenBabel11021811463D
libRbt.so/2013.1/901 2013/11/27
 26 27  0  0  0  0  0  0  0  0999 V2000
   -0.6360  -32.9727    8.3272 C   0  0  0  0  0  0  0  0  0  0  0  0
   -5.0271  -38.3923   11.7965 C   0  0  0  0  0  0  0  0  0  0  0  0
   -8.2496  -40.0462    7.5518 P   0  0  1  0  0  0  0  0  0  0  0  0
   -9.1904  -40.4341    5.0008 P   0  0  2  0  0  0  0  0  0  0  0  0
   -2.1243  -37.2425   11.8619 C   0  0  0  0  0  0  0  0  0  0  0  0
   -0.8598  -36.3794    9.8645 C   0  0  0  0  0  0  0  0  0  0  0  0
   -1.7181  -36.1227   10.9380 C   0  0  0  0  0  0  0  0  0  0  0  0
   -2.2349  -34.8400   11.1400 C   0  0  0  0  0  0  0  0  0  0  0  0
   -3.0553  -34.6084   12.1432 N   0  0  0  0  0  0  0  0  0  0  0  0
   -1.8600  -33.8157   10.3051 N   0  0  0  0  0  0  0  0  0  0  0  0
   -1.0234  -34.0818    9.2394 C   0  0  0  0  0  0  0  0  0  0  0  0
   -0.5117  -35.3474    9.0228 N   0  0  0  0  0  0  0  0  0  0  0  0
   -7.4465  -38.9402    6.9383 O   0  5  0  0  0  0  0  0  0  0  0  0
   -9.0717  -41.5804    4.0769 O   0  0  0  0  0  0  0  0  0  0  0  0
   -2.4585  -40.2056    9.4659 S   0  0  0  0  0  0  0  0  0  0  0  0
   -1.7242  -39.0265   10.2229 C   0  0  0  0  0  0  0  0  0  0  0  0
   -9.4682  -39.6274    8.2955 O   0  0  0  0  0  0  0  0  0  0  0  0
   -8.4904  -39.2365    4.4986 O   0  5  0  0  0  0  0  0  0  0  0  0
   -2.5628  -38.3592   11.0712 N   0  0  0  0  0  0  0  0  0  0  0  0
   -8.5321  -41.0055    6.3249 O   0  0  0  0  0  0  0  0  0  0  0  0
  -10.5664  -39.9321    5.2971 O   0  0  0  0  0  0  0  0  0  0  0  0
   -3.8321  -38.8635   11.0254 C   0  0  1  0  0  0  0  0  0  0  0  0
   -3.8787  -39.9153   10.1453 C   0  0  2  0  0  0  0  0  0  0  0  0
   -5.0183  -40.8169    9.7401 C   0  0  0  0  0  0  0  0  0  0  0  0
   -6.0734  -40.0728    8.9139 C   0  0  0  0  0  0  0  0  0  0  0  0
   -7.2046  -40.7962    8.4643 O   0  0  0  0  0  0  0  0  0  0  0  0
  1 11  1  0  0  0  0
  3 13  1  6  0  0  0
  3 17  2  0  0  0  0
  3 20  1  0  0  0  0
  3 26  1  0  0  0  0
  4 14  1  6  0  0  0
  4 18  1  0  0  0  0
  4 21  2  0  0  0  0
  4 20  1  0  0  0  0
  5 19  1  0  0  0  0
  5  7  1  0  0  0  0
  6  7  2  0  0  0  0
  6 12  1  0  0  0  0
  7  8  1  0  0  0  0
  8  9  1  0  0  0  0
  8 10  2  0  0  0  0
 10 11  1  0  0  0  0
 11 12  2  0  0  0  0
 15 23  1  0  0  0  0
 15 16  1  0  0  0  0
 16 19  1  0  0  0  0
 19 22  1  0  0  0  0
 22  2  1  1  0  0  0
 22 23  1  0  0  0  0
 23 24  1  1  0  0  0
 24 25  1  0  0  0  0
 25 26  1  0  0  0  0
M  CHG  2  13  -1  18  -1
M  END
>  <CHROM.1>
-53.64875406,63.67216424,-48.92533980,171.37737100,-111.37493892,-179.93785089
-176.87330605,23.89442044,-5.15785449,-38.52618822,8.58981693,0.14526020
-0.70924360,-0.57183451

>  <Name>
ligand

>  <RI>
0

>  <Rbt.Current_Directory>
/home/itssahil/PROJECTS/Mol_Feturizer/New_Systems/rnas/3D2G

>  <Rbt.Executable>
rbdock ($Id: //depot/dev/client3/rdock/2013.1/src/exe/rbdock.cxx#4 $)

>  <Rbt.Library>
libRbt.so (2013.1, Build901 2013/11/27)

>  <Rbt.Parameter_File>
/export/apps/rDock/src/rDock_2013.1_src/data/scripts/dock_solv.prm

>  <Rbt.Receptor>
prm/blind_docking_60.prm

>  <SCORE>
-15.3178

>  <SCORE.INTER>
-15.7599

>  <SCORE.INTER.CONST>
1

>  <SCORE.INTER.POLAR>
0

>  <SCORE.INTER.ROT>
8

>  <SCORE.INTER.SOLV>
20.3641

>  <SCORE.INTER.VDW>
-26.2279

>  <SCORE.INTER.norm>
-0.606149

>  <SCORE.INTRA>
0.442036

>  <SCORE.INTRA.DIHEDRAL>
-2.16645

>  <SCORE.INTRA.DIHEDRAL.0>
9.09364

>  <SCORE.INTRA.POLAR>
0

>  <SCORE.INTRA.POLAR.0>
0

>  <SCORE.INTRA.REPUL>
0

>  <SCORE.INTRA.REPUL.0>
0

>  <SCORE.INTRA.SOLV>
0.337513

>  <SCORE.INTRA.SOLV.lig_0>
-78.5846

>  <SCORE.INTRA.VDW>
1.35651

>  <SCORE.INTRA.VDW.0>
-2.81163

>  <SCORE.INTRA.norm>
0.0170014

>  <SCORE.RESTR>
0

>  <SCORE.RESTR.CAVITY>
0

>  <SCORE.RESTR.norm>
0

>  <SCORE.SYSTEM>
0

>  <SCORE.SYSTEM.CONST>
0

>  <SCORE.SYSTEM.DIHEDRAL>
0

>  <SCORE.SYSTEM.SOLV>
0

>  <SCORE.SYSTEM.norm>
0

>  <SCORE.heavy>
26

>  <SCORE.norm>
-0.589147

>  <RMSD>
9.355

$$$$
ligand
 OpenBabel11021811463D
libRbt.so/2013.1/901 2013/11/27
 26 27  0  0  0  0  0  0  0  0999 V2000
   -0.6590  -33.3757    8.6154 C   0  0  0  0  0  0  0  0  0  0  0  0
   -5.2473  -38.8111   11.6644 C   0  0  0  0  0  0  0  0  0  0  0  0
   -8.8777  -39.4413    7.4851 P   0  0  1  0  0  0  0  0  0  0  0  0
   -7.9393  -36.8966    7.0531 P   0  0  2  0  0  0  0  0  0  0  0  0
   -2.2337  -37.9924   11.6397 C   0  0  0  0  0  0  0  0  0  0  0  0
   -0.8948  -36.9204    9.7981 C   0  0  0  0  0  0  0  0  0  0  0  0
   -1.8050  -36.7817   10.8503 C   0  0  0  0  0  0  0  0  0  0  0  0
   -2.3518  -35.5318   11.1532 C   0  0  0  0  0  0  0  0  0  0  0  0
   -3.2205  -35.4107   12.1349 N   0  0  0  0  0  0  0  0  0  0  0  0
   -1.9569  -34.4253   10.4416 N   0  0  0  0  0  0  0  0  0  0  0  0
   -1.0686  -34.5743    9.3950 C   0  0  0  0  0  0  0  0  0  0  0  0
   -0.5264  -35.8059    9.0790 N   0  0  0  0  0  0  0  0  0  0  0  0
  -10.2354  -39.7422    8.0424 O   0  5  0  0  0  0  0  0  0  0  0  0
   -6.6274  -37.5040    6.7501 O   0  0  0  0  0  0  0  0  0  0  0  0
   -3.0705  -40.5326    8.9048 S   0  0  0  0  0  0  0  0  0  0  0  0
   -2.1551  -39.5567    9.7487 C   0  0  0  0  0  0  0  0  0  0  0  0
   -8.7305  -39.6022    6.0134 O   0  0  0  0  0  0  0  0  0  0  0  0
   -7.8085  -35.5777    7.7009 O   0  5  0  0  0  0  0  0  0  0  0  0
   -2.8511  -38.9330   10.7460 N   0  0  0  0  0  0  0  0  0  0  0  0
   -8.5915  -37.9768    8.0127 O   0  0  0  0  0  0  0  0  0  0  0  0
   -8.8526  -36.6275    5.9012 O   0  0  0  0  0  0  0  0  0  0  0  0
   -4.1702  -39.2901   10.7397 C   0  0  1  0  0  0  0  0  0  0  0  0
   -4.3979  -40.1951    9.7336 C   0  0  2  0  0  0  0  0  0  0  0  0
   -5.6588  -40.9055    9.3082 C   0  0  0  0  0  0  0  0  0  0  0  0
   -6.5788  -39.9983    8.4833 C   0  0  0  0  0  0  0  0  0  0  0  0
   -7.9254  -40.3966    8.3024 O   0  0  0  0  0  0  0  0  0  0  0  0
  1 11  1  0  0  0  0
  3 13  1  1  0  0  0
  3 17  2  0  0  0  0
  3 20  1  0  0  0  0
  3 26  1  0  0  0  0
  4 14  1  6  0  0  0
  4 18  1  0  0  0  0
  4 21  2  0  0  0  0
  4 20  1  0  0  0  0
  5 19  1  0  0  0  0
  5  7  1  0  0  0  0
  6  7  2  0  0  0  0
  6 12  1  0  0  0  0
  7  8  1  0  0  0  0
  8  9  1  0  0  0  0
  8 10  2  0  0  0  0
 10 11  1  0  0  0  0
 11 12  2  0  0  0  0
 15 23  1  0  0  0  0
 15 16  1  0  0  0  0
 16 19  1  0  0  0  0
 19 22  1  0  0  0  0
 22  2  1  1  0  0  0
 22 23  1  0  0  0  0
 23 24  1  1  0  0  0
 24 25  1  0  0  0  0
 25 26  1  0  0  0  0
M  CHG  2  13  -1  18  -1
M  END
>  <CHROM.1>
-137.56057588,65.46635246,-59.66031296,-62.23939873,-102.25575995,-164.26439334
178.41934501,-152.50941804,-5.19670556,-37.96175579,8.88632154,0.20665522
-0.46565273,-0.25966238

>  <Name>
ligand

>  <RI>
0

>  <Rbt.Current_Directory>
/home/itssahil/PROJECTS/Mol_Feturizer/New_Systems/rnas/3D2G

>  <Rbt.Executable>
rbdock ($Id: //depot/dev/client3/rdock/2013.1/src/exe/rbdock.cxx#4 $)

>  <Rbt.Library>
libRbt.so (2013.1, Build901 2013/11/27)

>  <Rbt.Parameter_File>
/export/apps/rDock/src/rDock_2013.1_src/data/scripts/dock_solv.prm

>  <Rbt.Receptor>
prm/blind_docking_100.prm

>  <SCORE>
-20.476

>  <SCORE.INTER>
-18.6794

>  <SCORE.INTER.CONST>
1

>  <SCORE.INTER.POLAR>
0

>  <SCORE.INTER.ROT>
8

>  <SCORE.INTER.SOLV>
23.6569

>  <SCORE.INTER.VDW>
-29.2719

>  <SCORE.INTER.norm>
-0.718439

>  <SCORE.INTRA>
-1.79658

>  <SCORE.INTRA.DIHEDRAL>
-0.641026

>  <SCORE.INTRA.DIHEDRAL.0>
9.09364

>  <SCORE.INTRA.POLAR>
0

>  <SCORE.INTRA.POLAR.0>
0

>  <SCORE.INTRA.REPUL>
0

>  <SCORE.INTRA.REPUL.0>
0

>  <SCORE.INTRA.SOLV>
-1.85518

>  <SCORE.INTRA.SOLV.lig_0>
-78.5846

>  <SCORE.INTRA.VDW>
-0.54848

>  <SCORE.INTRA.VDW.0>
-2.81163

>  <SCORE.INTRA.norm>
-0.0690993

>  <SCORE.RESTR>
0

>  <SCORE.RESTR.CAVITY>
0

>  <SCORE.RESTR.norm>
0

>  <SCORE.SYSTEM>
0

>  <SCORE.SYSTEM.CONST>
0

>  <SCORE.SYSTEM.DIHEDRAL>
0

>  <SCORE.SYSTEM.SOLV>
0

>  <SCORE.SYSTEM.norm>
0

>  <SCORE.heavy>
26

>  <SCORE.norm>
-0.787538

>  <RMSD>
9.357

$$$$
ligand
 OpenBabel11021811463D
libRbt.so/2013.1/901 2013/11/27
 26 27  0  0  0  0  0  0  0  0999 V2000
   -3.5552  -32.5028   11.4456 C   0  0  0  0  0  0  0  0  0  0  0  0
   -5.6594  -38.5040   11.8169 C   0  0  0  0  0  0  0  0  0  0  0  0
   -7.2867  -39.7478    6.8239 P   0  0  1  0  0  0  0  0  0  0  0  0
   -6.7884  -37.3924    5.5022 P   0  0  2  0  0  0  0  0  0  0  0  0
   -2.8004  -37.9865   12.9619 C   0  0  0  0  0  0  0  0  0  0  0  0
   -4.1022  -35.8351   13.0628 C   0  0  0  0  0  0  0  0  0  0  0  0
   -3.0125  -36.5501   12.5566 C   0  0  0  0  0  0  0  0  0  0  0  0
   -2.0936  -35.9308   11.7049 C   0  0  0  0  0  0  0  0  0  0  0  0
   -1.0609  -36.6050   11.2445 N   0  0  0  0  0  0  0  0  0  0  0  0
   -2.2887  -34.6248   11.3269 N   0  0  0  0  0  0  0  0  0  0  0  0
   -3.3595  -33.9226   11.8433 C   0  0  0  0  0  0  0  0  0  0  0  0
   -4.2713  -34.5200   12.6932 N   0  0  0  0  0  0  0  0  0  0  0  0
   -7.9031  -39.9316    8.1769 O   0  5  0  0  0  0  0  0  0  0  0  0
   -8.2086  -37.3979    5.0962 O   0  0  0  0  0  0  0  0  0  0  0  0
   -2.7535  -40.3473    9.9526 S   0  0  0  0  0  0  0  0  0  0  0  0
   -2.1455  -39.4927   11.1367 C   0  0  0  0  0  0  0  0  0  0  0  0
   -8.1466  -40.1095    5.6649 O   0  0  0  0  0  0  0  0  0  0  0  0
   -5.9130  -38.0006    4.4822 O   0  5  0  0  0  0  0  0  0  0  0  0
   -3.1118  -38.8339   11.8442 N   0  0  0  0  0  0  0  0  0  0  0  0
   -6.8238  -38.2344    6.8449 O   0  0  0  0  0  0  0  0  0  0  0  0
   -6.1530  -36.0638    5.7560 O   0  0  0  0  0  0  0  0  0  0  0  0
   -4.3566  -39.0586   11.3271 C   0  0  1  0  0  0  0  0  0  0  0  0
   -4.2630  -39.9058   10.2516 C   0  0  2  0  0  0  0  0  0  0  0  0
   -5.3256  -40.4749    9.3447 C   0  0  0  0  0  0  0  0  0  0  0  0
   -4.9950  -40.2553    7.8641 C   0  0  0  0  0  0  0  0  0  0  0  0
   -5.9693  -40.6113    6.9003 O   0  0  0  0  0  0  0  0  0  0  0  0
  1 11  1  0  0  0  0
  3 13  1  1  0  0  0
  3 17  2  0  0  0  0
  3 20  1  0  0  0  0
  3 26  1  0  0  0  0
  4 14  1  6  0  0  0
  4 18  1  0  0  0  0
  4 21  2  0  0  0  0
  4 20  1  0  0  0  0
  5 19  1  0  0  0  0
  5  7  1  0  0  0  0
  6  7  2  0  0  0  0
  6 12  1  0  0  0  0
  7  8  1  0  0  0  0
  8  9  1  0  0  0  0
  8 10  2  0  0  0  0
 10 11  1  0  0  0  0
 11 12  2  0  0  0  0
 15 23  1  0  0  0  0
 15 16  1  0  0  0  0
 16 19  1  0  0  0  0
 19 22  1  0  0  0  0
 22  2  1  1  0  0  0
 22 23  1  0  0  0  0
 23 24  1  1  0  0  0
 24 25  1  0  0  0  0
 25 26  1  0  0  0  0
M  CHG  2  13  -1  18  -1
M  END
>  <CHROM.1>
-149.54706606,108.00878830,107.99771588,62.22643872,-51.85004903,-173.45874319
69.10644829,-61.44890906,-4.93299253,-38.00873689,9.09452830,0.35267701,-0.96457878
0.00887861

>  <Name>
ligand

>  <RI>
0

>  <Rbt.Current_Directory>
/home/itssahil/PROJECTS/Mol_Feturizer/New_Systems/rnas/3D2G

>  <Rbt.Executable>
rbdock ($Id: //depot/dev/client3/rdock/2013.1/src/exe/rbdock.cxx#4 $)

>  <Rbt.Library>
libRbt.so (2013.1, Build901 2013/11/27)

>  <Rbt.Parameter_File>
/export/apps/rDock/src/rDock_2013.1_src/data/scripts/dock_solv.prm

>  <Rbt.Receptor>
prm/blind_docking_100.prm

>  <SCORE>
-10.3429

>  <SCORE.INTER>
-9.71612

>  <SCORE.INTER.CONST>
1

>  <SCORE.INTER.POLAR>
0

>  <SCORE.INTER.ROT>
8

>  <SCORE.INTER.SOLV>
17.6031

>  <SCORE.INTER.VDW>
-21.2784

>  <SCORE.INTER.norm>
-0.373697

>  <SCORE.INTRA>
-0.63006

>  <SCORE.INTRA.DIHEDRAL>
-1.65133

>  <SCORE.INTRA.DIHEDRAL.0>
9.09364

>  <SCORE.INTRA.POLAR>
0

>  <SCORE.INTRA.POLAR.0>
0

>  <SCORE.INTRA.REPUL>
0

>  <SCORE.INTRA.REPUL.0>
0

>  <SCORE.INTRA.SOLV>
-0.130183

>  <SCORE.INTRA.SOLV.lig_0>
-78.5846

>  <SCORE.INTRA.VDW>
0.260696

>  <SCORE.INTRA.VDW.0>
-2.81163

>  <SCORE.INTRA.norm>
-0.0242331

>  <SCORE.RESTR>
0.00326289

>  <SCORE.RESTR.CAVITY>
0.00326289

>  <SCORE.RESTR.norm>
0.000125496

>  <SCORE.SYSTEM>
0

>  <SCORE.SYSTEM.CONST>
0

>  <SCORE.SYSTEM.DIHEDRAL>
0

>  <SCORE.SYSTEM.SOLV>
0

>  <SCORE.SYSTEM.norm>
0

>  <SCORE.heavy>
26

>  <SCORE.norm>
-0.397804

>  <RMSD>
9.367

$$$$
ligand
 OpenBabel11021811463D
libRbt.so/2013.1/901 2013/11/27
 26 27  0  0  0  0  0  0  0  0999 V2000
   -6.6438  -46.2922   10.1918 C   0  0  0  0  0  0  0  0  0  0  0  0
   -2.4185  -38.9382   10.6858 C   0  0  0  0  0  0  0  0  0  0  0  0
   -2.8550  -35.2828   12.1858 P   0  0  1  0  0  0  0  0  0  0  0  0
   -0.5044  -35.6661   10.8182 P   0  0  2  0  0  0  0  0  0  0  0  0
   -4.6794  -40.9122    9.8232 C   0  0  0  0  0  0  0  0  0  0  0  0
   -6.5779  -42.5638    9.8548 C   0  0  0  0  0  0  0  0  0  0  0  0
   -5.2031  -42.3215    9.9335 C   0  0  0  0  0  0  0  0  0  0  0  0
   -4.3043  -43.3822   10.0758 C   0  0  0  0  0  0  0  0  0  0  0  0
   -3.0100  -43.1486   10.1331 N   0  0  0  0  0  0  0  0  0  0  0  0
   -4.7788  -44.6666   10.1851 N   0  0  0  0  0  0  0  0  0  0  0  0
   -6.1369  -44.8975   10.0919 C   0  0  0  0  0  0  0  0  0  0  0  0
   -7.0365  -43.8587    9.9427 N   0  0  0  0  0  0  0  0  0  0  0  0
   -2.2533  -34.5391   13.3387 O   0  5  0  0  0  0  0  0  0  0  0  0
   -1.2282  -35.2319    9.6061 O   0  0  0  0  0  0  0  0  0  0  0  0
   -4.9129  -39.9644   13.5217 S   0  0  0  0  0  0  0  0  0  0  0  0
   -5.3358  -40.6844   12.1782 C   0  0  0  0  0  0  0  0  0  0  0  0
   -3.4296  -34.4425   11.1009 O   0  0  0  0  0  0  0  0  0  0  0  0
    0.5187  -36.6871   10.5227 O   0  5  0  0  0  0  0  0  0  0  0  0
   -4.4925  -40.3827   11.1458 N   0  0  0  0  0  0  0  0  0  0  0  0
   -1.6780  -36.2332   11.7204 O   0  0  0  0  0  0  0  0  0  0  0  0
    0.2547  -34.6239   11.5737 O   0  0  0  0  0  0  0  0  0  0  0  0
   -3.5147  -39.5098   11.5322 C   0  0  1  0  0  0  0  0  0  0  0  0
   -3.6634  -39.2108   12.8632 C   0  0  2  0  0  0  0  0  0  0  0  0
   -2.8541  -38.3214   13.7741 C   0  0  0  0  0  0  0  0  0  0  0  0
   -3.5315  -36.9655   14.0032 C   0  0  0  0  0  0  0  0  0  0  0  0
   -3.9278  -36.2148   12.8699 O   0  0  0  0  0  0  0  0  0  0  0  0
  1 11  1  0  0  0  0
  3 13  1  1  0  0  0
  3 17  2  0  0  0  0
  3 20  1  0  0  0  0
  3 26  1  0  0  0  0
  4 14  1  6  0  0  0
  4 18  1  0  0  0  0
  4 21  2  0  0  0  0
  4 20  1  0  0  0  0
  5 19  1  0  0  0  0
  5  7  1  0  0  0  0
  6  7  2  0  0  0  0
  6 12  1  0  0  0  0
  7  8  1  0  0  0  0
  8  9  1  0  0  0  0
  8 10  2  0  0  0  0
 10 11  1  0  0  0  0
 11 12  2  0  0  0  0
 15 23  1  0  0  0  0
 15 16  1  0  0  0  0
 16 19  1  0  0  0  0
 19 22  1  0  0  0  0
 22  2  1  1  0  0  0
 22 23  1  0  0  0  0
 23 24  1  1  0  0  0
 24 25  1  0  0  0  0
 25 26  1  0  0  0  0
M  CHG  2  13  -1  18  -1
M  END
>  <CHROM.1>
-79.69788685,-35.95870010,95.77749642,-61.36532462,-79.02854096,-52.42688870
-85.19977701,-47.98395818,-3.41582289,-38.92711217,11.42400278,-2.18018886
0.71840163,0.58477225

>  <Name>
ligand

>  <RI>
0

>  <Rbt.Current_Directory>
/home/itssahil/PROJECTS/Mol_Feturizer/New_Systems/rnas/3D2G

>  <Rbt.Executable>
rbdock ($Id: //depot/dev/client3/rdock/2013.1/src/exe/rbdock.cxx#4 $)

>  <Rbt.Library>
libRbt.so (2013.1, Build901 2013/11/27)

>  <Rbt.Parameter_File>
/export/apps/rDock/src/rDock_2013.1_src/data/scripts/dock_solv.prm

>  <Rbt.Receptor>
prm/blind_docking_60.prm

>  <SCORE>
-13.6011

>  <SCORE.INTER>
-12.57

>  <SCORE.INTER.CONST>
1

>  <SCORE.INTER.POLAR>
0

>  <SCORE.INTER.ROT>
8

>  <SCORE.INTER.SOLV>
13.3971

>  <SCORE.INTER.VDW>
-21.779

>  <SCORE.INTER.norm>
-0.483462

>  <SCORE.INTRA>
-1.03111

>  <SCORE.INTRA.DIHEDRAL>
-0.6822

>  <SCORE.INTRA.DIHEDRAL.0>
9.09364

>  <SCORE.INTRA.POLAR>
0

>  <SCORE.INTRA.POLAR.0>
0

>  <SCORE.INTRA.REPUL>
0

>  <SCORE.INTRA.REPUL.0>
0

>  <SCORE.INTRA.SOLV>
0.741748

>  <SCORE.INTRA.SOLV.lig_0>
-78.5846

>  <SCORE.INTRA.VDW>
-1.06088

>  <SCORE.INTRA.VDW.0>
-2.81163

>  <SCORE.INTRA.norm>
-0.039658

>  <SCORE.RESTR>
0

>  <SCORE.RESTR.CAVITY>
0

>  <SCORE.RESTR.norm>
0

>  <SCORE.SYSTEM>
0

>  <SCORE.SYSTEM.CONST>
0

>  <SCORE.SYSTEM.DIHEDRAL>
0

>  <SCORE.SYSTEM.SOLV>
0

>  <SCORE.SYSTEM.norm>
0

>  <SCORE.heavy>
26

>  <SCORE.norm>
-0.52312

>  <RMSD>
9.374

$$$$
ligand
 OpenBabel11021811463D
libRbt.so/2013.1/901 2013/11/27
 26 27  0  0  0  0  0  0  0  0999 V2000
    0.2233  -44.3503    7.8823 C   0  0  0  0  0  0  0  0  0  0  0  0
   -4.3626  -41.3348    9.3869 C   0  0  0  0  0  0  0  0  0  0  0  0
   -8.6755  -39.1473    6.7452 P   0  0  1  0  0  0  0  0  0  0  0  0
   -8.0158  -39.9577    4.2053 P   0  0  2  0  0  0  0  0  0  0  0  0
   -3.9631  -43.4032   11.6923 C   0  0  0  0  0  0  0  0  0  0  0  0
   -2.9682  -44.7338    9.8021 C   0  0  0  0  0  0  0  0  0  0  0  0
   -2.8606  -43.6661   10.6984 C   0  0  0  0  0  0  0  0  0  0  0  0
   -1.7533  -42.8146   10.6553 C   0  0  0  0  0  0  0  0  0  0  0  0
   -1.6656  -41.8015   11.4914 N   0  0  0  0  0  0  0  0  0  0  0  0
   -0.7430  -43.0565    9.7567 N   0  0  0  0  0  0  0  0  0  0  0  0
   -0.8648  -44.1045    8.8660 C   0  0  0  0  0  0  0  0  0  0  0  0
   -1.9584  -44.9494    8.8919 N   0  0  0  0  0  0  0  0  0  0  0  0
   -8.9003  -37.6930    6.4644 O   0  5  0  0  0  0  0  0  0  0  0  0
   -8.8269  -38.7949    3.7909 O   0  0  0  0  0  0  0  0  0  0  0  0
   -7.5243  -43.4545   10.2968 S   0  0  0  0  0  0  0  0  0  0  0  0
   -6.3242  -43.8932   11.2294 C   0  0  0  0  0  0  0  0  0  0  0  0
   -9.8909  -40.0053    6.7347 O   0  0  0  0  0  0  0  0  0  0  0  0
   -8.7858  -41.2157    4.1748 O   0  5  0  0  0  0  0  0  0  0  0  0
   -5.1880  -43.1769   10.9761 N   0  0  0  0  0  0  0  0  0  0  0  0
   -7.5819  -39.5528    5.6753 O   0  0  0  0  0  0  0  0  0  0  0  0
   -6.8039  -40.2737    3.3902 O   0  0  0  0  0  0  0  0  0  0  0  0
   -5.3716  -42.2836    9.9583 C   0  0  1  0  0  0  0  0  0  0  0  0
   -6.6643  -42.3610    9.5047 C   0  0  2  0  0  0  0  0  0  0  0  0
   -7.3801  -41.5949    8.4200 C   0  0  0  0  0  0  0  0  0  0  0  0
   -6.9499  -40.1243    8.3761 C   0  0  0  0  0  0  0  0  0  0  0  0
   -7.9430  -39.1426    8.1420 O   0  0  0  0  0  0  0  0  0  0  0  0
  1 11  1  0  0  0  0
  3 13  1  6  0  0  0
  3 17  2  0  0  0  0
  3 20  1  0  0  0  0
  3 26  1  0  0  0  0
  4 14  1  6  0  0  0
  4 18  1  0  0  0  0
  4 21  2  0  0  0  0
  4 20  1  0  0  0  0
  5 19  1  0  0  0  0
  5  7  1  0  0  0  0
  6  7  2  0  0  0  0
  6 12  1  0  0  0  0
  7  8  1  0  0  0  0
  8  9  1  0  0  0  0
  8 10  2  0  0  0  0
 10 11  1  0  0  0  0
 11 12  2  0  0  0  0
 15 23  1  0  0  0  0
 15 16  1  0  0  0  0
 16 19  1  0  0  0  0
 19 22  1  0  0  0  0
 22  2  1  1  0  0  0
 22 23  1  0  0  0  0
 23 24  1  1  0  0  0
 24 25  1  0  0  0  0
 25 26  1  0  0  0  0
M  CHG  2  13  -1  18  -1
M  END
>  <CHROM.1>
-84.51364016,125.66319101,-58.70995962,53.99383084,141.91272383,-140.08817143
-64.86926417,-144.62244085,-5.91155844,-41.56747990,8.05177980,-0.73997611
0.35103350,-1.21882818

>  <Name>
ligand

>  <RI>
0

>  <Rbt.Current_Directory>
/home/itssahil/PROJECTS/Mol_Feturizer/New_Systems/rnas/3D2G

>  <Rbt.Executable>
rbdock ($Id: //depot/dev/client3/rdock/2013.1/src/exe/rbdock.cxx#4 $)

>  <Rbt.Library>
libRbt.so (2013.1, Build901 2013/11/27)

>  <Rbt.Parameter_File>
/export/apps/rDock/src/rDock_2013.1_src/data/scripts/dock_solv.prm

>  <Rbt.Receptor>
prm/blind_docking_100.prm

>  <SCORE>
-7.89157

>  <SCORE.INTER>
-9.85008

>  <SCORE.INTER.CONST>
1

>  <SCORE.INTER.POLAR>
0

>  <SCORE.INTER.ROT>
8

>  <SCORE.INTER.SOLV>
17.4737

>  <SCORE.INTER.VDW>
-21.3246

>  <SCORE.INTER.norm>
-0.378849

>  <SCORE.INTRA>
1.95851

>  <SCORE.INTRA.DIHEDRAL>
1.6902

>  <SCORE.INTRA.DIHEDRAL.0>
9.09364

>  <SCORE.INTRA.POLAR>
0

>  <SCORE.INTRA.POLAR.0>
0

>  <SCORE.INTRA.REPUL>
0

>  <SCORE.INTRA.REPUL.0>
0

>  <SCORE.INTRA.SOLV>
-0.0684145

>  <SCORE.INTRA.SOLV.lig_0>
-78.5846

>  <SCORE.INTRA.VDW>
1.14762

>  <SCORE.INTRA.VDW.0>
-2.81163

>  <SCORE.INTRA.norm>
0.0753275

>  <SCORE.RESTR>
0

>  <SCORE.RESTR.CAVITY>
0

>  <SCORE.RESTR.norm>
0

>  <SCORE.SYSTEM>
0

>  <SCORE.SYSTEM.CONST>
0

>  <SCORE.SYSTEM.DIHEDRAL>
0

>  <SCORE.SYSTEM.SOLV>
0

>  <SCORE.SYSTEM.norm>
0

>  <SCORE.heavy>
26

>  <SCORE.norm>
-0.303522

>  <RMSD>
9.375

$$$$
ligand
 OpenBabel11021811463D
libRbt.so/2013.1/901 2013/11/27
 26 27  0  0  0  0  0  0  0  0999 V2000
   -0.2014  -42.4877    6.2617 C   0  0  0  0  0  0  0  0  0  0  0  0
   -4.3613  -40.1563   12.6814 C   0  0  0  0  0  0  0  0  0  0  0  0
   -2.4205  -36.3329   11.9439 P   0  0  1  0  0  0  0  0  0  0  0  0
   -3.4259  -33.7807   11.8078 P   0  0  2  0  0  0  0  0  0  0  0  0
   -4.1646  -42.2883   10.4080 C   0  0  0  0  0  0  0  0  0  0  0  0
   -2.3665  -41.1939    9.0288 C   0  0  0  0  0  0  0  0  0  0  0  0
   -3.1318  -42.3296    9.3107 C   0  0  0  0  0  0  0  0  0  0  0  0
   -2.9202  -43.5184    8.6071 C   0  0  0  0  0  0  0  0  0  0  0  0
   -3.6330  -44.5888    8.8883 N   0  0  0  0  0  0  0  0  0  0  0  0
   -1.9858  -43.5568    7.6009 N   0  0  0  0  0  0  0  0  0  0  0  0
   -1.2250  -42.4347    7.3394 C   0  0  0  0  0  0  0  0  0  0  0  0
   -1.4178  -41.2549    8.0333 N   0  0  0  0  0  0  0  0  0  0  0  0
   -1.3293  -37.0286   11.1891 O   0  5  0  0  0  0  0  0  0  0  0  0
   -4.5737  -34.2811   11.0242 O   0  0  0  0  0  0  0  0  0  0  0  0
   -6.2273  -39.2403    9.3654 S   0  0  0  0  0  0  0  0  0  0  0  0
   -5.5352  -40.6524    9.1938 C   0  0  0  0  0  0  0  0  0  0  0  0
   -2.3925  -36.4963   13.4224 O   0  0  0  0  0  0  0  0  0  0  0  0
   -3.0489  -32.4052   11.4309 O   0  5  0  0  0  0  0  0  0  0  0  0
   -4.8775  -41.0434   10.3264 N   0  0  0  0  0  0  0  0  0  0  0  0
   -2.2961  -34.8339   11.4511 O   0  0  0  0  0  0  0  0  0  0  0  0
   -3.5912  -33.7004   13.2908 O   0  0  0  0  0  0  0  0  0  0  0  0
   -4.9608  -40.0980   11.3096 C   0  0  1  0  0  0  0  0  0  0  0  0
   -5.7069  -39.0355   10.8654 C   0  0  2  0  0  0  0  0  0  0  0  0
   -6.1086  -37.7530   11.5506 C   0  0  0  0  0  0  0  0  0  0  0  0
   -4.8971  -36.9917   12.1005 C   0  0  0  0  0  0  0  0  0  0  0  0
   -3.7387  -36.9019   11.2912 O   0  0  0  0  0  0  0  0  0  0  0  0
  1 11  1  0  0  0  0
  3 13  1  6  0  0  0
  3 17  2  0  0  0  0
  3 20  1  0  0  0  0
  3 26  1  0  0  0  0
  4 14  1  6  0  0  0
  4 18  1  0  0  0  0
  4 21  2  0  0  0  0
  4 20  1  0  0  0  0
  5 19  1  0  0  0  0
  5  7  1  0  0  0  0
  6  7  2  0  0  0  0
  6 12  1  0  0  0  0
  7  8  1  0  0  0  0
  8  9  1  0  0  0  0
  8 10  2  0  0  0  0
 10 11  1  0  0  0  0
 11 12  2  0  0  0  0
 15 23  1  0  0  0  0
 15 16  1  0  0  0  0
 16 19  1  0  0  0  0
 19 22  1  0  0  0  0
 22  2  1  1  0  0  0
 22 23  1  0  0  0  0
 23 24  1  1  0  0  0
 24 25  1  0  0  0  0
 25 26  1  0  0  0  0
M  CHG  2  13  -1  18  -1
M  END
>  <CHROM.1>
169.37144285,56.86117915,42.49858694,-67.59544873,-126.12830135,42.65122192
-170.01809376,150.21232062,-3.52642465,-38.50681811,10.53112984,-1.50827848
0.34670061,0.39289239

>  <Name>
ligand

>  <RI>
0

>  <Rbt.Current_Directory>
/home/itssahil/PROJECTS/Mol_Feturizer/New_Systems/rnas/3D2G

>  <Rbt.Executable>
rbdock ($Id: //depot/dev/client3/rdock/2013.1/src/exe/rbdock.cxx#4 $)

>  <Rbt.Library>
libRbt.so (2013.1, Build901 2013/11/27)

>  <Rbt.Parameter_File>
/export/apps/rDock/src/rDock_2013.1_src/data/scripts/dock_solv.prm

>  <Rbt.Receptor>
prm/blind_docking_60.prm

>  <SCORE>
-7.66199

>  <SCORE.INTER>
-5.1414

>  <SCORE.INTER.CONST>
1

>  <SCORE.INTER.POLAR>
0

>  <SCORE.INTER.ROT>
8

>  <SCORE.INTER.SOLV>
11.5099

>  <SCORE.INTER.VDW>
-16.1976

>  <SCORE.INTER.norm>
-0.197746

>  <SCORE.INTRA>
-2.53312

>  <SCORE.INTRA.DIHEDRAL>
-1.36138

>  <SCORE.INTRA.DIHEDRAL.0>
9.09364

>  <SCORE.INTRA.POLAR>
0

>  <SCORE.INTRA.POLAR.0>
0

>  <SCORE.INTRA.REPUL>
0

>  <SCORE.INTRA.REPUL.0>
0

>  <SCORE.INTRA.SOLV>
-2.38195

>  <SCORE.INTRA.SOLV.lig_0>
-78.5846

>  <SCORE.INTRA.VDW>
-0.661454

>  <SCORE.INTRA.VDW.0>
-2.81163

>  <SCORE.INTRA.norm>
-0.0974276

>  <SCORE.RESTR>
0.0125223

>  <SCORE.RESTR.CAVITY>
0.0125223

>  <SCORE.RESTR.norm>
0.000481626

>  <SCORE.SYSTEM>
0

>  <SCORE.SYSTEM.CONST>
0

>  <SCORE.SYSTEM.DIHEDRAL>
0

>  <SCORE.SYSTEM.SOLV>
0

>  <SCORE.SYSTEM.norm>
0

>  <SCORE.heavy>
26

>  <SCORE.norm>
-0.294692

>  <RMSD>
9.376

$$$$
ligand
 OpenBabel11021811463D
libRbt.so/2013.1/901 2013/11/27
 26 27  0  0  0  0  0  0  0  0999 V2000
   -0.5500  -33.4244    8.4474 C   0  0  0  0  0  0  0  0  0  0  0  0
   -1.6891  -39.9086    9.7768 C   0  0  0  0  0  0  0  0  0  0  0  0
   -6.4207  -39.0139    6.0263 P   0  0  1  0  0  0  0  0  0  0  0  0
   -7.4768  -36.5674    6.6912 P   0  0  2  0  0  0  0  0  0  0  0  0
   -2.2389  -37.6861   11.9006 C   0  0  0  0  0  0  0  0  0  0  0  0
   -0.9556  -36.8497    9.9040 C   0  0  0  0  0  0  0  0  0  0  0  0
   -1.7801  -36.5694   10.9978 C   0  0  0  0  0  0  0  0  0  0  0  0
   -2.2151  -35.2636   11.2401 C   0  0  0  0  0  0  0  0  0  0  0  0
   -3.0044  -35.0090   12.2625 N   0  0  0  0  0  0  0  0  0  0  0  0
   -1.7920  -34.2427   10.4244 N   0  0  0  0  0  0  0  0  0  0  0  0
   -0.9896  -34.5312    9.3384 C   0  0  0  0  0  0  0  0  0  0  0  0
   -0.5588  -35.8193    9.0821 N   0  0  0  0  0  0  0  0  0  0  0  0
   -7.7619  -39.2960    6.6314 O   0  5  0  0  0  0  0  0  0  0  0  0
   -8.7039  -36.8009    5.9029 O   0  0  0  0  0  0  0  0  0  0  0  0
   -5.4644  -39.2644   10.5827 S   0  0  0  0  0  0  0  0  0  0  0  0
   -4.5772  -38.2930   11.4610 C   0  0  0  0  0  0  0  0  0  0  0  0
   -6.1192  -39.7276    4.7562 O   0  0  0  0  0  0  0  0  0  0  0  0
   -7.1094  -35.1396    6.7437 O   0  5  0  0  0  0  0  0  0  0  0  0
   -3.2422  -38.4531   11.2153 N   0  0  0  0  0  0  0  0  0  0  0  0
   -6.4077  -37.4358    5.9063 O   0  0  0  0  0  0  0  0  0  0  0  0
   -7.4984  -36.9724    8.1294 O   0  0  0  0  0  0  0  0  0  0  0  0
   -3.0135  -39.4356   10.2934 C   0  0  1  0  0  0  0  0  0  0  0  0
   -4.2098  -39.9585    9.8707 C   0  0  2  0  0  0  0  0  0  0  0  0
   -4.5168  -41.0412    8.8661 C   0  0  0  0  0  0  0  0  0  0  0  0
   -5.5897  -40.6053    7.8618 C   0  0  0  0  0  0  0  0  0  0  0  0
   -5.4124  -39.3747    7.1841 O   0  0  0  0  0  0  0  0  0  0  0  0
  1 11  1  0  0  0  0
  3 13  1  1  0  0  0
  3 17  2  0  0  0  0
  3 20  1  0  0  0  0
  3 26  1  0  0  0  0
  4 14  1  6  0  0  0
  4 18  1  0  0  0  0
  4 21  2  0  0  0  0
  4 20  1  0  0  0  0
  5 19  1  0  0  0  0
  5  7  1  0  0  0  0
  6  7  2  0  0  0  0
  6 12  1  0  0  0  0
  7  8  1  0  0  0  0
  8  9  1  0  0  0  0
  8 10  2  0  0  0  0
 10 11  1  0  0  0  0
 11 12  2  0  0  0  0
 15 23  1  0  0  0  0
 15 16  1  0  0  0  0
 16 19  1  0  0  0  0
 19 22  1  0  0  0  0
 22  2  1  6  0  0  0
 22 23  1  0  0  0  0
 23 24  1  6  0  0  0
 24 25  1  0  0  0  0
 25 26  1  0  0  0  0
M  CHG  2  13  -1  18  -1
M  END
>  <CHROM.1>
14.76941609,-100.51523382,-73.75660339,-74.25312510,48.59575315,51.57042587
172.59220789,47.63238565,-4.61479155,-37.67067807,8.63803616,0.09280882,-0.71396325
-0.33051211

>  <Name>
ligand

>  <RI>
0

>  <Rbt.Current_Directory>
/home/itssahil/PROJECTS/Mol_Feturizer/New_Systems/rnas/3D2G

>  <Rbt.Executable>
rbdock ($Id: //depot/dev/client3/rdock/2013.1/src/exe/rbdock.cxx#4 $)

>  <Rbt.Library>
libRbt.so (2013.1, Build901 2013/11/27)

>  <Rbt.Parameter_File>
/export/apps/rDock/src/rDock_2013.1_src/data/scripts/dock_solv.prm

>  <Rbt.Receptor>
prm/blind_docking_80.prm

>  <SCORE>
-16.5237

>  <SCORE.INTER>
-16.3723

>  <SCORE.INTER.CONST>
1

>  <SCORE.INTER.POLAR>
0

>  <SCORE.INTER.ROT>
8

>  <SCORE.INTER.SOLV>
15.6142

>  <SCORE.INTER.VDW>
-25.0529

>  <SCORE.INTER.norm>
-0.629703

>  <SCORE.INTRA>
-0.151463

>  <SCORE.INTRA.DIHEDRAL>
-0.899913

>  <SCORE.INTRA.DIHEDRAL.0>
9.09364

>  <SCORE.INTRA.POLAR>
0

>  <SCORE.INTRA.POLAR.0>
0

>  <SCORE.INTRA.REPUL>
0

>  <SCORE.INTRA.REPUL.0>
0

>  <SCORE.INTRA.SOLV>
-1.02286

>  <SCORE.INTRA.SOLV.lig_0>
-78.5846

>  <SCORE.INTRA.VDW>
0.809924

>  <SCORE.INTRA.VDW.0>
-2.81163

>  <SCORE.INTRA.norm>
-0.0058255

>  <SCORE.RESTR>
0

>  <SCORE.RESTR.CAVITY>
0

>  <SCORE.RESTR.norm>
0

>  <SCORE.SYSTEM>
0

>  <SCORE.SYSTEM.CONST>
0

>  <SCORE.SYSTEM.DIHEDRAL>
0

>  <SCORE.SYSTEM.SOLV>
0

>  <SCORE.SYSTEM.norm>
0

>  <SCORE.heavy>
26

>  <SCORE.norm>
-0.635528

>  <RMSD>
9.380

$$$$
ligand
 OpenBabel11021811463D
libRbt.so/2013.1/901 2013/11/27
 26 27  0  0  0  0  0  0  0  0999 V2000
   -4.5485  -44.2173   12.3521 C   0  0  0  0  0  0  0  0  0  0  0  0
   -0.5868  -42.4351    5.9453 C   0  0  0  0  0  0  0  0  0  0  0  0
   -4.7001  -42.9848    3.7783 P   0  0  1  0  0  0  0  0  0  0  0  0
   -7.0468  -44.3703    4.1197 P   0  0  2  0  0  0  0  0  0  0  0  0
   -0.1152  -43.7533    8.7368 C   0  0  0  0  0  0  0  0  0  0  0  0
   -2.2537  -44.8624    9.4648 C   0  0  0  0  0  0  0  0  0  0  0  0
   -1.2897  -43.8716    9.6744 C   0  0  0  0  0  0  0  0  0  0  0  0
   -1.3858  -43.0113   10.7715 C   0  0  0  0  0  0  0  0  0  0  0  0
   -0.4663  -42.0908   10.9722 N   0  0  0  0  0  0  0  0  0  0  0  0
   -2.4592  -43.1109   11.6229 N   0  0  0  0  0  0  0  0  0  0  0  0
   -3.3984  -44.1017   11.4161 C   0  0  0  0  0  0  0  0  0  0  0  0
   -3.3112  -44.9648   10.3400 N   0  0  0  0  0  0  0  0  0  0  0  0
   -4.8324  -43.1438    2.2945 O   0  5  0  0  0  0  0  0  0  0  0  0
   -7.5578  -43.1575    4.7902 O   0  0  0  0  0  0  0  0  0  0  0  0
   -0.8428  -46.3398    6.0142 S   0  0  0  0  0  0  0  0  0  0  0  0
   -0.5065  -45.8199    7.4699 C   0  0  0  0  0  0  0  0  0  0  0  0
   -5.1509  -41.6802    4.3335 O   0  0  0  0  0  0  0  0  0  0  0  0
   -7.5951  -45.6072    4.7077 O   0  5  0  0  0  0  0  0  0  0  0  0
   -0.4200  -44.4567    7.5216 N   0  0  0  0  0  0  0  0  0  0  0  0
   -5.4828  -44.2392    4.3432 O   0  0  0  0  0  0  0  0  0  0  0  0
   -7.3374  -44.5216    2.6617 O   0  0  0  0  0  0  0  0  0  0  0  0
   -0.6167  -43.8921    6.2928 C   0  0  1  0  0  0  0  0  0  0  0  0
   -0.8655  -44.8752    5.3683 C   0  0  2  0  0  0  0  0  0  0  0  0
   -1.1579  -44.7931    3.8907 C   0  0  0  0  0  0  0  0  0  0  0  0
   -2.6377  -44.5050    3.6131 C   0  0  0  0  0  0  0  0  0  0  0  0
   -3.1709  -43.2656    4.0428 O   0  0  0  0  0  0  0  0  0  0  0  0
  1 11  1  0  0  0  0
  3 13  1  6  0  0  0
  3 17  2  0  0  0  0
  3 20  1  0  0  0  0
  3 26  1  0  0  0  0
  4 14  1  1  0  0  0
  4 18  1  0  0  0  0
  4 21  2  0  0  0  0
  4 20  1  0  0  0  0
  5 19  1  0  0  0  0
  5  7  1  0  0  0  0
  6  7  2  0  0  0  0
  6 12  1  0  0  0  0
  7  8  1  0  0  0  0
  8  9  1  0  0  0  0
  8 10  2  0  0  0  0
 10 11  1  0  0  0  0
 11 12  2  0  0  0  0
 15 23  1  0  0  0  0
 15 16  1  0  0  0  0
 16 19  1  0  0  0  0
 19 22  1  0  0  0  0
 22  2  1  1  0  0  0
 22 23  1  0  0  0  0
 23 24  1  1  0  0  0
 24 25  1  0  0  0  0
 25 26  1  0  0  0  0
M  CHG  2  13  -1  18  -1
M  END
>  <CHROM.1>
-65.50509623,-69.82823826,17.75358404,-59.96537259,96.29670497,64.33067617
-178.90614317,-56.82827195,-3.34267024,-44.05096409,6.37867816,0.95997665
-0.09853345,1.51620539

>  <Name>
ligand

>  <RI>
0

>  <Rbt.Current_Directory>
/home/itssahil/PROJECTS/Mol_Feturizer/New_Systems/rnas/3D2G

>  <Rbt.Executable>
rbdock ($Id: //depot/dev/client3/rdock/2013.1/src/exe/rbdock.cxx#4 $)

>  <Rbt.Library>
libRbt.so (2013.1, Build901 2013/11/27)

>  <Rbt.Parameter_File>
/export/apps/rDock/src/rDock_2013.1_src/data/scripts/dock_solv.prm

>  <Rbt.Receptor>
prm/pocket_docking_5.prm

>  <SCORE>
-9.02489

>  <SCORE.INTER>
-5.95442

>  <SCORE.INTER.CONST>
1

>  <SCORE.INTER.POLAR>
0

>  <SCORE.INTER.ROT>
8

>  <SCORE.INTER.SOLV>
14.2722

>  <SCORE.INTER.VDW>
-17.6604

>  <SCORE.INTER.norm>
-0.229016

>  <SCORE.INTRA>
-3.07047

>  <SCORE.INTRA.DIHEDRAL>
-4.21544

>  <SCORE.INTRA.DIHEDRAL.0>
9.09364

>  <SCORE.INTRA.POLAR>
0

>  <SCORE.INTRA.POLAR.0>
0

>  <SCORE.INTRA.REPUL>
0

>  <SCORE.INTRA.REPUL.0>
0

>  <SCORE.INTRA.SOLV>
-2.21469

>  <SCORE.INTRA.SOLV.lig_0>
-78.5846

>  <SCORE.INTRA.VDW>
0.144596

>  <SCORE.INTRA.VDW.0>
-2.81163

>  <SCORE.INTRA.norm>
-0.118095

>  <SCORE.RESTR>
0

>  <SCORE.RESTR.CAVITY>
0

>  <SCORE.RESTR.norm>
0

>  <SCORE.SYSTEM>
0

>  <SCORE.SYSTEM.CONST>
0

>  <SCORE.SYSTEM.DIHEDRAL>
0

>  <SCORE.SYSTEM.SOLV>
0

>  <SCORE.SYSTEM.norm>
0

>  <SCORE.heavy>
26

>  <SCORE.norm>
-0.347111

>  <RMSD>
9.388

$$$$
ligand
 OpenBabel11021811463D
libRbt.so/2013.1/901 2013/11/27
 26 27  0  0  0  0  0  0  0  0999 V2000
   -0.6002  -33.2473    8.5694 C   0  0  0  0  0  0  0  0  0  0  0  0
   -5.1845  -38.7017   11.5267 C   0  0  0  0  0  0  0  0  0  0  0  0
   -7.0223  -38.2890    6.8822 P   0  0  1  0  0  0  0  0  0  0  0  0
   -5.8610  -36.7978    4.8895 P   0  0  2  0  0  0  0  0  0  0  0  0
   -2.2119  -37.7646   11.7216 C   0  0  0  0  0  0  0  0  0  0  0  0
   -0.8076  -36.7403    9.9017 C   0  0  0  0  0  0  0  0  0  0  0  0
   -1.7737  -36.5793   10.8995 C   0  0  0  0  0  0  0  0  0  0  0  0
   -2.3665  -35.3325   11.1164 C   0  0  0  0  0  0  0  0  0  0  0  0
   -3.2872  -35.1912   12.0467 N   0  0  0  0  0  0  0  0  0  0  0  0
   -1.9633  -34.2488   10.3749 N   0  0  0  0  0  0  0  0  0  0  0  0
   -1.0191  -34.4203    9.3822 C   0  0  0  0  0  0  0  0  0  0  0  0
   -0.4308  -35.6496    9.1512 N   0  0  0  0  0  0  0  0  0  0  0  0
   -7.7001  -37.0615    7.4097 O   0  5  0  0  0  0  0  0  0  0  0  0
   -6.2447  -37.7807    3.8557 O   0  0  0  0  0  0  0  0  0  0  0  0
   -2.7029  -40.4979    9.0910 S   0  0  0  0  0  0  0  0  0  0  0  0
   -1.9041  -39.4363    9.9497 C   0  0  0  0  0  0  0  0  0  0  0  0
   -7.8519  -39.1641    6.0108 O   0  0  0  0  0  0  0  0  0  0  0  0
   -4.6014  -36.1038    4.5610 O   0  5  0  0  0  0  0  0  0  0  0  0
   -2.7108  -38.7819   10.8380 N   0  0  0  0  0  0  0  0  0  0  0  0
   -5.7279  -37.7086    6.1802 O   0  0  0  0  0  0  0  0  0  0  0  0
   -6.8135  -35.6780    5.1579 O   0  0  0  0  0  0  0  0  0  0  0  0
   -4.0104  -39.1919   10.7356 C   0  0  1  0  0  0  0  0  0  0  0  0
   -4.1123  -40.1648    9.7732 C   0  0  2  0  0  0  0  0  0  0  0  0
   -5.3029  -40.9502    9.2822 C   0  0  0  0  0  0  0  0  0  0  0  0
   -5.9458  -40.3074    8.0480 C   0  0  0  0  0  0  0  0  0  0  0  0
   -6.5234  -39.0220    8.1865 O   0  0  0  0  0  0  0  0  0  0  0  0
  1 11  1  0  0  0  0
  3 13  1  1  0  0  0
  3 17  2  0  0  0  0
  3 20  1  0  0  0  0
  3 26  1  0  0  0  0
  4 14  1  6  0  0  0
  4 18  1  0  0  0  0
  4 21  2  0  0  0  0
  4 20  1  0  0  0  0
  5 19  1  0  0  0  0
  5  7  1  0  0  0  0
  6  7  2  0  0  0  0
  6 12  1  0  0  0  0
  7  8  1  0  0  0  0
  8  9  1  0  0  0  0
  8 10  2  0  0  0  0
 10 11  1  0  0  0  0
 11 12  2  0  0  0  0
 15 23  1  0  0  0  0
 15 16  1  0  0  0  0
 16 19  1  0  0  0  0
 19 22  1  0  0  0  0
 22  2  1  1  0  0  0
 22 23  1  0  0  0  0
 23 24  1  1  0  0  0
 24 25  1  0  0  0  0
 25 26  1  0  0  0  0
M  CHG  2  13  -1  18  -1
M  END
>  <CHROM.1>
-66.50891167,66.31499620,-57.43898428,-72.69800428,-86.23438979,-63.87238271
172.54672958,173.79621517,-4.30002089,-37.62253407,8.32836128,-0.26836416
-0.76090237,-0.65866295

>  <Name>
ligand

>  <RI>
0

>  <Rbt.Current_Directory>
/home/itssahil/PROJECTS/Mol_Feturizer/New_Systems/rnas/3D2G

>  <Rbt.Executable>
rbdock ($Id: //depot/dev/client3/rdock/2013.1/src/exe/rbdock.cxx#4 $)

>  <Rbt.Library>
libRbt.so (2013.1, Build901 2013/11/27)

>  <Rbt.Parameter_File>
/export/apps/rDock/src/rDock_2013.1_src/data/scripts/dock_solv.prm

>  <Rbt.Receptor>
prm/blind_docking_100.prm

>  <SCORE>
-22.7675

>  <SCORE.INTER>
-19.6218

>  <SCORE.INTER.CONST>
1

>  <SCORE.INTER.POLAR>
0

>  <SCORE.INTER.ROT>
8

>  <SCORE.INTER.SOLV>
23.1172

>  <SCORE.INTER.VDW>
-29.7202

>  <SCORE.INTER.norm>
-0.754683

>  <SCORE.INTRA>
-3.14576

>  <SCORE.INTRA.DIHEDRAL>
-3.32379

>  <SCORE.INTRA.DIHEDRAL.0>
9.09364

>  <SCORE.INTRA.POLAR>
0

>  <SCORE.INTRA.POLAR.0>
0

>  <SCORE.INTRA.REPUL>
0

>  <SCORE.INTRA.REPUL.0>
0

>  <SCORE.INTRA.SOLV>
-1.22551

>  <SCORE.INTRA.SOLV.lig_0>
-78.5846

>  <SCORE.INTRA.VDW>
-0.871113

>  <SCORE.INTRA.VDW.0>
-2.81163

>  <SCORE.INTRA.norm>
-0.120991

>  <SCORE.RESTR>
0

>  <SCORE.RESTR.CAVITY>
0

>  <SCORE.RESTR.norm>
0

>  <SCORE.SYSTEM>
0

>  <SCORE.SYSTEM.CONST>
0

>  <SCORE.SYSTEM.DIHEDRAL>
0

>  <SCORE.SYSTEM.SOLV>
0

>  <SCORE.SYSTEM.norm>
0

>  <SCORE.heavy>
26

>  <SCORE.norm>
-0.875674

>  <RMSD>
9.390

$$$$
ligand
 OpenBabel11021811463D
libRbt.so/2013.1/901 2013/11/27
 26 27  0  0  0  0  0  0  0  0999 V2000
    0.5857  -47.2944    5.8093 C   0  0  0  0  0  0  0  0  0  0  0  0
   -7.2254  -45.8839    7.3811 C   0  0  0  0  0  0  0  0  0  0  0  0
   -7.5199  -41.5946    7.7008 P   0  0  1  0  0  0  0  0  0  0  0  0
   -9.5321  -40.0128    6.7050 P   0  0  2  0  0  0  0  0  0  0  0  0
   -4.9269  -47.9936    7.2451 C   0  0  0  0  0  0  0  0  0  0  0  0
   -2.4738  -48.2561    7.7415 C   0  0  0  0  0  0  0  0  0  0  0  0
   -3.4769  -47.8005    6.8807 C   0  0  0  0  0  0  0  0  0  0  0  0
   -3.1458  -47.1995    5.6632 C   0  0  0  0  0  0  0  0  0  0  0  0
   -4.0953  -46.7872    4.8499 N   0  0  0  0  0  0  0  0  0  0  0  0
   -1.8256  -47.0143    5.3321 N   0  0  0  0  0  0  0  0  0  0  0  0
   -0.8421  -47.4805    6.1818 C   0  0  0  0  0  0  0  0  0  0  0  0
   -1.1554  -48.0842    7.3850 N   0  0  0  0  0  0  0  0  0  0  0  0
   -6.4083  -41.9114    6.7476 O   0  5  0  0  0  0  0  0  0  0  0  0
  -10.0582  -39.9108    8.0814 O   0  0  0  0  0  0  0  0  0  0  0  0
   -5.0850  -46.2358   10.6387 S   0  0  0  0  0  0  0  0  0  0  0  0
   -4.5398  -47.2482    9.5523 C   0  0  0  0  0  0  0  0  0  0  0  0
   -7.2750  -40.4567    8.6275 O   0  0  0  0  0  0  0  0  0  0  0  0
  -10.6057  -39.9942    5.6934 O   0  5  0  0  0  0  0  0  0  0  0  0
   -5.2341  -47.1649    8.3779 N   0  0  0  0  0  0  0  0  0  0  0  0
   -8.7659  -41.4000    6.7444 O   0  0  0  0  0  0  0  0  0  0  0  0
   -8.6037  -38.9362    6.2444 O   0  0  0  0  0  0  0  0  0  0  0  0
   -6.2439  -46.2473    8.4532 C   0  0  1  0  0  0  0  0  0  0  0  0
   -6.2442  -45.6630    9.6948 C   0  0  2  0  0  0  0  0  0  0  0  0
   -7.1295  -44.5937   10.2852 C   0  0  0  0  0  0  0  0  0  0  0  0
   -6.9457  -43.2436    9.5831 C   0  0  0  0  0  0  0  0  0  0  0  0
   -7.7551  -42.9586    8.4568 O   0  0  0  0  0  0  0  0  0  0  0  0
  1 11  1  0  0  0  0
  3 13  1  6  0  0  0
  3 17  2  0  0  0  0
  3 20  1  0  0  0  0
  3 26  1  0  0  0  0
  4 14  1  1  0  0  0
  4 18  1  0  0  0  0
  4 21  2  0  0  0  0
  4 20  1  0  0  0  0
  5 19  1  0  0  0  0
  5  7  1  0  0  0  0
  6  7  2  0  0  0  0
  6 12  1  0  0  0  0
  7  8  1  0  0  0  0
  8  9  1  0  0  0  0
  8 10  2  0  0  0  0
 10 11  1  0  0  0  0
 11 12  2  0  0  0  0
 15 23  1  0  0  0  0
 15 16  1  0  0  0  0
 16 19  1  0  0  0  0
 19 22  1  0  0  0  0
 22  2  1  6  0  0  0
 22 23  1  0  0  0  0
 23 24  1  6  0  0  0
 24 25  1  0  0  0  0
 25 26  1  0  0  0  0
M  CHG  2  13  -1  18  -1
M  END
>  <CHROM.1>
-119.47661311,-56.22243800,68.16291066,-63.31274294,113.50512957,89.27004844
-177.43820614,85.31906097,-5.99010106,-44.22028682,7.62548110,-0.45115556
0.73163387,-0.93754125

>  <Name>
ligand

>  <RI>
0

>  <Rbt.Current_Directory>
/home/itssahil/PROJECTS/Mol_Feturizer/New_Systems/rnas/3D2G

>  <Rbt.Executable>
rbdock ($Id: //depot/dev/client3/rdock/2013.1/src/exe/rbdock.cxx#4 $)

>  <Rbt.Library>
libRbt.so (2013.1, Build901 2013/11/27)

>  <Rbt.Parameter_File>
/export/apps/rDock/src/rDock_2013.1_src/data/scripts/dock_solv.prm

>  <Rbt.Receptor>
prm/pocket_docking_7.prm

>  <SCORE>
-16.9404

>  <SCORE.INTER>
-16.469

>  <SCORE.INTER.CONST>
1

>  <SCORE.INTER.POLAR>
0

>  <SCORE.INTER.ROT>
8

>  <SCORE.INTER.SOLV>
15.6087

>  <SCORE.INTER.VDW>
-25.1156

>  <SCORE.INTER.norm>
-0.633425

>  <SCORE.INTRA>
-0.471368

>  <SCORE.INTRA.DIHEDRAL>
1.07078

>  <SCORE.INTRA.DIHEDRAL.0>
9.09364

>  <SCORE.INTRA.POLAR>
0

>  <SCORE.INTRA.POLAR.0>
0

>  <SCORE.INTRA.REPUL>
0

>  <SCORE.INTRA.REPUL.0>
0

>  <SCORE.INTRA.SOLV>
-1.06158

>  <SCORE.INTRA.SOLV.lig_0>
-78.5846

>  <SCORE.INTRA.VDW>
-0.475966

>  <SCORE.INTRA.VDW.0>
-2.81163

>  <SCORE.INTRA.norm>
-0.0181296

>  <SCORE.RESTR>
0

>  <SCORE.RESTR.CAVITY>
0

>  <SCORE.RESTR.norm>
0

>  <SCORE.SYSTEM>
0

>  <SCORE.SYSTEM.CONST>
0

>  <SCORE.SYSTEM.DIHEDRAL>
0

>  <SCORE.SYSTEM.SOLV>
0

>  <SCORE.SYSTEM.norm>
0

>  <SCORE.heavy>
26

>  <SCORE.norm>
-0.651554

>  <RMSD>
9.395

$$$$
ligand
 OpenBabel11021811463D
libRbt.so/2013.1/901 2013/11/27
 26 27  0  0  0  0  0  0  0  0999 V2000
   -0.9970  -42.9424   11.2441 C   0  0  0  0  0  0  0  0  0  0  0  0
   -7.4458  -44.4555    9.0031 C   0  0  0  0  0  0  0  0  0  0  0  0
   -7.6493  -41.8712    4.7021 P   0  0  1  0  0  0  0  0  0  0  0  0
   -9.1159  -40.3445    6.4517 P   0  0  2  0  0  0  0  0  0  0  0  0
   -5.6087  -46.3168   10.7099 C   0  0  0  0  0  0  0  0  0  0  0  0
   -3.3437  -45.5466    9.9288 C   0  0  0  0  0  0  0  0  0  0  0  0
   -4.3882  -45.4434   10.8526 C   0  0  0  0  0  0  0  0  0  0  0  0
   -4.3271  -44.5075   11.8886 C   0  0  0  0  0  0  0  0  0  0  0  0
   -5.3211  -44.4044   12.7456 N   0  0  0  0  0  0  0  0  0  0  0  0
   -3.2128  -43.7162   12.0265 N   0  0  0  0  0  0  0  0  0  0  0  0
   -2.1928  -43.8152   11.1011 C   0  0  0  0  0  0  0  0  0  0  0  0
   -2.2439  -44.7304   10.0666 N   0  0  0  0  0  0  0  0  0  0  0  0
   -7.5726  -41.7279    3.2128 O   0  5  0  0  0  0  0  0  0  0  0  0
   -8.3122  -39.1281    6.2145 O   0  0  0  0  0  0  0  0  0  0  0  0
   -5.8262  -47.4423    7.0606 S   0  0  0  0  0  0  0  0  0  0  0  0
   -5.3533  -47.4921    8.5693 C   0  0  0  0  0  0  0  0  0  0  0  0
   -6.4536  -41.4138    5.4601 O   0  0  0  0  0  0  0  0  0  0  0  0
   -8.6012  -41.1435    7.5799 O   0  5  0  0  0  0  0  0  0  0  0  0
   -5.8985  -46.4829    9.3124 N   0  0  0  0  0  0  0  0  0  0  0  0
   -8.9850  -41.1042    5.0665 O   0  0  0  0  0  0  0  0  0  0  0  0
  -10.5594  -40.1571    6.7902 O   0  0  0  0  0  0  0  0  0  0  0  0
   -6.6908  -45.6688    8.5529 C   0  0  1  0  0  0  0  0  0  0  0  0
   -6.7175  -46.1275    7.2598 C   0  0  2  0  0  0  0  0  0  0  0  0
   -7.4399  -45.6099    6.0408 C   0  0  0  0  0  0  0  0  0  0  0  0
   -7.0803  -44.1513    5.7363 C   0  0  0  0  0  0  0  0  0  0  0  0
   -7.9533  -43.4050    4.9082 O   0  0  0  0  0  0  0  0  0  0  0  0
  1 11  1  0  0  0  0
  3 13  1  6  0  0  0
  3 17  2  0  0  0  0
  3 20  1  0  0  0  0
  3 26  1  0  0  0  0
  4 14  1  6  0  0  0
  4 18  1  0  0  0  0
  4 21  2  0  0  0  0
  4 20  1  0  0  0  0
  5 19  1  0  0  0  0
  5  7  1  0  0  0  0
  6  7  2  0  0  0  0
  6 12  1  0  0  0  0
  7  8  1  0  0  0  0
  8  9  1  0  0  0  0
  8 10  2  0  0  0  0
 10 11  1  0  0  0  0
 11 12  2  0  0  0  0
 15 23  1  0  0  0  0
 15 16  1  0  0  0  0
 16 19  1  0  0  0  0
 19 22  1  0  0  0  0
 22  2  1  1  0  0  0
 22 23  1  0  0  0  0
 23 24  1  1  0  0  0
 24 25  1  0  0  0  0
 25 26  1  0  0  0  0
M  CHG  2  13  -1  18  -1
M  END
>  <CHROM.1>
-147.93319029,88.87787208,-36.24380678,76.13911065,-123.56929425,-160.80822854
174.64078267,124.88009386,-6.40853737,-43.60468233,7.78553963,-0.30838513
-0.91983221,0.29289369

>  <Name>
ligand

>  <RI>
0

>  <Rbt.Current_Directory>
/home/itssahil/PROJECTS/Mol_Feturizer/New_Systems/rnas/3D2G

>  <Rbt.Executable>
rbdock ($Id: //depot/dev/client3/rdock/2013.1/src/exe/rbdock.cxx#4 $)

>  <Rbt.Library>
libRbt.so (2013.1, Build901 2013/11/27)

>  <Rbt.Parameter_File>
/export/apps/rDock/src/rDock_2013.1_src/data/scripts/dock_solv.prm

>  <Rbt.Receptor>
prm/pocket_docking_5.prm

>  <SCORE>
-13.4371

>  <SCORE.INTER>
-13.17

>  <SCORE.INTER.CONST>
1

>  <SCORE.INTER.POLAR>
0

>  <SCORE.INTER.ROT>
8

>  <SCORE.INTER.SOLV>
25.0388

>  <SCORE.INTER.VDW>
-26.0596

>  <SCORE.INTER.norm>
-0.506537

>  <SCORE.INTRA>
-0.267185

>  <SCORE.INTRA.DIHEDRAL>
1.42108

>  <SCORE.INTRA.DIHEDRAL.0>
9.09364

>  <SCORE.INTRA.POLAR>
0

>  <SCORE.INTRA.POLAR.0>
0

>  <SCORE.INTRA.REPUL>
0

>  <SCORE.INTRA.REPUL.0>
0

>  <SCORE.INTRA.SOLV>
-1.27292

>  <SCORE.INTRA.SOLV.lig_0>
-78.5846

>  <SCORE.INTRA.VDW>
-0.341264

>  <SCORE.INTRA.VDW.0>
-2.81163

>  <SCORE.INTRA.norm>
-0.0102763

>  <SCORE.RESTR>
0

>  <SCORE.RESTR.CAVITY>
0

>  <SCORE.RESTR.norm>
0

>  <SCORE.SYSTEM>
0

>  <SCORE.SYSTEM.CONST>
0

>  <SCORE.SYSTEM.DIHEDRAL>
0

>  <SCORE.SYSTEM.SOLV>
0

>  <SCORE.SYSTEM.norm>
0

>  <SCORE.heavy>
26

>  <SCORE.norm>
-0.516813

>  <RMSD>
9.402

$$$$
ligand
 OpenBabel11021811463D
libRbt.so/2013.1/901 2013/11/27
 26 27  0  0  0  0  0  0  0  0999 V2000
   -0.5099  -33.0648    8.3353 C   0  0  0  0  0  0  0  0  0  0  0  0
   -4.8645  -38.8662   11.6034 C   0  0  0  0  0  0  0  0  0  0  0  0
   -6.3247  -39.1858    6.8682 P   0  0  1  0  0  0  0  0  0  0  0  0
   -6.5373  -36.8602    5.4228 P   0  0  2  0  0  0  0  0  0  0  0  0
   -2.1644  -37.3125   11.8223 C   0  0  0  0  0  0  0  0  0  0  0  0
   -0.8459  -36.4723    9.8503 C   0  0  0  0  0  0  0  0  0  0  0  0
   -1.7147  -36.1989   10.9112 C   0  0  0  0  0  0  0  0  0  0  0  0
   -2.2015  -34.9044   11.1119 C   0  0  0  0  0  0  0  0  0  0  0  0
   -3.0318  -34.6568   12.1030 N   0  0  0  0  0  0  0  0  0  0  0  0
   -1.7870  -33.8859   10.2887 N   0  0  0  0  0  0  0  0  0  0  0  0
   -0.9404  -34.1681    9.2351 C   0  0  0  0  0  0  0  0  0  0  0  0
   -0.4579  -35.4453    9.0198 N   0  0  0  0  0  0  0  0  0  0  0  0
   -7.0785  -38.4423    7.9281 O   0  5  0  0  0  0  0  0  0  0  0  0
   -6.7555  -35.9936    6.5989 O   0  0  0  0  0  0  0  0  0  0  0  0
   -1.9160  -40.3331    9.4886 S   0  0  0  0  0  0  0  0  0  0  0  0
   -1.4079  -39.0486   10.2593 C   0  0  0  0  0  0  0  0  0  0  0  0
   -7.1222  -40.1447    6.0571 O   0  0  0  0  0  0  0  0  0  0  0  0
   -7.8036  -37.3584    4.8529 O   0  5  0  0  0  0  0  0  0  0  0  0
   -2.3870  -38.4937   11.0350 N   0  0  0  0  0  0  0  0  0  0  0  0
   -5.6501  -38.0256    6.0292 O   0  0  0  0  0  0  0  0  0  0  0  0
   -5.8419  -36.2564    4.2460 O   0  0  0  0  0  0  0  0  0  0  0  0
   -3.5662  -39.1749   10.9222 C   0  0  1  0  0  0  0  0  0  0  0  0
   -3.4050  -40.2374   10.0688 C   0  0  2  0  0  0  0  0  0  0  0  0
   -4.3760  -41.2992    9.6160 C   0  0  0  0  0  0  0  0  0  0  0  0
   -5.5063  -40.7166    8.7599 C   0  0  0  0  0  0  0  0  0  0  0  0
   -5.1589  -39.8843    7.6684 O   0  0  0  0  0  0  0  0  0  0  0  0
  1 11  1  0  0  0  0
  3 13  1  1  0  0  0
  3 17  2  0  0  0  0
  3 20  1  0  0  0  0
  3 26  1  0  0  0  0
  4 14  1  1  0  0  0
  4 18  1  0  0  0  0
  4 21  2  0  0  0  0
  4 20  1  0  0  0  0
  5 19  1  0  0  0  0
  5  7  1  0  0  0  0
  6  7  2  0  0  0  0
  6 12  1  0  0  0  0
  7  8  1  0  0  0  0
  8  9  1  0  0  0  0
  8 10  2  0  0  0  0
 10 11  1  0  0  0  0
 11 12  2  0  0  0  0
 15 23  1  0  0  0  0
 15 16  1  0  0  0  0
 16 19  1  0  0  0  0
 19 22  1  0  0  0  0
 22  2  1  1  0  0  0
 22 23  1  0  0  0  0
 23 24  1  1  0  0  0
 24 25  1  0  0  0  0
 25 26  1  0  0  0  0
M  CHG  2  13  -1  18  -1
M  END
>  <CHROM.1>
-54.46155174,57.61317830,-38.56334173,79.06182189,-114.08755337,50.68530088
-174.74139445,55.46962653,-4.09466474,-37.73351439,8.52574388,0.01355154
-0.77135888,-0.43097790

>  <Name>
ligand

>  <RI>
0

>  <Rbt.Current_Directory>
/home/itssahil/PROJECTS/Mol_Feturizer/New_Systems/rnas/3D2G

>  <Rbt.Executable>
rbdock ($Id: //depot/dev/client3/rdock/2013.1/src/exe/rbdock.cxx#4 $)

>  <Rbt.Library>
libRbt.so (2013.1, Build901 2013/11/27)

>  <Rbt.Parameter_File>
/export/apps/rDock/src/rDock_2013.1_src/data/scripts/dock_solv.prm

>  <Rbt.Receptor>
prm/blind_docking_100.prm

>  <SCORE>
-19.3082

>  <SCORE.INTER>
-17.8006

>  <SCORE.INTER.CONST>
1

>  <SCORE.INTER.POLAR>
0

>  <SCORE.INTER.ROT>
8

>  <SCORE.INTER.SOLV>
16.6911

>  <SCORE.INTER.VDW>
-26.3641

>  <SCORE.INTER.norm>
-0.684639

>  <SCORE.INTRA>
-1.50755

>  <SCORE.INTRA.DIHEDRAL>
-2.88483

>  <SCORE.INTRA.DIHEDRAL.0>
9.09364

>  <SCORE.INTRA.POLAR>
0

>  <SCORE.INTRA.POLAR.0>
0

>  <SCORE.INTRA.REPUL>
0

>  <SCORE.INTRA.REPUL.0>
0

>  <SCORE.INTRA.SOLV>
-1.33533

>  <SCORE.INTRA.SOLV.lig_0>
-78.5846

>  <SCORE.INTRA.VDW>
0.602525

>  <SCORE.INTRA.VDW.0>
-2.81163

>  <SCORE.INTRA.norm>
-0.0579829

>  <SCORE.RESTR>
0

>  <SCORE.RESTR.CAVITY>
0

>  <SCORE.RESTR.norm>
0

>  <SCORE.SYSTEM>
0

>  <SCORE.SYSTEM.CONST>
0

>  <SCORE.SYSTEM.DIHEDRAL>
0

>  <SCORE.SYSTEM.SOLV>
0

>  <SCORE.SYSTEM.norm>
0

>  <SCORE.heavy>
26

>  <SCORE.norm>
-0.742622

>  <RMSD>
9.404

$$$$
ligand
 OpenBabel11021811463D
libRbt.so/2013.1/901 2013/11/27
 26 27  0  0  0  0  0  0  0  0999 V2000
   -1.3514  -42.5209   10.9273 C   0  0  0  0  0  0  0  0  0  0  0  0
   -3.8916  -48.0374    7.8927 C   0  0  0  0  0  0  0  0  0  0  0  0
   -4.7085  -44.1221    3.7781 P   0  0  1  0  0  0  0  0  0  0  0  0
   -5.0841  -41.6206    2.7084 P   0  0  2  0  0  0  0  0  0  0  0  0
   -5.1168  -46.8312   10.4996 C   0  0  0  0  0  0  0  0  0  0  0  0
   -3.0126  -45.6664    9.7589 C   0  0  0  0  0  0  0  0  0  0  0  0
   -4.1164  -45.7095   10.6160 C   0  0  0  0  0  0  0  0  0  0  0  0
   -4.3213  -44.6975   11.5578 C   0  0  0  0  0  0  0  0  0  0  0  0
   -5.3712  -44.7355   12.3510 N   0  0  0  0  0  0  0  0  0  0  0  0
   -3.4071  -43.6787   11.6721 N   0  0  0  0  0  0  0  0  0  0  0  0
   -2.3280  -43.6368   10.8118 C   0  0  0  0  0  0  0  0  0  0  0  0
   -2.1176  -44.6265    9.8701 N   0  0  0  0  0  0  0  0  0  0  0  0
   -4.7264  -44.6889    2.3914 O   0  5  0  0  0  0  0  0  0  0  0  0
   -3.7790  -41.2789    3.3097 O   0  0  0  0  0  0  0  0  0  0  0  0
   -7.3705  -46.2988    7.4551 S   0  0  0  0  0  0  0  0  0  0  0  0
   -6.9369  -46.2084    8.9737 C   0  0  0  0  0  0  0  0  0  0  0  0
   -3.3621  -43.9066    4.3733 O   0  0  0  0  0  0  0  0  0  0  0  0
   -6.0183  -40.4788    2.7139 O   0  5  0  0  0  0  0  0  0  0  0  0
   -5.7166  -46.7832    9.1949 N   0  0  0  0  0  0  0  0  0  0  0  0
   -5.5773  -42.8066    3.6375 O   0  0  0  0  0  0  0  0  0  0  0  0
   -5.0865  -42.0630    1.2810 O   0  0  0  0  0  0  0  0  0  0  0  0
   -5.1960  -47.3173    8.0499 C   0  0  1  0  0  0  0  0  0  0  0  0
   -6.0567  -47.0949    7.0046 C   0  0  2  0  0  0  0  0  0  0  0  0
   -5.9563  -47.4615    5.5447 C   0  0  0  0  0  0  0  0  0  0  0  0
   -5.0995  -46.4623    4.7592 C   0  0  0  0  0  0  0  0  0  0  0  0
   -5.5851  -45.1414    4.6027 O   0  0  0  0  0  0  0  0  0  0  0  0
  1 11  1  0  0  0  0
  3 13  1  6  0  0  0
  3 17  2  0  0  0  0
  3 20  1  0  0  0  0
  3 26  1  0  0  0  0
  4 14  1  1  0  0  0
  4 18  1  0  0  0  0
  4 21  2  0  0  0  0
  4 20  1  0  0  0  0
  5 19  1  0  0  0  0
  5  7  1  0  0  0  0
  6  7  2  0  0  0  0
  6 12  1  0  0  0  0
  7  8  1  0  0  0  0
  8  9  1  0  0  0  0
  8 10  2  0  0  0  0
 10 11  1  0  0  0  0
 11 12  2  0  0  0  0
 15 23  1  0  0  0  0
 15 16  1  0  0  0  0
 16 19  1  0  0  0  0
 19 22  1  0  0  0  0
 22  2  1  6  0  0  0
 22 23  1  0  0  0  0
 23 24  1  6  0  0  0
 24 25  1  0  0  0  0
 25 26  1  0  0  0  0
M  CHG  2  13  -1  18  -1
M  END
>  <CHROM.1>
-63.98794183,-98.62405468,-61.67161892,-59.07644131,97.69653275,-66.94676859
-179.23951079,65.49732107,-4.80105436,-44.58466683,6.63979455,-1.39608099
-0.98357966,-1.07220117

>  <Name>
ligand

>  <RI>
0

>  <Rbt.Current_Directory>
/home/itssahil/PROJECTS/Mol_Feturizer/New_Systems/rnas/3D2G

>  <Rbt.Executable>
rbdock ($Id: //depot/dev/client3/rdock/2013.1/src/exe/rbdock.cxx#4 $)

>  <Rbt.Library>
libRbt.so (2013.1, Build901 2013/11/27)

>  <Rbt.Parameter_File>
/export/apps/rDock/src/rDock_2013.1_src/data/scripts/dock_solv.prm

>  <Rbt.Receptor>
prm/pocket_docking_7.prm

>  <SCORE>
-14.4805

>  <SCORE.INTER>
-10.8496

>  <SCORE.INTER.CONST>
1

>  <SCORE.INTER.POLAR>
0

>  <SCORE.INTER.ROT>
8

>  <SCORE.INTER.SOLV>
16.0109

>  <SCORE.INTER.VDW>
-21.5033

>  <SCORE.INTER.norm>
-0.417291

>  <SCORE.INTRA>
-3.63093

>  <SCORE.INTRA.DIHEDRAL>
-4.04537

>  <SCORE.INTRA.DIHEDRAL.0>
9.09364

>  <SCORE.INTRA.POLAR>
0

>  <SCORE.INTRA.POLAR.0>
0

>  <SCORE.INTRA.REPUL>
0

>  <SCORE.INTRA.REPUL.0>
0

>  <SCORE.INTRA.SOLV>
-1.89281

>  <SCORE.INTRA.SOLV.lig_0>
-78.5846

>  <SCORE.INTRA.VDW>
-0.66184

>  <SCORE.INTRA.VDW.0>
-2.81163

>  <SCORE.INTRA.norm>
-0.139651

>  <SCORE.RESTR>
0

>  <SCORE.RESTR.CAVITY>
0

>  <SCORE.RESTR.norm>
0

>  <SCORE.SYSTEM>
0

>  <SCORE.SYSTEM.CONST>
0

>  <SCORE.SYSTEM.DIHEDRAL>
0

>  <SCORE.SYSTEM.SOLV>
0

>  <SCORE.SYSTEM.norm>
0

>  <SCORE.heavy>
26

>  <SCORE.norm>
-0.556942

>  <RMSD>
9.411

$$$$
ligand
 OpenBabel11021811463D
libRbt.so/2013.1/901 2013/11/27
 26 27  0  0  0  0  0  0  0  0999 V2000
   -1.0077  -32.9053    8.8422 C   0  0  0  0  0  0  0  0  0  0  0  0
   -1.8453  -40.7185    8.6278 C   0  0  0  0  0  0  0  0  0  0  0  0
   -7.0189  -38.7488    7.1993 P   0  0  1  0  0  0  0  0  0  0  0  0
   -7.2847  -36.2164    6.1703 P   0  0  2  0  0  0  0  0  0  0  0  0
   -0.7884  -38.4111   10.4475 C   0  0  0  0  0  0  0  0  0  0  0  0
   -1.9457  -36.1768   10.4029 C   0  0  0  0  0  0  0  0  0  0  0  0
   -0.8593  -36.9680   10.0173 C   0  0  0  0  0  0  0  0  0  0  0  0
    0.1840  -36.4202    9.2660 C   0  0  0  0  0  0  0  0  0  0  0  0
    1.2119  -37.1664    8.9198 N   0  0  0  0  0  0  0  0  0  0  0  0
    0.1184  -35.1080    8.8652 N   0  0  0  0  0  0  0  0  0  0  0  0
   -0.9512  -34.3307    9.2629 C   0  0  0  0  0  0  0  0  0  0  0  0
   -1.9858  -34.8572   10.0132 N   0  0  0  0  0  0  0  0  0  0  0  0
   -7.6349  -38.1683    8.4354 O   0  5  0  0  0  0  0  0  0  0  0  0
   -8.4966  -36.8318    5.5921 O   0  0  0  0  0  0  0  0  0  0  0  0
   -4.4425  -39.2766   11.1760 S   0  0  0  0  0  0  0  0  0  0  0  0
   -3.0702  -38.5090   11.3491 C   0  0  0  0  0  0  0  0  0  0  0  0
   -7.9288  -39.5481    6.3352 O   0  0  0  0  0  0  0  0  0  0  0  0
   -6.6285  -35.2857    5.2324 O   0  5  0  0  0  0  0  0  0  0  0  0
   -2.1191  -38.9525   10.4733 N   0  0  0  0  0  0  0  0  0  0  0  0
   -6.3874  -37.4842    6.4871 O   0  0  0  0  0  0  0  0  0  0  0  0
   -7.4559  -35.3970    7.4082 O   0  0  0  0  0  0  0  0  0  0  0  0
   -2.5893  -39.9693    9.6908 C   0  0  1  0  0  0  0  0  0  0  0  0
   -3.8986  -40.2287   10.0096 C   0  0  2  0  0  0  0  0  0  0  0  0
   -4.8751  -41.2298    9.4442 C   0  0  0  0  0  0  0  0  0  0  0  0
   -6.0682  -40.5479    8.7650 C   0  0  0  0  0  0  0  0  0  0  0  0
   -5.8067  -39.5915    7.7542 O   0  0  0  0  0  0  0  0  0  0  0  0
  1 11  1  0  0  0  0
  3 13  1  1  0  0  0
  3 17  2  0  0  0  0
  3 20  1  0  0  0  0
  3 26  1  0  0  0  0
  4 14  1  6  0  0  0
  4 18  1  0  0  0  0
  4 21  2  0  0  0  0
  4 20  1  0  0  0  0
  5 19  1  0  0  0  0
  5  7  1  0  0  0  0
  6  7  2  0  0  0  0
  6 12  1  0  0  0  0
  7  8  1  0  0  0  0
  8  9  1  0  0  0  0
  8 10  2  0  0  0  0
 10 11  1  0  0  0  0
 11 12  2  0  0  0  0
 15 23  1  0  0  0  0
 15 16  1  0  0  0  0
 16 19  1  0  0  0  0
 19 22  1  0  0  0  0
 22  2  1  6  0  0  0
 22 23  1  0  0  0  0
 23 24  1  6  0  0  0
 24 25  1  0  0  0  0
 25 26  1  0  0  0  0
M  CHG  2  13  -1  18  -1
M  END
>  <CHROM.1>
-54.29758344,-65.46180899,34.92879569,-45.77111974,63.18353880,54.22461109
-171.67135342,53.33137404,-4.29134033,-37.70640747,8.53473636,-0.05017717
-0.45559786,-0.41301409

>  <Name>
ligand

>  <RI>
0

>  <Rbt.Current_Directory>
/home/itssahil/PROJECTS/Mol_Feturizer/New_Systems/rnas/3D2G

>  <Rbt.Executable>
rbdock ($Id: //depot/dev/client3/rdock/2013.1/src/exe/rbdock.cxx#4 $)

>  <Rbt.Library>
libRbt.so (2013.1, Build901 2013/11/27)

>  <Rbt.Parameter_File>
/export/apps/rDock/src/rDock_2013.1_src/data/scripts/dock_solv.prm

>  <Rbt.Receptor>
prm/blind_docking_100.prm

>  <SCORE>
-17.4632

>  <SCORE.INTER>
-15.7288

>  <SCORE.INTER.CONST>
1

>  <SCORE.INTER.POLAR>
0

>  <SCORE.INTER.ROT>
8

>  <SCORE.INTER.SOLV>
23.8013

>  <SCORE.INTER.VDW>
-27.353

>  <SCORE.INTER.norm>
-0.604954

>  <SCORE.INTRA>
-1.73437

>  <SCORE.INTRA.DIHEDRAL>
-2.61838

>  <SCORE.INTRA.DIHEDRAL.0>
9.09364

>  <SCORE.INTRA.POLAR>
0

>  <SCORE.INTRA.POLAR.0>
0

>  <SCORE.INTRA.REPUL>
0

>  <SCORE.INTRA.REPUL.0>
0

>  <SCORE.INTRA.SOLV>
-2.25411

>  <SCORE.INTRA.SOLV.lig_0>
-78.5846

>  <SCORE.INTRA.VDW>
0.70187

>  <SCORE.INTRA.VDW.0>
-2.81163

>  <SCORE.INTRA.norm>
-0.0667067

>  <SCORE.RESTR>
0

>  <SCORE.RESTR.CAVITY>
0

>  <SCORE.RESTR.norm>
0

>  <SCORE.SYSTEM>
0

>  <SCORE.SYSTEM.CONST>
0

>  <SCORE.SYSTEM.DIHEDRAL>
0

>  <SCORE.SYSTEM.SOLV>
0

>  <SCORE.SYSTEM.norm>
0

>  <SCORE.heavy>
26

>  <SCORE.norm>
-0.67166

>  <RMSD>
9.417

$$$$
ligand
 OpenBabel11021811463D
libRbt.so/2013.1/901 2013/11/27
 26 27  0  0  0  0  0  0  0  0999 V2000
   -0.5391  -33.2045    8.4010 C   0  0  0  0  0  0  0  0  0  0  0  0
   -5.1535  -38.6385   11.7719 C   0  0  0  0  0  0  0  0  0  0  0  0
   -7.3805  -38.1777    7.5417 P   0  0  1  0  0  0  0  0  0  0  0  0
   -6.3567  -36.9227    5.3236 P   0  0  2  0  0  0  0  0  0  0  0  0
   -2.2238  -37.5579   11.7402 C   0  0  0  0  0  0  0  0  0  0  0  0
   -0.9477  -36.6687    9.7617 C   0  0  0  0  0  0  0  0  0  0  0  0
   -1.7660  -36.4173   10.8672 C   0  0  0  0  0  0  0  0  0  0  0  0
   -2.1960  -35.1177   11.1486 C   0  0  0  0  0  0  0  0  0  0  0  0
   -2.9795  -34.8899   12.1817 N   0  0  0  0  0  0  0  0  0  0  0  0
   -1.7738  -34.0751   10.3602 N   0  0  0  0  0  0  0  0  0  0  0  0
   -0.9776  -34.3349    9.2625 C   0  0  0  0  0  0  0  0  0  0  0  0
   -0.5519  -35.6164    8.9675 N   0  0  0  0  0  0  0  0  0  0  0  0
   -7.8278  -36.9019    8.1871 O   0  5  0  0  0  0  0  0  0  0  0  0
   -4.9788  -36.5210    4.9745 O   0  0  0  0  0  0  0  0  0  0  0  0
   -2.7747  -40.3350    9.1680 S   0  0  0  0  0  0  0  0  0  0  0  0
   -1.9671  -39.2286    9.9592 C   0  0  0  0  0  0  0  0  0  0  0  0
   -8.4212  -38.9184    6.7790 O   0  0  0  0  0  0  0  0  0  0  0  0
   -7.2500  -35.7618    5.4986 O   0  5  0  0  0  0  0  0  0  0  0  0
   -2.7367  -38.6059   10.9016 N   0  0  0  0  0  0  0  0  0  0  0  0
   -6.1370  -37.7225    6.6746 O   0  0  0  0  0  0  0  0  0  0  0  0
   -7.0902  -37.7794    4.3433 O   0  0  0  0  0  0  0  0  0  0  0  0
   -4.0188  -39.0787   10.8983 C   0  0  1  0  0  0  0  0  0  0  0  0
   -4.1442  -40.0640    9.9514 C   0  0  2  0  0  0  0  0  0  0  0  0
   -5.3283  -40.9101    9.5545 C   0  0  0  0  0  0  0  0  0  0  0  0
   -6.1654  -40.2469    8.4548 C   0  0  0  0  0  0  0  0  0  0  0  0
   -6.7950  -39.0123    8.7450 O   0  0  0  0  0  0  0  0  0  0  0  0
  1 11  1  0  0  0  0
  3 13  1  1  0  0  0
  3 17  2  0  0  0  0
  3 20  1  0  0  0  0
  3 26  1  0  0  0  0
  4 14  1  6  0  0  0
  4 18  1  0  0  0  0
  4 21  2  0  0  0  0
  4 20  1  0  0  0  0
  5 19  1  0  0  0  0
  5  7  1  0  0  0  0
  6  7  2  0  0  0  0
  6 12  1  0  0  0  0
  7  8  1  0  0  0  0
  8  9  1  0  0  0  0
  8 10  2  0  0  0  0
 10 11  1  0  0  0  0
 11 12  2  0  0  0  0
 15 23  1  0  0  0  0
 15 16  1  0  0  0  0
 16 19  1  0  0  0  0
 19 22  1  0  0  0  0
 22  2  1  1  0  0  0
 22 23  1  0  0  0  0
 23 24  1  1  0  0  0
 24 25  1  0  0  0  0
 25 26  1  0  0  0  0
M  CHG  2  13  -1  18  -1
M  END
>  <CHROM.1>
-75.03067548,60.22479744,-48.38463366,171.23177695,-91.49148244,-62.96957690
166.66201114,-174.34449796,-4.47917984,-37.55035387,8.59092749,-0.15001283
-0.67374726,-0.64162305

>  <Name>
ligand

>  <RI>
0

>  <Rbt.Current_Directory>
/home/itssahil/PROJECTS/Mol_Feturizer/New_Systems/rnas/3D2G

>  <Rbt.Executable>
rbdock ($Id: //depot/dev/client3/rdock/2013.1/src/exe/rbdock.cxx#4 $)

>  <Rbt.Library>
libRbt.so (2013.1, Build901 2013/11/27)

>  <Rbt.Parameter_File>
/export/apps/rDock/src/rDock_2013.1_src/data/scripts/dock_solv.prm

>  <Rbt.Receptor>
prm/blind_docking_80.prm

>  <SCORE>
-22.558

>  <SCORE.INTER>
-20.3888

>  <SCORE.INTER.CONST>
1

>  <SCORE.INTER.POLAR>
0

>  <SCORE.INTER.ROT>
8

>  <SCORE.INTER.SOLV>
17.4773

>  <SCORE.INTER.VDW>
-28.3516

>  <SCORE.INTER.norm>
-0.784185

>  <SCORE.INTRA>
-2.16922

>  <SCORE.INTRA.DIHEDRAL>
-3.01441

>  <SCORE.INTRA.DIHEDRAL.0>
9.09364

>  <SCORE.INTRA.POLAR>
0

>  <SCORE.INTRA.POLAR.0>
0

>  <SCORE.INTRA.REPUL>
0

>  <SCORE.INTRA.REPUL.0>
0

>  <SCORE.INTRA.SOLV>
-0.212903

>  <SCORE.INTRA.SOLV.lig_0>
-78.5846

>  <SCORE.INTRA.VDW>
-0.555558

>  <SCORE.INTRA.VDW.0>
-2.81163

>  <SCORE.INTRA.norm>
-0.0834314

>  <SCORE.RESTR>
0

>  <SCORE.RESTR.CAVITY>
0

>  <SCORE.RESTR.norm>
0

>  <SCORE.SYSTEM>
0

>  <SCORE.SYSTEM.CONST>
0

>  <SCORE.SYSTEM.DIHEDRAL>
0

>  <SCORE.SYSTEM.SOLV>
0

>  <SCORE.SYSTEM.norm>
0

>  <SCORE.heavy>
26

>  <SCORE.norm>
-0.867617

>  <RMSD>
9.428

$$$$
ligand
 OpenBabel11021811463D
libRbt.so/2013.1/901 2013/11/27
 26 27  0  0  0  0  0  0  0  0999 V2000
   -0.5486  -33.2290    9.6239 C   0  0  0  0  0  0  0  0  0  0  0  0
   -5.5505  -36.9404   11.8055 C   0  0  0  0  0  0  0  0  0  0  0  0
   -5.1907  -43.1614   11.7049 P   0  0  1  0  0  0  0  0  0  0  0  0
   -5.7472  -45.7168   10.8664 P   0  0  2  0  0  0  0  0  0  0  0  0
   -3.7093  -35.4724   13.8567 C   0  0  0  0  0  0  0  0  0  0  0  0
   -1.6728  -35.5021   12.3785 C   0  0  0  0  0  0  0  0  0  0  0  0
   -2.8672  -34.8805   12.7553 C   0  0  0  0  0  0  0  0  0  0  0  0
   -3.3078  -33.7324   12.0914 C   0  0  0  0  0  0  0  0  0  0  0  0
   -4.4413  -33.1611   12.4403 N   0  0  0  0  0  0  0  0  0  0  0  0
   -2.5386  -33.1857   11.0932 N   0  0  0  0  0  0  0  0  0  0  0  0
   -1.3680  -33.8146   10.7184 C   0  0  0  0  0  0  0  0  0  0  0  0
   -0.9246  -34.9554   11.3606 N   0  0  0  0  0  0  0  0  0  0  0  0
   -3.7278  -43.4245   11.5177 O   0  5  0  0  0  0  0  0  0  0  0  0
   -6.7634  -46.6738   11.3493 O   0  0  0  0  0  0  0  0  0  0  0  0
   -3.2741  -39.2709   13.9743 S   0  0  0  0  0  0  0  0  0  0  0  0
   -3.0045  -37.7657   14.3792 C   0  0  0  0  0  0  0  0  0  0  0  0
   -5.8659  -42.4345   10.5962 O   0  0  0  0  0  0  0  0  0  0  0  0
   -4.4158  -46.3371   10.7289 O   0  5  0  0  0  0  0  0  0  0  0  0
   -3.7832  -36.8951   13.6695 N   0  0  0  0  0  0  0  0  0  0  0  0
   -5.7788  -44.6023   11.9932 O   0  0  0  0  0  0  0  0  0  0  0  0
   -5.9766  -45.0897    9.5295 O   0  0  0  0  0  0  0  0  0  0  0  0
   -4.5758  -37.5478   12.7676 C   0  0  1  0  0  0  0  0  0  0  0  0
   -4.3636  -38.9003   12.8615 C   0  0  2  0  0  0  0  0  0  0  0  0
   -4.9837  -40.0536   12.1126 C   0  0  0  0  0  0  0  0  0  0  0  0
   -5.6921  -41.0349   13.0534 C   0  0  0  0  0  0  0  0  0  0  0  0
   -5.2511  -42.3803   13.0737 O   0  0  0  0  0  0  0  0  0  0  0  0
  1 11  1  0  0  0  0
  3 13  1  6  0  0  0
  3 17  2  0  0  0  0
  3 20  1  0  0  0  0
  3 26  1  0  0  0  0
  4 14  1  1  0  0  0
  4 18  1  0  0  0  0
  4 21  2  0  0  0  0
  4 20  1  0  0  0  0
  5 19  1  0  0  0  0
  5  7  1  0  0  0  0
  6  7  2  0  0  0  0
  6 12  1  0  0  0  0
  7  8  1  0  0  0  0
  8  9  1  0  0  0  0
  8 10  2  0  0  0  0
 10 11  1  0  0  0  0
 11 12  2  0  0  0  0
 15 23  1  0  0  0  0
 15 16  1  0  0  0  0
 16 19  1  0  0  0  0
 19 22  1  0  0  0  0
 22  2  1  1  0  0  0
 22 23  1  0  0  0  0
 23 24  1  1  0  0  0
 24 25  1  0  0  0  0
 25 26  1  0  0  0  0
M  CHG  2  13  -1  18  -1
M  END
>  <CHROM.1>
-65.78760098,100.01199973,-43.75389508,-161.13363100,58.90645681,-120.45905663
-54.12560081,114.78251350,-4.20682358,-39.78643785,11.98750135,-0.96021159
-1.06969052,-2.51409895

>  <Name>
ligand

>  <RI>
0

>  <Rbt.Current_Directory>
/home/itssahil/PROJECTS/Mol_Feturizer/New_Systems/rnas/3D2G

>  <Rbt.Executable>
rbdock ($Id: //depot/dev/client3/rdock/2013.1/src/exe/rbdock.cxx#4 $)

>  <Rbt.Library>
libRbt.so (2013.1, Build901 2013/11/27)

>  <Rbt.Parameter_File>
/export/apps/rDock/src/rDock_2013.1_src/data/scripts/dock_solv.prm

>  <Rbt.Receptor>
prm/blind_docking_100.prm

>  <SCORE>
-15.702

>  <SCORE.INTER>
-19.1536

>  <SCORE.INTER.CONST>
1

>  <SCORE.INTER.POLAR>
0

>  <SCORE.INTER.ROT>
8

>  <SCORE.INTER.SOLV>
11.8997

>  <SCORE.INTER.VDW>
-25.6689

>  <SCORE.INTER.norm>
-0.736676

>  <SCORE.INTRA>
3.45158

>  <SCORE.INTRA.DIHEDRAL>
4.59198

>  <SCORE.INTRA.DIHEDRAL.0>
9.09364

>  <SCORE.INTRA.POLAR>
0

>  <SCORE.INTRA.POLAR.0>
0

>  <SCORE.INTRA.REPUL>
0

>  <SCORE.INTRA.REPUL.0>
0

>  <SCORE.INTRA.SOLV>
1.63913

>  <SCORE.INTRA.SOLV.lig_0>
-78.5846

>  <SCORE.INTRA.VDW>
0.336021

>  <SCORE.INTRA.VDW.0>
-2.81163

>  <SCORE.INTRA.norm>
0.132753

>  <SCORE.RESTR>
0

>  <SCORE.RESTR.CAVITY>
0

>  <SCORE.RESTR.norm>
0

>  <SCORE.SYSTEM>
0

>  <SCORE.SYSTEM.CONST>
0

>  <SCORE.SYSTEM.DIHEDRAL>
0

>  <SCORE.SYSTEM.SOLV>
0

>  <SCORE.SYSTEM.norm>
0

>  <SCORE.heavy>
26

>  <SCORE.norm>
-0.603923

>  <RMSD>
9.429

$$$$
ligand
 OpenBabel11021811463D
libRbt.so/2013.1/901 2013/11/27
 26 27  0  0  0  0  0  0  0  0999 V2000
   -7.5673  -35.9222    5.9783 C   0  0  0  0  0  0  0  0  0  0  0  0
   -5.9027  -33.4891   12.9187 C   0  0  0  0  0  0  0  0  0  0  0  0
   -1.6649  -35.2530   10.8322 P   0  0  1  0  0  0  0  0  0  0  0  0
   -0.8551  -33.3695    9.0048 P   0  0  2  0  0  0  0  0  0  0  0  0
   -7.5036  -35.8862   11.7171 C   0  0  0  0  0  0  0  0  0  0  0  0
   -7.3428  -37.1077    9.5227 C   0  0  0  0  0  0  0  0  0  0  0  0
   -7.5051  -35.9007   10.2097 C   0  0  0  0  0  0  0  0  0  0  0  0
   -7.7077  -34.7089    9.5086 C   0  0  0  0  0  0  0  0  0  0  0  0
   -7.8759  -33.5783   10.1617 N   0  0  0  0  0  0  0  0  0  0  0  0
   -7.7011  -34.7174    8.1350 N   0  0  0  0  0  0  0  0  0  0  0  0
   -7.5545  -35.9161    7.4656 C   0  0  0  0  0  0  0  0  0  0  0  0
   -7.3618  -37.1035    8.1464 N   0  0  0  0  0  0  0  0  0  0  0  0
   -3.1074  -35.0159   10.5046 O   0  5  0  0  0  0  0  0  0  0  0  0
   -0.4527  -33.5118    7.5907 O   0  0  0  0  0  0  0  0  0  0  0  0
   -3.9511  -36.8765   12.7325 S   0  0  0  0  0  0  0  0  0  0  0  0
   -5.4103  -37.0906   12.1604 C   0  0  0  0  0  0  0  0  0  0  0  0
   -1.3330  -36.6045   11.3584 O   0  0  0  0  0  0  0  0  0  0  0  0
    0.1158  -32.5793    9.7854 O   0  5  0  0  0  0  0  0  0  0  0  0
   -6.1441  -35.9376   12.1794 N   0  0  0  0  0  0  0  0  0  0  0  0
   -0.9261  -34.8791    9.4833 O   0  0  0  0  0  0  0  0  0  0  0  0
   -2.1569  -32.6902    9.2820 O   0  0  0  0  0  0  0  0  0  0  0  0
   -5.4375  -34.8991   12.7175 C   0  0  1  0  0  0  0  0  0  0  0  0
   -4.1801  -35.3268   13.0625 C   0  0  2  0  0  0  0  0  0  0  0  0
   -3.0160  -34.5870   13.6735 C   0  0  0  0  0  0  0  0  0  0  0  0
   -2.3679  -33.6156   12.6805 C   0  0  0  0  0  0  0  0  0  0  0  0
   -1.3259  -34.0996   11.8530 O   0  0  0  0  0  0  0  0  0  0  0  0
  1 11  1  0  0  0  0
  3 13  1  6  0  0  0
  3 17  2  0  0  0  0
  3 20  1  0  0  0  0
  3 26  1  0  0  0  0
  4 14  1  6  0  0  0
  4 18  1  0  0  0  0
  4 21  2  0  0  0  0
  4 20  1  0  0  0  0
  5 19  1  0  0  0  0
  5  7  1  0  0  0  0
  6  7  2  0  0  0  0
  6 12  1  0  0  0  0
  7  8  1  0  0  0  0
  8  9  1  0  0  0  0
  8 10  2  0  0  0  0
 10 11  1  0  0  0  0
 11 12  2  0  0  0  0
 15 23  1  0  0  0  0
 15 16  1  0  0  0  0
 16 19  1  0  0  0  0
 19 22  1  0  0  0  0
 22  2  1  6  0  0  0
 22 23  1  0  0  0  0
 23 24  1  6  0  0  0
 24 25  1  0  0  0  0
 25 26  1  0  0  0  0
M  CHG  2  13  -1  18  -1
M  END
>  <CHROM.1>
70.06162864,-76.01295035,79.91020690,-164.65366165,107.67361672,-89.03889021
62.63489915,29.86792354,-4.02739932,-34.99076278,10.51025163,-3.09399111
0.28589918,1.78412008

>  <Name>
ligand

>  <RI>
0

>  <Rbt.Current_Directory>
/home/itssahil/PROJECTS/Mol_Feturizer/New_Systems/rnas/3D2G

>  <Rbt.Executable>
rbdock ($Id: //depot/dev/client3/rdock/2013.1/src/exe/rbdock.cxx#4 $)

>  <Rbt.Library>
libRbt.so (2013.1, Build901 2013/11/27)

>  <Rbt.Parameter_File>
/export/apps/rDock/src/rDock_2013.1_src/data/scripts/dock_solv.prm

>  <Rbt.Receptor>
prm/blind_docking_40.prm

>  <SCORE>
-12.0162

>  <SCORE.INTER>
-13.7755

>  <SCORE.INTER.CONST>
1

>  <SCORE.INTER.POLAR>
0

>  <SCORE.INTER.ROT>
8

>  <SCORE.INTER.SOLV>
23.7081

>  <SCORE.INTER.VDW>
-26.0197

>  <SCORE.INTER.norm>
-0.529828

>  <SCORE.INTRA>
1.69235

>  <SCORE.INTRA.DIHEDRAL>
0.712656

>  <SCORE.INTRA.DIHEDRAL.0>
9.09364

>  <SCORE.INTRA.POLAR>
0

>  <SCORE.INTRA.POLAR.0>
0

>  <SCORE.INTRA.REPUL>
0

>  <SCORE.INTRA.REPUL.0>
0

>  <SCORE.INTRA.SOLV>
5.42939

>  <SCORE.INTRA.SOLV.lig_0>
-78.5846

>  <SCORE.INTRA.VDW>
-1.37867

>  <SCORE.INTRA.VDW.0>
-2.81163

>  <SCORE.INTRA.norm>
0.0650904

>  <SCORE.RESTR>
0.0669308

>  <SCORE.RESTR.CAVITY>
0.0669308

>  <SCORE.RESTR.norm>
0.00257426

>  <SCORE.SYSTEM>
0

>  <SCORE.SYSTEM.CONST>
0

>  <SCORE.SYSTEM.DIHEDRAL>
0

>  <SCORE.SYSTEM.SOLV>
0

>  <SCORE.SYSTEM.norm>
0

>  <SCORE.heavy>
26

>  <SCORE.norm>
-0.462163

>  <RMSD>
9.438

$$$$
ligand
 OpenBabel11021811463D
libRbt.so/2013.1/901 2013/11/27
 26 27  0  0  0  0  0  0  0  0999 V2000
   -6.2071  -40.1596   13.6844 C   0  0  0  0  0  0  0  0  0  0  0  0
   -2.4503  -45.0296    8.2432 C   0  0  0  0  0  0  0  0  0  0  0  0
   -6.7328  -46.5980    4.6749 P   0  0  1  0  0  0  0  0  0  0  0  0
   -8.4308  -47.3003    2.6337 P   0  0  2  0  0  0  0  0  0  0  0  0
   -2.7183  -43.9559   11.1634 C   0  0  0  0  0  0  0  0  0  0  0  0
   -4.3584  -43.3358   12.9687 C   0  0  0  0  0  0  0  0  0  0  0  0
   -3.6472  -42.9682   11.8224 C   0  0  0  0  0  0  0  0  0  0  0  0
   -3.7614  -41.6760   11.3025 C   0  0  0  0  0  0  0  0  0  0  0  0
   -3.0767  -41.3313   10.2322 N   0  0  0  0  0  0  0  0  0  0  0  0
   -4.6134  -40.7764   11.8955 N   0  0  0  0  0  0  0  0  0  0  0  0
   -5.3005  -41.1439   13.0353 C   0  0  0  0  0  0  0  0  0  0  0  0
   -5.1905  -42.4158   13.5652 N   0  0  0  0  0  0  0  0  0  0  0  0
   -5.6641  -45.9773    3.8281 O   0  5  0  0  0  0  0  0  0  0  0  0
   -8.7799  -48.6105    2.0479 O   0  0  0  0  0  0  0  0  0  0  0  0
   -5.1568  -46.8122   10.4373 S   0  0  0  0  0  0  0  0  0  0  0  0
   -4.4495  -45.6917   11.3013 C   0  0  0  0  0  0  0  0  0  0  0  0
   -7.7319  -45.6578    5.2505 O   0  0  0  0  0  0  0  0  0  0  0  0
   -7.8947  -46.3633    1.6282 O   0  5  0  0  0  0  0  0  0  0  0  0
   -3.5008  -45.0145   10.5875 N   0  0  0  0  0  0  0  0  0  0  0  0
   -7.3490  -47.7006    3.7211 O   0  0  0  0  0  0  0  0  0  0  0  0
   -9.5317  -46.5228    3.2792 O   0  0  0  0  0  0  0  0  0  0  0  0
   -3.3846  -45.5004    9.3156 C   0  0  1  0  0  0  0  0  0  0  0  0
   -4.2815  -46.5220    9.1287 C   0  0  2  0  0  0  0  0  0  0  0  0
   -4.5690  -47.3778    7.9202 C   0  0  0  0  0  0  0  0  0  0  0  0
   -5.4360  -46.6446    6.8903 C   0  0  0  0  0  0  0  0  0  0  0  0
   -5.9198  -47.3770    5.7792 O   0  0  0  0  0  0  0  0  0  0  0  0
  1 11  1  0  0  0  0
  3 13  1  6  0  0  0
  3 17  2  0  0  0  0
  3 20  1  0  0  0  0
  3 26  1  0  0  0  0
  4 14  1  6  0  0  0
  4 18  1  0  0  0  0
  4 21  2  0  0  0  0
  4 20  1  0  0  0  0
  5 19  1  0  0  0  0
  5  7  1  0  0  0  0
  6  7  2  0  0  0  0
  6 12  1  0  0  0  0
  7  8  1  0  0  0  0
  8  9  1  0  0  0  0
  8 10  2  0  0  0  0
 10 11  1  0  0  0  0
 11 12  2  0  0  0  0
 15 23  1  0  0  0  0
 15 16  1  0  0  0  0
 16 19  1  0  0  0  0
 19 22  1  0  0  0  0
 22  2  1  6  0  0  0
 22 23  1  0  0  0  0
 23 24  1  6  0  0  0
 24 25  1  0  0  0  0
 25 26  1  0  0  0  0
M  CHG  2  13  -1  18  -1
M  END
>  <CHROM.1>
-81.86901495,-51.04297216,68.30917822,-176.65628094,101.04892370,-172.54338968
-176.12649049,81.69917498,-5.66520212,-45.27510592,7.79214116,1.05889126
-0.81869657,0.71189395

>  <Name>
ligand

>  <RI>
0

>  <Rbt.Current_Directory>
/home/itssahil/PROJECTS/Mol_Feturizer/New_Systems/rnas/3D2G

>  <Rbt.Executable>
rbdock ($Id: //depot/dev/client3/rdock/2013.1/src/exe/rbdock.cxx#4 $)

>  <Rbt.Library>
libRbt.so (2013.1, Build901 2013/11/27)

>  <Rbt.Parameter_File>
/export/apps/rDock/src/rDock_2013.1_src/data/scripts/dock_solv.prm

>  <Rbt.Receptor>
prm/pocket_docking_8.prm

>  <SCORE>
-11.8043

>  <SCORE.INTER>
-10.2337

>  <SCORE.INTER.CONST>
1

>  <SCORE.INTER.POLAR>
0

>  <SCORE.INTER.ROT>
8

>  <SCORE.INTER.SOLV>
8.83832

>  <SCORE.INTER.VDW>
-18.7019

>  <SCORE.INTER.norm>
-0.393606

>  <SCORE.INTRA>
-1.57056

>  <SCORE.INTRA.DIHEDRAL>
-3.27126

>  <SCORE.INTRA.DIHEDRAL.0>
9.09364

>  <SCORE.INTRA.POLAR>
0

>  <SCORE.INTRA.POLAR.0>
0

>  <SCORE.INTRA.REPUL>
0

>  <SCORE.INTRA.REPUL.0>
0

>  <SCORE.INTRA.SOLV>
0.407468

>  <SCORE.INTRA.SOLV.lig_0>
-78.5846

>  <SCORE.INTRA.VDW>
-0.138668

>  <SCORE.INTRA.VDW.0>
-2.81163

>  <SCORE.INTRA.norm>
-0.0604063

>  <SCORE.RESTR>
0

>  <SCORE.RESTR.CAVITY>
0

>  <SCORE.RESTR.norm>
0

>  <SCORE.SYSTEM>
0

>  <SCORE.SYSTEM.CONST>
0

>  <SCORE.SYSTEM.DIHEDRAL>
0

>  <SCORE.SYSTEM.SOLV>
0

>  <SCORE.SYSTEM.norm>
0

>  <SCORE.heavy>
26

>  <SCORE.norm>
-0.454012

>  <RMSD>
9.443

$$$$
ligand
 OpenBabel11021811463D
libRbt.so/2013.1/901 2013/11/27
 26 27  0  0  0  0  0  0  0  0999 V2000
   -4.8445  -45.6784   10.4128 C   0  0  0  0  0  0  0  0  0  0  0  0
   -5.7808  -38.8495    4.9829 C   0  0  0  0  0  0  0  0  0  0  0  0
  -10.2530  -38.8137    1.2050 P   0  0  1  0  0  0  0  0  0  0  0  0
  -12.3802  -37.9964    2.7379 P   0  0  2  0  0  0  0  0  0  0  0  0
   -4.9226  -41.0302    7.0471 C   0  0  0  0  0  0  0  0  0  0  0  0
   -5.2848  -43.4950    7.4031 C   0  0  0  0  0  0  0  0  0  0  0  0
   -4.9179  -42.2526    7.9293 C   0  0  0  0  0  0  0  0  0  0  0  0
   -4.5088  -42.1407    9.2609 C   0  0  0  0  0  0  0  0  0  0  0  0
   -4.1492  -40.9707    9.7457 N   0  0  0  0  0  0  0  0  0  0  0  0
   -4.5116  -43.2509   10.0696 N   0  0  0  0  0  0  0  0  0  0  0  0
   -4.8616  -44.4760    9.5374 C   0  0  0  0  0  0  0  0  0  0  0  0
   -5.2602  -44.6027    8.2200 N   0  0  0  0  0  0  0  0  0  0  0  0
   -9.7920  -40.1601    0.7368 O   0  5  0  0  0  0  0  0  0  0  0  0
  -13.1057  -37.4808    1.5591 O   0  0  0  0  0  0  0  0  0  0  0  0
   -8.6854  -41.0814    6.3611 S   0  0  0  0  0  0  0  0  0  0  0  0
   -7.3234  -41.5442    7.0192 C   0  0  0  0  0  0  0  0  0  0  0  0
  -10.5235  -37.8135    0.1374 O   0  0  0  0  0  0  0  0  0  0  0  0
  -11.5519  -36.9594    3.3822 O   0  5  0  0  0  0  0  0  0  0  0  0
   -6.2649  -40.7915    6.5935 N   0  0  0  0  0  0  0  0  0  0  0  0
  -11.5065  -39.1592    2.1074 O   0  0  0  0  0  0  0  0  0  0  0  0
  -13.1995  -38.5351    3.8655 O   0  0  0  0  0  0  0  0  0  0  0  0
   -6.6507  -39.8488    5.6826 C   0  0  1  0  0  0  0  0  0  0  0  0
   -8.0058  -39.9289    5.4821 C   0  0  2  0  0  0  0  0  0  0  0  0
   -8.9253  -39.1207    4.6006 C   0  0  0  0  0  0  0  0  0  0  0  0
   -8.6083  -39.3106    3.1129 C   0  0  0  0  0  0  0  0  0  0  0  0
   -9.1119  -38.3584    2.1939 O   0  0  0  0  0  0  0  0  0  0  0  0
  1 11  1  0  0  0  0
  3 13  1  6  0  0  0
  3 17  2  0  0  0  0
  3 20  1  0  0  0  0
  3 26  1  0  0  0  0
  4 14  1  6  0  0  0
  4 18  1  0  0  0  0
  4 21  2  0  0  0  0
  4 20  1  0  0  0  0
  5 19  1  0  0  0  0
  5  7  1  0  0  0  0
  6  7  2  0  0  0  0
  6 12  1  0  0  0  0
  7  8  1  0  0  0  0
  8  9  1  0  0  0  0
  8 10  2  0  0  0  0
 10 11  1  0  0  0  0
 11 12  2  0  0  0  0
 15 23  1  0  0  0  0
 15 16  1  0  0  0  0
 16 19  1  0  0  0  0
 19 22  1  0  0  0  0
 22  2  1  1  0  0  0
 22 23  1  0  0  0  0
 23 24  1  1  0  0  0
 24 25  1  0  0  0  0
 25 26  1  0  0  0  0
M  CHG  2  13  -1  18  -1
M  END
>  <CHROM.1>
-175.70424786,4.16688534,62.60666398,72.96595414,-116.02224681,-162.50563175
-110.49921870,-43.71558502,-8.36010089,-40.26520161,5.02480838,0.91950115
-0.04490832,2.14504389

>  <Name>
ligand

>  <RI>
0

>  <Rbt.Current_Directory>
/home/itssahil/PROJECTS/Mol_Feturizer/New_Systems/rnas/3D2G

>  <Rbt.Executable>
rbdock ($Id: //depot/dev/client3/rdock/2013.1/src/exe/rbdock.cxx#4 $)

>  <Rbt.Library>
libRbt.so (2013.1, Build901 2013/11/27)

>  <Rbt.Parameter_File>
/export/apps/rDock/src/rDock_2013.1_src/data/scripts/dock_solv.prm

>  <Rbt.Receptor>
prm/pocket_docking_2.prm

>  <SCORE>
-3.3993

>  <SCORE.INTER>
-6.06678

>  <SCORE.INTER.CONST>
1

>  <SCORE.INTER.POLAR>
0

>  <SCORE.INTER.ROT>
8

>  <SCORE.INTER.SOLV>
36.7591

>  <SCORE.INTER.VDW>
-25.2309

>  <SCORE.INTER.norm>
-0.233338

>  <SCORE.INTRA>
2.21217

>  <SCORE.INTRA.DIHEDRAL>
4.09379

>  <SCORE.INTRA.DIHEDRAL.0>
9.09364

>  <SCORE.INTRA.POLAR>
0

>  <SCORE.INTRA.POLAR.0>
0

>  <SCORE.INTRA.REPUL>
0

>  <SCORE.INTRA.REPUL.0>
0

>  <SCORE.INTRA.SOLV>
-1.24379

>  <SCORE.INTRA.SOLV.lig_0>
-78.5846

>  <SCORE.INTRA.VDW>
0.787178

>  <SCORE.INTRA.VDW.0>
-2.81163

>  <SCORE.INTRA.norm>
0.0850836

>  <SCORE.RESTR>
0.455306

>  <SCORE.RESTR.CAVITY>
0.455306

>  <SCORE.RESTR.norm>
0.0175118

>  <SCORE.SYSTEM>
0

>  <SCORE.SYSTEM.CONST>
0

>  <SCORE.SYSTEM.DIHEDRAL>
0

>  <SCORE.SYSTEM.SOLV>
0

>  <SCORE.SYSTEM.norm>
0

>  <SCORE.heavy>
26

>  <SCORE.norm>
-0.130742

>  <RMSD>
9.460

$$$$
ligand
 OpenBabel11021811463D
libRbt.so/2013.1/901 2013/11/27
 26 27  0  0  0  0  0  0  0  0999 V2000
    0.2772  -46.1999    6.5937 C   0  0  0  0  0  0  0  0  0  0  0  0
   -6.9850  -45.8355    8.0302 C   0  0  0  0  0  0  0  0  0  0  0  0
   -8.0930  -40.7229    7.6669 P   0  0  1  0  0  0  0  0  0  0  0  0
   -8.3781  -41.2262    4.9821 P   0  0  2  0  0  0  0  0  0  0  0  0
   -4.6896  -47.6889    9.0541 C   0  0  0  0  0  0  0  0  0  0  0  0
   -2.7602  -46.0965    8.7805 C   0  0  0  0  0  0  0  0  0  0  0  0
   -3.3920  -47.2848    8.4016 C   0  0  0  0  0  0  0  0  0  0  0  0
   -2.8095  -48.1232    7.4473 C   0  0  0  0  0  0  0  0  0  0  0  0
   -3.4015  -49.2486    7.1066 N   0  0  0  0  0  0  0  0  0  0  0  0
   -1.6316  -47.7537    6.8447 N   0  0  0  0  0  0  0  0  0  0  0  0
   -1.0078  -46.5856    7.2357 C   0  0  0  0  0  0  0  0  0  0  0  0
   -1.5685  -45.7513    8.1844 N   0  0  0  0  0  0  0  0  0  0  0  0
   -6.6519  -40.3259    7.5656 O   0  5  0  0  0  0  0  0  0  0  0  0
   -9.6791  -40.5269    4.9968 O   0  0  0  0  0  0  0  0  0  0  0  0
   -5.5447  -44.9218   11.5528 S   0  0  0  0  0  0  0  0  0  0  0  0
   -4.7830  -46.1927   10.9986 C   0  0  0  0  0  0  0  0  0  0  0  0
   -9.0754  -39.6056    7.6609 O   0  0  0  0  0  0  0  0  0  0  0  0
   -8.3455  -42.3257    3.9990 O   0  5  0  0  0  0  0  0  0  0  0  0
   -5.2261  -46.5571    9.7581 N   0  0  0  0  0  0  0  0  0  0  0  0
   -8.2654  -41.7491    6.4743 O   0  0  0  0  0  0  0  0  0  0  0  0
   -7.1693  -40.4179    4.6378 O   0  0  0  0  0  0  0  0  0  0  0  0
   -6.2377  -45.7464    9.3257 C   0  0  1  0  0  0  0  0  0  0  0  0
   -6.4937  -44.7849   10.2708 C   0  0  2  0  0  0  0  0  0  0  0  0
   -7.4887  -43.6511   10.2847 C   0  0  0  0  0  0  0  0  0  0  0  0
   -7.3073  -42.7130    9.0860 C   0  0  0  0  0  0  0  0  0  0  0  0
   -8.1464  -41.5763    8.9921 O   0  0  0  0  0  0  0  0  0  0  0  0
  1 11  1  0  0  0  0
  3 13  1  6  0  0  0
  3 17  2  0  0  0  0
  3 20  1  0  0  0  0
  3 26  1  0  0  0  0
  4 14  1  6  0  0  0
  4 18  1  0  0  0  0
  4 21  2  0  0  0  0
  4 20  1  0  0  0  0
  5 19  1  0  0  0  0
  5  7  1  0  0  0  0
  6  7  2  0  0  0  0
  6 12  1  0  0  0  0
  7  8  1  0  0  0  0
  8  9  1  0  0  0  0
  8 10  2  0  0  0  0
 10 11  1  0  0  0  0
 11 12  2  0  0  0  0
 15 23  1  0  0  0  0
 15 16  1  0  0  0  0
 16 19  1  0  0  0  0
 19 22  1  0  0  0  0
 22  2  1  6  0  0  0
 22 23  1  0  0  0  0
 23 24  1  6  0  0  0
 24 25  1  0  0  0  0
 25 26  1  0  0  0  0
M  CHG  2  13  -1  18  -1
M  END
>  <CHROM.1>
-76.52107182,-80.67414048,14.34295736,-67.46690762,122.11028992,-177.97250794
-171.89642267,-57.42346856,-5.91784739,-43.94366918,7.85850508,-0.51352690
0.73268806,-1.18870438

>  <Name>
ligand

>  <RI>
0

>  <Rbt.Current_Directory>
/home/itssahil/PROJECTS/Mol_Feturizer/New_Systems/rnas/3D2G

>  <Rbt.Executable>
rbdock ($Id: //depot/dev/client3/rdock/2013.1/src/exe/rbdock.cxx#4 $)

>  <Rbt.Library>
libRbt.so (2013.1, Build901 2013/11/27)

>  <Rbt.Parameter_File>
/export/apps/rDock/src/rDock_2013.1_src/data/scripts/dock_solv.prm

>  <Rbt.Receptor>
prm/pocket_docking_7.prm

>  <SCORE>
-16.4504

>  <SCORE.INTER>
-13.7244

>  <SCORE.INTER.CONST>
1

>  <SCORE.INTER.POLAR>
0

>  <SCORE.INTER.ROT>
8

>  <SCORE.INTER.SOLV>
16.4768

>  <SCORE.INTER.VDW>
-23.5752

>  <SCORE.INTER.norm>
-0.527861

>  <SCORE.INTRA>
-2.72601

>  <SCORE.INTRA.DIHEDRAL>
-3.8583

>  <SCORE.INTRA.DIHEDRAL.0>
9.09364

>  <SCORE.INTRA.POLAR>
0

>  <SCORE.INTRA.POLAR.0>
0

>  <SCORE.INTRA.REPUL>
0

>  <SCORE.INTRA.REPUL.0>
0

>  <SCORE.INTRA.SOLV>
-2.17932

>  <SCORE.INTRA.SOLV.lig_0>
-78.5846

>  <SCORE.INTRA.VDW>
0.292796

>  <SCORE.INTRA.VDW.0>
-2.81163

>  <SCORE.INTRA.norm>
-0.104847

>  <SCORE.RESTR>
0

>  <SCORE.RESTR.CAVITY>
0

>  <SCORE.RESTR.norm>
0

>  <SCORE.SYSTEM>
0

>  <SCORE.SYSTEM.CONST>
0

>  <SCORE.SYSTEM.DIHEDRAL>
0

>  <SCORE.SYSTEM.SOLV>
0

>  <SCORE.SYSTEM.norm>
0

>  <SCORE.heavy>
26

>  <SCORE.norm>
-0.632708

>  <RMSD>
9.462

$$$$
ligand
 OpenBabel11021811463D
libRbt.so/2013.1/901 2013/11/27
 26 27  0  0  0  0  0  0  0  0999 V2000
   -4.2361  -45.7933    9.9943 C   0  0  0  0  0  0  0  0  0  0  0  0
   -5.5740  -40.0288    4.3340 C   0  0  0  0  0  0  0  0  0  0  0  0
  -10.1255  -38.8522    1.3328 P   0  0  1  0  0  0  0  0  0  0  0  0
  -12.4327  -38.1687    2.6568 P   0  0  2  0  0  0  0  0  0  0  0  0
   -5.0203  -40.7790    7.3145 C   0  0  0  0  0  0  0  0  0  0  0  0
   -5.1535  -43.2916    7.3640 C   0  0  0  0  0  0  0  0  0  0  0  0
   -4.8301  -42.0987    8.0178 C   0  0  0  0  0  0  0  0  0  0  0  0
   -4.2944  -42.1216    9.3084 C   0  0  0  0  0  0  0  0  0  0  0  0
   -3.9770  -40.9958    9.9123 N   0  0  0  0  0  0  0  0  0  0  0  0
   -4.1278  -43.3219    9.9552 N   0  0  0  0  0  0  0  0  0  0  0  0
   -4.4364  -44.4953    9.2962 C   0  0  0  0  0  0  0  0  0  0  0  0
   -4.9591  -44.4878    8.0166 N   0  0  0  0  0  0  0  0  0  0  0  0
   -9.6396  -40.1767    0.8287 O   0  5  0  0  0  0  0  0  0  0  0  0
  -13.4738  -38.3982    1.6344 O   0  0  0  0  0  0  0  0  0  0  0  0
   -8.7275  -41.0542    6.4128 S   0  0  0  0  0  0  0  0  0  0  0  0
   -7.4492  -41.1380    7.3409 C   0  0  0  0  0  0  0  0  0  0  0  0
  -10.4576  -37.8438    0.2906 O   0  0  0  0  0  0  0  0  0  0  0  0
  -11.9007  -36.7934    2.6140 O   0  5  0  0  0  0  0  0  0  0  0  0
   -6.3095  -40.7739    6.6800 N   0  0  0  0  0  0  0  0  0  0  0  0
  -11.3404  -39.2492    2.2665 O   0  0  0  0  0  0  0  0  0  0  0  0
  -12.8267  -38.3432    4.0876 O   0  0  0  0  0  0  0  0  0  0  0  0
   -6.5624  -40.4591    5.3745 C   0  0  1  0  0  0  0  0  0  0  0  0
   -7.9053  -40.5850    5.1218 C   0  0  2  0  0  0  0  0  0  0  0  0
   -8.7019  -40.3477    3.8630 C   0  0  0  0  0  0  0  0  0  0  0  0
   -8.9731  -38.8576    3.6271 C   0  0  0  0  0  0  0  0  0  0  0  0
   -8.9688  -38.3787    2.2946 O   0  0  0  0  0  0  0  0  0  0  0  0
  1 11  1  0  0  0  0
  3 13  1  6  0  0  0
  3 17  2  0  0  0  0
  3 20  1  0  0  0  0
  3 26  1  0  0  0  0
  4 14  1  6  0  0  0
  4 18  1  0  0  0  0
  4 21  2  0  0  0  0
  4 20  1  0  0  0  0
  5 19  1  0  0  0  0
  5  7  1  0  0  0  0
  6  7  2  0  0  0  0
  6 12  1  0  0  0  0
  7  8  1  0  0  0  0
  8  9  1  0  0  0  0
  8 10  2  0  0  0  0
 10 11  1  0  0  0  0
 11 12  2  0  0  0  0
 15 23  1  0  0  0  0
 15 16  1  0  0  0  0
 16 19  1  0  0  0  0
 19 22  1  0  0  0  0
 22  2  1  1  0  0  0
 22 23  1  0  0  0  0
 23 24  1  1  0  0  0
 24 25  1  0  0  0  0
 25 26  1  0  0  0  0
M  CHG  2  13  -1  18  -1
M  END
>  <CHROM.1>
-160.86082295,48.96771039,45.77444276,94.50413304,100.45004315,143.85579807
68.04921095,-83.92890127,-8.27581227,-40.38342824,4.98038050,0.86367675,-0.24215389
1.97220921

>  <Name>
ligand

>  <RI>
0

>  <Rbt.Current_Directory>
/home/itssahil/PROJECTS/Mol_Feturizer/New_Systems/rnas/3D2G

>  <Rbt.Executable>
rbdock ($Id: //depot/dev/client3/rdock/2013.1/src/exe/rbdock.cxx#4 $)

>  <Rbt.Library>
libRbt.so (2013.1, Build901 2013/11/27)

>  <Rbt.Parameter_File>
/export/apps/rDock/src/rDock_2013.1_src/data/scripts/dock_solv.prm

>  <Rbt.Receptor>
prm/pocket_docking_2.prm

>  <SCORE>
-5.2129

>  <SCORE.INTER>
-7.02985

>  <SCORE.INTER.CONST>
1

>  <SCORE.INTER.POLAR>
0

>  <SCORE.INTER.ROT>
8

>  <SCORE.INTER.SOLV>
35.6641

>  <SCORE.INTER.VDW>
-25.5079

>  <SCORE.INTER.norm>
-0.270379

>  <SCORE.INTRA>
1.19383

>  <SCORE.INTRA.DIHEDRAL>
3.17905

>  <SCORE.INTRA.DIHEDRAL.0>
9.09364

>  <SCORE.INTRA.POLAR>
0

>  <SCORE.INTRA.POLAR.0>
0

>  <SCORE.INTRA.REPUL>
0

>  <SCORE.INTRA.REPUL.0>
0

>  <SCORE.INTRA.SOLV>
-0.573507

>  <SCORE.INTRA.SOLV.lig_0>
-78.5846

>  <SCORE.INTRA.VDW>
-0.108943

>  <SCORE.INTRA.VDW.0>
-2.81163

>  <SCORE.INTRA.norm>
0.0459165

>  <SCORE.RESTR>
0.623126

>  <SCORE.RESTR.CAVITY>
0.623126

>  <SCORE.RESTR.norm>
0.0239664

>  <SCORE.SYSTEM>
0

>  <SCORE.SYSTEM.CONST>
0

>  <SCORE.SYSTEM.DIHEDRAL>
0

>  <SCORE.SYSTEM.SOLV>
0

>  <SCORE.SYSTEM.norm>
0

>  <SCORE.heavy>
26

>  <SCORE.norm>
-0.200496

>  <RMSD>
9.467

$$$$
ligand
 OpenBabel11021811463D
libRbt.so/2013.1/901 2013/11/27
 26 27  0  0  0  0  0  0  0  0999 V2000
   -0.8078  -33.1046    8.8828 C   0  0  0  0  0  0  0  0  0  0  0  0
   -5.2198  -38.7637   11.4329 C   0  0  0  0  0  0  0  0  0  0  0  0
   -6.2686  -38.5526    5.9810 P   0  0  1  0  0  0  0  0  0  0  0  0
   -7.2354  -36.0035    6.3126 P   0  0  2  0  0  0  0  0  0  0  0  0
   -2.2347  -37.8898   11.7122 C   0  0  0  0  0  0  0  0  0  0  0  0
   -1.1364  -36.7275    9.7690 C   0  0  0  0  0  0  0  0  0  0  0  0
   -1.8444  -36.6364   10.9712 C   0  0  0  0  0  0  0  0  0  0  0  0
   -2.2279  -35.3901   11.4741 C   0  0  0  0  0  0  0  0  0  0  0  0
   -2.9083  -35.3120   12.5984 N   0  0  0  0  0  0  0  0  0  0  0  0
   -1.8664  -34.2458   10.8058 N   0  0  0  0  0  0  0  0  0  0  0  0
   -1.1799  -34.3463    9.6121 C   0  0  0  0  0  0  0  0  0  0  0  0
   -0.8016  -35.5727    9.0988 N   0  0  0  0  0  0  0  0  0  0  0  0
   -7.6399  -39.1338    5.8191 O   0  5  0  0  0  0  0  0  0  0  0  0
   -6.2118  -35.4798    5.3854 O   0  0  0  0  0  0  0  0  0  0  0  0
   -2.7394  -40.4637    8.9279 S   0  0  0  0  0  0  0  0  0  0  0  0
   -1.9335  -39.4653    9.8531 C   0  0  0  0  0  0  0  0  0  0  0  0
   -5.5376  -38.2542    4.7200 O   0  0  0  0  0  0  0  0  0  0  0  0
   -7.5899  -35.0292    7.3621 O   0  5  0  0  0  0  0  0  0  0  0  0
   -2.7398  -38.8478   10.7679 N   0  0  0  0  0  0  0  0  0  0  0  0
   -6.5220  -37.2906    6.9020 O   0  0  0  0  0  0  0  0  0  0  0  0
   -8.5586  -36.3818    5.7303 O   0  0  0  0  0  0  0  0  0  0  0  0
   -4.0446  -39.2291   10.6285 C   0  0  1  0  0  0  0  0  0  0  0  0
   -4.1511  -40.1451    9.6123 C   0  0  2  0  0  0  0  0  0  0  0  0
   -5.3486  -40.8815    9.0652 C   0  0  0  0  0  0  0  0  0  0  0  0
   -6.1527  -40.0214    8.0836 C   0  0  0  0  0  0  0  0  0  0  0  0
   -5.5250  -39.6119    6.8823 O   0  0  0  0  0  0  0  0  0  0  0  0
  1 11  1  0  0  0  0
  3 13  1  6  0  0  0
  3 17  2  0  0  0  0
  3 20  1  0  0  0  0
  3 26  1  0  0  0  0
  4 14  1  6  0  0  0
  4 18  1  0  0  0  0
  4 21  2  0  0  0  0
  4 20  1  0  0  0  0
  5 19  1  0  0  0  0
  5  7  1  0  0  0  0
  6  7  2  0  0  0  0
  6 12  1  0  0  0  0
  7  8  1  0  0  0  0
  8  9  1  0  0  0  0
  8 10  2  0  0  0  0
 10 11  1  0  0  0  0
 11 12  2  0  0  0  0
 15 23  1  0  0  0  0
 15 16  1  0  0  0  0
 16 19  1  0  0  0  0
 19 22  1  0  0  0  0
 22  2  1  1  0  0  0
 22 23  1  0  0  0  0
 23 24  1  1  0  0  0
 24 25  1  0  0  0  0
 25 26  1  0  0  0  0
M  CHG  2  13  -1  18  -1
M  END
>  <CHROM.1>
-72.67500742,69.68033765,-43.83183991,-69.28997314,-99.20941508,63.64264133
-170.85225255,-51.38723096,-4.46041405,-37.52456769,8.44452896,0.04689520
-0.74527214,-0.18722435

>  <Name>
ligand

>  <RI>
0

>  <Rbt.Current_Directory>
/home/itssahil/PROJECTS/Mol_Feturizer/New_Systems/rnas/3D2G

>  <Rbt.Executable>
rbdock ($Id: //depot/dev/client3/rdock/2013.1/src/exe/rbdock.cxx#4 $)

>  <Rbt.Library>
libRbt.so (2013.1, Build901 2013/11/27)

>  <Rbt.Parameter_File>
/export/apps/rDock/src/rDock_2013.1_src/data/scripts/dock_solv.prm

>  <Rbt.Receptor>
prm/blind_docking_60.prm

>  <SCORE>
-21.9562

>  <SCORE.INTER>
-19.0663

>  <SCORE.INTER.CONST>
1

>  <SCORE.INTER.POLAR>
0

>  <SCORE.INTER.ROT>
8

>  <SCORE.INTER.SOLV>
19.6977

>  <SCORE.INTER.VDW>
-28.2101

>  <SCORE.INTER.norm>
-0.733319

>  <SCORE.INTRA>
-2.88991

>  <SCORE.INTRA.DIHEDRAL>
-3.60349

>  <SCORE.INTRA.DIHEDRAL.0>
9.09364

>  <SCORE.INTRA.POLAR>
0

>  <SCORE.INTRA.POLAR.0>
0

>  <SCORE.INTRA.REPUL>
0

>  <SCORE.INTRA.REPUL.0>
0

>  <SCORE.INTRA.SOLV>
-1.5769

>  <SCORE.INTRA.SOLV.lig_0>
-78.5846

>  <SCORE.INTRA.VDW>
-0.299714

>  <SCORE.INTRA.VDW.0>
-2.81163

>  <SCORE.INTRA.norm>
-0.11115

>  <SCORE.RESTR>
0

>  <SCORE.RESTR.CAVITY>
0

>  <SCORE.RESTR.norm>
0

>  <SCORE.SYSTEM>
0

>  <SCORE.SYSTEM.CONST>
0

>  <SCORE.SYSTEM.DIHEDRAL>
0

>  <SCORE.SYSTEM.SOLV>
0

>  <SCORE.SYSTEM.norm>
0

>  <SCORE.heavy>
26

>  <SCORE.norm>
-0.844469

>  <RMSD>
9.478

$$$$
ligand
 OpenBabel11021811463D
libRbt.so/2013.1/901 2013/11/27
 26 27  0  0  0  0  0  0  0  0999 V2000
   -0.5921  -33.1481    8.4233 C   0  0  0  0  0  0  0  0  0  0  0  0
   -5.1515  -38.5921   11.7834 C   0  0  0  0  0  0  0  0  0  0  0  0
   -7.5470  -38.1380    7.7959 P   0  0  1  0  0  0  0  0  0  0  0  0
   -6.7704  -36.7860    5.5349 P   0  0  2  0  0  0  0  0  0  0  0  0
   -2.2217  -37.5111   11.7771 C   0  0  0  0  0  0  0  0  0  0  0  0
   -0.8992  -36.6006    9.8392 C   0  0  0  0  0  0  0  0  0  0  0  0
   -1.7785  -36.3672   10.9010 C   0  0  0  0  0  0  0  0  0  0  0  0
   -2.2817  -35.0845   11.1345 C   0  0  0  0  0  0  0  0  0  0  0  0
   -3.1217  -34.8744   12.1261 N   0  0  0  0  0  0  0  0  0  0  0  0
   -1.8732  -34.0385   10.3434 N   0  0  0  0  0  0  0  0  0  0  0  0
   -1.0161  -34.2812    9.2885 C   0  0  0  0  0  0  0  0  0  0  0  0
   -0.5173  -35.5463    9.0409 N   0  0  0  0  0  0  0  0  0  0  0  0
   -8.0490  -36.9297    8.5256 O   0  5  0  0  0  0  0  0  0  0  0  0
   -5.4440  -36.3498    5.0532 O   0  0  0  0  0  0  0  0  0  0  0  0
   -2.7416  -40.3106    9.2228 S   0  0  0  0  0  0  0  0  0  0  0  0
   -1.9436  -39.1972   10.0139 C   0  0  0  0  0  0  0  0  0  0  0  0
   -8.5748  -38.9286    7.0665 O   0  0  0  0  0  0  0  0  0  0  0  0
   -7.6815  -35.6496    5.7694 O   0  5  0  0  0  0  0  0  0  0  0  0
   -2.7244  -38.5665   10.9417 N   0  0  0  0  0  0  0  0  0  0  0  0
   -6.4025  -37.5491    6.8748 O   0  0  0  0  0  0  0  0  0  0  0  0
   -7.5621  -37.6859    4.6424 O   0  0  0  0  0  0  0  0  0  0  0  0
   -4.0064  -39.0396   10.9272 C   0  0  1  0  0  0  0  0  0  0  0  0
   -4.1204  -40.0330    9.9874 C   0  0  2  0  0  0  0  0  0  0  0  0
   -5.2997  -40.8828    9.5838 C   0  0  0  0  0  0  0  0  0  0  0  0
   -6.1862  -40.1807    8.5489 C   0  0  0  0  0  0  0  0  0  0  0  0
   -6.8205  -38.9708    8.9211 O   0  0  0  0  0  0  0  0  0  0  0  0
  1 11  1  0  0  0  0
  3 13  1  1  0  0  0
  3 17  2  0  0  0  0
  3 20  1  0  0  0  0
  3 26  1  0  0  0  0
  4 14  1  6  0  0  0
  4 18  1  0  0  0  0
  4 21  2  0  0  0  0
  4 20  1  0  0  0  0
  5 19  1  0  0  0  0
  5  7  1  0  0  0  0
  6  7  2  0  0  0  0
  6 12  1  0  0  0  0
  7  8  1  0  0  0  0
  8  9  1  0  0  0  0
  8 10  2  0  0  0  0
 10 11  1  0  0  0  0
 11 12  2  0  0  0  0
 15 23  1  0  0  0  0
 15 16  1  0  0  0  0
 16 19  1  0  0  0  0
 19 22  1  0  0  0  0
 22  2  1  1  0  0  0
 22 23  1  0  0  0  0
 23 24  1  1  0  0  0
 24 25  1  0  0  0  0
 25 26  1  0  0  0  0
M  CHG  2  13  -1  18  -1
M  END
>  <CHROM.1>
-78.49204749,61.31312737,-51.97872928,176.75194131,-96.04093396,-62.37767800
170.75337504,-178.11872798,-4.60628263,-37.49161516,8.70767922,-0.10231027
-0.62609805,-0.56531987

>  <Name>
ligand

>  <RI>
0

>  <Rbt.Current_Directory>
/home/itssahil/PROJECTS/Mol_Feturizer/New_Systems/rnas/3D2G

>  <Rbt.Executable>
rbdock ($Id: //depot/dev/client3/rdock/2013.1/src/exe/rbdock.cxx#4 $)

>  <Rbt.Library>
libRbt.so (2013.1, Build901 2013/11/27)

>  <Rbt.Parameter_File>
/export/apps/rDock/src/rDock_2013.1_src/data/scripts/dock_solv.prm

>  <Rbt.Receptor>
prm/blind_docking_100.prm

>  <SCORE>
-22.4808

>  <SCORE.INTER>
-20.0252

>  <SCORE.INTER.CONST>
1

>  <SCORE.INTER.POLAR>
0

>  <SCORE.INTER.ROT>
8

>  <SCORE.INTER.SOLV>
17.7793

>  <SCORE.INTER.VDW>
-28.2099

>  <SCORE.INTER.norm>
-0.770201

>  <SCORE.INTRA>
-2.45554

>  <SCORE.INTRA.DIHEDRAL>
-3.48529

>  <SCORE.INTRA.DIHEDRAL.0>
9.09364

>  <SCORE.INTRA.POLAR>
0

>  <SCORE.INTRA.POLAR.0>
0

>  <SCORE.INTRA.REPUL>
0

>  <SCORE.INTRA.REPUL.0>
0

>  <SCORE.INTRA.SOLV>
0.0240159

>  <SCORE.INTRA.SOLV.lig_0>
-78.5846

>  <SCORE.INTRA.VDW>
-0.72491

>  <SCORE.INTRA.VDW.0>
-2.81163

>  <SCORE.INTRA.norm>
-0.094444

>  <SCORE.RESTR>
0

>  <SCORE.RESTR.CAVITY>
0

>  <SCORE.RESTR.norm>
0

>  <SCORE.SYSTEM>
0

>  <SCORE.SYSTEM.CONST>
0

>  <SCORE.SYSTEM.DIHEDRAL>
0

>  <SCORE.SYSTEM.SOLV>
0

>  <SCORE.SYSTEM.norm>
0

>  <SCORE.heavy>
26

>  <SCORE.norm>
-0.864645

>  <RMSD>
9.480

$$$$
ligand
 OpenBabel11021811463D
libRbt.so/2013.1/901 2013/11/27
 26 27  0  0  0  0  0  0  0  0999 V2000
   -0.5330  -33.2501    8.3922 C   0  0  0  0  0  0  0  0  0  0  0  0
   -2.1976  -39.3390   10.6019 C   0  0  0  0  0  0  0  0  0  0  0  0
   -7.1598  -40.1440    6.6845 P   0  0  1  0  0  0  0  0  0  0  0  0
   -6.5380  -38.2250    4.8207 P   0  0  2  0  0  0  0  0  0  0  0  0
   -2.2453  -36.8654   12.5076 C   0  0  0  0  0  0  0  0  0  0  0  0
   -0.8677  -36.3496   10.4657 C   0  0  0  0  0  0  0  0  0  0  0  0
   -1.7805  -35.9167   11.4322 C   0  0  0  0  0  0  0  0  0  0  0  0
   -2.2968  -34.6188   11.3873 C   0  0  0  0  0  0  0  0  0  0  0  0
   -3.1682  -34.2224   12.2909 N   0  0  0  0  0  0  0  0  0  0  0  0
   -1.8689  -33.7492   10.4138 N   0  0  0  0  0  0  0  0  0  0  0  0
   -0.9783  -34.1901    9.4553 C   0  0  0  0  0  0  0  0  0  0  0  0
   -0.4662  -35.4737    9.4827 N   0  0  0  0  0  0  0  0  0  0  0  0
   -8.4137  -39.4621    7.1397 O   0  5  0  0  0  0  0  0  0  0  0  0
   -7.9176  -37.7311    5.0069 O   0  0  0  0  0  0  0  0  0  0  0  0
   -5.7559  -38.1818   11.7496 S   0  0  0  0  0  0  0  0  0  0  0  0
   -4.6703  -37.2369   12.4061 C   0  0  0  0  0  0  0  0  0  0  0  0
   -7.3371  -41.2178    5.6701 O   0  0  0  0  0  0  0  0  0  0  0  0
   -6.4256  -39.1521    3.6786 O   0  5  0  0  0  0  0  0  0  0  0  0
   -3.4001  -37.5753   12.0314 N   0  0  0  0  0  0  0  0  0  0  0  0
   -6.2513  -38.9393    6.2065 O   0  0  0  0  0  0  0  0  0  0  0  0
   -5.4770  -37.2088    4.5474 O   0  0  0  0  0  0  0  0  0  0  0  0
   -3.3912  -38.6654   11.2073 C   0  0  1  0  0  0  0  0  0  0  0  0
   -4.6784  -39.0853   10.9844 C   0  0  2  0  0  0  0  0  0  0  0  0
   -5.2188  -40.2203   10.1504 C   0  0  0  0  0  0  0  0  0  0  0  0
   -6.0218  -39.7163    8.9459 C   0  0  0  0  0  0  0  0  0  0  0  0
   -6.5204  -40.6708    8.0265 O   0  0  0  0  0  0  0  0  0  0  0  0
  1 11  1  0  0  0  0
  3 13  1  1  0  0  0
  3 17  2  0  0  0  0
  3 20  1  0  0  0  0
  3 26  1  0  0  0  0
  4 14  1  1  0  0  0
  4 18  1  0  0  0  0
  4 21  2  0  0  0  0
  4 20  1  0  0  0  0
  5 19  1  0  0  0  0
  5  7  1  0  0  0  0
  6  7  2  0  0  0  0
  6 12  1  0  0  0  0
  7  8  1  0  0  0  0
  8  9  1  0  0  0  0
  8 10  2  0  0  0  0
 10 11  1  0  0  0  0
 11 12  2  0  0  0  0
 15 23  1  0  0  0  0
 15 16  1  0  0  0  0
 16 19  1  0  0  0  0
 19 22  1  0  0  0  0
 22  2  1  6  0  0  0
 22 23  1  0  0  0  0
 23 24  1  6  0  0  0
 24 25  1  0  0  0  0
 25 26  1  0  0  0  0
M  CHG  2  13  -1  18  -1
M  END
>  <CHROM.1>
-75.95024617,-101.10638783,-88.71718316,59.81130944,66.51477783,176.16132523
-171.19801760,-68.19826777,-4.68934831,-37.82832551,8.73762532,-0.49355980
-0.81694396,-1.24429262

>  <Name>
ligand

>  <RI>
0

>  <Rbt.Current_Directory>
/home/itssahil/PROJECTS/Mol_Feturizer/New_Systems/rnas/3D2G

>  <Rbt.Executable>
rbdock ($Id: //depot/dev/client3/rdock/2013.1/src/exe/rbdock.cxx#4 $)

>  <Rbt.Library>
libRbt.so (2013.1, Build901 2013/11/27)

>  <Rbt.Parameter_File>
/export/apps/rDock/src/rDock_2013.1_src/data/scripts/dock_solv.prm

>  <Rbt.Receptor>
prm/blind_docking_80.prm

>  <SCORE>
-17.2946

>  <SCORE.INTER>
-14.8739

>  <SCORE.INTER.CONST>
1

>  <SCORE.INTER.POLAR>
0

>  <SCORE.INTER.ROT>
8

>  <SCORE.INTER.SOLV>
14.7625

>  <SCORE.INTER.VDW>
-23.7701

>  <SCORE.INTER.norm>
-0.572074

>  <SCORE.INTRA>
-2.42065

>  <SCORE.INTRA.DIHEDRAL>
-3.00956

>  <SCORE.INTRA.DIHEDRAL.0>
9.09364

>  <SCORE.INTRA.POLAR>
0

>  <SCORE.INTRA.POLAR.0>
0

>  <SCORE.INTRA.REPUL>
0

>  <SCORE.INTRA.REPUL.0>
0

>  <SCORE.INTRA.SOLV>
-1.36453

>  <SCORE.INTRA.SOLV.lig_0>
-78.5846

>  <SCORE.INTRA.VDW>
-0.233605

>  <SCORE.INTRA.VDW.0>
-2.81163

>  <SCORE.INTRA.norm>
-0.093102

>  <SCORE.RESTR>
0

>  <SCORE.RESTR.CAVITY>
0

>  <SCORE.RESTR.norm>
0

>  <SCORE.SYSTEM>
0

>  <SCORE.SYSTEM.CONST>
0

>  <SCORE.SYSTEM.DIHEDRAL>
0

>  <SCORE.SYSTEM.SOLV>
0

>  <SCORE.SYSTEM.norm>
0

>  <SCORE.heavy>
26

>  <SCORE.norm>
-0.665176

>  <RMSD>
9.483

$$$$
ligand
 OpenBabel11021811463D
libRbt.so/2013.1/901 2013/11/27
 26 27  0  0  0  0  0  0  0  0999 V2000
   -0.9631  -33.0231    8.6951 C   0  0  0  0  0  0  0  0  0  0  0  0
   -5.2538  -38.3486   11.7452 C   0  0  0  0  0  0  0  0  0  0  0  0
   -7.5461  -38.0869    7.8416 P   0  0  1  0  0  0  0  0  0  0  0  0
   -6.7710  -36.8383    5.5214 P   0  0  2  0  0  0  0  0  0  0  0  0
   -2.2650  -37.4955   12.0481 C   0  0  0  0  0  0  0  0  0  0  0  0
   -2.8249  -35.2494   11.0607 C   0  0  0  0  0  0  0  0  0  0  0  0
   -1.9358  -36.3240   11.1582 C   0  0  0  0  0  0  0  0  0  0  0  0
   -0.7225  -36.3041   10.4649 C   0  0  0  0  0  0  0  0  0  0  0  0
    0.1175  -37.3118   10.5737 N   0  0  0  0  0  0  0  0  0  0  0  0
   -0.4233  -35.2421    9.6466 N   0  0  0  0  0  0  0  0  0  0  0  0
   -1.3009  -34.1791    9.5679 C   0  0  0  0  0  0  0  0  0  0  0  0
   -2.5004  -34.1818   10.2547 N   0  0  0  0  0  0  0  0  0  0  0  0
   -7.9816  -36.8285    8.5282 O   0  5  0  0  0  0  0  0  0  0  0  0
   -5.4391  -36.4905    4.9858 O   0  0  0  0  0  0  0  0  0  0  0  0
   -2.6961  -40.4503    9.6575 S   0  0  0  0  0  0  0  0  0  0  0  0
   -1.9120  -39.3382   10.4643 C   0  0  0  0  0  0  0  0  0  0  0  0
   -8.6221  -38.8656    7.1713 O   0  0  0  0  0  0  0  0  0  0  0  0
   -7.6091  -35.6466    5.7528 O   0  5  0  0  0  0  0  0  0  0  0  0
   -2.7468  -38.5757   11.2323 N   0  0  0  0  0  0  0  0  0  0  0  0
   -6.4018  -37.5858    6.8697 O   0  0  0  0  0  0  0  0  0  0  0  0
   -7.6406  -37.7151    4.6799 O   0  0  0  0  0  0  0  0  0  0  0  0
   -4.0523  -38.9506   11.0828 C   0  0  1  0  0  0  0  0  0  0  0  0
   -4.1315  -40.0073   10.2108 C   0  0  2  0  0  0  0  0  0  0  0  0
   -5.3186  -40.7965    9.7175 C   0  0  0  0  0  0  0  0  0  0  0  0
   -6.0883  -40.0513    8.6212 C   0  0  0  0  0  0  0  0  0  0  0  0
   -6.8263  -38.8992    8.9858 O   0  0  0  0  0  0  0  0  0  0  0  0
  1 11  1  0  0  0  0
  3 13  1  1  0  0  0
  3 17  2  0  0  0  0
  3 20  1  0  0  0  0
  3 26  1  0  0  0  0
  4 14  1  6  0  0  0
  4 18  1  0  0  0  0
  4 21  2  0  0  0  0
  4 20  1  0  0  0  0
  5 19  1  0  0  0  0
  5  7  1  0  0  0  0
  6  7  2  0  0  0  0
  6 12  1  0  0  0  0
  7  8  1  0  0  0  0
  8  9  1  0  0  0  0
  8 10  2  0  0  0  0
 10 11  1  0  0  0  0
 11 12  2  0  0  0  0
 15 23  1  0  0  0  0
 15 16  1  0  0  0  0
 16 19  1  0  0  0  0
 19 22  1  0  0  0  0
 22  2  1  1  0  0  0
 22 23  1  0  0  0  0
 23 24  1  1  0  0  0
 24 25  1  0  0  0  0
 25 26  1  0  0  0  0
M  CHG  2  13  -1  18  -1
M  END
>  <CHROM.1>
-77.13098950,75.26625313,101.53774239,176.84932757,-101.81633419,-70.17444576
176.42984850,-169.32566705,-4.55214316,-37.54954412,8.80251884,-0.17851449
-0.59579179,-0.55476729

>  <Name>
ligand

>  <RI>
0

>  <Rbt.Current_Directory>
/home/itssahil/PROJECTS/Mol_Feturizer/New_Systems/rnas/3D2G

>  <Rbt.Executable>
rbdock ($Id: //depot/dev/client3/rdock/2013.1/src/exe/rbdock.cxx#4 $)

>  <Rbt.Library>
libRbt.so (2013.1, Build901 2013/11/27)

>  <Rbt.Parameter_File>
/export/apps/rDock/src/rDock_2013.1_src/data/scripts/dock_solv.prm

>  <Rbt.Receptor>
prm/blind_docking_80.prm

>  <SCORE>
-19.9541

>  <SCORE.INTER>
-17.2624

>  <SCORE.INTER.CONST>
1

>  <SCORE.INTER.POLAR>
0

>  <SCORE.INTER.ROT>
8

>  <SCORE.INTER.SOLV>
22.086

>  <SCORE.INTER.VDW>
-27.8036

>  <SCORE.INTER.norm>
-0.663937

>  <SCORE.INTRA>
-2.6917

>  <SCORE.INTRA.DIHEDRAL>
-3.60152

>  <SCORE.INTRA.DIHEDRAL.0>
9.09364

>  <SCORE.INTRA.POLAR>
0

>  <SCORE.INTRA.POLAR.0>
0

>  <SCORE.INTRA.REPUL>
0

>  <SCORE.INTRA.REPUL.0>
0

>  <SCORE.INTRA.SOLV>
1.07548

>  <SCORE.INTRA.SOLV.lig_0>
-78.5846

>  <SCORE.INTRA.VDW>
-1.42868

>  <SCORE.INTRA.VDW.0>
-2.81163

>  <SCORE.INTRA.norm>
-0.103527

>  <SCORE.RESTR>
0

>  <SCORE.RESTR.CAVITY>
0

>  <SCORE.RESTR.norm>
0

>  <SCORE.SYSTEM>
0

>  <SCORE.SYSTEM.CONST>
0

>  <SCORE.SYSTEM.DIHEDRAL>
0

>  <SCORE.SYSTEM.SOLV>
0

>  <SCORE.SYSTEM.norm>
0

>  <SCORE.heavy>
26

>  <SCORE.norm>
-0.767464

>  <RMSD>
9.501

$$$$
ligand
 OpenBabel11021811463D
libRbt.so/2013.1/901 2013/11/27
 26 27  0  0  0  0  0  0  0  0999 V2000
   -0.6405  -33.3311    8.4154 C   0  0  0  0  0  0  0  0  0  0  0  0
   -2.3709  -39.9470   10.3126 C   0  0  0  0  0  0  0  0  0  0  0  0
   -8.5410  -39.2575    7.6093 P   0  0  1  0  0  0  0  0  0  0  0  0
   -7.8679  -36.6047    7.8392 P   0  0  2  0  0  0  0  0  0  0  0  0
   -2.3730  -37.3818   12.0937 C   0  0  0  0  0  0  0  0  0  0  0  0
   -1.1634  -36.6826   10.0005 C   0  0  0  0  0  0  0  0  0  0  0  0
   -1.9027  -36.3214   11.1309 C   0  0  0  0  0  0  0  0  0  0  0  0
   -2.2432  -34.9849   11.3567 C   0  0  0  0  0  0  0  0  0  0  0  0
   -2.9532  -34.6533   12.4146 N   0  0  0  0  0  0  0  0  0  0  0  0
   -1.8089  -34.0153   10.4861 N   0  0  0  0  0  0  0  0  0  0  0  0
   -1.0918  -34.3832    9.3650 C   0  0  0  0  0  0  0  0  0  0  0  0
   -0.7553  -35.7021    9.1248 N   0  0  0  0  0  0  0  0  0  0  0  0
   -9.7671  -39.9740    8.0866 O   0  5  0  0  0  0  0  0  0  0  0  0
   -6.7826  -37.1028    6.9699 O   0  0  0  0  0  0  0  0  0  0  0  0
   -5.9038  -38.4477   11.0792 S   0  0  0  0  0  0  0  0  0  0  0  0
   -4.8029  -37.5608   11.7888 C   0  0  0  0  0  0  0  0  0  0  0  0
   -8.0123  -39.6871    6.2867 O   0  0  0  0  0  0  0  0  0  0  0  0
   -7.4328  -36.4425    9.2395 O   0  5  0  0  0  0  0  0  0  0  0  0
   -3.5384  -38.0199   11.5466 N   0  0  0  0  0  0  0  0  0  0  0  0
   -8.9678  -37.7348    7.6776 O   0  0  0  0  0  0  0  0  0  0  0  0
   -8.4586  -35.2737    7.5038 O   0  0  0  0  0  0  0  0  0  0  0  0
   -3.5508  -39.1486   10.7763 C   0  0  1  0  0  0  0  0  0  0  0  0
   -4.8449  -39.4740   10.4562 C   0  0  2  0  0  0  0  0  0  0  0  0
   -5.4054  -40.6035    9.6282 C   0  0  0  0  0  0  0  0  0  0  0  0
   -6.2712  -40.0926    8.4709 C   0  0  0  0  0  0  0  0  0  0  0  0
   -7.5081  -39.4771    8.7808 O   0  0  0  0  0  0  0  0  0  0  0  0
  1 11  1  0  0  0  0
  3 13  1  1  0  0  0
  3 17  2  0  0  0  0
  3 20  1  0  0  0  0
  3 26  1  0  0  0  0
  4 14  1  6  0  0  0
  4 18  1  0  0  0  0
  4 21  2  0  0  0  0
  4 20  1  0  0  0  0
  5 19  1  0  0  0  0
  5  7  1  0  0  0  0
  6  7  2  0  0  0  0
  6 12  1  0  0  0  0
  7  8  1  0  0  0  0
  8  9  1  0  0  0  0
  8 10  2  0  0  0  0
 10 11  1  0  0  0  0
 11 12  2  0  0  0  0
 15 23  1  0  0  0  0
 15 16  1  0  0  0  0
 16 19  1  0  0  0  0
 19 22  1  0  0  0  0
 22  2  1  6  0  0  0
 22 23  1  0  0  0  0
 23 24  1  6  0  0  0
 24 25  1  0  0  0  0
 25 26  1  0  0  0  0
M  CHG  2  13  -1  18  -1
M  END
>  <CHROM.1>
154.95242961,-89.53440572,-79.12600862,39.37508799,56.18738876,-68.58746801
-166.04230015,122.98987470,-5.29092258,-37.51566111,9.37480610,0.21785772
-0.51681317,-0.41436930

>  <Name>
ligand

>  <RI>
0

>  <Rbt.Current_Directory>
/home/itssahil/PROJECTS/Mol_Feturizer/New_Systems/rnas/3D2G

>  <Rbt.Executable>
rbdock ($Id: //depot/dev/client3/rdock/2013.1/src/exe/rbdock.cxx#4 $)

>  <Rbt.Library>
libRbt.so (2013.1, Build901 2013/11/27)

>  <Rbt.Parameter_File>
/export/apps/rDock/src/rDock_2013.1_src/data/scripts/dock_solv.prm

>  <Rbt.Receptor>
prm/blind_docking_100.prm

>  <SCORE>
-18.837

>  <SCORE.INTER>
-17.0905

>  <SCORE.INTER.CONST>
1

>  <SCORE.INTER.POLAR>
0

>  <SCORE.INTER.ROT>
8

>  <SCORE.INTER.SOLV>
23.9419

>  <SCORE.INTER.VDW>
-28.3076

>  <SCORE.INTER.norm>
-0.657327

>  <SCORE.INTRA>
-1.74647

>  <SCORE.INTRA.DIHEDRAL>
0.725785

>  <SCORE.INTRA.DIHEDRAL.0>
9.09364

>  <SCORE.INTRA.POLAR>
0

>  <SCORE.INTRA.POLAR.0>
0

>  <SCORE.INTRA.REPUL>
0

>  <SCORE.INTRA.REPUL.0>
0

>  <SCORE.INTRA.SOLV>
-2.23703

>  <SCORE.INTRA.SOLV.lig_0>
-78.5846

>  <SCORE.INTRA.VDW>
-0.990845

>  <SCORE.INTRA.VDW.0>
-2.81163

>  <SCORE.INTRA.norm>
-0.0671719

>  <SCORE.RESTR>
0

>  <SCORE.RESTR.CAVITY>
0

>  <SCORE.RESTR.norm>
0

>  <SCORE.SYSTEM>
0

>  <SCORE.SYSTEM.CONST>
0

>  <SCORE.SYSTEM.DIHEDRAL>
0

>  <SCORE.SYSTEM.SOLV>
0

>  <SCORE.SYSTEM.norm>
0

>  <SCORE.heavy>
26

>  <SCORE.norm>
-0.724499

>  <RMSD>
9.502

$$$$
ligand
 OpenBabel11021811463D
libRbt.so/2013.1/901 2013/11/27
 26 27  0  0  0  0  0  0  0  0999 V2000
   -1.9538  -32.1143    9.3632 C   0  0  0  0  0  0  0  0  0  0  0  0
   -2.6459  -37.4931   11.8493 C   0  0  0  0  0  0  0  0  0  0  0  0
   -6.9100  -41.0848    7.9101 P   0  0  1  0  0  0  0  0  0  0  0  0
   -9.1937  -39.5870    7.6196 P   0  0  2  0  0  0  0  0  0  0  0  0
    0.2055  -37.2880   10.5921 C   0  0  0  0  0  0  0  0  0  0  0  0
   -0.6017  -35.5789    8.9306 C   0  0  0  0  0  0  0  0  0  0  0  0
   -0.3483  -35.9255   10.2612 C   0  0  0  0  0  0  0  0  0  0  0  0
   -0.6410  -35.0305   11.2939 C   0  0  0  0  0  0  0  0  0  0  0  0
   -0.4151  -35.3691   12.5458 N   0  0  0  0  0  0  0  0  0  0  0  0
   -1.1376  -33.7852   10.9951 N   0  0  0  0  0  0  0  0  0  0  0  0
   -1.3980  -33.4572    9.6794 C   0  0  0  0  0  0  0  0  0  0  0  0
   -1.1214  -34.3358    8.6489 N   0  0  0  0  0  0  0  0  0  0  0  0
   -6.7398  -42.5721    7.9709 O   0  5  0  0  0  0  0  0  0  0  0  0
  -10.5871  -39.8167    8.0525 O   0  0  0  0  0  0  0  0  0  0  0  0
   -1.8106  -40.2017    9.1506 S   0  0  0  0  0  0  0  0  0  0  0  0
   -0.5635  -39.2437    9.3221 C   0  0  0  0  0  0  0  0  0  0  0  0
   -6.3876  -40.4218    6.6850 O   0  0  0  0  0  0  0  0  0  0  0  0
   -9.0814  -39.4300    6.1570 O   0  5  0  0  0  0  0  0  0  0  0  0
   -0.7814  -38.2805   10.2670 N   0  0  0  0  0  0  0  0  0  0  0  0
   -8.4638  -40.8934    8.1428 O   0  0  0  0  0  0  0  0  0  0  0  0
   -8.5014  -38.3744    8.1522 O   0  0  0  0  0  0  0  0  0  0  0  0
   -2.0356  -38.3731   10.8015 C   0  0  1  0  0  0  0  0  0  0  0  0
   -2.7005  -39.4321   10.2361 C   0  0  2  0  0  0  0  0  0  0  0  0
   -4.0882  -39.9722   10.4776 C   0  0  0  0  0  0  0  0  0  0  0  0
   -4.8205  -40.2810    9.1669 C   0  0  0  0  0  0  0  0  0  0  0  0
   -6.2032  -40.5803    9.2266 O   0  0  0  0  0  0  0  0  0  0  0  0
  1 11  1  0  0  0  0
  3 13  1  6  0  0  0
  3 17  2  0  0  0  0
  3 20  1  0  0  0  0
  3 26  1  0  0  0  0
  4 14  1  1  0  0  0
  4 18  1  0  0  0  0
  4 21  2  0  0  0  0
  4 20  1  0  0  0  0
  5 19  1  0  0  0  0
  5  7  1  0  0  0  0
  6  7  2  0  0  0  0
  6 12  1  0  0  0  0
  7  8  1  0  0  0  0
  8  9  1  0  0  0  0
  8 10  2  0  0  0  0
 10 11  1  0  0  0  0
 11 12  2  0  0  0  0
 15 23  1  0  0  0  0
 15 16  1  0  0  0  0
 16 19  1  0  0  0  0
 19 22  1  0  0  0  0
 22  2  1  1  0  0  0
 22 23  1  0  0  0  0
 23 24  1  1  0  0  0
 24 25  1  0  0  0  0
 25 26  1  0  0  0  0
M  CHG  2  13  -1  18  -1
M  END
>  <CHROM.1>
-156.18487738,117.66956152,-66.30771909,-179.46438108,-45.70914839,-169.60564970
-171.95261054,89.41257603,-4.28308541,-38.41930340,9.15545698,0.54945531
-0.34317573,0.00590649

>  <Name>
ligand

>  <RI>
0

>  <Rbt.Current_Directory>
/home/itssahil/PROJECTS/Mol_Feturizer/New_Systems/rnas/3D2G

>  <Rbt.Executable>
rbdock ($Id: //depot/dev/client3/rdock/2013.1/src/exe/rbdock.cxx#4 $)

>  <Rbt.Library>
libRbt.so (2013.1, Build901 2013/11/27)

>  <Rbt.Parameter_File>
/export/apps/rDock/src/rDock_2013.1_src/data/scripts/dock_solv.prm

>  <Rbt.Receptor>
prm/blind_docking_100.prm

>  <SCORE>
-18.5049

>  <SCORE.INTER>
-18.7732

>  <SCORE.INTER.CONST>
1

>  <SCORE.INTER.POLAR>
0

>  <SCORE.INTER.ROT>
8

>  <SCORE.INTER.SOLV>
19.5584

>  <SCORE.INTER.VDW>
-27.9683

>  <SCORE.INTER.norm>
-0.722046

>  <SCORE.INTRA>
0.268285

>  <SCORE.INTRA.DIHEDRAL>
-1.33596

>  <SCORE.INTRA.DIHEDRAL.0>
9.09364

>  <SCORE.INTRA.POLAR>
0

>  <SCORE.INTRA.POLAR.0>
0

>  <SCORE.INTRA.REPUL>
0

>  <SCORE.INTRA.REPUL.0>
0

>  <SCORE.INTRA.SOLV>
0.999484

>  <SCORE.INTRA.SOLV.lig_0>
-78.5846

>  <SCORE.INTRA.VDW>
0.436521

>  <SCORE.INTRA.VDW.0>
-2.81163

>  <SCORE.INTRA.norm>
0.0103186

>  <SCORE.RESTR>
0

>  <SCORE.RESTR.CAVITY>
0

>  <SCORE.RESTR.norm>
0

>  <SCORE.SYSTEM>
0

>  <SCORE.SYSTEM.CONST>
0

>  <SCORE.SYSTEM.DIHEDRAL>
0

>  <SCORE.SYSTEM.SOLV>
0

>  <SCORE.SYSTEM.norm>
0

>  <SCORE.heavy>
26

>  <SCORE.norm>
-0.711727

>  <RMSD>
9.507

$$$$
ligand
 OpenBabel11021811463D
libRbt.so/2013.1/901 2013/11/27
 26 27  0  0  0  0  0  0  0  0999 V2000
   -4.5506  -45.6146   11.0062 C   0  0  0  0  0  0  0  0  0  0  0  0
   -6.8233  -40.8540    4.4431 C   0  0  0  0  0  0  0  0  0  0  0  0
  -10.5098  -38.4995    3.0208 P   0  0  1  0  0  0  0  0  0  0  0  0
  -13.1475  -37.7867    2.7424 P   0  0  2  0  0  0  0  0  0  0  0  0
   -4.9081  -41.8253    6.7105 C   0  0  0  0  0  0  0  0  0  0  0  0
   -5.2668  -44.1355    7.6420 C   0  0  0  0  0  0  0  0  0  0  0  0
   -4.8302  -42.8219    7.8389 C   0  0  0  0  0  0  0  0  0  0  0  0
   -4.2849  -42.4336    9.0657 C   0  0  0  0  0  0  0  0  0  0  0  0
   -3.8609  -41.1995    9.2395 N   0  0  0  0  0  0  0  0  0  0  0  0
   -4.2203  -43.3369   10.0985 N   0  0  0  0  0  0  0  0  0  0  0  0
   -4.6405  -44.6355    9.8902 C   0  0  0  0  0  0  0  0  0  0  0  0
   -5.1740  -45.0355    8.6794 N   0  0  0  0  0  0  0  0  0  0  0  0
   -9.7197  -38.2627    1.7702 O   0  5  0  0  0  0  0  0  0  0  0  0
  -13.3836  -37.9632    4.1898 O   0  0  0  0  0  0  0  0  0  0  0  0
   -7.7957  -39.7085    8.0569 S   0  0  0  0  0  0  0  0  0  0  0  0
   -6.4816  -40.5860    8.1308 C   0  0  0  0  0  0  0  0  0  0  0  0
  -10.4540  -37.4155    4.0383 O   0  0  0  0  0  0  0  0  0  0  0  0
  -14.3456  -38.0953    1.9389 O   0  5  0  0  0  0  0  0  0  0  0  0
   -6.0741  -41.0063    6.8957 N   0  0  0  0  0  0  0  0  0  0  0  0
  -11.9629  -38.8051    2.4727 O   0  0  0  0  0  0  0  0  0  0  0  0
  -12.7575  -36.4227    2.2728 O   0  0  0  0  0  0  0  0  0  0  0  0
   -6.9257  -40.5852    5.9135 C   0  0  1  0  0  0  0  0  0  0  0  0
   -7.9358  -39.8397    6.4676 C   0  0  2  0  0  0  0  0  0  0  0  0
   -9.1116  -39.1395    5.8330 C   0  0  0  0  0  0  0  0  0  0  0  0
   -9.9396  -40.0864    4.9569 C   0  0  0  0  0  0  0  0  0  0  0  0
   -9.9454  -39.8709    3.5574 O   0  0  0  0  0  0  0  0  0  0  0  0
  1 11  1  0  0  0  0
  3 13  1  6  0  0  0
  3 17  2  0  0  0  0
  3 20  1  0  0  0  0
  3 26  1  0  0  0  0
  4 14  1  1  0  0  0
  4 18  1  0  0  0  0
  4 21  2  0  0  0  0
  4 20  1  0  0  0  0
  5 19  1  0  0  0  0
  5  7  1  0  0  0  0
  6  7  2  0  0  0  0
  6 12  1  0  0  0  0
  7  8  1  0  0  0  0
  8  9  1  0  0  0  0
  8 10  2  0  0  0  0
 10 11  1  0  0  0  0
 11 12  2  0  0  0  0
 15 23  1  0  0  0  0
 15 16  1  0  0  0  0
 16 19  1  0  0  0  0
 19 22  1  0  0  0  0
 22  2  1  6  0  0  0
 22 23  1  0  0  0  0
 23 24  1  6  0  0  0
 24 25  1  0  0  0  0
 25 26  1  0  0  0  0
M  CHG  2  13  -1  18  -1
M  END
>  <CHROM.1>
-112.41437060,38.13451292,99.78010096,-71.01933641,-126.87871386,-112.48299966
-61.44021740,149.22761319,-8.52680667,-40.25288824,5.70795144,0.73116067
-0.44550295,1.82473905

>  <Name>
ligand

>  <RI>
0

>  <Rbt.Current_Directory>
/home/itssahil/PROJECTS/Mol_Feturizer/New_Systems/rnas/3D2G

>  <Rbt.Executable>
rbdock ($Id: //depot/dev/client3/rdock/2013.1/src/exe/rbdock.cxx#4 $)

>  <Rbt.Library>
libRbt.so (2013.1, Build901 2013/11/27)

>  <Rbt.Parameter_File>
/export/apps/rDock/src/rDock_2013.1_src/data/scripts/dock_solv.prm

>  <Rbt.Receptor>
prm/pocket_docking_2.prm

>  <SCORE>
-4.85467

>  <SCORE.INTER>
-9.7091

>  <SCORE.INTER.CONST>
1

>  <SCORE.INTER.POLAR>
0

>  <SCORE.INTER.ROT>
8

>  <SCORE.INTER.SOLV>
34.457

>  <SCORE.INTER.VDW>
-26.8917

>  <SCORE.INTER.norm>
-0.373427

>  <SCORE.INTRA>
3.28755

>  <SCORE.INTRA.DIHEDRAL>
4.75587

>  <SCORE.INTRA.DIHEDRAL.0>
9.09364

>  <SCORE.INTRA.POLAR>
0

>  <SCORE.INTRA.POLAR.0>
0

>  <SCORE.INTRA.REPUL>
0

>  <SCORE.INTRA.REPUL.0>
0

>  <SCORE.INTRA.SOLV>
0.372584

>  <SCORE.INTRA.SOLV.lig_0>
-78.5846

>  <SCORE.INTRA.VDW>
0.723319

>  <SCORE.INTRA.VDW.0>
-2.81163

>  <SCORE.INTRA.norm>
0.126444

>  <SCORE.RESTR>
1.56689

>  <SCORE.RESTR.CAVITY>
1.56689

>  <SCORE.RESTR.norm>
0.0602651

>  <SCORE.SYSTEM>
0

>  <SCORE.SYSTEM.CONST>
0

>  <SCORE.SYSTEM.DIHEDRAL>
0

>  <SCORE.SYSTEM.SOLV>
0

>  <SCORE.SYSTEM.norm>
0

>  <SCORE.heavy>
26

>  <SCORE.norm>
-0.186718

>  <RMSD>
9.514

$$$$
ligand
 OpenBabel11021811463D
libRbt.so/2013.1/901 2013/11/27
 26 27  0  0  0  0  0  0  0  0999 V2000
   -7.2762  -46.5514    9.3934 C   0  0  0  0  0  0  0  0  0  0  0  0
   -3.4421  -40.4630   10.8148 C   0  0  0  0  0  0  0  0  0  0  0  0
   -2.6713  -35.4359   12.0233 P   0  0  1  0  0  0  0  0  0  0  0  0
   -0.6306  -36.0500   10.2909 P   0  0  2  0  0  0  0  0  0  0  0  0
   -3.9543  -43.0456   12.4941 C   0  0  0  0  0  0  0  0  0  0  0  0
   -5.8710  -44.6657   12.3069 C   0  0  0  0  0  0  0  0  0  0  0  0
   -4.8218  -43.9789   11.6884 C   0  0  0  0  0  0  0  0  0  0  0  0
   -4.5934  -44.1214   10.3171 C   0  0  0  0  0  0  0  0  0  0  0  0
   -3.6139  -43.4596    9.7378 N   0  0  0  0  0  0  0  0  0  0  0  0
   -5.3766  -44.9775    9.5818 N   0  0  0  0  0  0  0  0  0  0  0  0
   -6.4193  -45.6403   10.1983 C   0  0  0  0  0  0  0  0  0  0  0  0
   -6.6618  -45.5021   11.5520 N   0  0  0  0  0  0  0  0  0  0  0  0
   -1.7459  -36.1329   12.9731 O   0  5  0  0  0  0  0  0  0  0  0  0
    0.3418  -36.0818   11.4023 O   0  0  0  0  0  0  0  0  0  0  0  0
   -6.2398  -40.1603   13.5348 S   0  0  0  0  0  0  0  0  0  0  0  0
   -5.6426  -41.6247   13.5709 C   0  0  0  0  0  0  0  0  0  0  0  0
   -3.4563  -34.3078   12.5931 O   0  0  0  0  0  0  0  0  0  0  0  0
   -0.0186  -35.6029    9.0253 O   0  5  0  0  0  0  0  0  0  0  0  0
   -4.6434  -41.7950   12.6539 N   0  0  0  0  0  0  0  0  0  0  0  0
   -1.7163  -35.0279   10.8289 O   0  0  0  0  0  0  0  0  0  0  0  0
   -1.2903  -37.3386    9.9202 O   0  0  0  0  0  0  0  0  0  0  0  0
   -4.4363  -40.6625   11.9177 C   0  0  1  0  0  0  0  0  0  0  0  0
   -5.2909  -39.6754   12.3401 C   0  0  2  0  0  0  0  0  0  0  0  0
   -5.4624  -38.2500   11.8772 C   0  0  0  0  0  0  0  0  0  0  0  0
   -4.3545  -37.3353   12.4116 C   0  0  0  0  0  0  0  0  0  0  0  0
   -3.5836  -36.6010   11.4781 O   0  0  0  0  0  0  0  0  0  0  0  0
  1 11  1  0  0  0  0
  3 13  1  1  0  0  0
  3 17  2  0  0  0  0
  3 20  1  0  0  0  0
  3 26  1  0  0  0  0
  4 14  1  1  0  0  0
  4 18  1  0  0  0  0
  4 21  2  0  0  0  0
  4 20  1  0  0  0  0
  5 19  1  0  0  0  0
  5  7  1  0  0  0  0
  6  7  2  0  0  0  0
  6 12  1  0  0  0  0
  7  8  1  0  0  0  0
  8  9  1  0  0  0  0
  8 10  2  0  0  0  0
 10 11  1  0  0  0  0
 11 12  2  0  0  0  0
 15 23  1  0  0  0  0
 15 16  1  0  0  0  0
 16 19  1  0  0  0  0
 19 22  1  0  0  0  0
 22  2  1  1  0  0  0
 22 23  1  0  0  0  0
 23 24  1  1  0  0  0
 24 25  1  0  0  0  0
 25 26  1  0  0  0  0
M  CHG  2  13  -1  18  -1
M  END
>  <CHROM.1>
42.42433850,78.68951476,-79.99071939,-70.53996694,102.62160966,123.69609802
166.81502415,59.75342425,-3.75298939,-39.59404429,11.46415892,-2.16960617
0.70317891,0.42854999

>  <Name>
ligand

>  <RI>
0

>  <Rbt.Current_Directory>
/home/itssahil/PROJECTS/Mol_Feturizer/New_Systems/rnas/3D2G

>  <Rbt.Executable>
rbdock ($Id: //depot/dev/client3/rdock/2013.1/src/exe/rbdock.cxx#4 $)

>  <Rbt.Library>
libRbt.so (2013.1, Build901 2013/11/27)

>  <Rbt.Parameter_File>
/export/apps/rDock/src/rDock_2013.1_src/data/scripts/dock_solv.prm

>  <Rbt.Receptor>
prm/blind_docking_60.prm

>  <SCORE>
-19.0042

>  <SCORE.INTER>
-19.721

>  <SCORE.INTER.CONST>
1

>  <SCORE.INTER.POLAR>
0

>  <SCORE.INTER.ROT>
8

>  <SCORE.INTER.SOLV>
14.0136

>  <SCORE.INTER.VDW>
-26.7519

>  <SCORE.INTER.norm>
-0.758498

>  <SCORE.INTRA>
0.716807

>  <SCORE.INTRA.DIHEDRAL>
2.20242

>  <SCORE.INTRA.DIHEDRAL.0>
9.09364

>  <SCORE.INTRA.POLAR>
0

>  <SCORE.INTRA.POLAR.0>
0

>  <SCORE.INTRA.REPUL>
0

>  <SCORE.INTRA.REPUL.0>
0

>  <SCORE.INTRA.SOLV>
0.780978

>  <SCORE.INTRA.SOLV.lig_0>
-78.5846

>  <SCORE.INTRA.VDW>
-0.774894

>  <SCORE.INTRA.VDW.0>
-2.81163

>  <SCORE.INTRA.norm>
0.0275695

>  <SCORE.RESTR>
0

>  <SCORE.RESTR.CAVITY>
0

>  <SCORE.RESTR.norm>
0

>  <SCORE.SYSTEM>
0

>  <SCORE.SYSTEM.CONST>
0

>  <SCORE.SYSTEM.DIHEDRAL>
0

>  <SCORE.SYSTEM.SOLV>
0

>  <SCORE.SYSTEM.norm>
0

>  <SCORE.heavy>
26

>  <SCORE.norm>
-0.730929

>  <RMSD>
9.517

$$$$
ligand
 OpenBabel11021811463D
libRbt.so/2013.1/901 2013/11/27
 26 27  0  0  0  0  0  0  0  0999 V2000
    0.5760  -33.4290    9.7480 C   0  0  0  0  0  0  0  0  0  0  0  0
   -2.9418  -38.0585   14.1805 C   0  0  0  0  0  0  0  0  0  0  0  0
   -5.2332  -42.0703    9.3431 P   0  0  1  0  0  0  0  0  0  0  0  0
   -6.7714  -44.2370   10.0377 P   0  0  2  0  0  0  0  0  0  0  0  0
   -3.3884  -35.0270   13.5781 C   0  0  0  0  0  0  0  0  0  0  0  0
   -1.1118  -35.2745   12.5344 C   0  0  0  0  0  0  0  0  0  0  0  0
   -2.3373  -34.6032   12.5840 C   0  0  0  0  0  0  0  0  0  0  0  0
   -2.6116  -33.5637   11.6911 C   0  0  0  0  0  0  0  0  0  0  0  0
   -3.7735  -32.9462   11.7325 N   0  0  0  0  0  0  0  0  0  0  0  0
   -1.6528  -33.1694   10.7900 N   0  0  0  0  0  0  0  0  0  0  0  0
   -0.4513  -33.8477   10.7388 C   0  0  0  0  0  0  0  0  0  0  0  0
   -0.1699  -34.8831   11.6101 N   0  0  0  0  0  0  0  0  0  0  0  0
   -3.7968  -41.9410    8.9374 O   0  5  0  0  0  0  0  0  0  0  0  0
   -7.8230  -43.5598    9.2521 O   0  0  0  0  0  0  0  0  0  0  0  0
   -5.8588  -37.2604   11.6962 S   0  0  0  0  0  0  0  0  0  0  0  0
   -5.1893  -35.9035   12.1576 C   0  0  0  0  0  0  0  0  0  0  0  0
   -6.2159  -41.3515    8.4881 O   0  0  0  0  0  0  0  0  0  0  0  0
   -6.8818  -43.9533   11.4812 O   0  5  0  0  0  0  0  0  0  0  0  0
   -4.1465  -36.1108   13.0166 N   0  0  0  0  0  0  0  0  0  0  0  0
   -5.4470  -43.6374    9.4057 O   0  0  0  0  0  0  0  0  0  0  0  0
   -6.7270  -45.7297    9.9806 O   0  0  0  0  0  0  0  0  0  0  0  0
   -3.9681  -37.4394   13.2816 C   0  0  1  0  0  0  0  0  0  0  0  0
   -4.8885  -38.1770   12.5801 C   0  0  2  0  0  0  0  0  0  0  0  0
   -5.1140  -39.6667   12.5063 C   0  0  0  0  0  0  0  0  0  0  0  0
   -4.9374  -40.2044   11.0817 C   0  0  0  0  0  0  0  0  0  0  0  0
   -5.2395  -41.5660   10.8374 O   0  0  0  0  0  0  0  0  0  0  0  0
  1 11  1  0  0  0  0
  3 13  1  6  0  0  0
  3 17  2  0  0  0  0
  3 20  1  0  0  0  0
  3 26  1  0  0  0  0
  4 14  1  6  0  0  0
  4 18  1  0  0  0  0
  4 21  2  0  0  0  0
  4 20  1  0  0  0  0
  5 19  1  0  0  0  0
  5  7  1  0  0  0  0
  6  7  2  0  0  0  0
  6 12  1  0  0  0  0
  7  8  1  0  0  0  0
  8  9  1  0  0  0  0
  8 10  2  0  0  0  0
 10 11  1  0  0  0  0
 11 12  2  0  0  0  0
 15 23  1  0  0  0  0
 15 16  1  0  0  0  0
 16 19  1  0  0  0  0
 19 22  1  0  0  0  0
 22  2  1  6  0  0  0
 22 23  1  0  0  0  0
 23 24  1  6  0  0  0
 24 25  1  0  0  0  0
 25 26  1  0  0  0  0
M  CHG  2  13  -1  18  -1
M  END
>  <CHROM.1>
169.59125886,-83.03364345,-84.78224916,55.04551167,60.33479600,-174.25193724
172.40567570,65.91672017,-4.40209074,-38.94933174,11.09027842,-0.99339570
-0.71055208,-2.52903142

>  <Name>
ligand

>  <RI>
0

>  <Rbt.Current_Directory>
/home/itssahil/PROJECTS/Mol_Feturizer/New_Systems/rnas/3D2G

>  <Rbt.Executable>
rbdock ($Id: //depot/dev/client3/rdock/2013.1/src/exe/rbdock.cxx#4 $)

>  <Rbt.Library>
libRbt.so (2013.1, Build901 2013/11/27)

>  <Rbt.Parameter_File>
/export/apps/rDock/src/rDock_2013.1_src/data/scripts/dock_solv.prm

>  <Rbt.Receptor>
prm/blind_docking_80.prm

>  <SCORE>
-18.9032

>  <SCORE.INTER>
-15.5476

>  <SCORE.INTER.CONST>
1

>  <SCORE.INTER.POLAR>
0

>  <SCORE.INTER.ROT>
8

>  <SCORE.INTER.SOLV>
9.87721

>  <SCORE.INTER.VDW>
-22.5908

>  <SCORE.INTER.norm>
-0.597985

>  <SCORE.INTRA>
-3.35562

>  <SCORE.INTRA.DIHEDRAL>
-3.41356

>  <SCORE.INTRA.DIHEDRAL.0>
9.09364

>  <SCORE.INTRA.POLAR>
0

>  <SCORE.INTRA.POLAR.0>
0

>  <SCORE.INTRA.REPUL>
0

>  <SCORE.INTRA.REPUL.0>
0

>  <SCORE.INTRA.SOLV>
-2.12618

>  <SCORE.INTRA.SOLV.lig_0>
-78.5846

>  <SCORE.INTRA.VDW>
-0.585747

>  <SCORE.INTRA.VDW.0>
-2.81163

>  <SCORE.INTRA.norm>
-0.129062

>  <SCORE.RESTR>
0

>  <SCORE.RESTR.CAVITY>
0

>  <SCORE.RESTR.norm>
0

>  <SCORE.SYSTEM>
0

>  <SCORE.SYSTEM.CONST>
0

>  <SCORE.SYSTEM.DIHEDRAL>
0

>  <SCORE.SYSTEM.SOLV>
0

>  <SCORE.SYSTEM.norm>
0

>  <SCORE.heavy>
26

>  <SCORE.norm>
-0.727048

>  <RMSD>
9.518

$$$$
ligand
 OpenBabel11021811463D
libRbt.so/2013.1/901 2013/11/27
 26 27  0  0  0  0  0  0  0  0999 V2000
   -0.4423  -32.9830    8.2072 C   0  0  0  0  0  0  0  0  0  0  0  0
   -4.6202  -38.4760   11.8030 C   0  0  0  0  0  0  0  0  0  0  0  0
   -7.8524  -39.8869    7.4896 P   0  0  1  0  0  0  0  0  0  0  0  0
   -8.2755  -37.2285    6.9447 P   0  0  2  0  0  0  0  0  0  0  0  0
   -1.7191  -37.3218   11.7405 C   0  0  0  0  0  0  0  0  0  0  0  0
   -0.5634  -36.4160    9.6967 C   0  0  0  0  0  0  0  0  0  0  0  0
   -1.3682  -36.1837   10.8161 C   0  0  0  0  0  0  0  0  0  0  0  0
   -1.8834  -34.9088   11.0654 C   0  0  0  0  0  0  0  0  0  0  0  0
   -2.6538  -34.7002   12.1123 N   0  0  0  0  0  0  0  0  0  0  0  0
   -1.5586  -33.8680   10.2299 N   0  0  0  0  0  0  0  0  0  0  0  0
   -0.7751  -34.1099    9.1191 C   0  0  0  0  0  0  0  0  0  0  0  0
   -0.2658  -35.3676    8.8558 N   0  0  0  0  0  0  0  0  0  0  0  0
   -9.1631  -39.8591    8.2147 O   0  5  0  0  0  0  0  0  0  0  0  0
   -9.3617  -37.1227    7.9400 O   0  0  0  0  0  0  0  0  0  0  0  0
   -2.1705  -40.2463    9.3166 S   0  0  0  0  0  0  0  0  0  0  0  0
   -1.4003  -39.0782   10.0546 C   0  0  0  0  0  0  0  0  0  0  0  0
   -7.8830  -40.4585    6.1163 O   0  0  0  0  0  0  0  0  0  0  0  0
   -8.7801  -37.5678    5.6006 O   0  5  0  0  0  0  0  0  0  0  0  0
   -2.1957  -38.4263   10.9549 N   0  0  0  0  0  0  0  0  0  0  0  0
   -7.3744  -38.3796    7.5579 O   0  0  0  0  0  0  0  0  0  0  0  0
   -7.4442  -36.0101    6.7050 O   0  0  0  0  0  0  0  0  0  0  0  0
   -3.4651  -38.9323   10.9650 C   0  0  1  0  0  0  0  0  0  0  0  0
   -3.5549  -39.9699   10.0714 C   0  0  2  0  0  0  0  0  0  0  0  0
   -4.7125  -40.8670    9.7096 C   0  0  0  0  0  0  0  0  0  0  0  0
   -5.5585  -40.2826    8.5728 C   0  0  0  0  0  0  0  0  0  0  0  0
   -6.9100  -40.6913    8.4653 O   0  0  0  0  0  0  0  0  0  0  0  0
  1 11  1  0  0  0  0
  3 13  1  1  0  0  0
  3 17  2  0  0  0  0
  3 20  1  0  0  0  0
  3 26  1  0  0  0  0
  4 14  1  1  0  0  0
  4 18  1  0  0  0  0
  4 21  2  0  0  0  0
  4 20  1  0  0  0  0
  5 19  1  0  0  0  0
  5  7  1  0  0  0  0
  6  7  2  0  0  0  0
  6 12  1  0  0  0  0
  7  8  1  0  0  0  0
  8  9  1  0  0  0  0
  8 10  2  0  0  0  0
 10 11  1  0  0  0  0
 11 12  2  0  0  0  0
 15 23  1  0  0  0  0
 15 16  1  0  0  0  0
 16 19  1  0  0  0  0
 19 22  1  0  0  0  0
 22  2  1  1  0  0  0
 22 23  1  0  0  0  0
 23 24  1  1  0  0  0
 24 25  1  0  0  0  0
 25 26  1  0  0  0  0
M  CHG  2  13  -1  18  -1
M  END
>  <CHROM.1>
-58.72506721,63.96844918,-49.23237602,74.19942338,-91.77407934,-155.78273824
168.03712974,-142.77492462,-4.71912439,-37.89134243,8.91792505,0.27660391
-0.48296188,-0.23736164

>  <Name>
ligand

>  <RI>
0

>  <Rbt.Current_Directory>
/home/itssahil/PROJECTS/Mol_Feturizer/New_Systems/rnas/3D2G

>  <Rbt.Executable>
rbdock ($Id: //depot/dev/client3/rdock/2013.1/src/exe/rbdock.cxx#4 $)

>  <Rbt.Library>
libRbt.so (2013.1, Build901 2013/11/27)

>  <Rbt.Parameter_File>
/export/apps/rDock/src/rDock_2013.1_src/data/scripts/dock_solv.prm

>  <Rbt.Receptor>
prm/blind_docking_80.prm

>  <SCORE>
-17.611

>  <SCORE.INTER>
-17.0694

>  <SCORE.INTER.CONST>
1

>  <SCORE.INTER.POLAR>
0

>  <SCORE.INTER.ROT>
8

>  <SCORE.INTER.SOLV>
16.8669

>  <SCORE.INTER.VDW>
-25.9353

>  <SCORE.INTER.norm>
-0.656517

>  <SCORE.INTRA>
-0.541537

>  <SCORE.INTRA.DIHEDRAL>
0.206377

>  <SCORE.INTRA.DIHEDRAL.0>
9.09364

>  <SCORE.INTRA.POLAR>
0

>  <SCORE.INTRA.POLAR.0>
0

>  <SCORE.INTRA.REPUL>
0

>  <SCORE.INTRA.REPUL.0>
0

>  <SCORE.INTRA.SOLV>
-1.61413

>  <SCORE.INTRA.SOLV.lig_0>
-78.5846

>  <SCORE.INTRA.VDW>
0.162342

>  <SCORE.INTRA.VDW.0>
-2.81163

>  <SCORE.INTRA.norm>
-0.0208284

>  <SCORE.RESTR>
0

>  <SCORE.RESTR.CAVITY>
0

>  <SCORE.RESTR.norm>
0

>  <SCORE.SYSTEM>
0

>  <SCORE.SYSTEM.CONST>
0

>  <SCORE.SYSTEM.DIHEDRAL>
0

>  <SCORE.SYSTEM.SOLV>
0

>  <SCORE.SYSTEM.norm>
0

>  <SCORE.heavy>
26

>  <SCORE.norm>
-0.677345

>  <RMSD>
9.525

$$$$
ligand
 OpenBabel11021811463D
libRbt.so/2013.1/901 2013/11/27
 26 27  0  0  0  0  0  0  0  0999 V2000
   -7.3074  -46.6913    9.1578 C   0  0  0  0  0  0  0  0  0  0  0  0
   -3.7142  -40.4040   10.3771 C   0  0  0  0  0  0  0  0  0  0  0  0
   -1.0158  -36.8664   10.5666 P   0  0  1  0  0  0  0  0  0  0  0  0
   -1.4752  -34.1843   10.1948 P   0  0  2  0  0  0  0  0  0  0  0  0
   -4.1294  -42.9521   12.1341 C   0  0  0  0  0  0  0  0  0  0  0  0
   -4.7790  -45.3123   11.5504 C   0  0  0  0  0  0  0  0  0  0  0  0
   -4.9509  -43.9400   11.3454 C   0  0  0  0  0  0  0  0  0  0  0  0
   -5.9080  -43.4738   10.4400 C   0  0  0  0  0  0  0  0  0  0  0  0
   -6.0760  -42.1801   10.2635 N   0  0  0  0  0  0  0  0  0  0  0  0
   -6.6520  -44.3713    9.7136 N   0  0  0  0  0  0  0  0  0  0  0  0
   -6.4855  -45.7243    9.9333 C   0  0  0  0  0  0  0  0  0  0  0  0
   -5.5485  -46.1990   10.8318 N   0  0  0  0  0  0  0  0  0  0  0  0
    0.4460  -36.6657   10.3074 O   0  5  0  0  0  0  0  0  0  0  0  0
   -1.9935  -33.4397    9.0291 O   0  0  0  0  0  0  0  0  0  0  0  0
   -0.6686  -42.8585   10.5075 S   0  0  0  0  0  0  0  0  0  0  0  0
   -1.8365  -43.4388   11.4028 C   0  0  0  0  0  0  0  0  0  0  0  0
   -1.4186  -36.9257   11.9976 O   0  0  0  0  0  0  0  0  0  0  0  0
   -0.0590  -33.8764   10.4701 O   0  5  0  0  0  0  0  0  0  0  0  0
   -2.9429  -42.6363   11.3879 N   0  0  0  0  0  0  0  0  0  0  0  0
   -1.6884  -35.6903    9.7482 O   0  0  0  0  0  0  0  0  0  0  0  0
   -2.1429  -33.9486   11.5108 O   0  0  0  0  0  0  0  0  0  0  0  0
   -2.7454  -41.5195   10.6256 C   0  0  1  0  0  0  0  0  0  0  0  0
   -1.4864  -41.5502   10.0804 C   0  0  2  0  0  0  0  0  0  0  0  0
   -0.7809  -40.5817    9.1640 C   0  0  0  0  0  0  0  0  0  0  0  0
   -0.4322  -39.2689    9.8744 C   0  0  0  0  0  0  0  0  0  0  0  0
   -1.3489  -38.1936    9.7825 O   0  0  0  0  0  0  0  0  0  0  0  0
  1 11  1  0  0  0  0
  3 13  1  6  0  0  0
  3 17  2  0  0  0  0
  3 20  1  0  0  0  0
  3 26  1  0  0  0  0
  4 14  1  6  0  0  0
  4 18  1  0  0  0  0
  4 21  2  0  0  0  0
  4 20  1  0  0  0  0
  5 19  1  0  0  0  0
  5  7  1  0  0  0  0
  6  7  2  0  0  0  0
  6 12  1  0  0  0  0
  7  8  1  0  0  0  0
  8  9  1  0  0  0  0
  8 10  2  0  0  0  0
 10 11  1  0  0  0  0
 11 12  2  0  0  0  0
 15 23  1  0  0  0  0
 15 16  1  0  0  0  0
 16 19  1  0  0  0  0
 19 22  1  0  0  0  0
 22  2  1  6  0  0  0
 22 23  1  0  0  0  0
 23 24  1  6  0  0  0
 24 25  1  0  0  0  0
 25 26  1  0  0  0  0
M  CHG  2  13  -1  18  -1
M  END
>  <CHROM.1>
-67.42480040,-82.10243064,92.05292152,167.91611242,-110.64556307,-93.29407725
177.39376482,42.95584372,-2.64512000,-39.94163047,10.45474935,1.96939996
0.07748221,3.09092005

>  <Name>
ligand

>  <RI>
0

>  <Rbt.Current_Directory>
/home/itssahil/PROJECTS/Mol_Feturizer/New_Systems/rnas/3D2G

>  <Rbt.Executable>
rbdock ($Id: //depot/dev/client3/rdock/2013.1/src/exe/rbdock.cxx#4 $)

>  <Rbt.Library>
libRbt.so (2013.1, Build901 2013/11/27)

>  <Rbt.Parameter_File>
/export/apps/rDock/src/rDock_2013.1_src/data/scripts/dock_solv.prm

>  <Rbt.Receptor>
prm/blind_docking_100.prm

>  <SCORE>
-15.4413

>  <SCORE.INTER>
-16.4177

>  <SCORE.INTER.CONST>
1

>  <SCORE.INTER.POLAR>
0

>  <SCORE.INTER.ROT>
8

>  <SCORE.INTER.SOLV>
14.9374

>  <SCORE.INTER.VDW>
-24.8576

>  <SCORE.INTER.norm>
-0.631449

>  <SCORE.INTRA>
0.976427

>  <SCORE.INTRA.DIHEDRAL>
-0.0677549

>  <SCORE.INTRA.DIHEDRAL.0>
9.09364

>  <SCORE.INTRA.POLAR>
0

>  <SCORE.INTRA.POLAR.0>
0

>  <SCORE.INTRA.REPUL>
0

>  <SCORE.INTRA.REPUL.0>
0

>  <SCORE.INTRA.SOLV>
2.92539

>  <SCORE.INTRA.SOLV.lig_0>
-78.5846

>  <SCORE.INTRA.VDW>
-0.45239

>  <SCORE.INTRA.VDW.0>
-2.81163

>  <SCORE.INTRA.norm>
0.0375549

>  <SCORE.RESTR>
0

>  <SCORE.RESTR.CAVITY>
0

>  <SCORE.RESTR.norm>
0

>  <SCORE.SYSTEM>
0

>  <SCORE.SYSTEM.CONST>
0

>  <SCORE.SYSTEM.DIHEDRAL>
0

>  <SCORE.SYSTEM.SOLV>
0

>  <SCORE.SYSTEM.norm>
0

>  <SCORE.heavy>
26

>  <SCORE.norm>
-0.593894

>  <RMSD>
9.548

$$$$
ligand
 OpenBabel11021811463D
libRbt.so/2013.1/901 2013/11/27
 26 27  0  0  0  0  0  0  0  0999 V2000
   -0.1422  -32.5976    7.8100 C   0  0  0  0  0  0  0  0  0  0  0  0
   -3.6342  -38.6809   12.2062 C   0  0  0  0  0  0  0  0  0  0  0  0
   -6.3420  -39.6917    8.2055 P   0  0  1  0  0  0  0  0  0  0  0  0
   -7.8408  -37.4990    7.5063 P   0  0  2  0  0  0  0  0  0  0  0  0
   -1.3155  -36.6511   11.7000 C   0  0  0  0  0  0  0  0  0  0  0  0
    0.1981  -35.6442    9.9598 C   0  0  0  0  0  0  0  0  0  0  0  0
   -0.9946  -35.5819   10.6869 C   0  0  0  0  0  0  0  0  0  0  0  0
   -1.9126  -34.5542   10.4544 C   0  0  0  0  0  0  0  0  0  0  0  0
   -3.0410  -34.5103   11.1310 N   0  0  0  0  0  0  0  0  0  0  0  0
   -1.6193  -33.5738    9.5381 N   0  0  0  0  0  0  0  0  0  0  0  0
   -0.4458  -33.6515    8.8147 C   0  0  0  0  0  0  0  0  0  0  0  0
    0.4672  -34.6671    9.0283 N   0  0  0  0  0  0  0  0  0  0  0  0
   -7.3499  -40.7787    8.4227 O   0  5  0  0  0  0  0  0  0  0  0  0
   -6.6867  -36.8936    6.8112 O   0  0  0  0  0  0  0  0  0  0  0  0
   -1.0838  -39.7168    9.4242 S   0  0  0  0  0  0  0  0  0  0  0  0
   -0.6554  -38.3153   10.0197 C   0  0  0  0  0  0  0  0  0  0  0  0
   -5.7283  -39.6376    6.8513 O   0  0  0  0  0  0  0  0  0  0  0  0
   -8.7387  -36.4833    8.0882 O   0  5  0  0  0  0  0  0  0  0  0  0
   -1.4970  -37.9002   11.0135 N   0  0  0  0  0  0  0  0  0  0  0  0
   -7.1334  -38.3837    8.6153 O   0  0  0  0  0  0  0  0  0  0  0  0
   -8.7615  -38.3500    6.6931 O   0  0  0  0  0  0  0  0  0  0  0  0
   -2.5135  -38.7904   11.2179 C   0  0  1  0  0  0  0  0  0  0  0  0
   -2.3699  -39.8573   10.3670 C   0  0  2  0  0  0  0  0  0  0  0  0
   -3.2008  -41.1045   10.1947 C   0  0  0  0  0  0  0  0  0  0  0  0
   -4.2902  -40.9266    9.1310 C   0  0  0  0  0  0  0  0  0  0  0  0
   -5.2825  -39.9400    9.3470 O   0  0  0  0  0  0  0  0  0  0  0  0
  1 11  1  0  0  0  0
  3 13  1  1  0  0  0
  3 17  2  0  0  0  0
  3 20  1  0  0  0  0
  3 26  1  0  0  0  0
  4 14  1  6  0  0  0
  4 18  1  0  0  0  0
  4 21  2  0  0  0  0
  4 20  1  0  0  0  0
  5 19  1  0  0  0  0
  5  7  1  0  0  0  0
  6  7  2  0  0  0  0
  6 12  1  0  0  0  0
  7  8  1  0  0  0  0
  8  9  1  0  0  0  0
  8 10  2  0  0  0  0
 10 11  1  0  0  0  0
 11 12  2  0  0  0  0
 15 23  1  0  0  0  0
 15 16  1  0  0  0  0
 16 19  1  0  0  0  0
 19 22  1  0  0  0  0
 22  2  1  1  0  0  0
 22 23  1  0  0  0  0
 23 24  1  1  0  0  0
 24 25  1  0  0  0  0
 25 26  1  0  0  0  0
M  CHG  2  13  -1  18  -1
M  END
>  <CHROM.1>
-96.31743115,43.95048607,-65.47102420,-70.71146835,-88.91311261,-61.89930019
175.83839328,81.86893947,-3.90511870,-37.72208425,9.16039401,0.38033099,-0.40373827
-0.22624738

>  <Name>
ligand

>  <RI>
0

>  <Rbt.Current_Directory>
/home/itssahil/PROJECTS/Mol_Feturizer/New_Systems/rnas/3D2G

>  <Rbt.Executable>
rbdock ($Id: //depot/dev/client3/rdock/2013.1/src/exe/rbdock.cxx#4 $)

>  <Rbt.Library>
libRbt.so (2013.1, Build901 2013/11/27)

>  <Rbt.Parameter_File>
/export/apps/rDock/src/rDock_2013.1_src/data/scripts/dock_solv.prm

>  <Rbt.Receptor>
prm/blind_docking_60.prm

>  <SCORE>
-18.6768

>  <SCORE.INTER>
-16.5576

>  <SCORE.INTER.CONST>
1

>  <SCORE.INTER.POLAR>
0

>  <SCORE.INTER.ROT>
8

>  <SCORE.INTER.SOLV>
20.4958

>  <SCORE.INTER.VDW>
-26.8037

>  <SCORE.INTER.norm>
-0.636831

>  <SCORE.INTRA>
-2.11914

>  <SCORE.INTRA.DIHEDRAL>
-2.28487

>  <SCORE.INTRA.DIHEDRAL.0>
9.09364

>  <SCORE.INTRA.POLAR>
0

>  <SCORE.INTRA.POLAR.0>
0

>  <SCORE.INTRA.REPUL>
0

>  <SCORE.INTRA.REPUL.0>
0

>  <SCORE.INTRA.SOLV>
-1.44584

>  <SCORE.INTRA.SOLV.lig_0>
-78.5846

>  <SCORE.INTRA.VDW>
-0.253787

>  <SCORE.INTRA.VDW.0>
-2.81163

>  <SCORE.INTRA.norm>
-0.0815055

>  <SCORE.RESTR>
0

>  <SCORE.RESTR.CAVITY>
0

>  <SCORE.RESTR.norm>
0

>  <SCORE.SYSTEM>
0

>  <SCORE.SYSTEM.CONST>
0

>  <SCORE.SYSTEM.DIHEDRAL>
0

>  <SCORE.SYSTEM.SOLV>
0

>  <SCORE.SYSTEM.norm>
0

>  <SCORE.heavy>
26

>  <SCORE.norm>
-0.718337

>  <RMSD>
9.552

$$$$
ligand
 OpenBabel11021811463D
libRbt.so/2013.1/901 2013/11/27
 26 27  0  0  0  0  0  0  0  0999 V2000
   -0.5215  -33.2436    8.3324 C   0  0  0  0  0  0  0  0  0  0  0  0
   -5.1584  -38.5658   11.7384 C   0  0  0  0  0  0  0  0  0  0  0  0
   -7.1420  -38.3544    7.1688 P   0  0  1  0  0  0  0  0  0  0  0  0
   -7.5519  -35.8089    6.2224 P   0  0  2  0  0  0  0  0  0  0  0  0
   -2.2138  -37.5260   11.7583 C   0  0  0  0  0  0  0  0  0  0  0  0
   -0.9750  -36.6852    9.7355 C   0  0  0  0  0  0  0  0  0  0  0  0
   -1.7540  -36.4044   10.8621 C   0  0  0  0  0  0  0  0  0  0  0  0
   -2.1435  -35.0922   11.1443 C   0  0  0  0  0  0  0  0  0  0  0  0
   -2.8904  -34.8365   12.1977 N   0  0  0  0  0  0  0  0  0  0  0  0
   -1.7191  -34.0670   10.3345 N   0  0  0  0  0  0  0  0  0  0  0  0
   -0.9622  -34.3556    9.2164 C   0  0  0  0  0  0  0  0  0  0  0  0
   -0.5770  -35.6496    8.9206 N   0  0  0  0  0  0  0  0  0  0  0  0
   -8.5949  -38.6959    7.2986 O   0  5  0  0  0  0  0  0  0  0  0  0
   -7.5975  -34.5035    6.9120 O   0  0  0  0  0  0  0  0  0  0  0  0
   -2.7277  -40.3827    9.2669 S   0  0  0  0  0  0  0  0  0  0  0  0
   -1.9283  -39.2605   10.0439 C   0  0  0  0  0  0  0  0  0  0  0  0
   -6.4800  -38.8025    5.9140 O   0  0  0  0  0  0  0  0  0  0  0  0
   -8.8541  -36.1765    5.6346 O   0  5  0  0  0  0  0  0  0  0  0  0
   -2.7165  -38.5954   10.9409 N   0  0  0  0  0  0  0  0  0  0  0  0
   -7.1219  -36.7877    7.3929 O   0  0  0  0  0  0  0  0  0  0  0  0
   -6.6034  -35.9458    5.0758 O   0  0  0  0  0  0  0  0  0  0  0  0
   -4.0046  -39.0510   10.9150 C   0  0  1  0  0  0  0  0  0  0  0  0
   -4.1159  -40.0666    9.9989 C   0  0  2  0  0  0  0  0  0  0  0  0
   -5.2998  -40.9102    9.5955 C   0  0  0  0  0  0  0  0  0  0  0  0
   -6.0343  -40.3267    8.3831 C   0  0  0  0  0  0  0  0  0  0  0  0
   -6.4985  -38.9913    8.4601 O   0  0  0  0  0  0  0  0  0  0  0  0
  1 11  1  0  0  0  0
  3 13  1  6  0  0  0
  3 17  2  0  0  0  0
  3 20  1  0  0  0  0
  3 26  1  0  0  0  0
  4 14  1  1  0  0  0
  4 18  1  0  0  0  0
  4 21  2  0  0  0  0
  4 20  1  0  0  0  0
  5 19  1  0  0  0  0
  5  7  1  0  0  0  0
  6  7  2  0  0  0  0
  6 12  1  0  0  0  0
  7  8  1  0  0  0  0
  8  9  1  0  0  0  0
  8 10  2  0  0  0  0
 10 11  1  0  0  0  0
 11 12  2  0  0  0  0
 15 23  1  0  0  0  0
 15 16  1  0  0  0  0
 16 19  1  0  0  0  0
 19 22  1  0  0  0  0
 22  2  1  1  0  0  0
 22 23  1  0  0  0  0
 23 24  1  1  0  0  0
 24 25  1  0  0  0  0
 25 26  1  0  0  0  0
M  CHG  2  13  -1  18  -1
M  END
>  <CHROM.1>
-78.21612448,61.98725392,-45.58846973,171.24336959,-87.32210699,-55.56299949
174.81430485,89.88321932,-4.65612920,-37.38005784,8.69154909,-0.07628547
-0.58772332,-0.34210278

>  <Name>
ligand

>  <RI>
0

>  <Rbt.Current_Directory>
/home/itssahil/PROJECTS/Mol_Feturizer/New_Systems/rnas/3D2G

>  <Rbt.Executable>
rbdock ($Id: //depot/dev/client3/rdock/2013.1/src/exe/rbdock.cxx#4 $)

>  <Rbt.Library>
libRbt.so (2013.1, Build901 2013/11/27)

>  <Rbt.Parameter_File>
/export/apps/rDock/src/rDock_2013.1_src/data/scripts/dock_solv.prm

>  <Rbt.Receptor>
prm/blind_docking_60.prm

>  <SCORE>
-20.817

>  <SCORE.INTER>
-19.1255

>  <SCORE.INTER.CONST>
1

>  <SCORE.INTER.POLAR>
0

>  <SCORE.INTER.ROT>
8

>  <SCORE.INTER.SOLV>
18.1249

>  <SCORE.INTER.VDW>
-27.7253

>  <SCORE.INTER.norm>
-0.735597

>  <SCORE.INTRA>
-1.6915

>  <SCORE.INTRA.DIHEDRAL>
-2.71495

>  <SCORE.INTRA.DIHEDRAL.0>
9.09364

>  <SCORE.INTRA.POLAR>
0

>  <SCORE.INTRA.POLAR.0>
0

>  <SCORE.INTRA.REPUL>
0

>  <SCORE.INTRA.REPUL.0>
0

>  <SCORE.INTRA.SOLV>
-0.0873007

>  <SCORE.INTRA.SOLV.lig_0>
-78.5846

>  <SCORE.INTRA.VDW>
-0.290377

>  <SCORE.INTRA.VDW.0>
-2.81163

>  <SCORE.INTRA.norm>
-0.0650578

>  <SCORE.RESTR>
0

>  <SCORE.RESTR.CAVITY>
0

>  <SCORE.RESTR.norm>
0

>  <SCORE.SYSTEM>
0

>  <SCORE.SYSTEM.CONST>
0

>  <SCORE.SYSTEM.DIHEDRAL>
0

>  <SCORE.SYSTEM.SOLV>
0

>  <SCORE.SYSTEM.norm>
0

>  <SCORE.heavy>
26

>  <SCORE.norm>
-0.800654

>  <RMSD>
9.584

$$$$
ligand
 OpenBabel11021811463D
libRbt.so/2013.1/901 2013/11/27
 26 27  0  0  0  0  0  0  0  0999 V2000
   -7.6636  -41.7564    7.5313 C   0  0  0  0  0  0  0  0  0  0  0  0
   -2.4390  -38.9273   10.7922 C   0  0  0  0  0  0  0  0  0  0  0  0
   -3.2872  -33.9319   13.0569 P   0  0  1  0  0  0  0  0  0  0  0  0
   -1.5043  -33.9892   10.9686 P   0  0  2  0  0  0  0  0  0  0  0  0
   -3.4061  -41.8380   11.3792 C   0  0  0  0  0  0  0  0  0  0  0  0
   -4.5728  -40.7904    9.4108 C   0  0  0  0  0  0  0  0  0  0  0  0
   -4.5294  -41.8026   10.3744 C   0  0  0  0  0  0  0  0  0  0  0  0
   -5.5010  -42.8070   10.3903 C   0  0  0  0  0  0  0  0  0  0  0  0
   -5.4454  -43.7662   11.2903 N   0  0  0  0  0  0  0  0  0  0  0  0
   -6.5305  -42.7728    9.4816 N   0  0  0  0  0  0  0  0  0  0  0  0
   -6.5570  -41.7776    8.5248 C   0  0  0  0  0  0  0  0  0  0  0  0
   -5.5980  -40.7828    8.4922 N   0  0  0  0  0  0  0  0  0  0  0  0
   -3.1406  -34.2286   14.5180 O   0  5  0  0  0  0  0  0  0  0  0  0
   -2.4572  -34.8129   10.1969 O   0  0  0  0  0  0  0  0  0  0  0  0
   -4.1857  -39.4412   14.2566 S   0  0  0  0  0  0  0  0  0  0  0  0
   -4.1588  -40.8211   13.4836 C   0  0  0  0  0  0  0  0  0  0  0  0
   -3.7026  -32.5448   12.7152 O   0  0  0  0  0  0  0  0  0  0  0  0
   -0.1005  -34.3124   10.6502 O   0  5  0  0  0  0  0  0  0  0  0  0
   -3.5437  -40.7170   12.2674 N   0  0  0  0  0  0  0  0  0  0  0  0
   -1.8827  -34.3567   12.4635 O   0  0  0  0  0  0  0  0  0  0  0  0
   -1.5698  -32.5081   10.7807 O   0  0  0  0  0  0  0  0  0  0  0  0
   -3.1354  -39.4372   12.0168 C   0  0  1  0  0  0  0  0  0  0  0  0
   -3.4513  -38.6352   13.0845 C   0  0  2  0  0  0  0  0  0  0  0  0
   -3.2131  -37.1647   13.3223 C   0  0  0  0  0  0  0  0  0  0  0  0
   -3.8233  -36.2975   12.2153 C   0  0  0  0  0  0  0  0  0  0  0  0
   -4.3191  -35.0178   12.5635 O   0  0  0  0  0  0  0  0  0  0  0  0
  1 11  1  0  0  0  0
  3 13  1  1  0  0  0
  3 17  2  0  0  0  0
  3 20  1  0  0  0  0
  3 26  1  0  0  0  0
  4 14  1  6  0  0  0
  4 18  1  0  0  0  0
  4 21  2  0  0  0  0
  4 20  1  0  0  0  0
  5 19  1  0  0  0  0
  5  7  1  0  0  0  0
  6  7  2  0  0  0  0
  6 12  1  0  0  0  0
  7  8  1  0  0  0  0
  8  9  1  0  0  0  0
  8 10  2  0  0  0  0
 10 11  1  0  0  0  0
 11 12  2  0  0  0  0
 15 23  1  0  0  0  0
 15 16  1  0  0  0  0
 16 19  1  0  0  0  0
 19 22  1  0  0  0  0
 22  2  1  1  0  0  0
 22 23  1  0  0  0  0
 23 24  1  1  0  0  0
 24 25  1  0  0  0  0
 25 26  1  0  0  0  0
M  CHG  2  13  -1  18  -1
M  END
>  <CHROM.1>
-169.84848474,96.27545131,68.33784395,-66.84467705,-123.96960205,147.28323960
65.75762643,-84.46290482,-3.66933443,-37.75818372,11.58782434,3.04572692
1.21467663,1.90061489

>  <Name>
ligand

>  <RI>
0

>  <Rbt.Current_Directory>
/home/itssahil/PROJECTS/Mol_Feturizer/New_Systems/rnas/3D2G

>  <Rbt.Executable>
rbdock ($Id: //depot/dev/client3/rdock/2013.1/src/exe/rbdock.cxx#4 $)

>  <Rbt.Library>
libRbt.so (2013.1, Build901 2013/11/27)

>  <Rbt.Parameter_File>
/export/apps/rDock/src/rDock_2013.1_src/data/scripts/dock_solv.prm

>  <Rbt.Receptor>
prm/blind_docking_100.prm

>  <SCORE>
-12.9157

>  <SCORE.INTER>
-12.4786

>  <SCORE.INTER.CONST>
1

>  <SCORE.INTER.POLAR>
0

>  <SCORE.INTER.ROT>
8

>  <SCORE.INTER.SOLV>
11.4787

>  <SCORE.INTER.VDW>
-21.0786

>  <SCORE.INTER.norm>
-0.479946

>  <SCORE.INTRA>
-0.437139

>  <SCORE.INTRA.DIHEDRAL>
0.460977

>  <SCORE.INTRA.DIHEDRAL.0>
9.09364

>  <SCORE.INTRA.POLAR>
0

>  <SCORE.INTRA.POLAR.0>
0

>  <SCORE.INTRA.REPUL>
0

>  <SCORE.INTRA.REPUL.0>
0

>  <SCORE.INTRA.SOLV>
-1.72554

>  <SCORE.INTRA.SOLV.lig_0>
-78.5846

>  <SCORE.INTRA.VDW>
0.195145

>  <SCORE.INTRA.VDW.0>
-2.81163

>  <SCORE.INTRA.norm>
-0.016813

>  <SCORE.RESTR>
0

>  <SCORE.RESTR.CAVITY>
0

>  <SCORE.RESTR.norm>
0

>  <SCORE.SYSTEM>
0

>  <SCORE.SYSTEM.CONST>
0

>  <SCORE.SYSTEM.DIHEDRAL>
0

>  <SCORE.SYSTEM.SOLV>
0

>  <SCORE.SYSTEM.norm>
0

>  <SCORE.heavy>
26

>  <SCORE.norm>
-0.496759

>  <RMSD>
9.621

$$$$
ligand
 OpenBabel11021811463D
libRbt.so/2013.1/901 2013/11/27
 26 27  0  0  0  0  0  0  0  0999 V2000
   -0.0287  -34.8053   11.4123 C   0  0  0  0  0  0  0  0  0  0  0  0
   -6.0811  -37.8242   11.1839 C   0  0  0  0  0  0  0  0  0  0  0  0
   -7.5847  -38.2947    6.1598 P   0  0  1  0  0  0  0  0  0  0  0  0
   -9.6386  -40.0438    6.6746 P   0  0  2  0  0  0  0  0  0  0  0  0
   -3.7112  -38.9584   12.8719 C   0  0  0  0  0  0  0  0  0  0  0  0
   -1.8670  -38.0671   11.4098 C   0  0  0  0  0  0  0  0  0  0  0  0
   -2.7317  -37.8773   12.4920 C   0  0  0  0  0  0  0  0  0  0  0  0
   -2.7220  -36.6744   13.2034 C   0  0  0  0  0  0  0  0  0  0  0  0
   -3.5498  -36.4958   14.2113 N   0  0  0  0  0  0  0  0  0  0  0  0
   -1.8249  -35.6907   12.8652 N   0  0  0  0  0  0  0  0  0  0  0  0
   -0.9849  -35.8815   11.7860 C   0  0  0  0  0  0  0  0  0  0  0  0
   -0.9897  -37.0628   11.0684 N   0  0  0  0  0  0  0  0  0  0  0  0
   -8.0793  -38.2782    4.7458 O   0  5  0  0  0  0  0  0  0  0  0  0
   -8.6744  -41.0572    7.1490 O   0  0  0  0  0  0  0  0  0  0  0  0
   -4.4710  -41.1140    9.8046 S   0  0  0  0  0  0  0  0  0  0  0  0
   -3.7139  -40.6844   11.1255 C   0  0  0  0  0  0  0  0  0  0  0  0
   -6.9148  -37.0512    6.6271 O   0  0  0  0  0  0  0  0  0  0  0  0
   -9.9491  -40.1958    5.2404 O   0  5  0  0  0  0  0  0  0  0  0  0
   -4.2393  -39.5472   11.6723 N   0  0  0  0  0  0  0  0  0  0  0  0
   -8.8763  -38.6891    6.9854 O   0  0  0  0  0  0  0  0  0  0  0  0
  -10.9861  -40.0244    7.3204 O   0  0  0  0  0  0  0  0  0  0  0  0
   -5.2674  -39.0541   10.9193 C   0  0  1  0  0  0  0  0  0  0  0  0
   -5.4795  -39.8712    9.8373 C   0  0  2  0  0  0  0  0  0  0  0  0
   -6.4875  -39.7894    8.7180 C   0  0  0  0  0  0  0  0  0  0  0  0
   -5.8143  -39.7299    7.3421 C   0  0  0  0  0  0  0  0  0  0  0  0
   -6.6351  -39.5532    6.2019 O   0  0  0  0  0  0  0  0  0  0  0  0
  1 11  1  0  0  0  0
  3 13  1  6  0  0  0
  3 17  2  0  0  0  0
  3 20  1  0  0  0  0
  3 26  1  0  0  0  0
  4 14  1  1  0  0  0
  4 18  1  0  0  0  0
  4 21  2  0  0  0  0
  4 20  1  0  0  0  0
  5 19  1  0  0  0  0
  5  7  1  0  0  0  0
  6  7  2  0  0  0  0
  6 12  1  0  0  0  0
  7  8  1  0  0  0  0
  8  9  1  0  0  0  0
  8 10  2  0  0  0  0
 10 11  1  0  0  0  0
 11 12  2  0  0  0  0
 15 23  1  0  0  0  0
 15 16  1  0  0  0  0
 16 19  1  0  0  0  0
 19 22  1  0  0  0  0
 22  2  1  1  0  0  0
 22 23  1  0  0  0  0
 23 24  1  1  0  0  0
 24 25  1  0  0  0  0
 25 26  1  0  0  0  0
M  CHG  2  13  -1  18  -1
M  END
>  <CHROM.1>
57.85587658,95.31190356,-39.19704326,69.23967544,-58.54218873,-175.50778349
56.26454373,169.26986009,-5.68327469,-38.73269721,9.16576890,-0.23546731
-0.73484797,-0.73470457

>  <Name>
ligand

>  <RI>
0

>  <Rbt.Current_Directory>
/home/itssahil/PROJECTS/Mol_Feturizer/New_Systems/rnas/3D2G

>  <Rbt.Executable>
rbdock ($Id: //depot/dev/client3/rdock/2013.1/src/exe/rbdock.cxx#4 $)

>  <Rbt.Library>
libRbt.so (2013.1, Build901 2013/11/27)

>  <Rbt.Parameter_File>
/export/apps/rDock/src/rDock_2013.1_src/data/scripts/dock_solv.prm

>  <Rbt.Receptor>
prm/blind_docking_80.prm

>  <SCORE>
-12.6646

>  <SCORE.INTER>
-10.4606

>  <SCORE.INTER.CONST>
1

>  <SCORE.INTER.POLAR>
0

>  <SCORE.INTER.ROT>
8

>  <SCORE.INTER.SOLV>
26.4964

>  <SCORE.INTER.VDW>
-24.7392

>  <SCORE.INTER.norm>
-0.402329

>  <SCORE.INTRA>
-2.20401

>  <SCORE.INTRA.DIHEDRAL>
-3.07599

>  <SCORE.INTRA.DIHEDRAL.0>
9.09364

>  <SCORE.INTRA.POLAR>
0

>  <SCORE.INTRA.POLAR.0>
0

>  <SCORE.INTRA.REPUL>
0

>  <SCORE.INTRA.REPUL.0>
0

>  <SCORE.INTRA.SOLV>
-0.857856

>  <SCORE.INTRA.SOLV.lig_0>
-78.5846

>  <SCORE.INTRA.VDW>
-0.237087

>  <SCORE.INTRA.VDW.0>
-2.81163

>  <SCORE.INTRA.norm>
-0.0847697

>  <SCORE.RESTR>
0

>  <SCORE.RESTR.CAVITY>
0

>  <SCORE.RESTR.norm>
0

>  <SCORE.SYSTEM>
0

>  <SCORE.SYSTEM.CONST>
0

>  <SCORE.SYSTEM.DIHEDRAL>
0

>  <SCORE.SYSTEM.SOLV>
0

>  <SCORE.SYSTEM.norm>
0

>  <SCORE.heavy>
26

>  <SCORE.norm>
-0.487099

>  <RMSD>
9.647

$$$$
ligand
 OpenBabel11021811463D
libRbt.so/2013.1/901 2013/11/27
 26 27  0  0  0  0  0  0  0  0999 V2000
   -2.2882  -47.2953    7.3135 C   0  0  0  0  0  0  0  0  0  0  0  0
   -6.1817  -39.6713    8.9235 C   0  0  0  0  0  0  0  0  0  0  0  0
   -9.9877  -38.9029    3.7334 P   0  0  1  0  0  0  0  0  0  0  0  0
  -12.3324  -37.8266    2.7917 P   0  0  2  0  0  0  0  0  0  0  0  0
   -4.2804  -42.1485    8.8886 C   0  0  0  0  0  0  0  0  0  0  0  0
   -2.4372  -43.6195    8.0098 C   0  0  0  0  0  0  0  0  0  0  0  0
   -3.7551  -43.4950    8.4600 C   0  0  0  0  0  0  0  0  0  0  0  0
   -4.5808  -44.6187    8.5523 C   0  0  0  0  0  0  0  0  0  0  0  0
   -5.8156  -44.4972    8.9922 N   0  0  0  0  0  0  0  0  0  0  0  0
   -4.1080  -45.8455    8.1545 N   0  0  0  0  0  0  0  0  0  0  0  0
   -2.8008  -45.9611    7.7250 C   0  0  0  0  0  0  0  0  0  0  0  0
   -1.9706  -44.8596    7.6367 N   0  0  0  0  0  0  0  0  0  0  0  0
  -10.7888  -39.6755    4.7362 O   0  5  0  0  0  0  0  0  0  0  0  0
  -12.0287  -38.6528    1.6055 O   0  0  0  0  0  0  0  0  0  0  0  0
   -5.0575  -40.8653    5.3699 S   0  0  0  0  0  0  0  0  0  0  0  0
   -4.3960  -41.8006    6.4608 C   0  0  0  0  0  0  0  0  0  0  0  0
   -9.5742  -39.6530    2.5169 O   0  0  0  0  0  0  0  0  0  0  0  0
  -12.9544  -36.5383    2.4312 O   0  5  0  0  0  0  0  0  0  0  0  0
   -4.7624  -41.4491    7.7298 N   0  0  0  0  0  0  0  0  0  0  0  0
  -10.8992  -37.6418    3.4433 O   0  0  0  0  0  0  0  0  0  0  0  0
  -13.2761  -38.3964    3.8006 O   0  0  0  0  0  0  0  0  0  0  0  0
   -5.5846  -40.3576    7.7330 C   0  0  1  0  0  0  0  0  0  0  0  0
   -5.8146  -39.9499    6.4431 C   0  0  2  0  0  0  0  0  0  0  0  0
   -6.6500  -38.8189    5.8967 C   0  0  0  0  0  0  0  0  0  0  0  0
   -7.8719  -39.3285    5.1241 C   0  0  0  0  0  0  0  0  0  0  0  0
   -8.7609  -38.3747    4.5719 O   0  0  0  0  0  0  0  0  0  0  0  0
  1 11  1  0  0  0  0
  3 13  1  1  0  0  0
  3 17  2  0  0  0  0
  3 20  1  0  0  0  0
  3 26  1  0  0  0  0
  4 14  1  6  0  0  0
  4 18  1  0  0  0  0
  4 21  2  0  0  0  0
  4 20  1  0  0  0  0
  5 19  1  0  0  0  0
  5  7  1  0  0  0  0
  6  7  2  0  0  0  0
  6 12  1  0  0  0  0
  7  8  1  0  0  0  0
  8  9  1  0  0  0  0
  8 10  2  0  0  0  0
 10 11  1  0  0  0  0
 11 12  2  0  0  0  0
 15 23  1  0  0  0  0
 15 16  1  0  0  0  0
 16 19  1  0  0  0  0
 19 22  1  0  0  0  0
 22  2  1  6  0  0  0
 22 23  1  0  0  0  0
 23 24  1  6  0  0  0
 24 25  1  0  0  0  0
 25 26  1  0  0  0  0
M  CHG  2  13  -1  18  -1
M  END
>  <CHROM.1>
-63.02136103,-18.51191646,85.72717959,-51.83075018,67.38944874,178.98605071
177.81288641,63.56115762,-7.37130069,-40.78739203,5.65182829,0.45118013,0.64876320
-2.91674838

>  <Name>
ligand

>  <RI>
0

>  <Rbt.Current_Directory>
/home/itssahil/PROJECTS/Mol_Feturizer/New_Systems/rnas/3D2G

>  <Rbt.Executable>
rbdock ($Id: //depot/dev/client3/rdock/2013.1/src/exe/rbdock.cxx#4 $)

>  <Rbt.Library>
libRbt.so (2013.1, Build901 2013/11/27)

>  <Rbt.Parameter_File>
/export/apps/rDock/src/rDock_2013.1_src/data/scripts/dock_solv.prm

>  <Rbt.Receptor>
prm/pocket_docking_3.prm

>  <SCORE>
-9.00456

>  <SCORE.INTER>
-7.0933

>  <SCORE.INTER.CONST>
1

>  <SCORE.INTER.POLAR>
0

>  <SCORE.INTER.ROT>
8

>  <SCORE.INTER.SOLV>
29.3219

>  <SCORE.INTER.VDW>
-23.4362

>  <SCORE.INTER.norm>
-0.272819

>  <SCORE.INTRA>
-1.91125

>  <SCORE.INTRA.DIHEDRAL>
-3.6559

>  <SCORE.INTRA.DIHEDRAL.0>
9.09364

>  <SCORE.INTRA.POLAR>
0

>  <SCORE.INTRA.POLAR.0>
0

>  <SCORE.INTRA.REPUL>
0

>  <SCORE.INTRA.REPUL.0>
0

>  <SCORE.INTRA.SOLV>
-1.68596

>  <SCORE.INTRA.SOLV.lig_0>
-78.5846

>  <SCORE.INTRA.VDW>
0.759675

>  <SCORE.INTRA.VDW.0>
-2.81163

>  <SCORE.INTRA.norm>
-0.0735097

>  <SCORE.RESTR>
0

>  <SCORE.RESTR.CAVITY>
0

>  <SCORE.RESTR.norm>
0

>  <SCORE.SYSTEM>
0

>  <SCORE.SYSTEM.CONST>
0

>  <SCORE.SYSTEM.DIHEDRAL>
0

>  <SCORE.SYSTEM.SOLV>
0

>  <SCORE.SYSTEM.norm>
0

>  <SCORE.heavy>
26

>  <SCORE.norm>
-0.346329

>  <RMSD>
9.647

$$$$
ligand
 OpenBabel11021811463D
libRbt.so/2013.1/901 2013/11/27
 26 27  0  0  0  0  0  0  0  0999 V2000
   -5.4998  -32.3128   13.5125 C   0  0  0  0  0  0  0  0  0  0  0  0
   -2.2429  -38.7242   10.5704 C   0  0  0  0  0  0  0  0  0  0  0  0
   -6.4293  -41.4486    8.4374 P   0  0  1  0  0  0  0  0  0  0  0  0
   -8.1849  -39.4415    7.7796 P   0  0  2  0  0  0  0  0  0  0  0  0
   -1.9074  -36.7560   12.9717 C   0  0  0  0  0  0  0  0  0  0  0  0
   -3.8506  -35.6225   14.0997 C   0  0  0  0  0  0  0  0  0  0  0  0
   -2.8633  -35.5985   13.1100 C   0  0  0  0  0  0  0  0  0  0  0  0
   -2.7302  -34.4898   12.2696 C   0  0  0  0  0  0  0  0  0  0  0  0
   -1.7882  -34.4666   11.3502 N   0  0  0  0  0  0  0  0  0  0  0  0
   -3.6049  -33.4373   12.3874 N   0  0  0  0  0  0  0  0  0  0  0  0
   -4.5674  -33.4637   13.3770 C   0  0  0  0  0  0  0  0  0  0  0  0
   -4.7049  -34.5500   14.2205 N   0  0  0  0  0  0  0  0  0  0  0  0
   -7.5918  -42.3906    8.5135 O   0  5  0  0  0  0  0  0  0  0  0  0
   -9.3945  -40.1899    8.1778 O   0  0  0  0  0  0  0  0  0  0  0  0
   -4.0349  -39.8028   13.8784 S   0  0  0  0  0  0  0  0  0  0  0  0
   -3.2924  -38.4270   14.1198 C   0  0  0  0  0  0  0  0  0  0  0  0
   -5.6437  -41.4887    7.1746 O   0  0  0  0  0  0  0  0  0  0  0  0
   -7.8457  -39.6427    6.3581 O   0  5  0  0  0  0  0  0  0  0  0  0
   -2.6574  -37.9813   12.9945 N   0  0  0  0  0  0  0  0  0  0  0  0
   -7.0870  -40.0436    8.7517 O   0  0  0  0  0  0  0  0  0  0  0  0
   -8.2220  -37.9542    7.9196 O   0  0  0  0  0  0  0  0  0  0  0  0
   -2.8016  -38.8558   11.9544 C   0  0  1  0  0  0  0  0  0  0  0  0
   -3.5678  -39.9226   12.3519 C   0  0  2  0  0  0  0  0  0  0  0  0
   -4.0318  -41.1436   11.5973 C   0  0  0  0  0  0  0  0  0  0  0  0
   -4.9188  -40.7773   10.4020 C   0  0  0  0  0  0  0  0  0  0  0  0
   -5.5688  -41.8242    9.7045 O   0  0  0  0  0  0  0  0  0  0  0  0
  1 11  1  0  0  0  0
  3 13  1  6  0  0  0
  3 17  2  0  0  0  0
  3 20  1  0  0  0  0
  3 26  1  0  0  0  0
  4 14  1  1  0  0  0
  4 18  1  0  0  0  0
  4 21  2  0  0  0  0
  4 20  1  0  0  0  0
  5 19  1  0  0  0  0
  5  7  1  0  0  0  0
  6  7  2  0  0  0  0
  6 12  1  0  0  0  0
  7  8  1  0  0  0  0
  8  9  1  0  0  0  0
  8 10  2  0  0  0  0
 10 11  1  0  0  0  0
 11 12  2  0  0  0  0
 15 23  1  0  0  0  0
 15 16  1  0  0  0  0
 16 19  1  0  0  0  0
 19 22  1  0  0  0  0
 22  2  1  6  0  0  0
 22 23  1  0  0  0  0
 23 24  1  6  0  0  0
 24 25  1  0  0  0  0
 25 26  1  0  0  0  0
M  CHG  2  13  -1  18  -1
M  END
>  <CHROM.1>
-63.09716289,-68.63232634,47.35932212,78.99282235,117.99166176,-171.94949745
-177.36671405,-143.12394498,-5.10537532,-38.48595287,10.79594338,0.86308913
-0.77927159,0.21733117

>  <Name>
ligand

>  <RI>
0

>  <Rbt.Current_Directory>
/home/itssahil/PROJECTS/Mol_Feturizer/New_Systems/rnas/3D2G

>  <Rbt.Executable>
rbdock ($Id: //depot/dev/client3/rdock/2013.1/src/exe/rbdock.cxx#4 $)

>  <Rbt.Library>
libRbt.so (2013.1, Build901 2013/11/27)

>  <Rbt.Parameter_File>
/export/apps/rDock/src/rDock_2013.1_src/data/scripts/dock_solv.prm

>  <Rbt.Receptor>
prm/blind_docking_80.prm

>  <SCORE>
-15.0293

>  <SCORE.INTER>
-13.3361

>  <SCORE.INTER.CONST>
1

>  <SCORE.INTER.POLAR>
0

>  <SCORE.INTER.ROT>
8

>  <SCORE.INTER.SOLV>
11.6681

>  <SCORE.INTER.VDW>
-21.7134

>  <SCORE.INTER.norm>
-0.512925

>  <SCORE.INTRA>
-1.79013

>  <SCORE.INTRA.DIHEDRAL>
-2.34346

>  <SCORE.INTRA.DIHEDRAL.0>
9.09364

>  <SCORE.INTRA.POLAR>
0

>  <SCORE.INTRA.POLAR.0>
0

>  <SCORE.INTRA.REPUL>
0

>  <SCORE.INTRA.REPUL.0>
0

>  <SCORE.INTRA.SOLV>
-1.63607

>  <SCORE.INTRA.SOLV.lig_0>
-78.5846

>  <SCORE.INTRA.VDW>
0.199631

>  <SCORE.INTRA.VDW.0>
-2.81163

>  <SCORE.INTRA.norm>
-0.0688513

>  <SCORE.RESTR>
0.0969208

>  <SCORE.RESTR.CAVITY>
0.0969208

>  <SCORE.RESTR.norm>
0.00372772

>  <SCORE.SYSTEM>
0

>  <SCORE.SYSTEM.CONST>
0

>  <SCORE.SYSTEM.DIHEDRAL>
0

>  <SCORE.SYSTEM.SOLV>
0

>  <SCORE.SYSTEM.norm>
0

>  <SCORE.heavy>
26

>  <SCORE.norm>
-0.578049

>  <RMSD>
9.657

$$$$
ligand
 OpenBabel11021811463D
libRbt.so/2013.1/901 2013/11/27
 26 27  0  0  0  0  0  0  0  0999 V2000
   -2.5701  -47.1149    8.4753 C   0  0  0  0  0  0  0  0  0  0  0  0
   -5.9029  -42.2934    9.7579 C   0  0  0  0  0  0  0  0  0  0  0  0
   -3.3126  -36.2019   12.4532 P   0  0  1  0  0  0  0  0  0  0  0  0
   -1.2516  -36.0188   10.6471 P   0  0  2  0  0  0  0  0  0  0  0  0
   -6.0805  -44.3647   12.0882 C   0  0  0  0  0  0  0  0  0  0  0  0
   -3.7887  -44.7768   11.1337 C   0  0  0  0  0  0  0  0  0  0  0  0
   -5.1551  -45.0732   11.1320 C   0  0  0  0  0  0  0  0  0  0  0  0
   -5.6662  -46.0514   10.2748 C   0  0  0  0  0  0  0  0  0  0  0  0
   -6.9512  -46.3371   10.2894 N   0  0  0  0  0  0  0  0  0  0  0  0
   -4.8272  -46.6927    9.3964 N   0  0  0  0  0  0  0  0  0  0  0  0
   -3.4771  -46.4037    9.4154 C   0  0  0  0  0  0  0  0  0  0  0  0
   -2.9568  -45.4446   10.2638 N   0  0  0  0  0  0  0  0  0  0  0  0
   -3.3689  -36.8978   13.7787 O   0  5  0  0  0  0  0  0  0  0  0  0
   -2.1398  -34.9683   10.1091 O   0  0  0  0  0  0  0  0  0  0  0  0
   -4.8893  -40.9322   13.2845 S   0  0  0  0  0  0  0  0  0  0  0  0
   -5.3061  -42.4522   13.4193 C   0  0  0  0  0  0  0  0  0  0  0  0
   -3.9952  -34.8818   12.3842 O   0  0  0  0  0  0  0  0  0  0  0  0
   -1.3689  -37.2861    9.9011 O   0  5  0  0  0  0  0  0  0  0  0  0
   -5.6563  -42.9979   12.2161 N   0  0  0  0  0  0  0  0  0  0  0  0
   -1.7615  -36.1508   12.1423 O   0  0  0  0  0  0  0  0  0  0  0  0
    0.2175  -35.7457   10.6369 O   0  0  0  0  0  0  0  0  0  0  0  0
   -5.5859  -42.0796   11.2065 C   0  0  1  0  0  0  0  0  0  0  0  0
   -5.1592  -40.8755   11.7076 C   0  0  2  0  0  0  0  0  0  0  0  0
   -4.9032  -39.5545   11.0255 C   0  0  0  0  0  0  0  0  0  0  0  0
   -4.1759  -38.5655   11.9435 C   0  0  0  0  0  0  0  0  0  0  0  0
   -3.9257  -37.2596   11.4568 O   0  0  0  0  0  0  0  0  0  0  0  0
  1 11  1  0  0  0  0
  3 13  1  1  0  0  0
  3 17  2  0  0  0  0
  3 20  1  0  0  0  0
  3 26  1  0  0  0  0
  4 14  1  6  0  0  0
  4 18  1  0  0  0  0
  4 21  2  0  0  0  0
  4 20  1  0  0  0  0
  5 19  1  0  0  0  0
  5  7  1  0  0  0  0
  6  7  2  0  0  0  0
  6 12  1  0  0  0  0
  7  8  1  0  0  0  0
  8  9  1  0  0  0  0
  8 10  2  0  0  0  0
 10 11  1  0  0  0  0
 11 12  2  0  0  0  0
 15 23  1  0  0  0  0
 15 16  1  0  0  0  0
 16 19  1  0  0  0  0
 19 22  1  0  0  0  0
 22  2  1  6  0  0  0
 22 23  1  0  0  0  0
 23 24  1  6  0  0  0
 24 25  1  0  0  0  0
 25 26  1  0  0  0  0
M  CHG  2  13  -1  18  -1
M  END
>  <CHROM.1>
156.44148999,-121.36623180,37.43289404,44.75481793,10.60636204,-177.04059652
173.81367222,-8.64373926,-3.81409305,-40.40618987,11.29618025,-1.91026645
0.66862460,0.33059771

>  <Name>
ligand

>  <RI>
0

>  <Rbt.Current_Directory>
/home/itssahil/PROJECTS/Mol_Feturizer/New_Systems/rnas/3D2G

>  <Rbt.Executable>
rbdock ($Id: //depot/dev/client3/rdock/2013.1/src/exe/rbdock.cxx#4 $)

>  <Rbt.Library>
libRbt.so (2013.1, Build901 2013/11/27)

>  <Rbt.Parameter_File>
/export/apps/rDock/src/rDock_2013.1_src/data/scripts/dock_solv.prm

>  <Rbt.Receptor>
prm/blind_docking_100.prm

>  <SCORE>
-9.48813

>  <SCORE.INTER>
-11.9716

>  <SCORE.INTER.CONST>
1

>  <SCORE.INTER.POLAR>
0

>  <SCORE.INTER.ROT>
8

>  <SCORE.INTER.SOLV>
19.5791

>  <SCORE.INTER.VDW>
-23.4408

>  <SCORE.INTER.norm>
-0.460446

>  <SCORE.INTRA>
2.15625

>  <SCORE.INTRA.DIHEDRAL>
-1.49274

>  <SCORE.INTRA.DIHEDRAL.0>
9.09364

>  <SCORE.INTRA.POLAR>
0

>  <SCORE.INTRA.POLAR.0>
0

>  <SCORE.INTRA.REPUL>
0

>  <SCORE.INTRA.REPUL.0>
0

>  <SCORE.INTRA.SOLV>
-2.41055

>  <SCORE.INTRA.SOLV.lig_0>
-78.5846

>  <SCORE.INTRA.VDW>
4.10789

>  <SCORE.INTRA.VDW.0>
-2.81163

>  <SCORE.INTRA.norm>
0.0829328

>  <SCORE.RESTR>
0.327204

>  <SCORE.RESTR.CAVITY>
0.327204

>  <SCORE.RESTR.norm>
0.0125848

>  <SCORE.SYSTEM>
0

>  <SCORE.SYSTEM.CONST>
0

>  <SCORE.SYSTEM.DIHEDRAL>
0

>  <SCORE.SYSTEM.SOLV>
0

>  <SCORE.SYSTEM.norm>
0

>  <SCORE.heavy>
26

>  <SCORE.norm>
-0.364928

>  <RMSD>
9.660

$$$$
ligand
 OpenBabel11021811463D
libRbt.so/2013.1/901 2013/11/27
 26 27  0  0  0  0  0  0  0  0999 V2000
   -0.5203  -33.3059    8.4309 C   0  0  0  0  0  0  0  0  0  0  0  0
   -2.2275  -39.4639   10.6514 C   0  0  0  0  0  0  0  0  0  0  0  0
   -7.9255  -39.8333    7.2834 P   0  0  1  0  0  0  0  0  0  0  0  0
   -8.2140  -37.2662    6.3509 P   0  0  2  0  0  0  0  0  0  0  0  0
   -2.2297  -36.9580   12.5150 C   0  0  0  0  0  0  0  0  0  0  0  0
   -0.8395  -36.4181   10.4878 C   0  0  0  0  0  0  0  0  0  0  0  0
   -1.7657  -35.9995   11.4479 C   0  0  0  0  0  0  0  0  0  0  0  0
   -2.2958  -34.7071   11.4039 C   0  0  0  0  0  0  0  0  0  0  0  0
   -3.1796  -34.3243   12.3014 N   0  0  0  0  0  0  0  0  0  0  0  0
   -1.8688  -33.8286   10.4382 N   0  0  0  0  0  0  0  0  0  0  0  0
   -0.9648  -34.2555    9.4858 C   0  0  0  0  0  0  0  0  0  0  0  0
   -0.4388  -35.5335    9.5123 N   0  0  0  0  0  0  0  0  0  0  0  0
   -9.2370  -39.5948    7.9672 O   0  5  0  0  0  0  0  0  0  0  0  0
   -9.1114  -36.8008    7.4279 O   0  0  0  0  0  0  0  0  0  0  0  0
   -5.7653  -38.2023   11.7513 S   0  0  0  0  0  0  0  0  0  0  0  0
   -4.6621  -37.2728   12.4005 C   0  0  0  0  0  0  0  0  0  0  0  0
   -7.9828  -40.6379    6.0333 O   0  0  0  0  0  0  0  0  0  0  0  0
   -8.9580  -37.8142    5.2009 O   0  5  0  0  0  0  0  0  0  0  0  0
   -3.3977  -37.6479   12.0416 N   0  0  0  0  0  0  0  0  0  0  0  0
   -7.3515  -38.3708    7.0917 O   0  0  0  0  0  0  0  0  0  0  0  0
   -7.3092  -36.2535    5.7271 O   0  0  0  0  0  0  0  0  0  0  0  0
   -3.4089  -38.7517   11.2360 C   0  0  1  0  0  0  0  0  0  0  0  0
   -4.7042  -39.1443   11.0099 C   0  0  2  0  0  0  0  0  0  0  0  0
   -5.2656  -40.2799   10.1908 C   0  0  0  0  0  0  0  0  0  0  0  0
   -5.9348  -39.7839    8.9040 C   0  0  0  0  0  0  0  0  0  0  0  0
   -7.0445  -40.5077    8.4043 O   0  0  0  0  0  0  0  0  0  0  0  0
  1 11  1  0  0  0  0
  3 13  1  1  0  0  0
  3 17  2  0  0  0  0
  3 20  1  0  0  0  0
  3 26  1  0  0  0  0
  4 14  1  1  0  0  0
  4 18  1  0  0  0  0
  4 21  2  0  0  0  0
  4 20  1  0  0  0  0
  5 19  1  0  0  0  0
  5  7  1  0  0  0  0
  6  7  2  0  0  0  0
  6 12  1  0  0  0  0
  7  8  1  0  0  0  0
  8  9  1  0  0  0  0
  8 10  2  0  0  0  0
 10 11  1  0  0  0  0
 11 12  2  0  0  0  0
 15 23  1  0  0  0  0
 15 16  1  0  0  0  0
 16 19  1  0  0  0  0
 19 22  1  0  0  0  0
 22  2  1  6  0  0  0
 22 23  1  0  0  0  0
 23 24  1  6  0  0  0
 24 25  1  0  0  0  0
 25 26  1  0  0  0  0
M  CHG  2  13  -1  18  -1
M  END
>  <CHROM.1>
-54.61719452,-98.91299987,-90.52592910,81.63690964,71.81355150,-147.74040887
166.60569109,-112.91428977,-5.19933442,-37.60581610,9.19496412,-0.06198112
-0.68033417,-0.75277007

>  <Name>
ligand

>  <RI>
0

>  <Rbt.Current_Directory>
/home/itssahil/PROJECTS/Mol_Feturizer/New_Systems/rnas/3D2G

>  <Rbt.Executable>
rbdock ($Id: //depot/dev/client3/rdock/2013.1/src/exe/rbdock.cxx#4 $)

>  <Rbt.Library>
libRbt.so (2013.1, Build901 2013/11/27)

>  <Rbt.Parameter_File>
/export/apps/rDock/src/rDock_2013.1_src/data/scripts/dock_solv.prm

>  <Rbt.Receptor>
prm/blind_docking_60.prm

>  <SCORE>
-14.8606

>  <SCORE.INTER>
-16.0335

>  <SCORE.INTER.CONST>
1

>  <SCORE.INTER.POLAR>
0

>  <SCORE.INTER.ROT>
8

>  <SCORE.INTER.SOLV>
16.1337

>  <SCORE.INTER.VDW>
-25.0003

>  <SCORE.INTER.norm>
-0.616674

>  <SCORE.INTRA>
1.17292

>  <SCORE.INTRA.DIHEDRAL>
3.29041

>  <SCORE.INTRA.DIHEDRAL.0>
9.09364

>  <SCORE.INTRA.POLAR>
0

>  <SCORE.INTRA.POLAR.0>
0

>  <SCORE.INTRA.REPUL>
0

>  <SCORE.INTRA.REPUL.0>
0

>  <SCORE.INTRA.SOLV>
-0.80678

>  <SCORE.INTRA.SOLV.lig_0>
-78.5846

>  <SCORE.INTRA.VDW>
-0.0688903

>  <SCORE.INTRA.VDW.0>
-2.81163

>  <SCORE.INTRA.norm>
0.0451125

>  <SCORE.RESTR>
0

>  <SCORE.RESTR.CAVITY>
0

>  <SCORE.RESTR.norm>
0

>  <SCORE.SYSTEM>
0

>  <SCORE.SYSTEM.CONST>
0

>  <SCORE.SYSTEM.DIHEDRAL>
0

>  <SCORE.SYSTEM.SOLV>
0

>  <SCORE.SYSTEM.norm>
0

>  <SCORE.heavy>
26

>  <SCORE.norm>
-0.571562

>  <RMSD>
9.676

$$$$
ligand
 OpenBabel11021811463D
libRbt.so/2013.1/901 2013/11/27
 26 27  0  0  0  0  0  0  0  0999 V2000
   -7.6085  -45.7489    8.8751 C   0  0  0  0  0  0  0  0  0  0  0  0
   -2.9908  -41.9692   11.4694 C   0  0  0  0  0  0  0  0  0  0  0  0
   -1.8553  -35.1918   11.8366 P   0  0  1  0  0  0  0  0  0  0  0  0
    0.0157  -34.9098    9.8459 P   0  0  2  0  0  0  0  0  0  0  0  0
   -5.4072  -42.7871   13.2708 C   0  0  0  0  0  0  0  0  0  0  0  0
   -7.1792  -43.1308   11.5172 C   0  0  0  0  0  0  0  0  0  0  0  0
   -5.9984  -43.5682   12.1250 C   0  0  0  0  0  0  0  0  0  0  0  0
   -5.3387  -44.7063   11.6529 C   0  0  0  0  0  0  0  0  0  0  0  0
   -4.2188  -45.1037   12.2193 N   0  0  0  0  0  0  0  0  0  0  0  0
   -5.8794  -45.4250   10.6147 N   0  0  0  0  0  0  0  0  0  0  0  0
   -7.0379  -44.9773   10.0115 C   0  0  0  0  0  0  0  0  0  0  0  0
   -7.6961  -43.8487   10.4626 N   0  0  0  0  0  0  0  0  0  0  0  0
   -0.8055  -35.6025   12.8233 O   0  5  0  0  0  0  0  0  0  0  0  0
    0.8307  -35.7272   10.7676 O   0  0  0  0  0  0  0  0  0  0  0  0
   -5.3727  -39.0402   12.5016 S   0  0  0  0  0  0  0  0  0  0  0  0
   -5.9129  -40.3886   13.1280 C   0  0  0  0  0  0  0  0  0  0  0  0
   -3.0720  -34.5567   12.4107 O   0  0  0  0  0  0  0  0  0  0  0  0
    0.8172  -33.8853    9.1499 O   0  5  0  0  0  0  0  0  0  0  0  0
   -5.1144  -41.4544   12.8205 N   0  0  0  0  0  0  0  0  0  0  0  0
   -1.0556  -34.2732   10.8258 O   0  0  0  0  0  0  0  0  0  0  0  0
   -0.6798  -35.6216    8.7311 O   0  0  0  0  0  0  0  0  0  0  0  0
   -4.0675  -41.0865   12.0229 C   0  0  1  0  0  0  0  0  0  0  0  0
   -4.1220  -39.7362   11.7846 C   0  0  2  0  0  0  0  0  0  0  0  0
   -3.2120  -38.8343   10.9882 C   0  0  0  0  0  0  0  0  0  0  0  0
   -2.8626  -37.5519   11.7518 C   0  0  0  0  0  0  0  0  0  0  0  0
   -2.1720  -36.5275   11.0600 O   0  0  0  0  0  0  0  0  0  0  0  0
  1 11  1  0  0  0  0
  3 13  1  1  0  0  0
  3 17  2  0  0  0  0
  3 20  1  0  0  0  0
  3 26  1  0  0  0  0
  4 14  1  1  0  0  0
  4 18  1  0  0  0  0
  4 21  2  0  0  0  0
  4 20  1  0  0  0  0
  5 19  1  0  0  0  0
  5  7  1  0  0  0  0
  6  7  2  0  0  0  0
  6 12  1  0  0  0  0
  7  8  1  0  0  0  0
  8  9  1  0  0  0  0
  8 10  2  0  0  0  0
 10 11  1  0  0  0  0
 11 12  2  0  0  0  0
 15 23  1  0  0  0  0
 15 16  1  0  0  0  0
 16 19  1  0  0  0  0
 19 22  1  0  0  0  0
 22  2  1  1  0  0  0
 22 23  1  0  0  0  0
 23 24  1  1  0  0  0
 24 25  1  0  0  0  0
 25 26  1  0  0  0  0
M  CHG  2  13  -1  18  -1
M  END
>  <CHROM.1>
69.84548537,102.54909282,-59.57230094,-49.73066120,45.93364276,-171.28612748
178.08710667,70.41312606,-3.45484655,-39.18535633,11.30736470,-2.38757888
0.78138075,0.58422285

>  <Name>
ligand

>  <RI>
0

>  <Rbt.Current_Directory>
/home/itssahil/PROJECTS/Mol_Feturizer/New_Systems/rnas/3D2G

>  <Rbt.Executable>
rbdock ($Id: //depot/dev/client3/rdock/2013.1/src/exe/rbdock.cxx#4 $)

>  <Rbt.Library>
libRbt.so (2013.1, Build901 2013/11/27)

>  <Rbt.Parameter_File>
/export/apps/rDock/src/rDock_2013.1_src/data/scripts/dock_solv.prm

>  <Rbt.Receptor>
prm/blind_docking_80.prm

>  <SCORE>
-17.3285

>  <SCORE.INTER>
-15.4546

>  <SCORE.INTER.CONST>
1

>  <SCORE.INTER.POLAR>
0

>  <SCORE.INTER.ROT>
8

>  <SCORE.INTER.SOLV>
22.0014

>  <SCORE.INTER.VDW>
-26.5702

>  <SCORE.INTER.norm>
-0.594409

>  <SCORE.INTRA>
-1.87389

>  <SCORE.INTRA.DIHEDRAL>
-3.02269

>  <SCORE.INTRA.DIHEDRAL.0>
9.09364

>  <SCORE.INTRA.POLAR>
0

>  <SCORE.INTRA.POLAR.0>
0

>  <SCORE.INTRA.REPUL>
0

>  <SCORE.INTRA.REPUL.0>
0

>  <SCORE.INTRA.SOLV>
-1.32715

>  <SCORE.INTRA.SOLV.lig_0>
-78.5846

>  <SCORE.INTRA.VDW>
0.301027

>  <SCORE.INTRA.VDW.0>
-2.81163

>  <SCORE.INTRA.norm>
-0.0720728

>  <SCORE.RESTR>
0

>  <SCORE.RESTR.CAVITY>
0

>  <SCORE.RESTR.norm>
0

>  <SCORE.SYSTEM>
0

>  <SCORE.SYSTEM.CONST>
0

>  <SCORE.SYSTEM.DIHEDRAL>
0

>  <SCORE.SYSTEM.SOLV>
0

>  <SCORE.SYSTEM.norm>
0

>  <SCORE.heavy>
26

>  <SCORE.norm>
-0.666481

>  <RMSD>
9.708

$$$$
ligand
 OpenBabel11021811463D
libRbt.so/2013.1/901 2013/11/27
 26 27  0  0  0  0  0  0  0  0999 V2000
   -7.2905  -46.5529    9.3039 C   0  0  0  0  0  0  0  0  0  0  0  0
   -0.5771  -42.6219   11.2371 C   0  0  0  0  0  0  0  0  0  0  0  0
   -1.2010  -36.3063   10.7764 P   0  0  1  0  0  0  0  0  0  0  0  0
   -2.6556  -33.9820   10.9338 P   0  0  2  0  0  0  0  0  0  0  0  0
   -3.4706  -43.3558   12.1547 C   0  0  0  0  0  0  0  0  0  0  0  0
   -5.7437  -44.4186   11.9631 C   0  0  0  0  0  0  0  0  0  0  0  0
   -4.4738  -44.2062   11.4179 C   0  0  0  0  0  0  0  0  0  0  0  0
   -4.1385  -44.7461   10.1732 C   0  0  0  0  0  0  0  0  0  0  0  0
   -2.9467  -44.5290    9.6580 N   0  0  0  0  0  0  0  0  0  0  0  0
   -5.0473  -45.5284    9.5033 N   0  0  0  0  0  0  0  0  0  0  0  0
   -6.3037  -45.7206   10.0427 C   0  0  0  0  0  0  0  0  0  0  0  0
   -6.6516  -45.1856   11.2688 N   0  0  0  0  0  0  0  0  0  0  0  0
    0.2044  -35.9016   10.4518 O   0  5  0  0  0  0  0  0  0  0  0  0
   -3.9386  -34.5404   11.4070 O   0  0  0  0  0  0  0  0  0  0  0  0
   -3.3972  -40.2395    9.9377 S   0  0  0  0  0  0  0  0  0  0  0  0
   -4.0504  -41.3756   10.8237 C   0  0  0  0  0  0  0  0  0  0  0  0
   -1.5018  -36.5047   12.2199 O   0  0  0  0  0  0  0  0  0  0  0  0
   -2.8407  -32.7584   10.1307 O   0  5  0  0  0  0  0  0  0  0  0  0
   -3.1155  -42.2365   11.3267 N   0  0  0  0  0  0  0  0  0  0  0  0
   -2.0672  -35.1802   10.0788 O   0  0  0  0  0  0  0  0  0  0  0  0
   -1.6637  -33.5679   11.9720 O   0  0  0  0  0  0  0  0  0  0  0  0
   -1.8553  -41.9123   10.9093 C   0  0  1  0  0  0  0  0  0  0  0  0
   -1.9058  -40.7929   10.1171 C   0  0  2  0  0  0  0  0  0  0  0  0
   -0.8111  -40.0227    9.4213 C   0  0  0  0  0  0  0  0  0  0  0  0
   -0.5130  -38.6910   10.1195 C   0  0  0  0  0  0  0  0  0  0  0  0
   -1.4126  -37.6154    9.9227 O   0  0  0  0  0  0  0  0  0  0  0  0
  1 11  1  0  0  0  0
  3 13  1  6  0  0  0
  3 17  2  0  0  0  0
  3 20  1  0  0  0  0
  3 26  1  0  0  0  0
  4 14  1  1  0  0  0
  4 18  1  0  0  0  0
  4 21  2  0  0  0  0
  4 20  1  0  0  0  0
  5 19  1  0  0  0  0
  5  7  1  0  0  0  0
  6  7  2  0  0  0  0
  6 12  1  0  0  0  0
  7  8  1  0  0  0  0
  8  9  1  0  0  0  0
  8 10  2  0  0  0  0
 10 11  1  0  0  0  0
 11 12  2  0  0  0  0
 15 23  1  0  0  0  0
 15 16  1  0  0  0  0
 16 19  1  0  0  0  0
 19 22  1  0  0  0  0
 22  2  1  1  0  0  0
 22 23  1  0  0  0  0
 23 24  1  1  0  0  0
 24 25  1  0  0  0  0
 25 26  1  0  0  0  0
M  CHG  2  13  -1  18  -1
M  END
>  <CHROM.1>
-100.07674200,55.64453711,-119.71269432,-87.27692199,73.46683731,-76.81239632
172.72884831,56.79026834,-2.90768890,-39.65116184,10.64995221,1.86535728
-0.05780879,-3.08634931

>  <Name>
ligand

>  <RI>
0

>  <Rbt.Current_Directory>
/home/itssahil/PROJECTS/Mol_Feturizer/New_Systems/rnas/3D2G

>  <Rbt.Executable>
rbdock ($Id: //depot/dev/client3/rdock/2013.1/src/exe/rbdock.cxx#4 $)

>  <Rbt.Library>
libRbt.so (2013.1, Build901 2013/11/27)

>  <Rbt.Parameter_File>
/export/apps/rDock/src/rDock_2013.1_src/data/scripts/dock_solv.prm

>  <Rbt.Receptor>
prm/blind_docking_80.prm

>  <SCORE>
-14.9806

>  <SCORE.INTER>
-14.785

>  <SCORE.INTER.CONST>
1

>  <SCORE.INTER.POLAR>
0

>  <SCORE.INTER.ROT>
8

>  <SCORE.INTER.SOLV>
17.2352

>  <SCORE.INTER.VDW>
-24.5351

>  <SCORE.INTER.norm>
-0.568655

>  <SCORE.INTRA>
-0.195535

>  <SCORE.INTRA.DIHEDRAL>
-0.2048

>  <SCORE.INTRA.DIHEDRAL.0>
9.09364

>  <SCORE.INTRA.POLAR>
0

>  <SCORE.INTRA.POLAR.0>
0

>  <SCORE.INTRA.REPUL>
0

>  <SCORE.INTRA.REPUL.0>
0

>  <SCORE.INTRA.SOLV>
1.75851

>  <SCORE.INTRA.SOLV.lig_0>
-78.5846

>  <SCORE.INTRA.VDW>
-0.97239

>  <SCORE.INTRA.VDW.0>
-2.81163

>  <SCORE.INTRA.norm>
-0.00752056

>  <SCORE.RESTR>
0

>  <SCORE.RESTR.CAVITY>
0

>  <SCORE.RESTR.norm>
0

>  <SCORE.SYSTEM>
0

>  <SCORE.SYSTEM.CONST>
0

>  <SCORE.SYSTEM.DIHEDRAL>
0

>  <SCORE.SYSTEM.SOLV>
0

>  <SCORE.SYSTEM.norm>
0

>  <SCORE.heavy>
26

>  <SCORE.norm>
-0.576175

>  <RMSD>
9.745

$$$$
ligand
 OpenBabel11021811463D
libRbt.so/2013.1/901 2013/11/27
 26 27  0  0  0  0  0  0  0  0999 V2000
   -7.6759  -45.6773    8.6605 C   0  0  0  0  0  0  0  0  0  0  0  0
   -6.1448  -40.1402   13.6668 C   0  0  0  0  0  0  0  0  0  0  0  0
   -1.7546  -36.2692   11.3309 P   0  0  1  0  0  0  0  0  0  0  0  0
   -0.1973  -34.4277   10.0168 P   0  0  2  0  0  0  0  0  0  0  0  0
   -5.3119  -43.1168   13.2206 C   0  0  0  0  0  0  0  0  0  0  0  0
   -7.1318  -43.2874   11.4909 C   0  0  0  0  0  0  0  0  0  0  0  0
   -5.9457  -43.7930   12.0316 C   0  0  0  0  0  0  0  0  0  0  0  0
   -5.3201  -44.9010   11.4537 C   0  0  0  0  0  0  0  0  0  0  0  0
   -4.1949  -45.3623   11.9580 N   0  0  0  0  0  0  0  0  0  0  0  0
   -5.8994  -45.5246   10.3757 N   0  0  0  0  0  0  0  0  0  0  0  0
   -7.0631  -45.0095    9.8397 C   0  0  0  0  0  0  0  0  0  0  0  0
   -7.6880  -43.9092   10.3960 N   0  0  0  0  0  0  0  0  0  0  0  0
   -2.9829  -35.7036   10.6860 O   0  5  0  0  0  0  0  0  0  0  0  0
   -1.4334  -34.1084    9.2740 O   0  0  0  0  0  0  0  0  0  0  0  0
   -2.7937  -40.6632   11.7137 S   0  0  0  0  0  0  0  0  0  0  0  0
   -3.3950  -42.0764   12.0927 C   0  0  0  0  0  0  0  0  0  0  0  0
   -1.1879  -37.4866   10.6904 O   0  0  0  0  0  0  0  0  0  0  0  0
    0.6590  -35.3856    9.2918 O   0  5  0  0  0  0  0  0  0  0  0  0
   -4.5805  -41.9673   12.7642 N   0  0  0  0  0  0  0  0  0  0  0  0
   -0.7680  -35.0321   11.3667 O   0  0  0  0  0  0  0  0  0  0  0  0
    0.7303  -33.2967   10.3225 O   0  0  0  0  0  0  0  0  0  0  0  0
   -4.9286  -40.6610   12.9635 C   0  0  1  0  0  0  0  0  0  0  0  0
   -3.9812  -39.8409   12.4041 C   0  0  2  0  0  0  0  0  0  0  0  0
   -3.8927  -38.3368   12.3313 C   0  0  0  0  0  0  0  0  0  0  0  0
   -2.7240  -37.7895   13.1586 C   0  0  0  0  0  0  0  0  0  0  0  0
   -2.2037  -36.5163   12.8224 O   0  0  0  0  0  0  0  0  0  0  0  0
  1 11  1  0  0  0  0
  3 13  1  6  0  0  0
  3 17  2  0  0  0  0
  3 20  1  0  0  0  0
  3 26  1  0  0  0  0
  4 14  1  6  0  0  0
  4 18  1  0  0  0  0
  4 21  2  0  0  0  0
  4 20  1  0  0  0  0
  5 19  1  0  0  0  0
  5  7  1  0  0  0  0
  6  7  2  0  0  0  0
  6 12  1  0  0  0  0
  7  8  1  0  0  0  0
  8  9  1  0  0  0  0
  8 10  2  0  0  0  0
 10 11  1  0  0  0  0
 11 12  2  0  0  0  0
 15 23  1  0  0  0  0
 15 16  1  0  0  0  0
 16 19  1  0  0  0  0
 19 22  1  0  0  0  0
 22  2  1  6  0  0  0
 22 23  1  0  0  0  0
 23 24  1  6  0  0  0
 24 25  1  0  0  0  0
 25 26  1  0  0  0  0
M  CHG  2  13  -1  18  -1
M  END
>  <CHROM.1>
-67.00858301,-73.26121460,-80.07856023,56.25670888,-67.50285848,157.07909100
-53.75204961,92.06785692,-3.36380822,-39.42685528,11.31380564,-2.87205962
1.02169123,1.18787909

>  <Name>
ligand

>  <RI>
0

>  <Rbt.Current_Directory>
/home/itssahil/PROJECTS/Mol_Feturizer/New_Systems/rnas/3D2G

>  <Rbt.Executable>
rbdock ($Id: //depot/dev/client3/rdock/2013.1/src/exe/rbdock.cxx#4 $)

>  <Rbt.Library>
libRbt.so (2013.1, Build901 2013/11/27)

>  <Rbt.Parameter_File>
/export/apps/rDock/src/rDock_2013.1_src/data/scripts/dock_solv.prm

>  <Rbt.Receptor>
prm/blind_docking_80.prm

>  <SCORE>
-14.5007

>  <SCORE.INTER>
-13.8844

>  <SCORE.INTER.CONST>
1

>  <SCORE.INTER.POLAR>
0

>  <SCORE.INTER.ROT>
8

>  <SCORE.INTER.SOLV>
22.712

>  <SCORE.INTER.VDW>
-25.7602

>  <SCORE.INTER.norm>
-0.534014

>  <SCORE.INTRA>
-0.636736

>  <SCORE.INTRA.DIHEDRAL>
-1.0027

>  <SCORE.INTRA.DIHEDRAL.0>
9.09364

>  <SCORE.INTRA.POLAR>
0

>  <SCORE.INTRA.POLAR.0>
0

>  <SCORE.INTRA.REPUL>
0

>  <SCORE.INTRA.REPUL.0>
0

>  <SCORE.INTRA.SOLV>
0.152496

>  <SCORE.INTRA.SOLV.lig_0>
-78.5846

>  <SCORE.INTRA.VDW>
-0.211634

>  <SCORE.INTRA.VDW.0>
-2.81163

>  <SCORE.INTRA.norm>
-0.0244899

>  <SCORE.RESTR>
0.0203929

>  <SCORE.RESTR.CAVITY>
0.0203929

>  <SCORE.RESTR.norm>
0.000784341

>  <SCORE.SYSTEM>
0

>  <SCORE.SYSTEM.CONST>
0

>  <SCORE.SYSTEM.DIHEDRAL>
0

>  <SCORE.SYSTEM.SOLV>
0

>  <SCORE.SYSTEM.norm>
0

>  <SCORE.heavy>
26

>  <SCORE.norm>
-0.55772

>  <RMSD>
9.750

$$$$
ligand
 OpenBabel11021811463D
libRbt.so/2013.1/901 2013/11/27
 26 27  0  0  0  0  0  0  0  0999 V2000
    0.5081  -33.6393    9.7397 C   0  0  0  0  0  0  0  0  0  0  0  0
   -5.6253  -36.7589   11.9227 C   0  0  0  0  0  0  0  0  0  0  0  0
   -5.2199  -41.3125    8.5205 P   0  0  1  0  0  0  0  0  0  0  0  0
   -7.5788  -40.5470    7.3405 P   0  0  2  0  0  0  0  0  0  0  0  0
   -3.3964  -35.3397   13.5871 C   0  0  0  0  0  0  0  0  0  0  0  0
   -1.0664  -35.4100   12.6387 C   0  0  0  0  0  0  0  0  0  0  0  0
   -2.3620  -34.8868   12.5884 C   0  0  0  0  0  0  0  0  0  0  0  0
   -2.7182  -33.9728   11.5929 C   0  0  0  0  0  0  0  0  0  0  0  0
   -3.9442  -33.4961   11.5414 N   0  0  0  0  0  0  0  0  0  0  0  0
   -1.7758  -33.5516   10.6867 N   0  0  0  0  0  0  0  0  0  0  0  0
   -0.5030  -34.0846   10.7354 C   0  0  0  0  0  0  0  0  0  0  0  0
   -0.1395  -34.9956   11.7092 N   0  0  0  0  0  0  0  0  0  0  0  0
   -4.4752  -42.6124    8.5358 O   0  5  0  0  0  0  0  0  0  0  0  0
   -8.7813  -41.3210    6.9706 O   0  0  0  0  0  0  0  0  0  0  0  0
   -3.1307  -39.1518   13.7580 S   0  0  0  0  0  0  0  0  0  0  0  0
   -2.7247  -37.6534   14.0614 C   0  0  0  0  0  0  0  0  0  0  0  0
   -4.5013  -40.1605    7.9124 O   0  0  0  0  0  0  0  0  0  0  0  0
   -7.0507  -39.7603    6.2098 O   0  5  0  0  0  0  0  0  0  0  0  0
   -3.5691  -36.7607   13.4628 N   0  0  0  0  0  0  0  0  0  0  0  0
   -6.5783  -41.6876    7.7999 O   0  0  0  0  0  0  0  0  0  0  0  0
   -7.7238  -39.5339    8.4295 O   0  0  0  0  0  0  0  0  0  0  0  0
   -4.5327  -37.3928   12.7284 C   0  0  1  0  0  0  0  0  0  0  0  0
   -4.3730  -38.7519   12.8309 C   0  0  2  0  0  0  0  0  0  0  0  0
   -5.1652  -39.8891   12.2352 C   0  0  0  0  0  0  0  0  0  0  0  0
   -4.8524  -40.0899   10.7481 C   0  0  0  0  0  0  0  0  0  0  0  0
   -5.5782  -41.0769   10.0382 O   0  0  0  0  0  0  0  0  0  0  0  0
  1 11  1  0  0  0  0
  3 13  1  6  0  0  0
  3 17  2  0  0  0  0
  3 20  1  0  0  0  0
  3 26  1  0  0  0  0
  4 14  1  6  0  0  0
  4 18  1  0  0  0  0
  4 21  2  0  0  0  0
  4 20  1  0  0  0  0
  5 19  1  0  0  0  0
  5  7  1  0  0  0  0
  6  7  2  0  0  0  0
  6 12  1  0  0  0  0
  7  8  1  0  0  0  0
  8  9  1  0  0  0  0
  8 10  2  0  0  0  0
 10 11  1  0  0  0  0
 11 12  2  0  0  0  0
 15 23  1  0  0  0  0
 15 16  1  0  0  0  0
 16 19  1  0  0  0  0
 19 22  1  0  0  0  0
 22  2  1  1  0  0  0
 22 23  1  0  0  0  0
 23 24  1  1  0  0  0
 24 25  1  0  0  0  0
 25 26  1  0  0  0  0
M  CHG  2  13  -1  18  -1
M  END
>  <CHROM.1>
-169.34805261,82.13559968,-59.47274227,-169.72409593,-104.16956869,-176.57849160
-178.02431908,105.91756685,-4.37174670,-38.29639031,10.46317993,-0.09496415
-0.99047785,-1.06486547

>  <Name>
ligand

>  <RI>
0

>  <Rbt.Current_Directory>
/home/itssahil/PROJECTS/Mol_Feturizer/New_Systems/rnas/3D2G

>  <Rbt.Executable>
rbdock ($Id: //depot/dev/client3/rdock/2013.1/src/exe/rbdock.cxx#4 $)

>  <Rbt.Library>
libRbt.so (2013.1, Build901 2013/11/27)

>  <Rbt.Parameter_File>
/export/apps/rDock/src/rDock_2013.1_src/data/scripts/dock_solv.prm

>  <Rbt.Receptor>
prm/blind_docking_60.prm

>  <SCORE>
-16.6083

>  <SCORE.INTER>
-14.9052

>  <SCORE.INTER.CONST>
1

>  <SCORE.INTER.POLAR>
0

>  <SCORE.INTER.ROT>
8

>  <SCORE.INTER.SOLV>
12.0459

>  <SCORE.INTER.VDW>
-22.8854

>  <SCORE.INTER.norm>
-0.573276

>  <SCORE.INTRA>
-1.70314

>  <SCORE.INTRA.DIHEDRAL>
-1.94619

>  <SCORE.INTRA.DIHEDRAL.0>
9.09364

>  <SCORE.INTRA.POLAR>
0

>  <SCORE.INTRA.POLAR.0>
0

>  <SCORE.INTRA.REPUL>
0

>  <SCORE.INTRA.REPUL.0>
0

>  <SCORE.INTRA.SOLV>
0.371373

>  <SCORE.INTRA.SOLV.lig_0>
-78.5846

>  <SCORE.INTRA.VDW>
-0.915729

>  <SCORE.INTRA.VDW.0>
-2.81163

>  <SCORE.INTRA.norm>
-0.0655053

>  <SCORE.RESTR>
0

>  <SCORE.RESTR.CAVITY>
0

>  <SCORE.RESTR.norm>
0

>  <SCORE.SYSTEM>
0

>  <SCORE.SYSTEM.CONST>
0

>  <SCORE.SYSTEM.DIHEDRAL>
0

>  <SCORE.SYSTEM.SOLV>
0

>  <SCORE.SYSTEM.norm>
0

>  <SCORE.heavy>
26

>  <SCORE.norm>
-0.638782

>  <RMSD>
9.755

$$$$
ligand
 OpenBabel11021811463D
libRbt.so/2013.1/901 2013/11/27
 26 27  0  0  0  0  0  0  0  0999 V2000
    0.7702  -33.3752    9.5415 C   0  0  0  0  0  0  0  0  0  0  0  0
   -5.3923  -35.4577   11.8208 C   0  0  0  0  0  0  0  0  0  0  0  0
   -4.6374  -42.4362   11.9626 P   0  0  1  0  0  0  0  0  0  0  0  0
   -6.2189  -44.4296   10.9291 P   0  0  2  0  0  0  0  0  0  0  0  0
   -2.9656  -34.7800   13.6659 C   0  0  0  0  0  0  0  0  0  0  0  0
   -0.7336  -35.0482   12.5346 C   0  0  0  0  0  0  0  0  0  0  0  0
   -1.9741  -34.4057   12.5937 C   0  0  0  0  0  0  0  0  0  0  0  0
   -2.3189  -33.4433   11.6410 C   0  0  0  0  0  0  0  0  0  0  0  0
   -3.4948  -32.8536   11.6927 N   0  0  0  0  0  0  0  0  0  0  0  0
   -1.4145  -33.0939   10.6679 N   0  0  0  0  0  0  0  0  0  0  0  0
   -0.1978  -33.7439   10.6089 C   0  0  0  0  0  0  0  0  0  0  0  0
    0.1530  -34.7037   11.5396 N   0  0  0  0  0  0  0  0  0  0  0  0
   -4.7314  -43.2087   13.2428 O   0  5  0  0  0  0  0  0  0  0  0  0
   -4.9212  -44.9050   10.4076 O   0  0  0  0  0  0  0  0  0  0  0  0
   -3.6216  -38.5425   13.4536 S   0  0  0  0  0  0  0  0  0  0  0  0
   -2.8847  -37.2213   13.9160 C   0  0  0  0  0  0  0  0  0  0  0  0
   -3.3700  -42.5965   11.2001 O   0  0  0  0  0  0  0  0  0  0  0  0
   -7.3201  -44.6493    9.9724 O   0  5  0  0  0  0  0  0  0  0  0  0
   -3.4655  -36.0993   13.3942 N   0  0  0  0  0  0  0  0  0  0  0  0
   -5.9336  -42.8899   11.1757 O   0  0  0  0  0  0  0  0  0  0  0  0
   -6.7233  -45.0575   12.1878 O   0  0  0  0  0  0  0  0  0  0  0  0
   -4.5184  -36.4089   12.5800 C   0  0  1  0  0  0  0  0  0  0  0  0
   -4.6910  -37.7698   12.5470 C   0  0  2  0  0  0  0  0  0  0  0  0
   -5.7038  -38.6216   11.8228 C   0  0  0  0  0  0  0  0  0  0  0  0
   -5.1214  -39.9770   11.4062 C   0  0  0  0  0  0  0  0  0  0  0  0
   -4.8955  -40.9469   12.4127 O   0  0  0  0  0  0  0  0  0  0  0  0
  1 11  1  0  0  0  0
  3 13  1  1  0  0  0
  3 17  2  0  0  0  0
  3 20  1  0  0  0  0
  3 26  1  0  0  0  0
  4 14  1  6  0  0  0
  4 18  1  0  0  0  0
  4 21  2  0  0  0  0
  4 20  1  0  0  0  0
  5 19  1  0  0  0  0
  5  7  1  0  0  0  0
  6  7  2  0  0  0  0
  6 12  1  0  0  0  0
  7  8  1  0  0  0  0
  8  9  1  0  0  0  0
  8 10  2  0  0  0  0
 10 11  1  0  0  0  0
 11 12  2  0  0  0  0
 15 23  1  0  0  0  0
 15 16  1  0  0  0  0
 16 19  1  0  0  0  0
 19 22  1  0  0  0  0
 22  2  1  1  0  0  0
 22 23  1  0  0  0  0
 23 24  1  1  0  0  0
 24 25  1  0  0  0  0
 25 26  1  0  0  0  0
M  CHG  2  13  -1  18  -1
M  END
>  <CHROM.1>
-54.17947653,91.70140207,-69.87241590,-48.76786023,-33.10017977,73.00079679
165.34987762,-168.52265293,-3.93245313,-39.00470698,11.88034834,-1.09998057
-0.56584332,-2.83590603

>  <Name>
ligand

>  <RI>
0

>  <Rbt.Current_Directory>
/home/itssahil/PROJECTS/Mol_Feturizer/New_Systems/rnas/3D2G

>  <Rbt.Executable>
rbdock ($Id: //depot/dev/client3/rdock/2013.1/src/exe/rbdock.cxx#4 $)

>  <Rbt.Library>
libRbt.so (2013.1, Build901 2013/11/27)

>  <Rbt.Parameter_File>
/export/apps/rDock/src/rDock_2013.1_src/data/scripts/dock_solv.prm

>  <Rbt.Receptor>
prm/blind_docking_60.prm

>  <SCORE>
-14.1112

>  <SCORE.INTER>
-13.6703

>  <SCORE.INTER.CONST>
1

>  <SCORE.INTER.POLAR>
0

>  <SCORE.INTER.ROT>
8

>  <SCORE.INTER.SOLV>
16.9324

>  <SCORE.INTER.VDW>
-23.691

>  <SCORE.INTER.norm>
-0.525779

>  <SCORE.INTRA>
-0.440911

>  <SCORE.INTRA.DIHEDRAL>
-2.09336

>  <SCORE.INTRA.DIHEDRAL.0>
9.09364

>  <SCORE.INTRA.POLAR>
0

>  <SCORE.INTRA.POLAR.0>
0

>  <SCORE.INTRA.REPUL>
0

>  <SCORE.INTRA.REPUL.0>
0

>  <SCORE.INTRA.SOLV>
-0.578541

>  <SCORE.INTRA.SOLV.lig_0>
-78.5846

>  <SCORE.INTRA.VDW>
0.895042

>  <SCORE.INTRA.VDW.0>
-2.81163

>  <SCORE.INTRA.norm>
-0.0169581

>  <SCORE.RESTR>
0

>  <SCORE.RESTR.CAVITY>
0

>  <SCORE.RESTR.norm>
0

>  <SCORE.SYSTEM>
0

>  <SCORE.SYSTEM.CONST>
0

>  <SCORE.SYSTEM.DIHEDRAL>
0

>  <SCORE.SYSTEM.SOLV>
0

>  <SCORE.SYSTEM.norm>
0

>  <SCORE.heavy>
26

>  <SCORE.norm>
-0.542737

>  <RMSD>
9.764

$$$$
ligand
 OpenBabel11021811463D
libRbt.so/2013.1/901 2013/11/27
 26 27  0  0  0  0  0  0  0  0999 V2000
   -3.4808  -32.4845   11.4084 C   0  0  0  0  0  0  0  0  0  0  0  0
   -5.4241  -39.6598   12.7777 C   0  0  0  0  0  0  0  0  0  0  0  0
   -7.0803  -38.8559    7.7232 P   0  0  1  0  0  0  0  0  0  0  0  0
   -7.7014  -36.3181    6.8766 P   0  0  2  0  0  0  0  0  0  0  0  0
   -2.9012  -37.8846   13.2638 C   0  0  0  0  0  0  0  0  0  0  0  0
   -2.6469  -36.1340   11.4738 C   0  0  0  0  0  0  0  0  0  0  0  0
   -3.0375  -36.4651   12.7748 C   0  0  0  0  0  0  0  0  0  0  0  0
   -3.5907  -35.4959   13.6161 C   0  0  0  0  0  0  0  0  0  0  0  0
   -3.9713  -35.8178   14.8346 N   0  0  0  0  0  0  0  0  0  0  0  0
   -3.7084  -34.1999   13.1766 N   0  0  0  0  0  0  0  0  0  0  0  0
   -3.3333  -33.8855   11.8855 C   0  0  0  0  0  0  0  0  0  0  0  0
   -2.7927  -34.8358   11.0399 N   0  0  0  0  0  0  0  0  0  0  0  0
   -8.4493  -39.4607    7.7895 O   0  5  0  0  0  0  0  0  0  0  0  0
   -7.9471  -35.0638    7.6171 O   0  0  0  0  0  0  0  0  0  0  0  0
   -2.6272  -39.9493   10.0554 S   0  0  0  0  0  0  0  0  0  0  0  0
   -2.1667  -38.9137   11.1589 C   0  0  0  0  0  0  0  0  0  0  0  0
   -6.3267  -39.0933    6.4625 O   0  0  0  0  0  0  0  0  0  0  0  0
   -8.8793  -36.7486    6.0998 O   0  5  0  0  0  0  0  0  0  0  0  0
   -3.0934  -38.7770   12.1543 N   0  0  0  0  0  0  0  0  0  0  0  0
   -7.3481  -37.3295    8.0451 O   0  0  0  0  0  0  0  0  0  0  0  0
   -6.6021  -36.3124    5.8643 O   0  0  0  0  0  0  0  0  0  0  0  0
   -4.1972  -39.5494   11.9249 C   0  0  1  0  0  0  0  0  0  0  0  0
   -4.0321  -40.2548   10.7595 C   0  0  2  0  0  0  0  0  0  0  0  0
   -4.9327  -41.2477   10.0676 C   0  0  0  0  0  0  0  0  0  0  0  0
   -5.6094  -40.6449    8.8312 C   0  0  0  0  0  0  0  0  0  0  0  0
   -6.3542  -39.4513    8.9904 O   0  0  0  0  0  0  0  0  0  0  0  0
  1 11  1  0  0  0  0
  3 13  1  6  0  0  0
  3 17  2  0  0  0  0
  3 20  1  0  0  0  0
  3 26  1  0  0  0  0
  4 14  1  1  0  0  0
  4 18  1  0  0  0  0
  4 21  2  0  0  0  0
  4 20  1  0  0  0  0
  5 19  1  0  0  0  0
  5  7  1  0  0  0  0
  6  7  2  0  0  0  0
  6 12  1  0  0  0  0
  7  8  1  0  0  0  0
  8  9  1  0  0  0  0
  8 10  2  0  0  0  0
 10 11  1  0  0  0  0
 11 12  2  0  0  0  0
 15 23  1  0  0  0  0
 15 16  1  0  0  0  0
 16 19  1  0  0  0  0
 19 22  1  0  0  0  0
 22  2  1  1  0  0  0
 22 23  1  0  0  0  0
 23 24  1  1  0  0  0
 24 25  1  0  0  0  0
 25 26  1  0  0  0  0
M  CHG  2  13  -1  18  -1
M  END
>  <CHROM.1>
-88.16188944,71.59520471,-32.05043590,176.67072542,-75.31002459,-54.91245198
-178.40329991,92.40098715,-5.16745733,-37.61368500,9.86111202,0.28930071
-0.88773151,0.13831251

>  <Name>
ligand

>  <RI>
0

>  <Rbt.Current_Directory>
/home/itssahil/PROJECTS/Mol_Feturizer/New_Systems/rnas/3D2G

>  <Rbt.Executable>
rbdock ($Id: //depot/dev/client3/rdock/2013.1/src/exe/rbdock.cxx#4 $)

>  <Rbt.Library>
libRbt.so (2013.1, Build901 2013/11/27)

>  <Rbt.Parameter_File>
/export/apps/rDock/src/rDock_2013.1_src/data/scripts/dock_solv.prm

>  <Rbt.Receptor>
prm/blind_docking_100.prm

>  <SCORE>
-14.9938

>  <SCORE.INTER>
-13.4686

>  <SCORE.INTER.CONST>
1

>  <SCORE.INTER.POLAR>
0

>  <SCORE.INTER.ROT>
8

>  <SCORE.INTER.SOLV>
23.4827

>  <SCORE.INTER.VDW>
-25.7399

>  <SCORE.INTER.norm>
-0.518021

>  <SCORE.INTRA>
-1.53073

>  <SCORE.INTRA.DIHEDRAL>
-2.11848

>  <SCORE.INTRA.DIHEDRAL.0>
9.09364

>  <SCORE.INTRA.POLAR>
0

>  <SCORE.INTRA.POLAR.0>
0

>  <SCORE.INTRA.REPUL>
0

>  <SCORE.INTRA.REPUL.0>
0

>  <SCORE.INTRA.SOLV>
-0.414966

>  <SCORE.INTRA.SOLV.lig_0>
-78.5846

>  <SCORE.INTRA.VDW>
-0.264005

>  <SCORE.INTRA.VDW.0>
-2.81163

>  <SCORE.INTRA.norm>
-0.0588741

>  <SCORE.RESTR>
0.00543575

>  <SCORE.RESTR.CAVITY>
0.00543575

>  <SCORE.RESTR.norm>
0.000209067

>  <SCORE.SYSTEM>
0

>  <SCORE.SYSTEM.CONST>
0

>  <SCORE.SYSTEM.DIHEDRAL>
0

>  <SCORE.SYSTEM.SOLV>
0

>  <SCORE.SYSTEM.norm>
0

>  <SCORE.heavy>
26

>  <SCORE.norm>
-0.576686

>  <RMSD>
9.775

$$$$
ligand
 OpenBabel11021811463D
libRbt.so/2013.1/901 2013/11/27
 26 27  0  0  0  0  0  0  0  0999 V2000
   -5.3655  -47.3003    9.4062 C   0  0  0  0  0  0  0  0  0  0  0  0
   -6.3759  -40.0694   13.7455 C   0  0  0  0  0  0  0  0  0  0  0  0
   -1.4773  -36.7279   11.1821 P   0  0  1  0  0  0  0  0  0  0  0  0
   -0.5110  -34.5991    9.7409 P   0  0  2  0  0  0  0  0  0  0  0  0
   -5.2041  -42.8837   13.0678 C   0  0  0  0  0  0  0  0  0  0  0  0
   -4.1862  -44.9646   12.0844 C   0  0  0  0  0  0  0  0  0  0  0  0
   -5.2333  -44.0381   12.0988 C   0  0  0  0  0  0  0  0  0  0  0  0
   -6.3292  -44.1951   11.2458 C   0  0  0  0  0  0  0  0  0  0  0  0
   -7.3195  -43.3282   11.2756 N   0  0  0  0  0  0  0  0  0  0  0  0
   -6.3548  -45.2411   10.3558 N   0  0  0  0  0  0  0  0  0  0  0  0
   -5.3233  -46.1589   10.3589 C   0  0  0  0  0  0  0  0  0  0  0  0
   -4.2374  -46.0206   11.2029 N   0  0  0  0  0  0  0  0  0  0  0  0
   -0.3751  -37.6154   10.6901 O   0  5  0  0  0  0  0  0  0  0  0  0
    0.6199  -35.4394    9.2973 O   0  0  0  0  0  0  0  0  0  0  0  0
   -3.9896  -40.1838   10.6455 S   0  0  0  0  0  0  0  0  0  0  0  0
   -4.1084  -41.6374   11.2580 C   0  0  0  0  0  0  0  0  0  0  0  0
   -1.2702  -36.1201   12.5242 O   0  0  0  0  0  0  0  0  0  0  0  0
   -0.1858  -33.8162   10.9483 O   0  5  0  0  0  0  0  0  0  0  0  0
   -4.9451  -41.6732   12.3383 N   0  0  0  0  0  0  0  0  0  0  0  0
   -1.6410  -35.6780   10.0091 O   0  0  0  0  0  0  0  0  0  0  0  0
   -1.0149  -33.5673    8.7845 O   0  0  0  0  0  0  0  0  0  0  0  0
   -5.4423  -40.4347   12.6321 C   0  0  1  0  0  0  0  0  0  0  0  0
   -4.9621  -39.5192   11.7297 C   0  0  2  0  0  0  0  0  0  0  0  0
   -5.2077  -38.0367   11.5981 C   0  0  0  0  0  0  0  0  0  0  0  0
   -3.9228  -37.2225   11.7875 C   0  0  0  0  0  0  0  0  0  0  0  0
   -2.7508  -37.6562   11.1218 O   0  0  0  0  0  0  0  0  0  0  0  0
  1 11  1  0  0  0  0
  3 13  1  6  0  0  0
  3 17  2  0  0  0  0
  3 20  1  0  0  0  0
  3 26  1  0  0  0  0
  4 14  1  6  0  0  0
  4 18  1  0  0  0  0
  4 21  2  0  0  0  0
  4 20  1  0  0  0  0
  5 19  1  0  0  0  0
  5  7  1  0  0  0  0
  6  7  2  0  0  0  0
  6 12  1  0  0  0  0
  7  8  1  0  0  0  0
  8  9  1  0  0  0  0
  8 10  2  0  0  0  0
 10 11  1  0  0  0  0
 11 12  2  0  0  0  0
 15 23  1  0  0  0  0
 15 16  1  0  0  0  0
 16 19  1  0  0  0  0
 19 22  1  0  0  0  0
 22  2  1  6  0  0  0
 22 23  1  0  0  0  0
 23 24  1  6  0  0  0
 24 25  1  0  0  0  0
 25 26  1  0  0  0  0
M  CHG  2  13  -1  18  -1
M  END
>  <CHROM.1>
-69.82940818,-35.94592977,108.25877423,66.32506259,-63.27215878,45.54483537
173.02662113,166.70414716,-3.39628667,-39.56891521,11.07747224,-2.16449980
0.65214289,0.29011928

>  <Name>
ligand

>  <RI>
0

>  <Rbt.Current_Directory>
/home/itssahil/PROJECTS/Mol_Feturizer/New_Systems/rnas/3D2G

>  <Rbt.Executable>
rbdock ($Id: //depot/dev/client3/rdock/2013.1/src/exe/rbdock.cxx#4 $)

>  <Rbt.Library>
libRbt.so (2013.1, Build901 2013/11/27)

>  <Rbt.Parameter_File>
/export/apps/rDock/src/rDock_2013.1_src/data/scripts/dock_solv.prm

>  <Rbt.Receptor>
prm/blind_docking_60.prm

>  <SCORE>
-15.1197

>  <SCORE.INTER>
-13.672

>  <SCORE.INTER.CONST>
1

>  <SCORE.INTER.POLAR>
0

>  <SCORE.INTER.ROT>
8

>  <SCORE.INTER.SOLV>
24.0676

>  <SCORE.INTER.VDW>
-26.0705

>  <SCORE.INTER.norm>
-0.525845

>  <SCORE.INTRA>
-1.44779

>  <SCORE.INTRA.DIHEDRAL>
-2.20755

>  <SCORE.INTRA.DIHEDRAL.0>
9.09364

>  <SCORE.INTRA.POLAR>
0

>  <SCORE.INTRA.POLAR.0>
0

>  <SCORE.INTRA.REPUL>
0

>  <SCORE.INTRA.REPUL.0>
0

>  <SCORE.INTRA.SOLV>
-0.464429

>  <SCORE.INTRA.SOLV.lig_0>
-78.5846

>  <SCORE.INTRA.VDW>
-0.111797

>  <SCORE.INTRA.VDW.0>
-2.81163

>  <SCORE.INTRA.norm>
-0.055684

>  <SCORE.RESTR>
0

>  <SCORE.RESTR.CAVITY>
0

>  <SCORE.RESTR.norm>
0

>  <SCORE.SYSTEM>
0

>  <SCORE.SYSTEM.CONST>
0

>  <SCORE.SYSTEM.DIHEDRAL>
0

>  <SCORE.SYSTEM.SOLV>
0

>  <SCORE.SYSTEM.norm>
0

>  <SCORE.heavy>
26

>  <SCORE.norm>
-0.581529

>  <RMSD>
9.788

$$$$
ligand
 OpenBabel11021811463D
libRbt.so/2013.1/901 2013/11/27
 26 27  0  0  0  0  0  0  0  0999 V2000
   -8.8482  -36.5769    7.9281 C   0  0  0  0  0  0  0  0  0  0  0  0
   -5.9229  -36.9244   12.1810 C   0  0  0  0  0  0  0  0  0  0  0  0
   -0.0907  -35.1255   11.9131 P   0  0  1  0  0  0  0  0  0  0  0  0
   -0.8360  -33.8006    9.6257 P   0  0  2  0  0  0  0  0  0  0  0  0
   -7.1800  -34.1457   12.8522 C   0  0  0  0  0  0  0  0  0  0  0  0
   -6.7522  -34.7742   10.4531 C   0  0  0  0  0  0  0  0  0  0  0  0
   -7.6173  -34.7700   11.5515 C   0  0  0  0  0  0  0  0  0  0  0  0
   -8.8738  -35.3756   11.4652 C   0  0  0  0  0  0  0  0  0  0  0  0
   -9.6773  -35.3824   12.5080 N   0  0  0  0  0  0  0  0  0  0  0  0
   -9.2786  -35.9378   10.2791 N   0  0  0  0  0  0  0  0  0  0  0  0
   -8.4120  -35.9498    9.2043 C   0  0  0  0  0  0  0  0  0  0  0  0
   -7.1631  -35.3620    9.2783 N   0  0  0  0  0  0  0  0  0  0  0  0
    1.2875  -35.3193   12.4676 O   0  5  0  0  0  0  0  0  0  0  0  0
   -2.0931  -34.5704    9.7207 O   0  0  0  0  0  0  0  0  0  0  0  0
   -3.4969  -34.3551   13.8634 S   0  0  0  0  0  0  0  0  0  0  0  0
   -4.9180  -33.6829   13.6877 C   0  0  0  0  0  0  0  0  0  0  0  0
   -0.9570  -34.1658   12.6492 O   0  0  0  0  0  0  0  0  0  0  0  0
   -0.4269  -33.5686    8.2274 O   0  5  0  0  0  0  0  0  0  0  0  0
   -5.8231  -34.5352   13.1197 N   0  0  0  0  0  0  0  0  0  0  0  0
    0.1832  -34.7319   10.4047 O   0  0  0  0  0  0  0  0  0  0  0  0
   -0.8245  -32.4303   10.2217 O   0  0  0  0  0  0  0  0  0  0  0  0
   -5.2589  -35.7432   12.8201 C   0  0  1  0  0  0  0  0  0  0  0  0
   -3.9413  -35.7443   13.2036 C   0  0  2  0  0  0  0  0  0  0  0  0
   -2.8853  -36.8178   13.1134 C   0  0  0  0  0  0  0  0  0  0  0  0
   -2.0901  -36.7327   11.8057 C   0  0  0  0  0  0  0  0  0  0  0  0
   -0.6839  -36.5866   11.8851 O   0  0  0  0  0  0  0  0  0  0  0  0
  1 11  1  0  0  0  0
  3 13  1  1  0  0  0
  3 17  2  0  0  0  0
  3 20  1  0  0  0  0
  3 26  1  0  0  0  0
  4 14  1  1  0  0  0
  4 18  1  0  0  0  0
  4 21  2  0  0  0  0
  4 20  1  0  0  0  0
  5 19  1  0  0  0  0
  5  7  1  0  0  0  0
  6  7  2  0  0  0  0
  6 12  1  0  0  0  0
  7  8  1  0  0  0  0
  8  9  1  0  0  0  0
  8 10  2  0  0  0  0
 10 11  1  0  0  0  0
 11 12  2  0  0  0  0
 15 23  1  0  0  0  0
 15 16  1  0  0  0  0
 16 19  1  0  0  0  0
 19 22  1  0  0  0  0
 22  2  1  1  0  0  0
 22 23  1  0  0  0  0
 23 24  1  1  0  0  0
 24 25  1  0  0  0  0
 25 26  1  0  0  0  0
M  CHG  2  13  -1  18  -1
M  END
>  <CHROM.1>
-150.91816955,142.70632855,-42.98948431,-58.34048796,-89.41879659,122.69112940
-90.66548437,160.99076506,-3.79386381,-35.01919954,11.41724861,-3.13310963
0.11856194,1.67876165

>  <Name>
ligand

>  <RI>
0

>  <Rbt.Current_Directory>
/home/itssahil/PROJECTS/Mol_Feturizer/New_Systems/rnas/3D2G

>  <Rbt.Executable>
rbdock ($Id: //depot/dev/client3/rdock/2013.1/src/exe/rbdock.cxx#4 $)

>  <Rbt.Library>
libRbt.so (2013.1, Build901 2013/11/27)

>  <Rbt.Parameter_File>
/export/apps/rDock/src/rDock_2013.1_src/data/scripts/dock_solv.prm

>  <Rbt.Receptor>
prm/blind_docking_40.prm

>  <SCORE>
-4.51055

>  <SCORE.INTER>
-9.71871

>  <SCORE.INTER.CONST>
1

>  <SCORE.INTER.POLAR>
0

>  <SCORE.INTER.ROT>
8

>  <SCORE.INTER.SOLV>
31.6543

>  <SCORE.INTER.VDW>
-25.9639

>  <SCORE.INTER.norm>
-0.373796

>  <SCORE.INTRA>
5.18506

>  <SCORE.INTRA.DIHEDRAL>
7.58077

>  <SCORE.INTRA.DIHEDRAL.0>
9.09364

>  <SCORE.INTRA.POLAR>
0

>  <SCORE.INTRA.POLAR.0>
0

>  <SCORE.INTRA.REPUL>
0

>  <SCORE.INTRA.REPUL.0>
0

>  <SCORE.INTRA.SOLV>
-0.996438

>  <SCORE.INTRA.SOLV.lig_0>
-78.5846

>  <SCORE.INTRA.VDW>
1.8929

>  <SCORE.INTRA.VDW.0>
-2.81163

>  <SCORE.INTRA.norm>
0.199425

>  <SCORE.RESTR>
0.023096

>  <SCORE.RESTR.CAVITY>
0.023096

>  <SCORE.RESTR.norm>
0.000888308

>  <SCORE.SYSTEM>
0

>  <SCORE.SYSTEM.CONST>
0

>  <SCORE.SYSTEM.DIHEDRAL>
0

>  <SCORE.SYSTEM.SOLV>
0

>  <SCORE.SYSTEM.norm>
0

>  <SCORE.heavy>
26

>  <SCORE.norm>
-0.173483

>  <RMSD>
9.819

$$$$
ligand
 OpenBabel11021811463D
libRbt.so/2013.1/901 2013/11/27
 26 27  0  0  0  0  0  0  0  0999 V2000
    1.4401  -37.1133    8.6079 C   0  0  0  0  0  0  0  0  0  0  0  0
   -5.8520  -38.2512   11.9103 C   0  0  0  0  0  0  0  0  0  0  0  0
   -7.7600  -37.6560    7.9101 P   0  0  1  0  0  0  0  0  0  0  0  0
   -9.4626  -39.6946    7.2115 P   0  0  2  0  0  0  0  0  0  0  0  0
   -2.8501  -37.5406   12.3962 C   0  0  0  0  0  0  0  0  0  0  0  0
   -0.8757  -36.3090   11.4379 C   0  0  0  0  0  0  0  0  0  0  0  0
   -1.7299  -37.4151   11.3952 C   0  0  0  0  0  0  0  0  0  0  0  0
   -1.5301  -38.4279   10.4532 C   0  0  0  0  0  0  0  0  0  0  0  0
   -2.3282  -39.4745   10.4286 N   0  0  0  0  0  0  0  0  0  0  0  0
   -0.5156  -38.3124    9.5342 N   0  0  0  0  0  0  0  0  0  0  0  0
    0.3315  -37.2237    9.5933 C   0  0  0  0  0  0  0  0  0  0  0  0
    0.1507  -36.2190   10.5251 N   0  0  0  0  0  0  0  0  0  0  0  0
   -6.7811  -38.7283    7.5410 O   0  5  0  0  0  0  0  0  0  0  0  0
  -10.8493  -39.9961    7.6213 O   0  0  0  0  0  0  0  0  0  0  0  0
   -4.9540  -34.4583   11.5568 S   0  0  0  0  0  0  0  0  0  0  0  0
   -3.6456  -35.2647   11.9311 C   0  0  0  0  0  0  0  0  0  0  0  0
   -7.8801  -36.5282    6.9473 O   0  0  0  0  0  0  0  0  0  0  0  0
   -8.5560  -40.8392    7.4223 O   0  5  0  0  0  0  0  0  0  0  0  0
   -3.8850  -36.6049   12.0529 N   0  0  0  0  0  0  0  0  0  0  0  0
   -9.1025  -38.4620    8.1410 O   0  0  0  0  0  0  0  0  0  0  0  0
   -9.2344  -39.3312    5.7801 O   0  0  0  0  0  0  0  0  0  0  0  0
   -5.2032  -36.9021   11.8495 C   0  0  1  0  0  0  0  0  0  0  0  0
   -5.8954  -35.7531   11.5600 C   0  0  2  0  0  0  0  0  0  0  0  0
   -7.3535  -35.5291   11.2445 C   0  0  0  0  0  0  0  0  0  0  0  0
   -7.6963  -35.9228    9.8032 C   0  0  0  0  0  0  0  0  0  0  0  0
   -7.2752  -37.1919    9.3374 O   0  0  0  0  0  0  0  0  0  0  0  0
  1 11  1  0  0  0  0
  3 13  1  6  0  0  0
  3 17  2  0  0  0  0
  3 20  1  0  0  0  0
  3 26  1  0  0  0  0
  4 14  1  1  0  0  0
  4 18  1  0  0  0  0
  4 21  2  0  0  0  0
  4 20  1  0  0  0  0
  5 19  1  0  0  0  0
  5  7  1  0  0  0  0
  6  7  2  0  0  0  0
  6 12  1  0  0  0  0
  7  8  1  0  0  0  0
  8  9  1  0  0  0  0
  8 10  2  0  0  0  0
 10 11  1  0  0  0  0
 11 12  2  0  0  0  0
 15 23  1  0  0  0  0
 15 16  1  0  0  0  0
 16 19  1  0  0  0  0
 19 22  1  0  0  0  0
 22  2  1  6  0  0  0
 22 23  1  0  0  0  0
 23 24  1  6  0  0  0
 24 25  1  0  0  0  0
 25 26  1  0  0  0  0
M  CHG  2  13  -1  18  -1
M  END
>  <CHROM.1>
-37.70337905,-56.40789718,73.79604983,-171.31317426,101.80543702,49.64198425
173.61760485,160.17329762,-5.44984444,-37.53549493,9.55501641,-0.45963021
0.10472727,-2.33869828

>  <Name>
ligand

>  <RI>
0

>  <Rbt.Current_Directory>
/home/itssahil/PROJECTS/Mol_Feturizer/New_Systems/rnas/3D2G

>  <Rbt.Executable>
rbdock ($Id: //depot/dev/client3/rdock/2013.1/src/exe/rbdock.cxx#4 $)

>  <Rbt.Library>
libRbt.so (2013.1, Build901 2013/11/27)

>  <Rbt.Parameter_File>
/export/apps/rDock/src/rDock_2013.1_src/data/scripts/dock_solv.prm

>  <Rbt.Receptor>
prm/blind_docking_100.prm

>  <SCORE>
-22.7713

>  <SCORE.INTER>
-21.9624

>  <SCORE.INTER.CONST>
1

>  <SCORE.INTER.POLAR>
0

>  <SCORE.INTER.ROT>
8

>  <SCORE.INTER.SOLV>
22.4486

>  <SCORE.INTER.VDW>
-31.0578

>  <SCORE.INTER.norm>
-0.844709

>  <SCORE.INTRA>
-0.808854

>  <SCORE.INTRA.DIHEDRAL>
-1.58277

>  <SCORE.INTRA.DIHEDRAL.0>
9.09364

>  <SCORE.INTRA.POLAR>
0

>  <SCORE.INTRA.POLAR.0>
0

>  <SCORE.INTRA.REPUL>
0

>  <SCORE.INTRA.REPUL.0>
0

>  <SCORE.INTRA.SOLV>
0.740508

>  <SCORE.INTRA.SOLV.lig_0>
-78.5846

>  <SCORE.INTRA.VDW>
-0.387724

>  <SCORE.INTRA.VDW.0>
-2.81163

>  <SCORE.INTRA.norm>
-0.0311098

>  <SCORE.RESTR>
0

>  <SCORE.RESTR.CAVITY>
0

>  <SCORE.RESTR.norm>
0

>  <SCORE.SYSTEM>
0

>  <SCORE.SYSTEM.CONST>
0

>  <SCORE.SYSTEM.DIHEDRAL>
0

>  <SCORE.SYSTEM.SOLV>
0

>  <SCORE.SYSTEM.norm>
0

>  <SCORE.heavy>
26

>  <SCORE.norm>
-0.875819

>  <RMSD>
9.823

$$$$
ligand
 OpenBabel11021811463D
libRbt.so/2013.1/901 2013/11/27
 26 27  0  0  0  0  0  0  0  0999 V2000
   -6.9060  -46.8278    8.9225 C   0  0  0  0  0  0  0  0  0  0  0  0
   -6.0138  -40.4728   13.5682 C   0  0  0  0  0  0  0  0  0  0  0  0
   -3.3171  -35.5645   12.9948 P   0  0  1  0  0  0  0  0  0  0  0  0
   -1.1588  -35.1340   11.3518 P   0  0  2  0  0  0  0  0  0  0  0  0
   -5.0736  -43.4233   13.1641 C   0  0  0  0  0  0  0  0  0  0  0  0
   -4.8281  -45.4755   11.7282 C   0  0  0  0  0  0  0  0  0  0  0  0
   -5.5414  -44.3145   12.0418 C   0  0  0  0  0  0  0  0  0  0  0  0
   -6.7100  -43.9921   11.3464 C   0  0  0  0  0  0  0  0  0  0  0  0
   -7.3858  -42.9060   11.6573 N   0  0  0  0  0  0  0  0  0  0  0  0
   -7.1342  -44.7975   10.3177 N   0  0  0  0  0  0  0  0  0  0  0  0
   -6.4314  -45.9493   10.0248 C   0  0  0  0  0  0  0  0  0  0  0  0
   -5.2788  -46.2848   10.7101 N   0  0  0  0  0  0  0  0  0  0  0  0
   -3.7725  -34.9196   14.2680 O   0  5  0  0  0  0  0  0  0  0  0  0
   -2.1827  -35.3435   10.3080 O   0  0  0  0  0  0  0  0  0  0  0  0
   -2.8231  -40.9207   11.3464 S   0  0  0  0  0  0  0  0  0  0  0  0
   -3.3170  -42.3431   11.8312 C   0  0  0  0  0  0  0  0  0  0  0  0
   -4.3390  -35.6679   11.9185 O   0  0  0  0  0  0  0  0  0  0  0  0
   -0.3642  -36.3504   11.6075 O   0  5  0  0  0  0  0  0  0  0  0  0
   -4.4436  -42.2613   12.6007 N   0  0  0  0  0  0  0  0  0  0  0  0
   -2.0398  -34.7165   12.6018 O   0  0  0  0  0  0  0  0  0  0  0  0
   -0.1209  -34.0902   11.0944 O   0  0  0  0  0  0  0  0  0  0  0  0
   -4.8387  -40.9654   12.7800 C   0  0  1  0  0  0  0  0  0  0  0  0
   -3.9860  -40.1264   12.1076 C   0  0  2  0  0  0  0  0  0  0  0  0
   -3.9803  -38.6242   11.9697 C   0  0  0  0  0  0  0  0  0  0  0  0
   -2.6839  -38.0035   12.5025 C   0  0  0  0  0  0  0  0  0  0  0  0
   -2.7823  -36.9712   13.4666 O   0  0  0  0  0  0  0  0  0  0  0  0
  1 11  1  0  0  0  0
  3 13  1  1  0  0  0
  3 17  2  0  0  0  0
  3 20  1  0  0  0  0
  3 26  1  0  0  0  0
  4 14  1  6  0  0  0
  4 18  1  0  0  0  0
  4 21  2  0  0  0  0
  4 20  1  0  0  0  0
  5 19  1  0  0  0  0
  5  7  1  0  0  0  0
  6  7  2  0  0  0  0
  6 12  1  0  0  0  0
  7  8  1  0  0  0  0
  8  9  1  0  0  0  0
  8 10  2  0  0  0  0
 10 11  1  0  0  0  0
 11 12  2  0  0  0  0
 15 23  1  0  0  0  0
 15 16  1  0  0  0  0
 16 19  1  0  0  0  0
 19 22  1  0  0  0  0
 22  2  1  6  0  0  0
 22 23  1  0  0  0  0
 23 24  1  6  0  0  0
 24 25  1  0  0  0  0
 25 26  1  0  0  0  0
M  CHG  2  13  -1  18  -1
M  END
>  <CHROM.1>
175.17145280,-62.41495469,104.03690031,48.01937867,-59.87734808,-126.52963312
-71.09344006,159.54595023,-3.83835461,-39.63348410,11.87223311,-2.05538594
0.61948563,0.40923402

>  <Name>
ligand

>  <RI>
0

>  <Rbt.Current_Directory>
/home/itssahil/PROJECTS/Mol_Feturizer/New_Systems/rnas/3D2G

>  <Rbt.Executable>
rbdock ($Id: //depot/dev/client3/rdock/2013.1/src/exe/rbdock.cxx#4 $)

>  <Rbt.Library>
libRbt.so (2013.1, Build901 2013/11/27)

>  <Rbt.Parameter_File>
/export/apps/rDock/src/rDock_2013.1_src/data/scripts/dock_solv.prm

>  <Rbt.Receptor>
prm/blind_docking_60.prm

>  <SCORE>
-14.3746

>  <SCORE.INTER>
-16.2943

>  <SCORE.INTER.CONST>
1

>  <SCORE.INTER.POLAR>
0

>  <SCORE.INTER.ROT>
8

>  <SCORE.INTER.SOLV>
20.0043

>  <SCORE.INTER.VDW>
-26.4643

>  <SCORE.INTER.norm>
-0.626705

>  <SCORE.INTRA>
1.91973

>  <SCORE.INTRA.DIHEDRAL>
3.28737

>  <SCORE.INTRA.DIHEDRAL.0>
9.09364

>  <SCORE.INTRA.POLAR>
0

>  <SCORE.INTRA.POLAR.0>
0

>  <SCORE.INTRA.REPUL>
0

>  <SCORE.INTRA.REPUL.0>
0

>  <SCORE.INTRA.SOLV>
1.2356

>  <SCORE.INTRA.SOLV.lig_0>
-78.5846

>  <SCORE.INTRA.VDW>
-0.341757

>  <SCORE.INTRA.VDW.0>
-2.81163

>  <SCORE.INTRA.norm>
0.0738358

>  <SCORE.RESTR>
0

>  <SCORE.RESTR.CAVITY>
0

>  <SCORE.RESTR.norm>
0

>  <SCORE.SYSTEM>
0

>  <SCORE.SYSTEM.CONST>
0

>  <SCORE.SYSTEM.DIHEDRAL>
0

>  <SCORE.SYSTEM.SOLV>
0

>  <SCORE.SYSTEM.norm>
0

>  <SCORE.heavy>
26

>  <SCORE.norm>
-0.552869

>  <RMSD>
9.848

$$$$
ligand
 OpenBabel11021811463D
libRbt.so/2013.1/901 2013/11/27
 26 27  0  0  0  0  0  0  0  0999 V2000
    0.0324  -31.9958    9.1936 C   0  0  0  0  0  0  0  0  0  0  0  0
   -3.8414  -38.5793   12.9752 C   0  0  0  0  0  0  0  0  0  0  0  0
   -6.3033  -39.8260    8.3719 P   0  0  1  0  0  0  0  0  0  0  0  0
   -8.6303  -38.5112    7.7397 P   0  0  2  0  0  0  0  0  0  0  0  0
   -1.7811  -36.2677   12.5702 C   0  0  0  0  0  0  0  0  0  0  0  0
    0.0701  -34.9889   11.4427 C   0  0  0  0  0  0  0  0  0  0  0  0
   -1.2968  -35.1393   11.6957 C   0  0  0  0  0  0  0  0  0  0  0  0
   -2.2244  -34.2722   11.1118 C   0  0  0  0  0  0  0  0  0  0  0  0
   -3.5112  -34.4290   11.3412 N   0  0  0  0  0  0  0  0  0  0  0  0
   -1.7858  -33.2379   10.3215 N   0  0  0  0  0  0  0  0  0  0  0  0
   -0.4353  -33.1061   10.0657 C   0  0  0  0  0  0  0  0  0  0  0  0
    0.4923  -33.9616   10.6297 N   0  0  0  0  0  0  0  0  0  0  0  0
   -7.0839  -41.0883    8.5759 O   0  5  0  0  0  0  0  0  0  0  0  0
   -9.2390  -37.2774    8.2773 O   0  0  0  0  0  0  0  0  0  0  0  0
   -1.3272  -39.0806   10.0181 S   0  0  0  0  0  0  0  0  0  0  0  0
   -1.0249  -37.6968   10.7222 C   0  0  0  0  0  0  0  0  0  0  0  0
   -5.6256  -39.6882    7.0547 O   0  0  0  0  0  0  0  0  0  0  0  0
   -9.5498  -39.6629    7.8057 O   0  5  0  0  0  0  0  0  0  0  0  0
   -1.8589  -37.4653   11.7801 N   0  0  0  0  0  0  0  0  0  0  0  0
   -7.3668  -38.6948    8.6794 O   0  0  0  0  0  0  0  0  0  0  0  0
   -8.1976  -38.4952    6.3094 O   0  0  0  0  0  0  0  0  0  0  0  0
   -2.7628  -38.4775   11.9403 C   0  0  1  0  0  0  0  0  0  0  0  0
   -2.5452  -39.4444   10.9912 C   0  0  2  0  0  0  0  0  0  0  0  0
   -3.2441  -40.7569   10.7371 C   0  0  0  0  0  0  0  0  0  0  0  0
   -4.1746  -40.6862    9.5211 C   0  0  0  0  0  0  0  0  0  0  0  0
   -5.2927  -39.8195    9.5827 O   0  0  0  0  0  0  0  0  0  0  0  0
  1 11  1  0  0  0  0
  3 13  1  1  0  0  0
  3 17  2  0  0  0  0
  3 20  1  0  0  0  0
  3 26  1  0  0  0  0
  4 14  1  1  0  0  0
  4 18  1  0  0  0  0
  4 21  2  0  0  0  0
  4 20  1  0  0  0  0
  5 19  1  0  0  0  0
  5  7  1  0  0  0  0
  6  7  2  0  0  0  0
  6 12  1  0  0  0  0
  7  8  1  0  0  0  0
  8  9  1  0  0  0  0
  8 10  2  0  0  0  0
 10 11  1  0  0  0  0
 11 12  2  0  0  0  0
 15 23  1  0  0  0  0
 15 16  1  0  0  0  0
 16 19  1  0  0  0  0
 19 22  1  0  0  0  0
 22  2  1  1  0  0  0
 22 23  1  0  0  0  0
 23 24  1  1  0  0  0
 24 25  1  0  0  0  0
 25 26  1  0  0  0  0
M  CHG  2  13  -1  18  -1
M  END
>  <CHROM.1>
-65.39705616,30.43243940,-81.73108236,-173.26228435,-76.13824879,-64.52648003
-175.73643335,75.98653868,-4.17243906,-37.71723906,9.72685714,0.46448123
-0.48998120,-0.16970231

>  <Name>
ligand

>  <RI>
0

>  <Rbt.Current_Directory>
/home/itssahil/PROJECTS/Mol_Feturizer/New_Systems/rnas/3D2G

>  <Rbt.Executable>
rbdock ($Id: //depot/dev/client3/rdock/2013.1/src/exe/rbdock.cxx#4 $)

>  <Rbt.Library>
libRbt.so (2013.1, Build901 2013/11/27)

>  <Rbt.Parameter_File>
/export/apps/rDock/src/rDock_2013.1_src/data/scripts/dock_solv.prm

>  <Rbt.Receptor>
prm/blind_docking_80.prm

>  <SCORE>
-18.5176

>  <SCORE.INTER>
-16.7134

>  <SCORE.INTER.CONST>
1

>  <SCORE.INTER.POLAR>
0

>  <SCORE.INTER.ROT>
8

>  <SCORE.INTER.SOLV>
19.4941

>  <SCORE.INTER.VDW>
-26.5736

>  <SCORE.INTER.norm>
-0.642821

>  <SCORE.INTRA>
-1.80421

>  <SCORE.INTRA.DIHEDRAL>
-3.49914

>  <SCORE.INTRA.DIHEDRAL.0>
9.09364

>  <SCORE.INTRA.POLAR>
0

>  <SCORE.INTRA.POLAR.0>
0

>  <SCORE.INTRA.REPUL>
0

>  <SCORE.INTRA.REPUL.0>
0

>  <SCORE.INTRA.SOLV>
0.408404

>  <SCORE.INTRA.SOLV.lig_0>
-78.5846

>  <SCORE.INTRA.VDW>
-0.258849

>  <SCORE.INTRA.VDW.0>
-2.81163

>  <SCORE.INTRA.norm>
-0.0693929

>  <SCORE.RESTR>
0

>  <SCORE.RESTR.CAVITY>
0

>  <SCORE.RESTR.norm>
0

>  <SCORE.SYSTEM>
0

>  <SCORE.SYSTEM.CONST>
0

>  <SCORE.SYSTEM.DIHEDRAL>
0

>  <SCORE.SYSTEM.SOLV>
0

>  <SCORE.SYSTEM.norm>
0

>  <SCORE.heavy>
26

>  <SCORE.norm>
-0.712214

>  <RMSD>
9.851

$$$$
ligand
 OpenBabel11021811463D
libRbt.so/2013.1/901 2013/11/27
 26 27  0  0  0  0  0  0  0  0999 V2000
   -3.4001  -42.5041    7.8743 C   0  0  0  0  0  0  0  0  0  0  0  0
   -5.5902  -37.4195   11.6220 C   0  0  0  0  0  0  0  0  0  0  0  0
   -0.7507  -36.3097   10.2749 P   0  0  1  0  0  0  0  0  0  0  0  0
   -0.8201  -33.8142    9.1301 P   0  0  2  0  0  0  0  0  0  0  0  0
   -5.4985  -40.3288   12.7533 C   0  0  0  0  0  0  0  0  0  0  0  0
   -4.6577  -40.0415   10.3988 C   0  0  0  0  0  0  0  0  0  0  0  0
   -4.9604  -40.8951   11.4640 C   0  0  0  0  0  0  0  0  0  0  0  0
   -4.7316  -42.2696   11.3567 C   0  0  0  0  0  0  0  0  0  0  0  0
   -5.0037  -43.0660   12.3690 N   0  0  0  0  0  0  0  0  0  0  0  0
   -4.2495  -42.7898   10.1803 N   0  0  0  0  0  0  0  0  0  0  0  0
   -3.9400  -41.9374    9.1391 C   0  0  0  0  0  0  0  0  0  0  0  0
   -4.1532  -40.5751    9.2345 N   0  0  0  0  0  0  0  0  0  0  0  0
   -0.8048  -37.6952    9.7076 O   0  5  0  0  0  0  0  0  0  0  0  0
   -0.5386  -33.3831    7.7456 O   0  0  0  0  0  0  0  0  0  0  0  0
   -2.9341  -38.0380   14.4290 S   0  0  0  0  0  0  0  0  0  0  0  0
   -3.7190  -39.3842   14.1569 C   0  0  0  0  0  0  0  0  0  0  0  0
    0.4116  -36.0144   11.1555 O   0  0  0  0  0  0  0  0  0  0  0  0
    0.2097  -33.3519   10.0799 O   0  5  0  0  0  0  0  0  0  0  0  0
   -4.6544  -39.2434   13.1703 N   0  0  0  0  0  0  0  0  0  0  0  0
   -0.8431  -35.3929    8.9880 O   0  0  0  0  0  0  0  0  0  0  0  0
   -2.0970  -33.3443    9.7481 O   0  0  0  0  0  0  0  0  0  0  0  0
   -4.6933  -37.9642   12.6913 C   0  0  1  0  0  0  0  0  0  0  0  0
   -3.7548  -37.2007   13.3390 C   0  0  2  0  0  0  0  0  0  0  0  0
   -3.3813  -35.7476   13.1818 C   0  0  0  0  0  0  0  0  0  0  0  0
   -2.1389  -35.5658   12.3025 C   0  0  0  0  0  0  0  0  0  0  0  0
   -2.1336  -36.1633   11.0188 O   0  0  0  0  0  0  0  0  0  0  0  0
  1 11  1  0  0  0  0
  3 13  1  6  0  0  0
  3 17  2  0  0  0  0
  3 20  1  0  0  0  0
  3 26  1  0  0  0  0
  4 14  1  6  0  0  0
  4 18  1  0  0  0  0
  4 21  2  0  0  0  0
  4 20  1  0  0  0  0
  5 19  1  0  0  0  0
  5  7  1  0  0  0  0
  6  7  2  0  0  0  0
  6 12  1  0  0  0  0
  7  8  1  0  0  0  0
  8  9  1  0  0  0  0
  8 10  2  0  0  0  0
 10 11  1  0  0  0  0
 11 12  2  0  0  0  0
 15 23  1  0  0  0  0
 15 16  1  0  0  0  0
 16 19  1  0  0  0  0
 19 22  1  0  0  0  0
 22  2  1  6  0  0  0
 22 23  1  0  0  0  0
 23 24  1  6  0  0  0
 24 25  1  0  0  0  0
 25 26  1  0  0  0  0
M  CHG  2  13  -1  18  -1
M  END
>  <CHROM.1>
-179.99295087,-101.70053124,-49.89661177,164.58238775,80.93110541,53.28722317
-164.09988542,136.63176998,-2.73505503,-37.69075056,11.02021708,-2.74754549
1.03464568,0.87570352

>  <Name>
ligand

>  <RI>
0

>  <Rbt.Current_Directory>
/home/itssahil/PROJECTS/Mol_Feturizer/New_Systems/rnas/3D2G

>  <Rbt.Executable>
rbdock ($Id: //depot/dev/client3/rdock/2013.1/src/exe/rbdock.cxx#4 $)

>  <Rbt.Library>
libRbt.so (2013.1, Build901 2013/11/27)

>  <Rbt.Parameter_File>
/export/apps/rDock/src/rDock_2013.1_src/data/scripts/dock_solv.prm

>  <Rbt.Receptor>
prm/blind_docking_80.prm

>  <SCORE>
-17.4892

>  <SCORE.INTER>
-16.3622

>  <SCORE.INTER.CONST>
1

>  <SCORE.INTER.POLAR>
0

>  <SCORE.INTER.ROT>
8

>  <SCORE.INTER.SOLV>
19.5945

>  <SCORE.INTER.VDW>
-26.3729

>  <SCORE.INTER.norm>
-0.629314

>  <SCORE.INTRA>
-1.13123

>  <SCORE.INTRA.DIHEDRAL>
-0.0975132

>  <SCORE.INTRA.DIHEDRAL.0>
9.09364

>  <SCORE.INTRA.POLAR>
0

>  <SCORE.INTRA.POLAR.0>
0

>  <SCORE.INTRA.REPUL>
0

>  <SCORE.INTRA.REPUL.0>
0

>  <SCORE.INTRA.SOLV>
-0.482327

>  <SCORE.INTRA.SOLV.lig_0>
-78.5846

>  <SCORE.INTRA.VDW>
-0.841305

>  <SCORE.INTRA.VDW.0>
-2.81163

>  <SCORE.INTRA.norm>
-0.0435087

>  <SCORE.RESTR>
0.00417835

>  <SCORE.RESTR.CAVITY>
0.00417835

>  <SCORE.RESTR.norm>
0.000160706

>  <SCORE.SYSTEM>
0

>  <SCORE.SYSTEM.CONST>
0

>  <SCORE.SYSTEM.DIHEDRAL>
0

>  <SCORE.SYSTEM.SOLV>
0

>  <SCORE.SYSTEM.norm>
0

>  <SCORE.heavy>
26

>  <SCORE.norm>
-0.672662

>  <RMSD>
9.913

$$$$
ligand
 OpenBabel11021811463D
libRbt.so/2013.1/901 2013/11/27
 26 27  0  0  0  0  0  0  0  0999 V2000
   -4.2874  -33.8959   15.4304 C   0  0  0  0  0  0  0  0  0  0  0  0
   -1.6656  -39.9757    9.6637 C   0  0  0  0  0  0  0  0  0  0  0  0
   -6.9080  -38.7439    6.7891 P   0  0  1  0  0  0  0  0  0  0  0  0
   -7.7124  -36.1185    6.7337 P   0  0  2  0  0  0  0  0  0  0  0  0
   -2.0368  -37.7632   11.8362 C   0  0  0  0  0  0  0  0  0  0  0  0
   -3.2933  -37.1828   13.9380 C   0  0  0  0  0  0  0  0  0  0  0  0
   -2.6426  -36.7533   12.7773 C   0  0  0  0  0  0  0  0  0  0  0  0
   -2.5152  -35.3894   12.5006 C   0  0  0  0  0  0  0  0  0  0  0  0
   -1.8873  -34.9913   11.4142 N   0  0  0  0  0  0  0  0  0  0  0  0
   -3.0734  -34.4670   13.3517 N   0  0  0  0  0  0  0  0  0  0  0  0
   -3.7014  -34.9000   14.5026 C   0  0  0  0  0  0  0  0  0  0  0  0
   -3.8272  -36.2454   14.7930 N   0  0  0  0  0  0  0  0  0  0  0  0
   -7.8383  -38.7279    7.9634 O   0  5  0  0  0  0  0  0  0  0  0  0
   -8.7324  -36.5940    5.7770 O   0  0  0  0  0  0  0  0  0  0  0  0
   -5.3649  -39.3057   10.7515 S   0  0  0  0  0  0  0  0  0  0  0  0
   -4.4065  -38.3476   11.5675 C   0  0  0  0  0  0  0  0  0  0  0  0
   -7.4115  -39.4361    5.5723 O   0  0  0  0  0  0  0  0  0  0  0  0
   -7.2337  -34.7608    6.4115 O   0  5  0  0  0  0  0  0  0  0  0  0
   -3.0948  -38.5172   11.2225 N   0  0  0  0  0  0  0  0  0  0  0  0
   -6.5749  -37.2112    6.5765 O   0  0  0  0  0  0  0  0  0  0  0  0
   -8.1153  -36.0120    8.1688 O   0  0  0  0  0  0  0  0  0  0  0  0
   -2.9438  -39.4952   10.2801 C   0  0  1  0  0  0  0  0  0  0  0  0
   -4.1726  -40.0053    9.9441 C   0  0  2  0  0  0  0  0  0  0  0  0
   -4.5628  -41.0785    8.9584 C   0  0  0  0  0  0  0  0  0  0  0  0
   -5.7183  -40.6350    8.0540 C   0  0  0  0  0  0  0  0  0  0  0  0
   -5.5971  -39.4022    7.3683 O   0  0  0  0  0  0  0  0  0  0  0  0
  1 11  1  0  0  0  0
  3 13  1  1  0  0  0
  3 17  2  0  0  0  0
  3 20  1  0  0  0  0
  3 26  1  0  0  0  0
  4 14  1  6  0  0  0
  4 18  1  0  0  0  0
  4 21  2  0  0  0  0
  4 20  1  0  0  0  0
  5 19  1  0  0  0  0
  5  7  1  0  0  0  0
  6  7  2  0  0  0  0
  6 12  1  0  0  0  0
  7  8  1  0  0  0  0
  8  9  1  0  0  0  0
  8 10  2  0  0  0  0
 10 11  1  0  0  0  0
 11 12  2  0  0  0  0
 15 23  1  0  0  0  0
 15 16  1  0  0  0  0
 16 19  1  0  0  0  0
 19 22  1  0  0  0  0
 22  2  1  6  0  0  0
 22 23  1  0  0  0  0
 23 24  1  6  0  0  0
 24 25  1  0  0  0  0
 25 26  1  0  0  0  0
M  CHG  2  13  -1  18  -1
M  END
>  <CHROM.1>
-40.07564387,-4.27268920,67.76798949,-55.76462387,47.68403865,52.05011833
-162.49498758,51.62166876,-5.16897659,-37.60224132,9.68111755,0.65800493
-0.84615030,0.55583793

>  <Name>
ligand

>  <RI>
0

>  <Rbt.Current_Directory>
/home/itssahil/PROJECTS/Mol_Feturizer/New_Systems/rnas/3D2G

>  <Rbt.Executable>
rbdock ($Id: //depot/dev/client3/rdock/2013.1/src/exe/rbdock.cxx#4 $)

>  <Rbt.Library>
libRbt.so (2013.1, Build901 2013/11/27)

>  <Rbt.Parameter_File>
/export/apps/rDock/src/rDock_2013.1_src/data/scripts/dock_solv.prm

>  <Rbt.Receptor>
prm/blind_docking_80.prm

>  <SCORE>
-13.9072

>  <SCORE.INTER>
-14.246

>  <SCORE.INTER.CONST>
1

>  <SCORE.INTER.POLAR>
0

>  <SCORE.INTER.ROT>
8

>  <SCORE.INTER.SOLV>
18.8989

>  <SCORE.INTER.VDW>
-24.7303

>  <SCORE.INTER.norm>
-0.547924

>  <SCORE.INTRA>
0.334735

>  <SCORE.INTRA.DIHEDRAL>
-0.941282

>  <SCORE.INTRA.DIHEDRAL.0>
9.09364

>  <SCORE.INTRA.POLAR>
0

>  <SCORE.INTRA.POLAR.0>
0

>  <SCORE.INTRA.REPUL>
0

>  <SCORE.INTRA.REPUL.0>
0

>  <SCORE.INTRA.SOLV>
-1.73404

>  <SCORE.INTRA.SOLV.lig_0>
-78.5846

>  <SCORE.INTRA.VDW>
1.6724

>  <SCORE.INTRA.VDW.0>
-2.81163

>  <SCORE.INTRA.norm>
0.0128744

>  <SCORE.RESTR>
0.00405634

>  <SCORE.RESTR.CAVITY>
0.00405634

>  <SCORE.RESTR.norm>
0.000156013

>  <SCORE.SYSTEM>
0

>  <SCORE.SYSTEM.CONST>
0

>  <SCORE.SYSTEM.DIHEDRAL>
0

>  <SCORE.SYSTEM.SOLV>
0

>  <SCORE.SYSTEM.norm>
0

>  <SCORE.heavy>
26

>  <SCORE.norm>
-0.534893

>  <RMSD>
9.941

$$$$
ligand
 OpenBabel11021811463D
libRbt.so/2013.1/901 2013/11/27
 26 27  0  0  0  0  0  0  0  0999 V2000
   -0.3285  -42.3573    4.7777 C   0  0  0  0  0  0  0  0  0  0  0  0
   -2.0711  -39.9302   10.1385 C   0  0  0  0  0  0  0  0  0  0  0  0
   -3.3513  -37.3700   13.4294 P   0  0  1  0  0  0  0  0  0  0  0  0
   -4.4370  -34.8521   13.5872 P   0  0  2  0  0  0  0  0  0  0  0  0
   -0.4007  -42.5421   10.5135 C   0  0  0  0  0  0  0  0  0  0  0  0
    0.2667  -41.4311    8.3563 C   0  0  0  0  0  0  0  0  0  0  0  0
   -0.3900  -42.4798    9.0073 C   0  0  0  0  0  0  0  0  0  0  0  0
   -1.0063  -43.4950    8.2707 C   0  0  0  0  0  0  0  0  0  0  0  0
   -1.6092  -44.4881    8.8897 N   0  0  0  0  0  0  0  0  0  0  0  0
   -1.0057  -43.4367    6.8983 N   0  0  0  0  0  0  0  0  0  0  0  0
   -0.3423  -42.4051    6.2642 C   0  0  0  0  0  0  0  0  0  0  0  0
    0.2786  -41.3990    6.9802 N   0  0  0  0  0  0  0  0  0  0  0  0
   -2.0986  -36.6971   12.9579 O   0  5  0  0  0  0  0  0  0  0  0  0
   -5.7339  -34.3117   13.1314 O   0  0  0  0  0  0  0  0  0  0  0  0
   -3.9073  -42.8335   12.0137 S   0  0  0  0  0  0  0  0  0  0  0  0
   -2.4519  -43.3132   11.6212 C   0  0  0  0  0  0  0  0  0  0  0  0
   -3.3689  -37.7790   14.8597 O   0  0  0  0  0  0  0  0  0  0  0  0
   -3.2939  -34.0889   13.0513 O   0  5  0  0  0  0  0  0  0  0  0  0
   -1.7455  -42.3370   10.9760 N   0  0  0  0  0  0  0  0  0  0  0  0
   -4.4827  -36.3366   13.0329 O   0  0  0  0  0  0  0  0  0  0  0  0
   -4.1813  -34.8706   15.0594 O   0  0  0  0  0  0  0  0  0  0  0  0
   -2.4902  -41.2036   10.8075 C   0  0  1  0  0  0  0  0  0  0  0  0
   -3.7325  -41.3816   11.3625 C   0  0  2  0  0  0  0  0  0  0  0  0
   -4.9152  -40.4503   11.4609 C   0  0  0  0  0  0  0  0  0  0  0  0
   -4.6970  -39.3535   12.5094 C   0  0  0  0  0  0  0  0  0  0  0  0
   -3.5059  -38.5907   12.4429 O   0  0  0  0  0  0  0  0  0  0  0  0
  1 11  1  0  0  0  0
  3 13  1  6  0  0  0
  3 17  2  0  0  0  0
  3 20  1  0  0  0  0
  3 26  1  0  0  0  0
  4 14  1  6  0  0  0
  4 18  1  0  0  0  0
  4 21  2  0  0  0  0
  4 20  1  0  0  0  0
  5 19  1  0  0  0  0
  5  7  1  0  0  0  0
  6  7  2  0  0  0  0
  6 12  1  0  0  0  0
  7  8  1  0  0  0  0
  8  9  1  0  0  0  0
  8 10  2  0  0  0  0
 10 11  1  0  0  0  0
 11 12  2  0  0  0  0
 15 23  1  0  0  0  0
 15 16  1  0  0  0  0
 16 19  1  0  0  0  0
 19 22  1  0  0  0  0
 22  2  1  1  0  0  0
 22 23  1  0  0  0  0
 23 24  1  1  0  0  0
 24 25  1  0  0  0  0
 25 26  1  0  0  0  0
M  CHG  2  13  -1  18  -1
M  END
>  <CHROM.1>
-57.83220658,114.56574216,113.07831952,-172.84483788,105.27770835,51.62227355
173.90226439,-172.33814786,-2.74639152,-39.59843264,11.24687476,-0.90035897
1.01203669,0.06289902

>  <Name>
ligand

>  <RI>
0

>  <Rbt.Current_Directory>
/home/itssahil/PROJECTS/Mol_Feturizer/New_Systems/rnas/3D2G

>  <Rbt.Executable>
rbdock ($Id: //depot/dev/client3/rdock/2013.1/src/exe/rbdock.cxx#4 $)

>  <Rbt.Library>
libRbt.so (2013.1, Build901 2013/11/27)

>  <Rbt.Parameter_File>
/export/apps/rDock/src/rDock_2013.1_src/data/scripts/dock_solv.prm

>  <Rbt.Receptor>
prm/blind_docking_100.prm

>  <SCORE>
-12.401

>  <SCORE.INTER>
-9.99079

>  <SCORE.INTER.CONST>
1

>  <SCORE.INTER.POLAR>
0

>  <SCORE.INTER.ROT>
8

>  <SCORE.INTER.SOLV>
19.857

>  <SCORE.INTER.VDW>
-22.2128

>  <SCORE.INTER.norm>
-0.384261

>  <SCORE.INTRA>
-2.4102

>  <SCORE.INTRA.DIHEDRAL>
-3.693

>  <SCORE.INTRA.DIHEDRAL.0>
9.09364

>  <SCORE.INTRA.POLAR>
0

>  <SCORE.INTRA.POLAR.0>
0

>  <SCORE.INTRA.REPUL>
0

>  <SCORE.INTRA.REPUL.0>
0

>  <SCORE.INTRA.SOLV>
1.35412

>  <SCORE.INTRA.SOLV.lig_0>
-78.5846

>  <SCORE.INTRA.VDW>
-1.24076

>  <SCORE.INTRA.VDW.0>
-2.81163

>  <SCORE.INTRA.norm>
-0.0927001

>  <SCORE.RESTR>
0

>  <SCORE.RESTR.CAVITY>
0

>  <SCORE.RESTR.norm>
0

>  <SCORE.SYSTEM>
0

>  <SCORE.SYSTEM.CONST>
0

>  <SCORE.SYSTEM.DIHEDRAL>
0

>  <SCORE.SYSTEM.SOLV>
0

>  <SCORE.SYSTEM.norm>
0

>  <SCORE.heavy>
26

>  <SCORE.norm>
-0.476961

>  <RMSD>
9.953

$$$$
ligand
 OpenBabel11021811463D
libRbt.so/2013.1/901 2013/11/27
 26 27  0  0  0  0  0  0  0  0999 V2000
   -6.3686  -46.2564   10.4340 C   0  0  0  0  0  0  0  0  0  0  0  0
   -4.1837  -38.3247   12.0650 C   0  0  0  0  0  0  0  0  0  0  0  0
   -0.5536  -35.4333   11.6333 P   0  0  1  0  0  0  0  0  0  0  0  0
   -0.8423  -34.0006    9.3080 P   0  0  2  0  0  0  0  0  0  0  0  0
   -4.5049  -41.3521   12.7607 C   0  0  0  0  0  0  0  0  0  0  0  0
   -4.9448  -43.8260   12.9007 C   0  0  0  0  0  0  0  0  0  0  0  0
   -4.9797  -42.6464   12.1508 C   0  0  0  0  0  0  0  0  0  0  0  0
   -5.4882  -42.6498   10.8491 C   0  0  0  0  0  0  0  0  0  0  0  0
   -5.5330  -41.5327   10.1541 N   0  0  0  0  0  0  0  0  0  0  0  0
   -5.9136  -43.8290   10.2875 N   0  0  0  0  0  0  0  0  0  0  0  0
   -5.8888  -44.9860   11.0406 C   0  0  0  0  0  0  0  0  0  0  0  0
   -5.3964  -44.9954   12.3321 N   0  0  0  0  0  0  0  0  0  0  0  0
    0.4969  -34.4514   12.0538 O   0  5  0  0  0  0  0  0  0  0  0  0
   -1.8851  -33.0449    8.8824 O   0  0  0  0  0  0  0  0  0  0  0  0
   -1.5013  -40.6963   10.4848 S   0  0  0  0  0  0  0  0  0  0  0  0
   -2.5046  -41.5588   11.3519 C   0  0  0  0  0  0  0  0  0  0  0  0
   -1.3029  -36.0935   12.7362 O   0  0  0  0  0  0  0  0  0  0  0  0
   -0.5963  -35.0465    8.2971 O   0  5  0  0  0  0  0  0  0  0  0  0
   -3.4825  -40.7919   11.9208 N   0  0  0  0  0  0  0  0  0  0  0  0
   -1.4571  -34.5887   10.6456 O   0  0  0  0  0  0  0  0  0  0  0  0
    0.5214  -33.4521    9.5777 O   0  0  0  0  0  0  0  0  0  0  0  0
   -3.3250  -39.4685   11.6189 C   0  0  1  0  0  0  0  0  0  0  0  0
   -2.2299  -39.3079   10.8077 C   0  0  2  0  0  0  0  0  0  0  0  0
   -1.6323  -38.0706   10.1853 C   0  0  0  0  0  0  0  0  0  0  0  0
   -0.2127  -37.7991   10.6960 C   0  0  0  0  0  0  0  0  0  0  0  0
    0.2401  -36.4581   10.7349 O   0  0  0  0  0  0  0  0  0  0  0  0
  1 11  1  0  0  0  0
  3 13  1  1  0  0  0
  3 17  2  0  0  0  0
  3 20  1  0  0  0  0
  3 26  1  0  0  0  0
  4 14  1  6  0  0  0
  4 18  1  0  0  0  0
  4 21  2  0  0  0  0
  4 20  1  0  0  0  0
  5 19  1  0  0  0  0
  5  7  1  0  0  0  0
  6  7  2  0  0  0  0
  6 12  1  0  0  0  0
  7  8  1  0  0  0  0
  8  9  1  0  0  0  0
  8 10  2  0  0  0  0
 10 11  1  0  0  0  0
 11 12  2  0  0  0  0
 15 23  1  0  0  0  0
 15 16  1  0  0  0  0
 16 19  1  0  0  0  0
 19 22  1  0  0  0  0
 22  2  1  6  0  0  0
 22 23  1  0  0  0  0
 23 24  1  6  0  0  0
 24 25  1  0  0  0  0
 25 26  1  0  0  0  0
M  CHG  2  13  -1  18  -1
M  END
>  <CHROM.1>
62.26237436,-41.79861458,124.43325407,-166.78990068,-63.60763216,-151.07443321
60.44058873,149.98248745,-2.48688479,-38.72033675,10.89588084,2.39873472
0.90870293,2.30922184

>  <Name>
ligand

>  <RI>
0

>  <Rbt.Current_Directory>
/home/itssahil/PROJECTS/Mol_Feturizer/New_Systems/rnas/3D2G

>  <Rbt.Executable>
rbdock ($Id: //depot/dev/client3/rdock/2013.1/src/exe/rbdock.cxx#4 $)

>  <Rbt.Library>
libRbt.so (2013.1, Build901 2013/11/27)

>  <Rbt.Parameter_File>
/export/apps/rDock/src/rDock_2013.1_src/data/scripts/dock_solv.prm

>  <Rbt.Receptor>
prm/blind_docking_60.prm

>  <SCORE>
-13.3869

>  <SCORE.INTER>
-15.3949

>  <SCORE.INTER.CONST>
1

>  <SCORE.INTER.POLAR>
0

>  <SCORE.INTER.ROT>
8

>  <SCORE.INTER.SOLV>
21.4127

>  <SCORE.INTER.VDW>
-26.3342

>  <SCORE.INTER.norm>
-0.59211

>  <SCORE.INTRA>
2.00623

>  <SCORE.INTRA.DIHEDRAL>
0.652275

>  <SCORE.INTRA.DIHEDRAL.0>
9.09364

>  <SCORE.INTRA.POLAR>
0

>  <SCORE.INTRA.POLAR.0>
0

>  <SCORE.INTRA.REPUL>
0

>  <SCORE.INTRA.REPUL.0>
0

>  <SCORE.INTRA.SOLV>
4.39932

>  <SCORE.INTRA.SOLV.lig_0>
-78.5846

>  <SCORE.INTRA.VDW>
-0.519571

>  <SCORE.INTRA.VDW.0>
-2.81163

>  <SCORE.INTRA.norm>
0.0771625

>  <SCORE.RESTR>
0.0017479

>  <SCORE.RESTR.CAVITY>
0.0017479

>  <SCORE.RESTR.norm>
6.72269e-05

>  <SCORE.SYSTEM>
0

>  <SCORE.SYSTEM.CONST>
0

>  <SCORE.SYSTEM.DIHEDRAL>
0

>  <SCORE.SYSTEM.SOLV>
0

>  <SCORE.SYSTEM.norm>
0

>  <SCORE.heavy>
26

>  <SCORE.norm>
-0.51488

>  <RMSD>
10.002

$$$$
ligand
 OpenBabel11021811463D
libRbt.so/2013.1/901 2013/11/27
 26 27  0  0  0  0  0  0  0  0999 V2000
   -6.3403  -46.0385   10.1289 C   0  0  0  0  0  0  0  0  0  0  0  0
   -2.8967  -38.4765   12.5142 C   0  0  0  0  0  0  0  0  0  0  0  0
   -0.5677  -35.1455   11.6424 P   0  0  1  0  0  0  0  0  0  0  0  0
   -0.6683  -33.2632    9.6450 P   0  0  2  0  0  0  0  0  0  0  0  0
   -4.9279  -40.6942   11.6725 C   0  0  0  0  0  0  0  0  0  0  0  0
   -6.1865  -42.2981   10.1972 C   0  0  0  0  0  0  0  0  0  0  0  0
   -5.3141  -42.0949   11.2708 C   0  0  0  0  0  0  0  0  0  0  0  0
   -4.7653  -43.1842   11.9529 C   0  0  0  0  0  0  0  0  0  0  0  0
   -3.9319  -42.9863   12.9526 N   0  0  0  0  0  0  0  0  0  0  0  0
   -5.1218  -44.4615   11.5949 N   0  0  0  0  0  0  0  0  0  0  0  0
   -5.9726  -44.6527   10.5244 C   0  0  0  0  0  0  0  0  0  0  0  0
   -6.5161  -43.5847    9.8355 N   0  0  0  0  0  0  0  0  0  0  0  0
    0.5092  -36.0832   12.0956 O   0  5  0  0  0  0  0  0  0  0  0  0
   -1.3834  -34.1900    8.7442 O   0  0  0  0  0  0  0  0  0  0  0  0
   -2.0791  -40.3019    9.1502 S   0  0  0  0  0  0  0  0  0  0  0  0
   -3.4064  -40.9114    9.7576 C   0  0  0  0  0  0  0  0  0  0  0  0
   -1.2417  -34.3652   12.7149 O   0  0  0  0  0  0  0  0  0  0  0  0
    0.1962  -32.3224    8.9074 O   0  5  0  0  0  0  0  0  0  0  0  0
   -3.7613  -40.3044   10.9297 N   0  0  0  0  0  0  0  0  0  0  0  0
    0.1644  -34.2601   10.5538 O   0  0  0  0  0  0  0  0  0  0  0  0
   -1.4983  -32.3679   10.5068 O   0  0  0  0  0  0  0  0  0  0  0  0
   -2.8595  -39.3444   11.2935 C   0  0  1  0  0  0  0  0  0  0  0  0
   -1.8668  -39.2631   10.3496 C   0  0  2  0  0  0  0  0  0  0  0  0
   -0.6537  -38.3705   10.2635 C   0  0  0  0  0  0  0  0  0  0  0  0
   -1.0221  -36.9380    9.8612 C   0  0  0  0  0  0  0  0  0  0  0  0
   -1.5608  -36.0816   10.8519 O   0  0  0  0  0  0  0  0  0  0  0  0
  1 11  1  0  0  0  0
  3 13  1  1  0  0  0
  3 17  2  0  0  0  0
  3 20  1  0  0  0  0
  3 26  1  0  0  0  0
  4 14  1  6  0  0  0
  4 18  1  0  0  0  0
  4 21  2  0  0  0  0
  4 20  1  0  0  0  0
  5 19  1  0  0  0  0
  5  7  1  0  0  0  0
  6  7  2  0  0  0  0
  6 12  1  0  0  0  0
  7  8  1  0  0  0  0
  8  9  1  0  0  0  0
  8 10  2  0  0  0  0
 10 11  1  0  0  0  0
 11 12  2  0  0  0  0
 15 23  1  0  0  0  0
 15 16  1  0  0  0  0
 16 19  1  0  0  0  0
 19 22  1  0  0  0  0
 22  2  1  6  0  0  0
 22 23  1  0  0  0  0
 23 24  1  6  0  0  0
 24 25  1  0  0  0  0
 25 26  1  0  0  0  0
M  CHG  2  13  -1  18  -1
M  END
>  <CHROM.1>
170.78017596,21.15549577,-89.16402793,-72.01983311,104.68314295,78.32810281
93.64457192,-50.16550635,-2.50807775,-38.36730645,10.68424717,2.89820632
1.09811175,1.79538497

>  <Name>
ligand

>  <RI>
0

>  <Rbt.Current_Directory>
/home/itssahil/PROJECTS/Mol_Feturizer/New_Systems/rnas/3D2G

>  <Rbt.Executable>
rbdock ($Id: //depot/dev/client3/rdock/2013.1/src/exe/rbdock.cxx#4 $)

>  <Rbt.Library>
libRbt.so (2013.1, Build901 2013/11/27)

>  <Rbt.Parameter_File>
/export/apps/rDock/src/rDock_2013.1_src/data/scripts/dock_solv.prm

>  <Rbt.Receptor>
prm/blind_docking_60.prm

>  <SCORE>
-12.3145

>  <SCORE.INTER>
-12.0756

>  <SCORE.INTER.CONST>
1

>  <SCORE.INTER.POLAR>
0

>  <SCORE.INTER.ROT>
8

>  <SCORE.INTER.SOLV>
20.3272

>  <SCORE.INTER.VDW>
-23.7594

>  <SCORE.INTER.norm>
-0.464445

>  <SCORE.INTRA>
-0.238923

>  <SCORE.INTRA.DIHEDRAL>
1.27369

>  <SCORE.INTRA.DIHEDRAL.0>
9.09364

>  <SCORE.INTRA.POLAR>
0

>  <SCORE.INTRA.POLAR.0>
0

>  <SCORE.INTRA.REPUL>
0

>  <SCORE.INTRA.REPUL.0>
0

>  <SCORE.INTRA.SOLV>
-1.05243

>  <SCORE.INTRA.SOLV.lig_0>
-78.5846

>  <SCORE.INTRA.VDW>
-0.349551

>  <SCORE.INTRA.VDW.0>
-2.81163

>  <SCORE.INTRA.norm>
-0.00918934

>  <SCORE.RESTR>
0

>  <SCORE.RESTR.CAVITY>
0

>  <SCORE.RESTR.norm>
0

>  <SCORE.SYSTEM>
0

>  <SCORE.SYSTEM.CONST>
0

>  <SCORE.SYSTEM.DIHEDRAL>
0

>  <SCORE.SYSTEM.SOLV>
0

>  <SCORE.SYSTEM.norm>
0

>  <SCORE.heavy>
26

>  <SCORE.norm>
-0.473634

>  <RMSD>
10.036

$$$$
ligand
 OpenBabel11021811463D
libRbt.so/2013.1/901 2013/11/27
 26 27  0  0  0  0  0  0  0  0999 V2000
    0.7693  -36.5056    8.9295 C   0  0  0  0  0  0  0  0  0  0  0  0
   -5.3740  -33.7152   11.7683 C   0  0  0  0  0  0  0  0  0  0  0  0
   -7.8771  -37.7819    7.6220 P   0  0  1  0  0  0  0  0  0  0  0  0
   -9.5075  -39.9075    7.0167 P   0  0  2  0  0  0  0  0  0  0  0  0
   -3.2302  -35.6506   12.9560 C   0  0  0  0  0  0  0  0  0  0  0  0
   -1.5866  -34.7704   11.2657 C   0  0  0  0  0  0  0  0  0  0  0  0
   -2.1892  -35.8682   11.8875 C   0  0  0  0  0  0  0  0  0  0  0  0
   -1.8059  -37.1698   11.5529 C   0  0  0  0  0  0  0  0  0  0  0  0
   -2.3657  -38.1988   12.1536 N   0  0  0  0  0  0  0  0  0  0  0  0
   -0.8638  -37.3717   10.5738 N   0  0  0  0  0  0  0  0  0  0  0  0
   -0.2639  -36.2814    9.9756 C   0  0  0  0  0  0  0  0  0  0  0  0
   -0.6273  -34.9886   10.3028 N   0  0  0  0  0  0  0  0  0  0  0  0
   -6.8757  -38.8699    7.3814 O   0  5  0  0  0  0  0  0  0  0  0  0
   -8.6800  -40.8964    7.7373 O   0  0  0  0  0  0  0  0  0  0  0  0
   -6.3602  -37.5026   11.7706 S   0  0  0  0  0  0  0  0  0  0  0  0
   -4.9142  -37.3465   12.3928 C   0  0  0  0  0  0  0  0  0  0  0  0
   -7.9494  -36.7245    6.5779 O   0  0  0  0  0  0  0  0  0  0  0  0
   -9.1212  -39.7826    5.5985 O   0  5  0  0  0  0  0  0  0  0  0  0
   -4.5128  -36.0407   12.4391 N   0  0  0  0  0  0  0  0  0  0  0  0
   -9.2270  -38.5799    7.8364 O   0  0  0  0  0  0  0  0  0  0  0  0
  -10.9789  -40.1606    6.9538 O   0  0  0  0  0  0  0  0  0  0  0  0
   -5.4537  -35.2049   11.9065 C   0  0  1  0  0  0  0  0  0  0  0  0
   -6.5414  -35.9354   11.4989 C   0  0  2  0  0  0  0  0  0  0  0  0
   -7.8416  -35.5054   10.8661 C   0  0  0  0  0  0  0  0  0  0  0  0
   -7.9306  -35.9252    9.3945 C   0  0  0  0  0  0  0  0  0  0  0  0
   -7.4716  -37.2162    9.0373 O   0  0  0  0  0  0  0  0  0  0  0  0
  1 11  1  0  0  0  0
  3 13  1  6  0  0  0
  3 17  2  0  0  0  0
  3 20  1  0  0  0  0
  3 26  1  0  0  0  0
  4 14  1  1  0  0  0
  4 18  1  0  0  0  0
  4 21  2  0  0  0  0
  4 20  1  0  0  0  0
  5 19  1  0  0  0  0
  5  7  1  0  0  0  0
  6  7  2  0  0  0  0
  6 12  1  0  0  0  0
  7  8  1  0  0  0  0
  8  9  1  0  0  0  0
  8 10  2  0  0  0  0
 10 11  1  0  0  0  0
 11 12  2  0  0  0  0
 15 23  1  0  0  0  0
 15 16  1  0  0  0  0
 16 19  1  0  0  0  0
 19 22  1  0  0  0  0
 22  2  1  1  0  0  0
 22 23  1  0  0  0  0
 23 24  1  1  0  0  0
 24 25  1  0  0  0  0
 25 26  1  0  0  0  0
M  CHG  2  13  -1  18  -1
M  END
>  <CHROM.1>
-35.37013671,80.57213151,109.73657373,77.73750822,-71.25813384,41.61918154
165.32818522,160.65190114,-5.81823010,-37.31921435,9.63362899,-0.62547978
-0.03483665,-2.17521177

>  <Name>
ligand

>  <RI>
0

>  <Rbt.Current_Directory>
/home/itssahil/PROJECTS/Mol_Feturizer/New_Systems/rnas/3D2G

>  <Rbt.Executable>
rbdock ($Id: //depot/dev/client3/rdock/2013.1/src/exe/rbdock.cxx#4 $)

>  <Rbt.Library>
libRbt.so (2013.1, Build901 2013/11/27)

>  <Rbt.Parameter_File>
/export/apps/rDock/src/rDock_2013.1_src/data/scripts/dock_solv.prm

>  <Rbt.Receptor>
prm/blind_docking_60.prm

>  <SCORE>
-20.0298

>  <SCORE.INTER>
-20.2597

>  <SCORE.INTER.CONST>
1

>  <SCORE.INTER.POLAR>
0

>  <SCORE.INTER.ROT>
8

>  <SCORE.INTER.SOLV>
24.916

>  <SCORE.INTER.VDW>
-30.7451

>  <SCORE.INTER.norm>
-0.779217

>  <SCORE.INTRA>
0.229814

>  <SCORE.INTRA.DIHEDRAL>
0.937139

>  <SCORE.INTRA.DIHEDRAL.0>
9.09364

>  <SCORE.INTRA.POLAR>
0

>  <SCORE.INTRA.POLAR.0>
0

>  <SCORE.INTRA.REPUL>
0

>  <SCORE.INTRA.REPUL.0>
0

>  <SCORE.INTRA.SOLV>
-0.263825

>  <SCORE.INTRA.SOLV.lig_0>
-78.5846

>  <SCORE.INTRA.VDW>
-0.106843

>  <SCORE.INTRA.VDW.0>
-2.81163

>  <SCORE.INTRA.norm>
0.008839

>  <SCORE.RESTR>
0

>  <SCORE.RESTR.CAVITY>
0

>  <SCORE.RESTR.norm>
0

>  <SCORE.SYSTEM>
0

>  <SCORE.SYSTEM.CONST>
0

>  <SCORE.SYSTEM.DIHEDRAL>
0

>  <SCORE.SYSTEM.SOLV>
0

>  <SCORE.SYSTEM.norm>
0

>  <SCORE.heavy>
26

>  <SCORE.norm>
-0.770378

>  <RMSD>
10.038

$$$$
ligand
 OpenBabel11021811463D
libRbt.so/2013.1/901 2013/11/27
 26 27  0  0  0  0  0  0  0  0999 V2000
   -6.5737  -40.0581    7.3463 C   0  0  0  0  0  0  0  0  0  0  0  0
   -2.0226  -38.0983   10.6261 C   0  0  0  0  0  0  0  0  0  0  0  0
   -1.2990  -33.7404   10.6852 P   0  0  1  0  0  0  0  0  0  0  0  0
    0.5900  -32.6798    8.9971 P   0  0  2  0  0  0  0  0  0  0  0  0
   -3.1207  -40.7394   11.8797 C   0  0  0  0  0  0  0  0  0  0  0  0
   -5.0939  -39.6491   10.7612 C   0  0  0  0  0  0  0  0  0  0  0  0
   -4.0401  -40.5658   10.6976 C   0  0  0  0  0  0  0  0  0  0  0  0
   -3.8077  -41.2974    9.5298 C   0  0  0  0  0  0  0  0  0  0  0  0
   -2.8040  -42.1472    9.4710 N   0  0  0  0  0  0  0  0  0  0  0  0
   -4.6486  -41.1478    8.4541 N   0  0  0  0  0  0  0  0  0  0  0  0
   -5.6778  -40.2299    8.5210 C   0  0  0  0  0  0  0  0  0  0  0  0
   -5.9140  -39.4934    9.6666 N   0  0  0  0  0  0  0  0  0  0  0  0
   -2.4155  -33.1052   11.4563 O   0  5  0  0  0  0  0  0  0  0  0  0
    1.2895  -33.9115    9.4161 O   0  0  0  0  0  0  0  0  0  0  0  0
   -3.1592  -37.8288   14.3615 S   0  0  0  0  0  0  0  0  0  0  0  0
   -3.3923  -39.3101   13.8577 C   0  0  0  0  0  0  0  0  0  0  0  0
   -1.7074  -34.7030    9.6269 O   0  0  0  0  0  0  0  0  0  0  0  0
    1.5040  -31.5268    8.8900 O   0  5  0  0  0  0  0  0  0  0  0  0
   -2.9982  -39.4797   12.5600 N   0  0  0  0  0  0  0  0  0  0  0  0
   -0.4789  -32.4956   10.1531 O   0  0  0  0  0  0  0  0  0  0  0  0
   -0.0988  -32.7000    7.6711 O   0  0  0  0  0  0  0  0  0  0  0  0
   -2.5305  -38.3153   12.0189 C   0  0  1  0  0  0  0  0  0  0  0  0
   -2.5786  -37.3177   12.9599 C   0  0  2  0  0  0  0  0  0  0  0  0
   -2.1735  -35.8665   12.8853 C   0  0  0  0  0  0  0  0  0  0  0  0
   -0.7794  -35.6901   12.2728 C   0  0  0  0  0  0  0  0  0  0  0  0
   -0.4106  -34.4052   11.8060 O   0  0  0  0  0  0  0  0  0  0  0  0
  1 11  1  0  0  0  0
  3 13  1  1  0  0  0
  3 17  2  0  0  0  0
  3 20  1  0  0  0  0
  3 26  1  0  0  0  0
  4 14  1  1  0  0  0
  4 18  1  0  0  0  0
  4 21  2  0  0  0  0
  4 20  1  0  0  0  0
  5 19  1  0  0  0  0
  5  7  1  0  0  0  0
  6  7  2  0  0  0  0
  6 12  1  0  0  0  0
  7  8  1  0  0  0  0
  8  9  1  0  0  0  0
  8 10  2  0  0  0  0
 10 11  1  0  0  0  0
 11 12  2  0  0  0  0
 15 23  1  0  0  0  0
 15 16  1  0  0  0  0
 16 19  1  0  0  0  0
 19 22  1  0  0  0  0
 22  2  1  1  0  0  0
 22 23  1  0  0  0  0
 23 24  1  1  0  0  0
 24 25  1  0  0  0  0
 25 26  1  0  0  0  0
M  CHG  2  13  -1  18  -1
M  END
>  <CHROM.1>
-165.08624484,118.52549728,-32.32649487,-43.68291766,131.43277101,163.19176700
-58.84985309,84.08364099,-2.22285697,-36.68033174,10.68115964,2.93433855
1.02453013,1.71103814

>  <Name>
ligand

>  <RI>
0

>  <Rbt.Current_Directory>
/home/itssahil/PROJECTS/Mol_Feturizer/New_Systems/rnas/3D2G

>  <Rbt.Executable>
rbdock ($Id: //depot/dev/client3/rdock/2013.1/src/exe/rbdock.cxx#4 $)

>  <Rbt.Library>
libRbt.so (2013.1, Build901 2013/11/27)

>  <Rbt.Parameter_File>
/export/apps/rDock/src/rDock_2013.1_src/data/scripts/dock_solv.prm

>  <Rbt.Receptor>
prm/blind_docking_60.prm

>  <SCORE>
-16.5504

>  <SCORE.INTER>
-15.459

>  <SCORE.INTER.CONST>
1

>  <SCORE.INTER.POLAR>
0

>  <SCORE.INTER.ROT>
8

>  <SCORE.INTER.SOLV>
14.4802

>  <SCORE.INTER.VDW>
-24.0661

>  <SCORE.INTER.norm>
-0.594576

>  <SCORE.INTRA>
-1.09904

>  <SCORE.INTRA.DIHEDRAL>
-1.68801

>  <SCORE.INTRA.DIHEDRAL.0>
9.09364

>  <SCORE.INTRA.POLAR>
0

>  <SCORE.INTRA.POLAR.0>
0

>  <SCORE.INTRA.REPUL>
0

>  <SCORE.INTRA.REPUL.0>
0

>  <SCORE.INTRA.SOLV>
-1.09558

>  <SCORE.INTRA.SOLV.lig_0>
-78.5846

>  <SCORE.INTRA.VDW>
0.292758

>  <SCORE.INTRA.VDW.0>
-2.81163

>  <SCORE.INTRA.norm>
-0.0422707

>  <SCORE.RESTR>
0.00759216

>  <SCORE.RESTR.CAVITY>
0.00759216

>  <SCORE.RESTR.norm>
0.000292006

>  <SCORE.SYSTEM>
0

>  <SCORE.SYSTEM.CONST>
0

>  <SCORE.SYSTEM.DIHEDRAL>
0

>  <SCORE.SYSTEM.SOLV>
0

>  <SCORE.SYSTEM.norm>
0

>  <SCORE.heavy>
26

>  <SCORE.norm>
-0.636555

>  <RMSD>
10.070

$$$$
ligand
 OpenBabel11021811463D
libRbt.so/2013.1/901 2013/11/27
 26 27  0  0  0  0  0  0  0  0999 V2000
   -0.2873  -42.0564    8.1974 C   0  0  0  0  0  0  0  0  0  0  0  0
   -5.6257  -38.2279   11.4020 C   0  0  0  0  0  0  0  0  0  0  0  0
   -1.8932  -34.2306   11.7761 P   0  0  1  0  0  0  0  0  0  0  0  0
    0.1442  -35.8783   10.9534 P   0  0  2  0  0  0  0  0  0  0  0  0
   -4.1680  -40.8557   12.2518 C   0  0  0  0  0  0  0  0  0  0  0  0
   -1.8390  -41.5131   11.5613 C   0  0  0  0  0  0  0  0  0  0  0  0
   -3.1399  -41.1585   11.1916 C   0  0  0  0  0  0  0  0  0  0  0  0
   -3.5070  -41.1194    9.8437 C   0  0  0  0  0  0  0  0  0  0  0  0
   -4.7379  -40.8003    9.5029 N   0  0  0  0  0  0  0  0  0  0  0  0
   -2.5704  -41.3864    8.8750 N   0  0  0  0  0  0  0  0  0  0  0  0
   -1.2922  -41.7496    9.2501 C   0  0  0  0  0  0  0  0  0  0  0  0
   -0.9179  -41.8007   10.5797 N   0  0  0  0  0  0  0  0  0  0  0  0
   -1.5701  -34.8209   13.1146 O   0  5  0  0  0  0  0  0  0  0  0  0
    0.8088  -35.8946   12.2725 O   0  0  0  0  0  0  0  0  0  0  0  0
   -2.9083  -37.8060   14.1868 S   0  0  0  0  0  0  0  0  0  0  0  0
   -2.9890  -39.3305   13.7726 C   0  0  0  0  0  0  0  0  0  0  0  0
   -2.3737  -32.8226   11.7872 O   0  0  0  0  0  0  0  0  0  0  0  0
    1.1032  -36.0278    9.8424 O   0  5  0  0  0  0  0  0  0  0  0  0
   -3.9103  -39.5472   12.7865 N   0  0  0  0  0  0  0  0  0  0  0  0
   -0.5599  -34.4580   10.9540 O   0  0  0  0  0  0  0  0  0  0  0  0
   -0.8682  -36.9436   10.6827 O   0  0  0  0  0  0  0  0  0  0  0  0
   -4.5494  -38.3928   12.4312 C   0  0  1  0  0  0  0  0  0  0  0  0
   -4.0528  -37.3459   13.1665 C   0  0  2  0  0  0  0  0  0  0  0  0
   -4.3980  -35.8775   13.1559 C   0  0  0  0  0  0  0  0  0  0  0  0
   -4.2446  -35.2614   11.7606 C   0  0  0  0  0  0  0  0  0  0  0  0
   -2.9539  -35.2334   11.1790 O   0  0  0  0  0  0  0  0  0  0  0  0
  1 11  1  0  0  0  0
  3 13  1  1  0  0  0
  3 17  2  0  0  0  0
  3 20  1  0  0  0  0
  3 26  1  0  0  0  0
  4 14  1  1  0  0  0
  4 18  1  0  0  0  0
  4 21  2  0  0  0  0
  4 20  1  0  0  0  0
  5 19  1  0  0  0  0
  5  7  1  0  0  0  0
  6  7  2  0  0  0  0
  6 12  1  0  0  0  0
  7  8  1  0  0  0  0
  8  9  1  0  0  0  0
  8 10  2  0  0  0  0
 10 11  1  0  0  0  0
 11 12  2  0  0  0  0
 15 23  1  0  0  0  0
 15 16  1  0  0  0  0
 16 19  1  0  0  0  0
 19 22  1  0  0  0  0
 22  2  1  6  0  0  0
 22 23  1  0  0  0  0
 23 24  1  6  0  0  0
 24 25  1  0  0  0  0
 25 26  1  0  0  0  0
M  CHG  2  13  -1  18  -1
M  END
>  <CHROM.1>
48.12000741,-83.36688098,76.22452807,-77.10697503,123.39603750,-63.55931236
-71.70352554,70.42614395,-2.26004162,-37.68405632,11.50568660,-1.76649466
0.54675080,0.32717426

>  <Name>
ligand

>  <RI>
0

>  <Rbt.Current_Directory>
/home/itssahil/PROJECTS/Mol_Feturizer/New_Systems/rnas/3D2G

>  <Rbt.Executable>
rbdock ($Id: //depot/dev/client3/rdock/2013.1/src/exe/rbdock.cxx#4 $)

>  <Rbt.Library>
libRbt.so (2013.1, Build901 2013/11/27)

>  <Rbt.Parameter_File>
/export/apps/rDock/src/rDock_2013.1_src/data/scripts/dock_solv.prm

>  <Rbt.Receptor>
prm/blind_docking_60.prm

>  <SCORE>
-17.5458

>  <SCORE.INTER>
-15.1519

>  <SCORE.INTER.CONST>
1

>  <SCORE.INTER.POLAR>
0

>  <SCORE.INTER.ROT>
8

>  <SCORE.INTER.SOLV>
15.2424

>  <SCORE.INTER.VDW>
-24.1154

>  <SCORE.INTER.norm>
-0.582767

>  <SCORE.INTRA>
-2.39383

>  <SCORE.INTRA.DIHEDRAL>
-3.1574

>  <SCORE.INTRA.DIHEDRAL.0>
9.09364

>  <SCORE.INTRA.POLAR>
0

>  <SCORE.INTRA.POLAR.0>
0

>  <SCORE.INTRA.REPUL>
0

>  <SCORE.INTRA.REPUL.0>
0

>  <SCORE.INTRA.SOLV>
1.57648

>  <SCORE.INTRA.SOLV.lig_0>
-78.5846

>  <SCORE.INTRA.VDW>
-1.60337

>  <SCORE.INTRA.VDW.0>
-2.81163

>  <SCORE.INTRA.norm>
-0.0920703

>  <SCORE.RESTR>
0

>  <SCORE.RESTR.CAVITY>
0

>  <SCORE.RESTR.norm>
0

>  <SCORE.SYSTEM>
0

>  <SCORE.SYSTEM.CONST>
0

>  <SCORE.SYSTEM.DIHEDRAL>
0

>  <SCORE.SYSTEM.SOLV>
0

>  <SCORE.SYSTEM.norm>
0

>  <SCORE.heavy>
26

>  <SCORE.norm>
-0.674837

>  <RMSD>
10.078

$$$$
ligand
 OpenBabel11021811463D
libRbt.so/2013.1/901 2013/11/27
 26 27  0  0  0  0  0  0  0  0999 V2000
   -7.8331  -33.3977   11.1654 C   0  0  0  0  0  0  0  0  0  0  0  0
   -1.0330  -34.5211   11.3891 C   0  0  0  0  0  0  0  0  0  0  0  0
    3.2998  -36.5701    8.0154 P   0  0  1  0  0  0  0  0  0  0  0  0
    2.9385  -38.4677    6.0630 P   0  0  2  0  0  0  0  0  0  0  0  0
   -3.1383  -36.0815   13.0877 C   0  0  0  0  0  0  0  0  0  0  0  0
   -4.3867  -33.9741   12.5105 C   0  0  0  0  0  0  0  0  0  0  0  0
   -4.3731  -35.3695   12.5971 C   0  0  0  0  0  0  0  0  0  0  0  0
   -5.4851  -36.1146   12.1951 C   0  0  0  0  0  0  0  0  0  0  0  0
   -5.4600  -37.4290   12.2641 N   0  0  0  0  0  0  0  0  0  0  0  0
   -6.6148  -35.4685   11.7557 N   0  0  0  0  0  0  0  0  0  0  0  0
   -6.6138  -34.0911   11.6600 C   0  0  0  0  0  0  0  0  0  0  0  0
   -5.5180  -33.3422   12.0461 N   0  0  0  0  0  0  0  0  0  0  0  0
    3.7739  -37.5946    9.0004 O   0  5  0  0  0  0  0  0  0  0  0  0
    2.3395  -38.0508    4.7788 O   0  0  0  0  0  0  0  0  0  0  0  0
   -1.6802  -38.2141   10.2667 S   0  0  0  0  0  0  0  0  0  0  0  0
   -2.5884  -37.8902   11.5208 C   0  0  0  0  0  0  0  0  0  0  0  0
    4.3648  -35.8184    7.2983 O   0  0  0  0  0  0  0  0  0  0  0  0
    2.5733  -39.8497    6.4277 O   0  5  0  0  0  0  0  0  0  0  0  0
   -2.4248  -36.6048   11.9556 N   0  0  0  0  0  0  0  0  0  0  0  0
    2.3392  -37.4007    7.0707 O   0  0  0  0  0  0  0  0  0  0  0  0
    4.4300  -38.4677    6.1559 O   0  0  0  0  0  0  0  0  0  0  0  0
   -1.4934  -35.9358   11.2124 C   0  0  1  0  0  0  0  0  0  0  0  0
   -1.0112  -36.7603   10.2271 C   0  0  2  0  0  0  0  0  0  0  0  0
    0.0084  -36.5152    9.1427 C   0  0  0  0  0  0  0  0  0  0  0  0
    1.4043  -36.2472    9.7167 C   0  0  0  0  0  0  0  0  0  0  0  0
    2.3673  -35.6355    8.8780 O   0  0  0  0  0  0  0  0  0  0  0  0
  1 11  1  0  0  0  0
  3 13  1  1  0  0  0
  3 17  2  0  0  0  0
  3 20  1  0  0  0  0
  3 26  1  0  0  0  0
  4 14  1  6  0  0  0
  4 18  1  0  0  0  0
  4 21  2  0  0  0  0
  4 20  1  0  0  0  0
  5 19  1  0  0  0  0
  5  7  1  0  0  0  0
  6  7  2  0  0  0  0
  6 12  1  0  0  0  0
  7  8  1  0  0  0  0
  8  9  1  0  0  0  0
  8 10  2  0  0  0  0
 10 11  1  0  0  0  0
 11 12  2  0  0  0  0
 15 23  1  0  0  0  0
 15 16  1  0  0  0  0
 16 19  1  0  0  0  0
 19 22  1  0  0  0  0
 22  2  1  6  0  0  0
 22 23  1  0  0  0  0
 23 24  1  6  0  0  0
 24 25  1  0  0  0  0
 25 26  1  0  0  0  0
M  CHG  2  13  -1  18  -1
M  END
>  <CHROM.1>
-70.89602576,-95.06111607,-101.14127695,-127.25977447,-115.91384904,-162.35228897
-90.56042221,-47.58049390,-0.61022434,-36.59783414,9.57006764,-2.65909914
-0.35375016,-2.61850106

>  <Name>
ligand

>  <RI>
0

>  <Rbt.Current_Directory>
/home/itssahil/PROJECTS/Mol_Feturizer/New_Systems/rnas/3D2G

>  <Rbt.Executable>
rbdock ($Id: //depot/dev/client3/rdock/2013.1/src/exe/rbdock.cxx#4 $)

>  <Rbt.Library>
libRbt.so (2013.1, Build901 2013/11/27)

>  <Rbt.Parameter_File>
/export/apps/rDock/src/rDock_2013.1_src/data/scripts/dock_solv.prm

>  <Rbt.Receptor>
prm/blind_docking_40.prm

>  <SCORE>
-12.4076

>  <SCORE.INTER>
-15.5462

>  <SCORE.INTER.CONST>
1

>  <SCORE.INTER.POLAR>
0

>  <SCORE.INTER.ROT>
8

>  <SCORE.INTER.SOLV>
26.0673

>  <SCORE.INTER.VDW>
-27.9866

>  <SCORE.INTER.norm>
-0.597932

>  <SCORE.INTRA>
1.48392

>  <SCORE.INTRA.DIHEDRAL>
2.79769

>  <SCORE.INTRA.DIHEDRAL.0>
9.09364

>  <SCORE.INTRA.POLAR>
0

>  <SCORE.INTRA.POLAR.0>
0

>  <SCORE.INTRA.REPUL>
0

>  <SCORE.INTRA.REPUL.0>
0

>  <SCORE.INTRA.SOLV>
0.983397

>  <SCORE.INTRA.SOLV.lig_0>
-78.5846

>  <SCORE.INTRA.VDW>
-0.406624

>  <SCORE.INTRA.VDW.0>
-2.81163

>  <SCORE.INTRA.norm>
0.0570739

>  <SCORE.RESTR>
1.65475

>  <SCORE.RESTR.CAVITY>
1.65475

>  <SCORE.RESTR.norm>
0.0636444

>  <SCORE.SYSTEM>
0

>  <SCORE.SYSTEM.CONST>
0

>  <SCORE.SYSTEM.DIHEDRAL>
0

>  <SCORE.SYSTEM.SOLV>
0

>  <SCORE.SYSTEM.norm>
0

>  <SCORE.heavy>
26

>  <SCORE.norm>
-0.477214

>  <RMSD>
10.154

$$$$
ligand
 OpenBabel11021811463D
libRbt.so/2013.1/901 2013/11/27
 26 27  0  0  0  0  0  0  0  0999 V2000
    0.4955  -36.7755    9.1869 C   0  0  0  0  0  0  0  0  0  0  0  0
   -5.8029  -37.6394   11.8290 C   0  0  0  0  0  0  0  0  0  0  0  0
   -8.4671  -37.4799    7.6647 P   0  0  1  0  0  0  0  0  0  0  0  0
   -9.4248  -39.8731    6.7169 P   0  0  2  0  0  0  0  0  0  0  0  0
   -3.4572  -36.2037   13.3086 C   0  0  0  0  0  0  0  0  0  0  0  0
   -2.1555  -37.6253   11.6907 C   0  0  0  0  0  0  0  0  0  0  0  0
   -2.4103  -36.3632   12.2357 C   0  0  0  0  0  0  0  0  0  0  0  0
   -1.7273  -35.2382   11.7658 C   0  0  0  0  0  0  0  0  0  0  0  0
   -1.9834  -34.0502   12.2720 N   0  0  0  0  0  0  0  0  0  0  0  0
   -0.7667  -35.3814   10.7944 N   0  0  0  0  0  0  0  0  0  0  0  0
   -0.5322  -36.6293   10.2521 C   0  0  0  0  0  0  0  0  0  0  0  0
   -1.2064  -37.7492   10.7014 N   0  0  0  0  0  0  0  0  0  0  0  0
   -7.2264  -38.2223    8.0571 O   0  5  0  0  0  0  0  0  0  0  0  0
  -10.8301  -40.2873    6.5289 O   0  0  0  0  0  0  0  0  0  0  0  0
   -6.1462  -33.7523   12.1287 S   0  0  0  0  0  0  0  0  0  0  0  0
   -4.7999  -34.2057   12.8247 C   0  0  0  0  0  0  0  0  0  0  0  0
   -8.3844  -36.7019    6.3993 O   0  0  0  0  0  0  0  0  0  0  0  0
   -8.6053  -40.9371    7.3273 O   0  5  0  0  0  0  0  0  0  0  0  0
   -4.6074  -35.5563   12.7407 N   0  0  0  0  0  0  0  0  0  0  0  0
   -9.5747  -38.6105    7.6638 O   0  0  0  0  0  0  0  0  0  0  0  0
   -8.6512  -39.4984    5.4945 O   0  0  0  0  0  0  0  0  0  0  0  0
   -5.6451  -36.1747   12.1019 C   0  0  1  0  0  0  0  0  0  0  0  0
   -6.5706  -35.2389   11.7134 C   0  0  2  0  0  0  0  0  0  0  0  0
   -7.8760  -35.3865   10.9719 C   0  0  0  0  0  0  0  0  0  0  0  0
   -7.6727  -35.9343    9.5547 C   0  0  0  0  0  0  0  0  0  0  0  0
   -8.7654  -36.5737    8.9206 O   0  0  0  0  0  0  0  0  0  0  0  0
  1 11  1  0  0  0  0
  3 13  1  1  0  0  0
  3 17  2  0  0  0  0
  3 20  1  0  0  0  0
  3 26  1  0  0  0  0
  4 14  1  6  0  0  0
  4 18  1  0  0  0  0
  4 21  2  0  0  0  0
  4 20  1  0  0  0  0
  5 19  1  0  0  0  0
  5  7  1  0  0  0  0
  6  7  2  0  0  0  0
  6 12  1  0  0  0  0
  7  8  1  0  0  0  0
  8  9  1  0  0  0  0
  8 10  2  0  0  0  0
 10 11  1  0  0  0  0
 11 12  2  0  0  0  0
 15 23  1  0  0  0  0
 15 16  1  0  0  0  0
 16 19  1  0  0  0  0
 19 22  1  0  0  0  0
 22  2  1  6  0  0  0
 22 23  1  0  0  0  0
 23 24  1  6  0  0  0
 24 25  1  0  0  0  0
 25 26  1  0  0  0  0
M  CHG  2  13  -1  18  -1
M  END
>  <CHROM.1>
-59.28089797,-95.31139486,-106.84036140,-154.19965172,116.41222755,157.53200045
-163.14767769,41.58738010,-5.96879384,-36.95797385,9.74149963,-0.70450720
0.12516525,-2.33772252

>  <Name>
ligand

>  <RI>
0

>  <Rbt.Current_Directory>
/home/itssahil/PROJECTS/Mol_Feturizer/New_Systems/rnas/3D2G

>  <Rbt.Executable>
rbdock ($Id: //depot/dev/client3/rdock/2013.1/src/exe/rbdock.cxx#4 $)

>  <Rbt.Library>
libRbt.so (2013.1, Build901 2013/11/27)

>  <Rbt.Parameter_File>
/export/apps/rDock/src/rDock_2013.1_src/data/scripts/dock_solv.prm

>  <Rbt.Receptor>
prm/blind_docking_60.prm

>  <SCORE>
-18.5638

>  <SCORE.INTER>
-19.2705

>  <SCORE.INTER.CONST>
1

>  <SCORE.INTER.POLAR>
0

>  <SCORE.INTER.ROT>
8

>  <SCORE.INTER.SOLV>
22.7788

>  <SCORE.INTER.VDW>
-29.3733

>  <SCORE.INTER.norm>
-0.741175

>  <SCORE.INTRA>
0.706793

>  <SCORE.INTRA.DIHEDRAL>
0.500314

>  <SCORE.INTRA.DIHEDRAL.0>
9.09364

>  <SCORE.INTRA.POLAR>
0

>  <SCORE.INTRA.POLAR.0>
0

>  <SCORE.INTRA.REPUL>
0

>  <SCORE.INTRA.REPUL.0>
0

>  <SCORE.INTRA.SOLV>
1.60354

>  <SCORE.INTRA.SOLV.lig_0>
-78.5846

>  <SCORE.INTRA.VDW>
-0.345135

>  <SCORE.INTRA.VDW.0>
-2.81163

>  <SCORE.INTRA.norm>
0.0271843

>  <SCORE.RESTR>
0

>  <SCORE.RESTR.CAVITY>
0

>  <SCORE.RESTR.norm>
0

>  <SCORE.SYSTEM>
0

>  <SCORE.SYSTEM.CONST>
0

>  <SCORE.SYSTEM.DIHEDRAL>
0

>  <SCORE.SYSTEM.SOLV>
0

>  <SCORE.SYSTEM.norm>
0

>  <SCORE.heavy>
26

>  <SCORE.norm>
-0.71399

>  <RMSD>
10.172

$$$$
ligand
 OpenBabel11021811463D
libRbt.so/2013.1/901 2013/11/27
 26 27  0  0  0  0  0  0  0  0999 V2000
   -3.5102  -45.7713    9.7407 C   0  0  0  0  0  0  0  0  0  0  0  0
   -4.7588  -40.0429   10.6316 C   0  0  0  0  0  0  0  0  0  0  0  0
   -0.5045  -35.9675   10.0996 P   0  0  1  0  0  0  0  0  0  0  0  0
   -1.7051  -33.5803   10.7344 P   0  0  2  0  0  0  0  0  0  0  0  0
   -5.3837  -41.6315   13.2466 C   0  0  0  0  0  0  0  0  0  0  0  0
   -3.5298  -43.0622   12.3252 C   0  0  0  0  0  0  0  0  0  0  0  0
   -4.8824  -42.7081   12.3182 C   0  0  0  0  0  0  0  0  0  0  0  0
   -5.7837  -43.3726   11.4821 C   0  0  0  0  0  0  0  0  0  0  0  0
   -7.0588  -43.0455   11.4920 N   0  0  0  0  0  0  0  0  0  0  0  0
   -5.3287  -44.3482   10.6289 N   0  0  0  0  0  0  0  0  0  0  0  0
   -3.9940  -44.7009   10.6531 C   0  0  0  0  0  0  0  0  0  0  0  0
   -3.0930  -44.0579   11.4810 N   0  0  0  0  0  0  0  0  0  0  0  0
    0.2340  -35.4535    8.9017 O   0  5  0  0  0  0  0  0  0  0  0  0
   -1.4633  -33.8359   12.1690 O   0  0  0  0  0  0  0  0  0  0  0  0
   -2.9879  -38.7130   13.8585 S   0  0  0  0  0  0  0  0  0  0  0  0
   -3.8768  -39.9653   14.2377 C   0  0  0  0  0  0  0  0  0  0  0  0
    0.2676  -36.0042   11.3708 O   0  0  0  0  0  0  0  0  0  0  0  0
   -2.9419  -32.8096   10.5046 O   0  5  0  0  0  0  0  0  0  0  0  0
   -4.5125  -40.4931   13.1488 N   0  0  0  0  0  0  0  0  0  0  0  0
   -1.7931  -35.0496   10.1457 O   0  0  0  0  0  0  0  0  0  0  0  0
   -0.6683  -32.8006    9.9927 O   0  0  0  0  0  0  0  0  0  0  0  0
   -4.2408  -39.7831   12.0133 C   0  0  1  0  0  0  0  0  0  0  0  0
   -3.3837  -38.7528   12.3078 C   0  0  2  0  0  0  0  0  0  0  0  0
   -2.7687  -37.6943   11.4262 C   0  0  0  0  0  0  0  0  0  0  0  0
   -1.5869  -38.2378   10.6153 C   0  0  0  0  0  0  0  0  0  0  0  0
   -0.9975  -37.3942    9.6427 O   0  0  0  0  0  0  0  0  0  0  0  0
  1 11  1  0  0  0  0
  3 13  1  6  0  0  0
  3 17  2  0  0  0  0
  3 20  1  0  0  0  0
  3 26  1  0  0  0  0
  4 14  1  1  0  0  0
  4 18  1  0  0  0  0
  4 21  2  0  0  0  0
  4 20  1  0  0  0  0
  5 19  1  0  0  0  0
  5  7  1  0  0  0  0
  6  7  2  0  0  0  0
  6 12  1  0  0  0  0
  7  8  1  0  0  0  0
  8  9  1  0  0  0  0
  8 10  2  0  0  0  0
 10 11  1  0  0  0  0
 11 12  2  0  0  0  0
 15 23  1  0  0  0  0
 15 16  1  0  0  0  0
 16 19  1  0  0  0  0
 19 22  1  0  0  0  0
 22  2  1  6  0  0  0
 22 23  1  0  0  0  0
 23 24  1  6  0  0  0
 24 25  1  0  0  0  0
 25 26  1  0  0  0  0
M  CHG  2  13  -1  18  -1
M  END
>  <CHROM.1>
-78.91146740,-123.31089123,48.20171482,-68.43178111,101.32705998,173.66160724
54.15778043,171.68204374,-2.82030821,-38.60704319,11.31906727,-2.16149540
0.85371528,0.34694256

>  <Name>
ligand

>  <RI>
0

>  <Rbt.Current_Directory>
/home/itssahil/PROJECTS/Mol_Feturizer/New_Systems/rnas/3D2G

>  <Rbt.Executable>
rbdock ($Id: //depot/dev/client3/rdock/2013.1/src/exe/rbdock.cxx#4 $)

>  <Rbt.Library>
libRbt.so (2013.1, Build901 2013/11/27)

>  <Rbt.Parameter_File>
/export/apps/rDock/src/rDock_2013.1_src/data/scripts/dock_solv.prm

>  <Rbt.Receptor>
prm/blind_docking_80.prm

>  <SCORE>
-18.0741

>  <SCORE.INTER>
-15.5894

>  <SCORE.INTER.CONST>
1

>  <SCORE.INTER.POLAR>
0

>  <SCORE.INTER.ROT>
8

>  <SCORE.INTER.SOLV>
20.2052

>  <SCORE.INTER.VDW>
-26.0613

>  <SCORE.INTER.norm>
-0.599592

>  <SCORE.INTRA>
-2.48469

>  <SCORE.INTRA.DIHEDRAL>
-3.44329

>  <SCORE.INTRA.DIHEDRAL.0>
9.09364

>  <SCORE.INTRA.POLAR>
0

>  <SCORE.INTRA.POLAR.0>
0

>  <SCORE.INTRA.REPUL>
0

>  <SCORE.INTRA.REPUL.0>
0

>  <SCORE.INTRA.SOLV>
-0.284537

>  <SCORE.INTRA.SOLV.lig_0>
-78.5846

>  <SCORE.INTRA.VDW>
-0.62078

>  <SCORE.INTRA.VDW.0>
-2.81163

>  <SCORE.INTRA.norm>
-0.095565

>  <SCORE.RESTR>
0

>  <SCORE.RESTR.CAVITY>
0

>  <SCORE.RESTR.norm>
0

>  <SCORE.SYSTEM>
0

>  <SCORE.SYSTEM.CONST>
0

>  <SCORE.SYSTEM.DIHEDRAL>
0

>  <SCORE.SYSTEM.SOLV>
0

>  <SCORE.SYSTEM.norm>
0

>  <SCORE.heavy>
26

>  <SCORE.norm>
-0.695157

>  <RMSD>
10.189

$$$$
ligand
 OpenBabel11021811463D
libRbt.so/2013.1/901 2013/11/27
 26 27  0  0  0  0  0  0  0  0999 V2000
    0.4955  -36.7470    9.2285 C   0  0  0  0  0  0  0  0  0  0  0  0
   -5.8517  -37.7126   11.7252 C   0  0  0  0  0  0  0  0  0  0  0  0
   -8.2007  -37.1910    7.1980 P   0  0  1  0  0  0  0  0  0  0  0  0
   -9.0127  -39.2336    5.5514 P   0  0  2  0  0  0  0  0  0  0  0  0
   -3.5717  -36.2119   13.2424 C   0  0  0  0  0  0  0  0  0  0  0  0
   -2.1815  -37.6270   11.6939 C   0  0  0  0  0  0  0  0  0  0  0  0
   -2.4946  -36.3611   12.1983 C   0  0  0  0  0  0  0  0  0  0  0  0
   -1.8417  -35.2246   11.7134 C   0  0  0  0  0  0  0  0  0  0  0  0
   -2.1524  -34.0339   12.1811 N   0  0  0  0  0  0  0  0  0  0  0  0
   -0.8539  -35.3581   10.7683 N   0  0  0  0  0  0  0  0  0  0  0  0
   -0.5617  -36.6105   10.2658 C   0  0  0  0  0  0  0  0  0  0  0  0
   -1.2055  -37.7421   10.7301 N   0  0  0  0  0  0  0  0  0  0  0  0
   -6.9271  -37.9449    7.4304 O   0  5  0  0  0  0  0  0  0  0  0  0
   -8.9516  -38.2226    4.4763 O   0  0  0  0  0  0  0  0  0  0  0  0
   -6.2782  -33.8296   11.9654 S   0  0  0  0  0  0  0  0  0  0  0  0
   -4.9409  -34.2472   12.6998 C   0  0  0  0  0  0  0  0  0  0  0  0
   -8.1309  -36.0929    6.1967 O   0  0  0  0  0  0  0  0  0  0  0  0
  -10.1083  -40.2004    5.3480 O   0  5  0  0  0  0  0  0  0  0  0  0
   -4.7200  -35.5947   12.6383 N   0  0  0  0  0  0  0  0  0  0  0  0
   -9.2331  -38.3358    6.8392 O   0  0  0  0  0  0  0  0  0  0  0  0
   -7.8134  -40.1045    5.7424 O   0  0  0  0  0  0  0  0  0  0  0  0
   -5.7293  -36.2416   11.9825 C   0  0  1  0  0  0  0  0  0  0  0  0
   -6.6632  -35.3295   11.5594 C   0  0  2  0  0  0  0  0  0  0  0  0
   -7.9468  -35.5124   10.7883 C   0  0  0  0  0  0  0  0  0  0  0  0
   -7.6892  -35.8229    9.3095 C   0  0  0  0  0  0  0  0  0  0  0  0
   -8.5933  -36.6810    8.6379 O   0  0  0  0  0  0  0  0  0  0  0  0
  1 11  1  0  0  0  0
  3 13  1  1  0  0  0
  3 17  2  0  0  0  0
  3 20  1  0  0  0  0
  3 26  1  0  0  0  0
  4 14  1  6  0  0  0
  4 18  1  0  0  0  0
  4 21  2  0  0  0  0
  4 20  1  0  0  0  0
  5 19  1  0  0  0  0
  5  7  1  0  0  0  0
  6  7  2  0  0  0  0
  6 12  1  0  0  0  0
  7  8  1  0  0  0  0
  8  9  1  0  0  0  0
  8 10  2  0  0  0  0
 10 11  1  0  0  0  0
 11 12  2  0  0  0  0
 15 23  1  0  0  0  0
 15 16  1  0  0  0  0
 16 19  1  0  0  0  0
 19 22  1  0  0  0  0
 22  2  1  6  0  0  0
 22 23  1  0  0  0  0
 23 24  1  6  0  0  0
 24 25  1  0  0  0  0
 25 26  1  0  0  0  0
M  CHG  2  13  -1  18  -1
M  END
>  <CHROM.1>
-62.34543317,-95.18016922,-108.12645373,-56.82813955,105.83445717,146.60930693
-169.95915780,60.64127021,-5.87870753,-36.77773232,9.35051120,-0.78344887
0.16631130,-2.20090664

>  <Name>
ligand

>  <RI>
0

>  <Rbt.Current_Directory>
/home/itssahil/PROJECTS/Mol_Feturizer/New_Systems/rnas/3D2G

>  <Rbt.Executable>
rbdock ($Id: //depot/dev/client3/rdock/2013.1/src/exe/rbdock.cxx#4 $)

>  <Rbt.Library>
libRbt.so (2013.1, Build901 2013/11/27)

>  <Rbt.Parameter_File>
/export/apps/rDock/src/rDock_2013.1_src/data/scripts/dock_solv.prm

>  <Rbt.Receptor>
prm/blind_docking_60.prm

>  <SCORE>
-16.5603

>  <SCORE.INTER>
-15.3895

>  <SCORE.INTER.CONST>
1

>  <SCORE.INTER.POLAR>
0

>  <SCORE.INTER.ROT>
8

>  <SCORE.INTER.SOLV>
20.148

>  <SCORE.INTER.VDW>
-25.909

>  <SCORE.INTER.norm>
-0.591903

>  <SCORE.INTRA>
-1.17079

>  <SCORE.INTRA.DIHEDRAL>
-0.534433

>  <SCORE.INTRA.DIHEDRAL.0>
9.09364

>  <SCORE.INTRA.POLAR>
0

>  <SCORE.INTRA.POLAR.0>
0

>  <SCORE.INTRA.REPUL>
0

>  <SCORE.INTRA.REPUL.0>
0

>  <SCORE.INTRA.SOLV>
-0.17914

>  <SCORE.INTRA.SOLV.lig_0>
-78.5846

>  <SCORE.INTRA.VDW>
-0.814005

>  <SCORE.INTRA.VDW.0>
-2.81163

>  <SCORE.INTRA.norm>
-0.0450304

>  <SCORE.RESTR>
0

>  <SCORE.RESTR.CAVITY>
0

>  <SCORE.RESTR.norm>
0

>  <SCORE.SYSTEM>
0

>  <SCORE.SYSTEM.CONST>
0

>  <SCORE.SYSTEM.DIHEDRAL>
0

>  <SCORE.SYSTEM.SOLV>
0

>  <SCORE.SYSTEM.norm>
0

>  <SCORE.heavy>
26

>  <SCORE.norm>
-0.636934

>  <RMSD>
10.218

$$$$
ligand
 OpenBabel11021811463D
libRbt.so/2013.1/901 2013/11/27
 26 27  0  0  0  0  0  0  0  0999 V2000
   -3.1702  -44.9369   10.2038 C   0  0  0  0  0  0  0  0  0  0  0  0
   -5.9876  -37.9291   11.7833 C   0  0  0  0  0  0  0  0  0  0  0  0
   -1.5955  -33.9544   11.3695 P   0  0  1  0  0  0  0  0  0  0  0  0
    0.3078  -35.3447    9.9597 P   0  0  2  0  0  0  0  0  0  0  0  0
   -5.7485  -40.7324   13.1387 C   0  0  0  0  0  0  0  0  0  0  0  0
   -4.7654  -43.0456   13.0140 C   0  0  0  0  0  0  0  0  0  0  0  0
   -5.0586  -41.8357   12.3776 C   0  0  0  0  0  0  0  0  0  0  0  0
   -4.7509  -41.6537   11.0265 C   0  0  0  0  0  0  0  0  0  0  0  0
   -5.0442  -40.5179   10.4290 N   0  0  0  0  0  0  0  0  0  0  0  0
   -4.1146  -42.6538   10.3325 N   0  0  0  0  0  0  0  0  0  0  0  0
   -3.8420  -43.8503   10.9654 C   0  0  0  0  0  0  0  0  0  0  0  0
   -4.1485  -44.0470   12.2988 N   0  0  0  0  0  0  0  0  0  0  0  0
   -1.8854  -33.8195   12.8331 O   0  5  0  0  0  0  0  0  0  0  0  0
    1.2346  -36.4217   10.3635 O   0  0  0  0  0  0  0  0  0  0  0  0
   -2.9002  -38.3858   14.1448 S   0  0  0  0  0  0  0  0  0  0  0  0
   -3.7407  -39.7258   14.1309 C   0  0  0  0  0  0  0  0  0  0  0  0
   -1.3655  -32.6818   10.6339 O   0  0  0  0  0  0  0  0  0  0  0  0
    1.0108  -34.2055    9.3398 O   0  5  0  0  0  0  0  0  0  0  0  0
   -4.8289  -39.6415   13.3081 N   0  0  0  0  0  0  0  0  0  0  0  0
   -0.3701  -34.9557   11.3389 O   0  0  0  0  0  0  0  0  0  0  0  0
   -0.7466  -35.6875    8.9579 O   0  0  0  0  0  0  0  0  0  0  0  0
   -4.9294  -38.4073   12.7300 C   0  0  1  0  0  0  0  0  0  0  0  0
   -3.8823  -37.6202   13.1387 C   0  0  2  0  0  0  0  0  0  0  0  0
   -3.5188  -36.1980   12.7912 C   0  0  0  0  0  0  0  0  0  0  0  0
   -3.0621  -36.0615   11.3343 C   0  0  0  0  0  0  0  0  0  0  0  0
   -2.8355  -34.7609   10.8224 O   0  0  0  0  0  0  0  0  0  0  0  0
  1 11  1  0  0  0  0
  3 13  1  1  0  0  0
  3 17  2  0  0  0  0
  3 20  1  0  0  0  0
  3 26  1  0  0  0  0
  4 14  1  1  0  0  0
  4 18  1  0  0  0  0
  4 21  2  0  0  0  0
  4 20  1  0  0  0  0
  5 19  1  0  0  0  0
  5  7  1  0  0  0  0
  6  7  2  0  0  0  0
  6 12  1  0  0  0  0
  7  8  1  0  0  0  0
  8  9  1  0  0  0  0
  8 10  2  0  0  0  0
 10 11  1  0  0  0  0
 11 12  2  0  0  0  0
 15 23  1  0  0  0  0
 15 16  1  0  0  0  0
 16 19  1  0  0  0  0
 19 22  1  0  0  0  0
 22  2  1  6  0  0  0
 22 23  1  0  0  0  0
 23 24  1  6  0  0  0
 24 25  1  0  0  0  0
 25 26  1  0  0  0  0
M  CHG  2  13  -1  18  -1
M  END
>  <CHROM.1>
-177.75505672,-69.71462501,112.06747557,-171.78539693,110.42576959,172.89804549
69.50386937,-61.40187993,-2.74665056,-37.92458473,11.60769841,-2.17631826
0.72466622,0.27672458

>  <Name>
ligand

>  <RI>
0

>  <Rbt.Current_Directory>
/home/itssahil/PROJECTS/Mol_Feturizer/New_Systems/rnas/3D2G

>  <Rbt.Executable>
rbdock ($Id: //depot/dev/client3/rdock/2013.1/src/exe/rbdock.cxx#4 $)

>  <Rbt.Library>
libRbt.so (2013.1, Build901 2013/11/27)

>  <Rbt.Parameter_File>
/export/apps/rDock/src/rDock_2013.1_src/data/scripts/dock_solv.prm

>  <Rbt.Receptor>
prm/blind_docking_100.prm

>  <SCORE>
-18.1428

>  <SCORE.INTER>
-17.3641

>  <SCORE.INTER.CONST>
1

>  <SCORE.INTER.POLAR>
0

>  <SCORE.INTER.ROT>
8

>  <SCORE.INTER.SOLV>
17.2782

>  <SCORE.INTER.VDW>
-26.2688

>  <SCORE.INTER.norm>
-0.66785

>  <SCORE.INTRA>
-0.778757

>  <SCORE.INTRA.DIHEDRAL>
-3.39163

>  <SCORE.INTRA.DIHEDRAL.0>
9.09364

>  <SCORE.INTRA.POLAR>
0

>  <SCORE.INTRA.POLAR.0>
0

>  <SCORE.INTRA.REPUL>
0

>  <SCORE.INTRA.REPUL.0>
0

>  <SCORE.INTRA.SOLV>
3.26929

>  <SCORE.INTRA.SOLV.lig_0>
-78.5846

>  <SCORE.INTRA.VDW>
-0.717587

>  <SCORE.INTRA.VDW.0>
-2.81163

>  <SCORE.INTRA.norm>
-0.0299522

>  <SCORE.RESTR>
0

>  <SCORE.RESTR.CAVITY>
0

>  <SCORE.RESTR.norm>
0

>  <SCORE.SYSTEM>
0

>  <SCORE.SYSTEM.CONST>
0

>  <SCORE.SYSTEM.DIHEDRAL>
0

>  <SCORE.SYSTEM.SOLV>
0

>  <SCORE.SYSTEM.norm>
0

>  <SCORE.heavy>
26

>  <SCORE.norm>
-0.697802

>  <RMSD>
10.243

$$$$
ligand
 OpenBabel11021811463D
libRbt.so/2013.1/901 2013/11/27
 26 27  0  0  0  0  0  0  0  0999 V2000
   -0.3255  -33.0023    8.0829 C   0  0  0  0  0  0  0  0  0  0  0  0
   -5.6456  -33.5180   11.8935 C   0  0  0  0  0  0  0  0  0  0  0  0
   -7.6703  -35.4995    7.0343 P   0  0  1  0  0  0  0  0  0  0  0  0
   -6.0530  -36.9587    5.3616 P   0  0  2  0  0  0  0  0  0  0  0  0
   -3.1183  -35.2189   12.5803 C   0  0  0  0  0  0  0  0  0  0  0  0
   -2.5874  -33.2908   11.0526 C   0  0  0  0  0  0  0  0  0  0  0  0
   -2.3987  -34.6341   11.3917 C   0  0  0  0  0  0  0  0  0  0  0  0
   -1.5163  -35.4320   10.6584 C   0  0  0  0  0  0  0  0  0  0  0  0
   -1.3309  -36.6918   10.9927 N   0  0  0  0  0  0  0  0  0  0  0  0
   -0.8657  -34.9045    9.5697 N   0  0  0  0  0  0  0  0  0  0  0  0
   -1.0473  -33.5733    9.2513 C   0  0  0  0  0  0  0  0  0  0  0  0
   -1.9105  -32.7704    9.9730 N   0  0  0  0  0  0  0  0  0  0  0  0
   -8.1130  -34.1403    6.5860 O   0  5  0  0  0  0  0  0  0  0  0  0
   -7.3888  -37.1609    4.7643 O   0  0  0  0  0  0  0  0  0  0  0  0
   -6.0673  -37.3854   11.4659 S   0  0  0  0  0  0  0  0  0  0  0  0
   -4.5950  -37.0789   11.9567 C   0  0  0  0  0  0  0  0  0  0  0  0
   -8.6443  -36.6031    6.8175 O   0  0  0  0  0  0  0  0  0  0  0  0
   -5.6006  -38.1340    6.1300 O   0  5  0  0  0  0  0  0  0  0  0  0
   -4.3837  -35.7416   12.1444 N   0  0  0  0  0  0  0  0  0  0  0  0
   -6.2901  -35.6912    6.2837 O   0  0  0  0  0  0  0  0  0  0  0  0
   -4.9166  -36.6976    4.4270 O   0  0  0  0  0  0  0  0  0  0  0  0
   -5.4922  -35.0070   11.8299 C   0  0  1  0  0  0  0  0  0  0  0  0
   -6.5041  -35.8456   11.4348 C   0  0  2  0  0  0  0  0  0  0  0  0
   -7.9189  -35.5534   11.0008 C   0  0  0  0  0  0  0  0  0  0  0  0
   -8.1497  -35.8976    9.5250 C   0  0  0  0  0  0  0  0  0  0  0  0
   -7.3167  -35.2868    8.5565 O   0  0  0  0  0  0  0  0  0  0  0  0
  1 11  1  0  0  0  0
  3 13  1  6  0  0  0
  3 17  2  0  0  0  0
  3 20  1  0  0  0  0
  3 26  1  0  0  0  0
  4 14  1  6  0  0  0
  4 18  1  0  0  0  0
  4 21  2  0  0  0  0
  4 20  1  0  0  0  0
  5 19  1  0  0  0  0
  5  7  1  0  0  0  0
  6  7  2  0  0  0  0
  6 12  1  0  0  0  0
  7  8  1  0  0  0  0
  8  9  1  0  0  0  0
  8 10  2  0  0  0  0
 10 11  1  0  0  0  0
 11 12  2  0  0  0  0
 15 23  1  0  0  0  0
 15 16  1  0  0  0  0
 16 19  1  0  0  0  0
 19 22  1  0  0  0  0
 22  2  1  1  0  0  0
 22 23  1  0  0  0  0
 23 24  1  1  0  0  0
 24 25  1  0  0  0  0
 25 26  1  0  0  0  0
M  CHG  2  13  -1  18  -1
M  END
>  <CHROM.1>
-124.92338358,102.48743846,89.72339392,35.77869206,-66.99201335,-56.68180498
-172.45137867,111.36882119,-5.16348913,-35.62877811,8.94861195,-0.80403954
-0.28383142,-1.63556958

>  <Name>
ligand

>  <RI>
0

>  <Rbt.Current_Directory>
/home/itssahil/PROJECTS/Mol_Feturizer/New_Systems/rnas/3D2G

>  <Rbt.Executable>
rbdock ($Id: //depot/dev/client3/rdock/2013.1/src/exe/rbdock.cxx#4 $)

>  <Rbt.Library>
libRbt.so (2013.1, Build901 2013/11/27)

>  <Rbt.Parameter_File>
/export/apps/rDock/src/rDock_2013.1_src/data/scripts/dock_solv.prm

>  <Rbt.Receptor>
prm/blind_docking_40.prm

>  <SCORE>
-17.9103

>  <SCORE.INTER>
-18.3336

>  <SCORE.INTER.CONST>
1

>  <SCORE.INTER.POLAR>
0

>  <SCORE.INTER.ROT>
8

>  <SCORE.INTER.SOLV>
33.9417

>  <SCORE.INTER.VDW>
-32.4696

>  <SCORE.INTER.norm>
-0.705137

>  <SCORE.INTRA>
0.389305

>  <SCORE.INTRA.DIHEDRAL>
1.56277

>  <SCORE.INTRA.DIHEDRAL.0>
9.09364

>  <SCORE.INTRA.POLAR>
0

>  <SCORE.INTRA.POLAR.0>
0

>  <SCORE.INTRA.REPUL>
0

>  <SCORE.INTRA.REPUL.0>
0

>  <SCORE.INTRA.SOLV>
-2.16803

>  <SCORE.INTRA.SOLV.lig_0>
-78.5846

>  <SCORE.INTRA.VDW>
0.691934

>  <SCORE.INTRA.VDW.0>
-2.81163

>  <SCORE.INTRA.norm>
0.0149733

>  <SCORE.RESTR>
0.0339531

>  <SCORE.RESTR.CAVITY>
0.0339531

>  <SCORE.RESTR.norm>
0.00130589

>  <SCORE.SYSTEM>
0

>  <SCORE.SYSTEM.CONST>
0

>  <SCORE.SYSTEM.DIHEDRAL>
0

>  <SCORE.SYSTEM.SOLV>
0

>  <SCORE.SYSTEM.norm>
0

>  <SCORE.heavy>
26

>  <SCORE.norm>
-0.688858

>  <RMSD>
10.269

$$$$
ligand
 OpenBabel11021811463D
libRbt.so/2013.1/901 2013/11/27
 26 27  0  0  0  0  0  0  0  0999 V2000
   -6.9183  -43.4206    9.7745 C   0  0  0  0  0  0  0  0  0  0  0  0
   -2.5947  -36.3590   11.5955 C   0  0  0  0  0  0  0  0  0  0  0  0
    3.5791  -36.8557    8.4115 P   0  0  1  0  0  0  0  0  0  0  0  0
    5.7976  -35.9635    7.0604 P   0  0  2  0  0  0  0  0  0  0  0  0
   -3.7752  -39.2091   12.0817 C   0  0  0  0  0  0  0  0  0  0  0  0
   -5.0084  -40.2204   10.1350 C   0  0  0  0  0  0  0  0  0  0  0  0
   -4.6128  -40.3049   11.4734 C   0  0  0  0  0  0  0  0  0  0  0  0
   -4.9563  -41.4190   12.2441 C   0  0  0  0  0  0  0  0  0  0  0  0
   -4.5671  -41.4999   13.4991 N   0  0  0  0  0  0  0  0  0  0  0  0
   -5.7266  -42.4151   11.6954 N   0  0  0  0  0  0  0  0  0  0  0  0
   -6.1003  -42.3298   10.3689 C   0  0  0  0  0  0  0  0  0  0  0  0
   -5.7604  -41.2378    9.5927 N   0  0  0  0  0  0  0  0  0  0  0  0
    3.3511  -38.0857    7.5870 O   0  5  0  0  0  0  0  0  0  0  0  0
    5.9403  -35.0367    5.9191 O   0  0  0  0  0  0  0  0  0  0  0  0
   -0.9115  -39.2371    9.5459 S   0  0  0  0  0  0  0  0  0  0  0  0
   -2.0576  -39.8494   10.4480 C   0  0  0  0  0  0  0  0  0  0  0  0
    4.3509  -37.0513    9.6683 O   0  0  0  0  0  0  0  0  0  0  0  0
    6.2041  -37.3395    6.7173 O   0  5  0  0  0  0  0  0  0  0  0  0
   -2.7020  -38.8920   11.1805 N   0  0  0  0  0  0  0  0  0  0  0  0
    4.2494  -35.8559    7.3837 O   0  0  0  0  0  0  0  0  0  0  0  0
    6.5921  -35.6642    8.2901 O   0  0  0  0  0  0  0  0  0  0  0  0
   -2.1695  -37.6515   10.9683 C   0  0  1  0  0  0  0  0  0  0  0  0
   -1.1481  -37.7382   10.0559 C   0  0  2  0  0  0  0  0  0  0  0  0
   -0.2512  -36.6759    9.4706 C   0  0  0  0  0  0  0  0  0  0  0  0
    1.1850  -37.1772    9.2815 C   0  0  0  0  0  0  0  0  0  0  0  0
    2.1217  -36.3104    8.6681 O   0  0  0  0  0  0  0  0  0  0  0  0
  1 11  1  0  0  0  0
  3 13  1  6  0  0  0
  3 17  2  0  0  0  0
  3 20  1  0  0  0  0
  3 26  1  0  0  0  0
  4 14  1  6  0  0  0
  4 18  1  0  0  0  0
  4 21  2  0  0  0  0
  4 20  1  0  0  0  0
  5 19  1  0  0  0  0
  5  7  1  0  0  0  0
  6  7  2  0  0  0  0
  6 12  1  0  0  0  0
  7  8  1  0  0  0  0
  8  9  1  0  0  0  0
  8 10  2  0  0  0  0
 10 11  1  0  0  0  0
 11 12  2  0  0  0  0
 15 23  1  0  0  0  0
 15 16  1  0  0  0  0
 16 19  1  0  0  0  0
 19 22  1  0  0  0  0
 22  2  1  6  0  0  0
 22 23  1  0  0  0  0
 23 24  1  6  0  0  0
 24 25  1  0  0  0  0
 25 26  1  0  0  0  0
M  CHG  2  13  -1  18  -1
M  END
>  <CHROM.1>
-80.92083430,-37.45726879,-46.60449660,170.57388577,-38.16708766,176.42147104
-177.05546830,56.45795541,0.06608441,-38.34747583,9.46730182,-3.01924995
0.52543171,0.69067170

>  <Name>
ligand

>  <RI>
0

>  <Rbt.Current_Directory>
/home/itssahil/PROJECTS/Mol_Feturizer/New_Systems/rnas/3D2G

>  <Rbt.Executable>
rbdock ($Id: //depot/dev/client3/rdock/2013.1/src/exe/rbdock.cxx#4 $)

>  <Rbt.Library>
libRbt.so (2013.1, Build901 2013/11/27)

>  <Rbt.Parameter_File>
/export/apps/rDock/src/rDock_2013.1_src/data/scripts/dock_solv.prm

>  <Rbt.Receptor>
prm/blind_docking_100.prm

>  <SCORE>
-13.9391

>  <SCORE.INTER>
-13.6706

>  <SCORE.INTER.CONST>
1

>  <SCORE.INTER.POLAR>
0

>  <SCORE.INTER.ROT>
8

>  <SCORE.INTER.SOLV>
21.1955

>  <SCORE.INTER.VDW>
-25.1122

>  <SCORE.INTER.norm>
-0.525791

>  <SCORE.INTRA>
-0.268542

>  <SCORE.INTRA.DIHEDRAL>
-3.40104

>  <SCORE.INTRA.DIHEDRAL.0>
9.09364

>  <SCORE.INTRA.POLAR>
0

>  <SCORE.INTRA.POLAR.0>
0

>  <SCORE.INTRA.REPUL>
0

>  <SCORE.INTRA.REPUL.0>
0

>  <SCORE.INTRA.SOLV>
-0.369018

>  <SCORE.INTRA.SOLV.lig_0>
-78.5846

>  <SCORE.INTRA.VDW>
1.61649

>  <SCORE.INTRA.VDW.0>
-2.81163

>  <SCORE.INTRA.norm>
-0.0103285

>  <SCORE.RESTR>
0

>  <SCORE.RESTR.CAVITY>
0

>  <SCORE.RESTR.norm>
0

>  <SCORE.SYSTEM>
0

>  <SCORE.SYSTEM.CONST>
0

>  <SCORE.SYSTEM.DIHEDRAL>
0

>  <SCORE.SYSTEM.SOLV>
0

>  <SCORE.SYSTEM.norm>
0

>  <SCORE.heavy>
26

>  <SCORE.norm>
-0.53612

>  <RMSD>
10.277

$$$$
ligand
 OpenBabel11021811463D
libRbt.so/2013.1/901 2013/11/27
 26 27  0  0  0  0  0  0  0  0999 V2000
   -0.3389  -32.8709    8.0596 C   0  0  0  0  0  0  0  0  0  0  0  0
   -5.6806  -33.3663   11.7647 C   0  0  0  0  0  0  0  0  0  0  0  0
   -7.7036  -35.7013    6.9982 P   0  0  1  0  0  0  0  0  0  0  0  0
   -6.3119  -37.4031    5.3520 P   0  0  2  0  0  0  0  0  0  0  0  0
   -3.1273  -34.9436   12.6278 C   0  0  0  0  0  0  0  0  0  0  0  0
   -2.5883  -33.0613   11.0467 C   0  0  0  0  0  0  0  0  0  0  0  0
   -2.4089  -34.3966   11.4206 C   0  0  0  0  0  0  0  0  0  0  0  0
   -1.5367  -35.2211   10.7047 C   0  0  0  0  0  0  0  0  0  0  0  0
   -1.3600  -36.4730   11.0716 N   0  0  0  0  0  0  0  0  0  0  0  0
   -0.8872  -34.7283    9.5992 N   0  0  0  0  0  0  0  0  0  0  0  0
   -1.0595  -33.4046    9.2462 C   0  0  0  0  0  0  0  0  0  0  0  0
   -1.9125  -32.5756    9.9503 N   0  0  0  0  0  0  0  0  0  0  0  0
   -7.3472  -34.5029    6.1728 O   0  5  0  0  0  0  0  0  0  0  0  0
   -5.5030  -38.5854    5.7121 O   0  0  0  0  0  0  0  0  0  0  0  0
   -5.9906  -37.2645   11.6049 S   0  0  0  0  0  0  0  0  0  0  0  0
   -4.5393  -36.8833   12.1055 C   0  0  0  0  0  0  0  0  0  0  0  0
   -9.0368  -36.3029    6.7262 O   0  0  0  0  0  0  0  0  0  0  0  0
   -5.6380  -36.5464    4.3579 O   0  5  0  0  0  0  0  0  0  0  0  0
   -4.3676  -35.5307   12.2020 N   0  0  0  0  0  0  0  0  0  0  0  0
   -6.4842  -36.6799    6.7521 O   0  0  0  0  0  0  0  0  0  0  0  0
   -7.6539  -37.6504    4.7430 O   0  0  0  0  0  0  0  0  0  0  0  0
   -5.4869  -34.8513   11.8110 C   0  0  1  0  0  0  0  0  0  0  0  0
   -6.4666  -35.7435   11.4541 C   0  0  2  0  0  0  0  0  0  0  0  0
   -7.8776  -35.5221   10.9686 C   0  0  0  0  0  0  0  0  0  0  0  0
   -8.0682  -35.9941    9.5227 C   0  0  0  0  0  0  0  0  0  0  0  0
   -7.5583  -35.1825    8.4804 O   0  0  0  0  0  0  0  0  0  0  0  0
  1 11  1  0  0  0  0
  3 13  1  6  0  0  0
  3 17  2  0  0  0  0
  3 20  1  0  0  0  0
  3 26  1  0  0  0  0
  4 14  1  1  0  0  0
  4 18  1  0  0  0  0
  4 21  2  0  0  0  0
  4 20  1  0  0  0  0
  5 19  1  0  0  0  0
  5  7  1  0  0  0  0
  6  7  2  0  0  0  0
  6 12  1  0  0  0  0
  7  8  1  0  0  0  0
  8  9  1  0  0  0  0
  8 10  2  0  0  0  0
 10 11  1  0  0  0  0
 11 12  2  0  0  0  0
 15 23  1  0  0  0  0
 15 16  1  0  0  0  0
 16 19  1  0  0  0  0
 19 22  1  0  0  0  0
 22  2  1  1  0  0  0
 22 23  1  0  0  0  0
 23 24  1  1  0  0  0
 24 25  1  0  0  0  0
 25 26  1  0  0  0  0
M  CHG  2  13  -1  18  -1
M  END
>  <CHROM.1>
-71.93708291,103.75802019,92.74213898,-156.26232700,-66.20202305,-76.32747706
177.49815176,168.20857133,-5.21321636,-35.65243692,8.93804413,-0.81743243
-0.33486594,-1.68611063

>  <Name>
ligand

>  <RI>
0

>  <Rbt.Current_Directory>
/home/itssahil/PROJECTS/Mol_Feturizer/New_Systems/rnas/3D2G

>  <Rbt.Executable>
rbdock ($Id: //depot/dev/client3/rdock/2013.1/src/exe/rbdock.cxx#4 $)

>  <Rbt.Library>
libRbt.so (2013.1, Build901 2013/11/27)

>  <Rbt.Parameter_File>
/export/apps/rDock/src/rDock_2013.1_src/data/scripts/dock_solv.prm

>  <Rbt.Receptor>
prm/blind_docking_40.prm

>  <SCORE>
-20.5132

>  <SCORE.INTER>
-19.6713

>  <SCORE.INTER.CONST>
1

>  <SCORE.INTER.POLAR>
0

>  <SCORE.INTER.ROT>
8

>  <SCORE.INTER.SOLV>
29.1156

>  <SCORE.INTER.VDW>
-31.7527

>  <SCORE.INTER.norm>
-0.756588

>  <SCORE.INTRA>
-1.2872

>  <SCORE.INTRA.DIHEDRAL>
-1.42219

>  <SCORE.INTRA.DIHEDRAL.0>
9.09364

>  <SCORE.INTRA.POLAR>
0

>  <SCORE.INTRA.POLAR.0>
0

>  <SCORE.INTRA.REPUL>
0

>  <SCORE.INTRA.REPUL.0>
0

>  <SCORE.INTRA.SOLV>
0.305959

>  <SCORE.INTRA.SOLV.lig_0>
-78.5846

>  <SCORE.INTRA.VDW>
-0.729084

>  <SCORE.INTRA.VDW.0>
-2.81163

>  <SCORE.INTRA.norm>
-0.0495077

>  <SCORE.RESTR>
0.44529

>  <SCORE.RESTR.CAVITY>
0.44529

>  <SCORE.RESTR.norm>
0.0171265

>  <SCORE.SYSTEM>
0

>  <SCORE.SYSTEM.CONST>
0

>  <SCORE.SYSTEM.DIHEDRAL>
0

>  <SCORE.SYSTEM.SOLV>
0

>  <SCORE.SYSTEM.norm>
0

>  <SCORE.heavy>
26

>  <SCORE.norm>
-0.788969

>  <RMSD>
10.288

$$$$
ligand
 OpenBabel11021811463D
libRbt.so/2013.1/901 2013/11/27
 26 27  0  0  0  0  0  0  0  0999 V2000
    0.6246  -40.3087    7.4802 C   0  0  0  0  0  0  0  0  0  0  0  0
   -5.3079  -39.1700   10.6381 C   0  0  0  0  0  0  0  0  0  0  0  0
   -2.7322  -33.6849   11.6768 P   0  0  1  0  0  0  0  0  0  0  0  0
   -0.3072  -34.9702   11.7779 P   0  0  2  0  0  0  0  0  0  0  0  0
   -3.0213  -40.9020   11.8728 C   0  0  0  0  0  0  0  0  0  0  0  0
   -1.4564  -39.5013   10.4863 C   0  0  0  0  0  0  0  0  0  0  0  0
   -2.0736  -40.7354   10.7124 C   0  0  0  0  0  0  0  0  0  0  0  0
   -1.7889  -41.8302    9.8916 C   0  0  0  0  0  0  0  0  0  0  0  0
   -2.3611  -42.9936   10.1196 N   0  0  0  0  0  0  0  0  0  0  0  0
   -0.9324  -41.6795    8.8284 N   0  0  0  0  0  0  0  0  0  0  0  0
   -0.3168  -40.4610    8.6216 C   0  0  0  0  0  0  0  0  0  0  0  0
   -0.5825  -39.3722    9.4306 N   0  0  0  0  0  0  0  0  0  0  0  0
   -3.2707  -32.4656   12.3608 O   0  5  0  0  0  0  0  0  0  0  0  0
    0.9565  -34.6407   12.4680 O   0  0  0  0  0  0  0  0  0  0  0  0
   -3.4762  -37.5768   13.7079 S   0  0  0  0  0  0  0  0  0  0  0  0
   -2.8412  -38.9942   13.4080 C   0  0  0  0  0  0  0  0  0  0  0  0
   -2.8358  -33.6950   10.1927 O   0  0  0  0  0  0  0  0  0  0  0  0
   -0.1441  -35.0336   10.3131 O   0  5  0  0  0  0  0  0  0  0  0  0
   -3.4248  -39.6015   12.3315 N   0  0  0  0  0  0  0  0  0  0  0  0
   -1.2514  -33.7789   12.2277 O   0  0  0  0  0  0  0  0  0  0  0  0
   -0.9499  -36.2773   12.1116 O   0  0  0  0  0  0  0  0  0  0  0  0
   -4.4309  -38.8398   11.8071 C   0  0  1  0  0  0  0  0  0  0  0  0
   -4.5404  -37.6697   12.5156 C   0  0  2  0  0  0  0  0  0  0  0  0
   -5.4684  -36.4927   12.3451 C   0  0  0  0  0  0  0  0  0  0  0  0
   -4.7478  -35.2732   11.7592 C   0  0  0  0  0  0  0  0  0  0  0  0
   -3.5282  -34.8667   12.3529 O   0  0  0  0  0  0  0  0  0  0  0  0
  1 11  1  0  0  0  0
  3 13  1  1  0  0  0
  3 17  2  0  0  0  0
  3 20  1  0  0  0  0
  3 26  1  0  0  0  0
  4 14  1  1  0  0  0
  4 18  1  0  0  0  0
  4 21  2  0  0  0  0
  4 20  1  0  0  0  0
  5 19  1  0  0  0  0
  5  7  1  0  0  0  0
  6  7  2  0  0  0  0
  6 12  1  0  0  0  0
  7  8  1  0  0  0  0
  8  9  1  0  0  0  0
  8 10  2  0  0  0  0
 10 11  1  0  0  0  0
 11 12  2  0  0  0  0
 15 23  1  0  0  0  0
 15 16  1  0  0  0  0
 16 19  1  0  0  0  0
 19 22  1  0  0  0  0
 22  2  1  6  0  0  0
 22 23  1  0  0  0  0
 23 24  1  6  0  0  0
 24 25  1  0  0  0  0
 25 26  1  0  0  0  0
M  CHG  2  13  -1  18  -1
M  END
>  <CHROM.1>
178.63030941,-98.38130102,16.99283962,177.85375654,73.03893395,-49.50133696
175.18829724,90.40790371,-2.27104613,-37.27395024,11.37042678,-1.49462258
0.51237753,0.24684351

>  <Name>
ligand

>  <RI>
0

>  <Rbt.Current_Directory>
/home/itssahil/PROJECTS/Mol_Feturizer/New_Systems/rnas/3D2G

>  <Rbt.Executable>
rbdock ($Id: //depot/dev/client3/rdock/2013.1/src/exe/rbdock.cxx#4 $)

>  <Rbt.Library>
libRbt.so (2013.1, Build901 2013/11/27)

>  <Rbt.Parameter_File>
/export/apps/rDock/src/rDock_2013.1_src/data/scripts/dock_solv.prm

>  <Rbt.Receptor>
prm/blind_docking_100.prm

>  <SCORE>
-17.3353

>  <SCORE.INTER>
-14.555

>  <SCORE.INTER.CONST>
1

>  <SCORE.INTER.POLAR>
0

>  <SCORE.INTER.ROT>
8

>  <SCORE.INTER.SOLV>
14.6902

>  <SCORE.INTER.VDW>
-23.5334

>  <SCORE.INTER.norm>
-0.559809

>  <SCORE.INTRA>
-3.35449

>  <SCORE.INTRA.DIHEDRAL>
-2.54947

>  <SCORE.INTRA.DIHEDRAL.0>
9.09364

>  <SCORE.INTRA.POLAR>
0

>  <SCORE.INTRA.POLAR.0>
0

>  <SCORE.INTRA.REPUL>
0

>  <SCORE.INTRA.REPUL.0>
0

>  <SCORE.INTRA.SOLV>
-0.596978

>  <SCORE.INTRA.SOLV.lig_0>
-78.5846

>  <SCORE.INTRA.VDW>
-1.78127

>  <SCORE.INTRA.VDW.0>
-2.81163

>  <SCORE.INTRA.norm>
-0.129019

>  <SCORE.RESTR>
0.574229

>  <SCORE.RESTR.CAVITY>
0.574229

>  <SCORE.RESTR.norm>
0.0220857

>  <SCORE.SYSTEM>
0

>  <SCORE.SYSTEM.CONST>
0

>  <SCORE.SYSTEM.DIHEDRAL>
0

>  <SCORE.SYSTEM.SOLV>
0

>  <SCORE.SYSTEM.norm>
0

>  <SCORE.heavy>
26

>  <SCORE.norm>
-0.666742

>  <RMSD>
10.300

$$$$
ligand
 OpenBabel11021811463D
libRbt.so/2013.1/901 2013/11/27
 26 27  0  0  0  0  0  0  0  0999 V2000
   -9.7224  -35.4746   11.8207 C   0  0  0  0  0  0  0  0  0  0  0  0
   -1.9793  -36.0427   11.1141 C   0  0  0  0  0  0  0  0  0  0  0  0
    1.0035  -36.1593    9.4092 P   0  0  1  0  0  0  0  0  0  0  0  0
    3.1639  -37.0038    7.9387 P   0  0  2  0  0  0  0  0  0  0  0  0
   -4.1477  -34.9699   13.0888 C   0  0  0  0  0  0  0  0  0  0  0  0
   -6.0920  -36.3040   12.2095 C   0  0  0  0  0  0  0  0  0  0  0  0
   -5.6082  -35.1044   12.7403 C   0  0  0  0  0  0  0  0  0  0  0  0
   -6.4772  -34.0380   12.9869 C   0  0  0  0  0  0  0  0  0  0  0  0
   -6.0181  -32.9168   13.5018 N   0  0  0  0  0  0  0  0  0  0  0  0
   -7.8069  -34.1543   12.6626 N   0  0  0  0  0  0  0  0  0  0  0  0
   -8.2781  -35.3477   12.1523 C   0  0  0  0  0  0  0  0  0  0  0  0
   -7.4314  -36.4133   11.9113 N   0  0  0  0  0  0  0  0  0  0  0  0
    0.1024  -35.9510    8.2306 O   0  5  0  0  0  0  0  0  0  0  0  0
    2.0758  -37.4496    7.0447 O   0  0  0  0  0  0  0  0  0  0  0  0
   -2.9473  -32.2792   10.6494 S   0  0  0  0  0  0  0  0  0  0  0  0
   -3.7986  -32.8873   11.8360 C   0  0  0  0  0  0  0  0  0  0  0  0
    0.8639  -37.4644   10.1096 O   0  0  0  0  0  0  0  0  0  0  0  0
    3.6957  -38.1048    8.7641 O   0  5  0  0  0  0  0  0  0  0  0  0
   -3.4963  -34.2004   12.0651 N   0  0  0  0  0  0  0  0  0  0  0  0
    2.4436  -35.8920    8.8093 O   0  0  0  0  0  0  0  0  0  0  0  0
    4.3859  -36.4301    7.2978 O   0  0  0  0  0  0  0  0  0  0  0  0
   -2.5553  -34.6616   11.1881 C   0  0  1  0  0  0  0  0  0  0  0  0
   -2.1768  -33.6486   10.3433 C   0  0  2  0  0  0  0  0  0  0  0  0
   -1.1742  -33.6223    9.2164 C   0  0  0  0  0  0  0  0  0  0  0  0
    0.2675  -33.7204    9.7279 C   0  0  0  0  0  0  0  0  0  0  0  0
    0.6801  -34.9284   10.3406 O   0  0  0  0  0  0  0  0  0  0  0  0
  1 11  1  0  0  0  0
  3 13  1  6  0  0  0
  3 17  2  0  0  0  0
  3 20  1  0  0  0  0
  3 26  1  0  0  0  0
  4 14  1  6  0  0  0
  4 18  1  0  0  0  0
  4 21  2  0  0  0  0
  4 20  1  0  0  0  0
  5 19  1  0  0  0  0
  5  7  1  0  0  0  0
  6  7  2  0  0  0  0
  6 12  1  0  0  0  0
  7  8  1  0  0  0  0
  8  9  1  0  0  0  0
  8 10  2  0  0  0  0
 10 11  1  0  0  0  0
 11 12  2  0  0  0  0
 15 23  1  0  0  0  0
 15 16  1  0  0  0  0
 16 19  1  0  0  0  0
 19 22  1  0  0  0  0
 22  2  1  1  0  0  0
 22 23  1  0  0  0  0
 23 24  1  1  0  0  0
 24 25  1  0  0  0  0
 25 26  1  0  0  0  0
M  CHG  2  13  -1  18  -1
M  END
>  <CHROM.1>
-78.01577686,64.91871363,103.03255760,45.03227007,109.43172060,66.81368447
76.86347290,-29.95232829,-1.79603882,-35.25540050,10.39336142,2.87206143
0.36923609,0.17015075

>  <Name>
ligand

>  <RI>
0

>  <Rbt.Current_Directory>
/home/itssahil/PROJECTS/Mol_Feturizer/New_Systems/rnas/3D2G

>  <Rbt.Executable>
rbdock ($Id: //depot/dev/client3/rdock/2013.1/src/exe/rbdock.cxx#4 $)

>  <Rbt.Library>
libRbt.so (2013.1, Build901 2013/11/27)

>  <Rbt.Parameter_File>
/export/apps/rDock/src/rDock_2013.1_src/data/scripts/dock_solv.prm

>  <Rbt.Receptor>
prm/blind_docking_40.prm

>  <SCORE>
-16.1005

>  <SCORE.INTER>
-16.854

>  <SCORE.INTER.CONST>
1

>  <SCORE.INTER.POLAR>
0

>  <SCORE.INTER.ROT>
8

>  <SCORE.INTER.SOLV>
23.8183

>  <SCORE.INTER.VDW>
-28.1088

>  <SCORE.INTER.norm>
-0.648232

>  <SCORE.INTRA>
0.748279

>  <SCORE.INTRA.DIHEDRAL>
-1.57584

>  <SCORE.INTRA.DIHEDRAL.0>
9.09364

>  <SCORE.INTRA.POLAR>
0

>  <SCORE.INTRA.POLAR.0>
0

>  <SCORE.INTRA.REPUL>
0

>  <SCORE.INTRA.REPUL.0>
0

>  <SCORE.INTRA.SOLV>
1.60455

>  <SCORE.INTRA.SOLV.lig_0>
-78.5846

>  <SCORE.INTRA.VDW>
0.733923

>  <SCORE.INTRA.VDW.0>
-2.81163

>  <SCORE.INTRA.norm>
0.02878

>  <SCORE.RESTR>
0.00524262

>  <SCORE.RESTR.CAVITY>
0.00524262

>  <SCORE.RESTR.norm>
0.000201639

>  <SCORE.SYSTEM>
0

>  <SCORE.SYSTEM.CONST>
0

>  <SCORE.SYSTEM.DIHEDRAL>
0

>  <SCORE.SYSTEM.SOLV>
0

>  <SCORE.SYSTEM.norm>
0

>  <SCORE.heavy>
26

>  <SCORE.norm>
-0.619251

>  <RMSD>
10.310

$$$$
ligand
 OpenBabel11021811463D
libRbt.so/2013.1/901 2013/11/27
 26 27  0  0  0  0  0  0  0  0999 V2000
   -0.5703  -43.3040    9.4988 C   0  0  0  0  0  0  0  0  0  0  0  0
   -5.7998  -38.0443   11.5195 C   0  0  0  0  0  0  0  0  0  0  0  0
   -1.6800  -34.3105   11.3901 P   0  0  1  0  0  0  0  0  0  0  0  0
    0.3106  -36.1402   10.9079 P   0  0  2  0  0  0  0  0  0  0  0  0
   -4.6903  -40.7631   12.5825 C   0  0  0  0  0  0  0  0  0  0  0  0
   -2.4659  -40.6995   11.4073 C   0  0  0  0  0  0  0  0  0  0  0  0
   -3.6108  -41.4201   11.7606 C   0  0  0  0  0  0  0  0  0  0  0  0
   -3.7461  -42.7606   11.3894 C   0  0  0  0  0  0  0  0  0  0  0  0
   -4.8193  -43.4381   11.7389 N   0  0  0  0  0  0  0  0  0  0  0  0
   -2.7682  -43.3597   10.6332 N   0  0  0  0  0  0  0  0  0  0  0  0
   -1.6347  -42.6445   10.3014 C   0  0  0  0  0  0  0  0  0  0  0  0
   -1.4840  -41.3206   10.6691 N   0  0  0  0  0  0  0  0  0  0  0  0
   -1.3891  -34.6622   12.8170 O   0  5  0  0  0  0  0  0  0  0  0  0
    0.9503  -35.9417   12.2245 O   0  0  0  0  0  0  0  0  0  0  0  0
   -2.9582  -37.7581   14.1956 S   0  0  0  0  0  0  0  0  0  0  0  0
   -3.2620  -39.2874   13.9283 C   0  0  0  0  0  0  0  0  0  0  0  0
   -2.1130  -32.9087   11.1430 O   0  0  0  0  0  0  0  0  0  0  0  0
    1.2843  -36.5108    9.8635 O   0  5  0  0  0  0  0  0  0  0  0  0
   -4.2370  -39.4608   12.9862 N   0  0  0  0  0  0  0  0  0  0  0  0
   -0.3477  -34.7229   10.6417 O   0  0  0  0  0  0  0  0  0  0  0  0
   -0.7302  -37.2076   10.8054 O   0  0  0  0  0  0  0  0  0  0  0  0
   -4.7225  -38.2649   12.5372 C   0  0  1  0  0  0  0  0  0  0  0  0
   -4.0621  -37.2360   13.1603 C   0  0  2  0  0  0  0  0  0  0  0  0
   -4.2018  -35.7407   13.0188 C   0  0  0  0  0  0  0  0  0  0  0  0
   -4.0491  -35.2848   11.5632 C   0  0  0  0  0  0  0  0  0  0  0  0
   -2.7684  -35.3700   10.9655 O   0  0  0  0  0  0  0  0  0  0  0  0
  1 11  1  0  0  0  0
  3 13  1  1  0  0  0
  3 17  2  0  0  0  0
  3 20  1  0  0  0  0
  3 26  1  0  0  0  0
  4 14  1  1  0  0  0
  4 18  1  0  0  0  0
  4 21  2  0  0  0  0
  4 20  1  0  0  0  0
  5 19  1  0  0  0  0
  5  7  1  0  0  0  0
  6  7  2  0  0  0  0
  6 12  1  0  0  0  0
  7  8  1  0  0  0  0
  8  9  1  0  0  0  0
  8 10  2  0  0  0  0
 10 11  1  0  0  0  0
 11 12  2  0  0  0  0
 15 23  1  0  0  0  0
 15 16  1  0  0  0  0
 16 19  1  0  0  0  0
 19 22  1  0  0  0  0
 22  2  1  6  0  0  0
 22 23  1  0  0  0  0
 23 24  1  6  0  0  0
 24 25  1  0  0  0  0
 25 26  1  0  0  0  0
M  CHG  2  13  -1  18  -1
M  END
>  <CHROM.1>
47.93871280,-71.67196790,-6.07251470,-76.50204775,124.92336858,-69.87236751
-74.37091328,67.98827572,-2.30739085,-37.96434173,11.71008289,-1.86701390
0.48428241,0.15715550

>  <Name>
ligand

>  <RI>
0

>  <Rbt.Current_Directory>
/home/itssahil/PROJECTS/Mol_Feturizer/New_Systems/rnas/3D2G

>  <Rbt.Executable>
rbdock ($Id: //depot/dev/client3/rdock/2013.1/src/exe/rbdock.cxx#4 $)

>  <Rbt.Library>
libRbt.so (2013.1, Build901 2013/11/27)

>  <Rbt.Parameter_File>
/export/apps/rDock/src/rDock_2013.1_src/data/scripts/dock_solv.prm

>  <Rbt.Receptor>
prm/blind_docking_80.prm

>  <SCORE>
-18.736

>  <SCORE.INTER>
-16.5519

>  <SCORE.INTER.CONST>
1

>  <SCORE.INTER.POLAR>
0

>  <SCORE.INTER.ROT>
8

>  <SCORE.INTER.SOLV>
14.6861

>  <SCORE.INTER.VDW>
-24.8633

>  <SCORE.INTER.norm>
-0.63661

>  <SCORE.INTRA>
-2.18409

>  <SCORE.INTRA.DIHEDRAL>
-2.62351

>  <SCORE.INTRA.DIHEDRAL.0>
9.09364

>  <SCORE.INTRA.POLAR>
0

>  <SCORE.INTRA.POLAR.0>
0

>  <SCORE.INTRA.REPUL>
0

>  <SCORE.INTRA.REPUL.0>
0

>  <SCORE.INTRA.SOLV>
-0.644757

>  <SCORE.INTRA.SOLV.lig_0>
-78.5846

>  <SCORE.INTRA.VDW>
-0.549955

>  <SCORE.INTRA.VDW.0>
-2.81163

>  <SCORE.INTRA.norm>
-0.0840033

>  <SCORE.RESTR>
0

>  <SCORE.RESTR.CAVITY>
0

>  <SCORE.RESTR.norm>
0

>  <SCORE.SYSTEM>
0

>  <SCORE.SYSTEM.CONST>
0

>  <SCORE.SYSTEM.DIHEDRAL>
0

>  <SCORE.SYSTEM.SOLV>
0

>  <SCORE.SYSTEM.norm>
0

>  <SCORE.heavy>
26

>  <SCORE.norm>
-0.720614

>  <RMSD>
10.313

$$$$
ligand
 OpenBabel11021811463D
libRbt.so/2013.1/901 2013/11/27
 26 27  0  0  0  0  0  0  0  0999 V2000
   -7.6215  -33.3977   11.0585 C   0  0  0  0  0  0  0  0  0  0  0  0
   -0.7523  -34.6515   12.7139 C   0  0  0  0  0  0  0  0  0  0  0  0
    2.4336  -37.8414    7.8876 P   0  0  1  0  0  0  0  0  0  0  0  0
    4.8263  -36.8847    8.8378 P   0  0  2  0  0  0  0  0  0  0  0  0
   -3.2689  -36.4151   13.2699 C   0  0  0  0  0  0  0  0  0  0  0  0
   -4.5025  -34.2452   12.9487 C   0  0  0  0  0  0  0  0  0  0  0  0
   -4.4173  -35.6192   12.7039 C   0  0  0  0  0  0  0  0  0  0  0  0
   -5.3702  -36.2562   11.9043 C   0  0  0  0  0  0  0  0  0  0  0  0
   -5.2752  -37.5472   11.6645 N   0  0  0  0  0  0  0  0  0  0  0  0
   -6.4224  -35.5356   11.3942 N   0  0  0  0  0  0  0  0  0  0  0  0
   -6.4903  -34.1767   11.6293 C   0  0  0  0  0  0  0  0  0  0  0  0
   -5.5501  -33.5322   12.4112 N   0  0  0  0  0  0  0  0  0  0  0  0
    2.8102  -36.9645    6.7327 O   0  5  0  0  0  0  0  0  0  0  0  0
    5.3019  -38.0183    8.0189 O   0  0  0  0  0  0  0  0  0  0  0  0
   -1.1987  -37.7247   10.3320 S   0  0  0  0  0  0  0  0  0  0  0  0
   -2.3887  -37.7035   11.3741 C   0  0  0  0  0  0  0  0  0  0  0  0
    2.5911  -39.3046    7.6692 O   0  0  0  0  0  0  0  0  0  0  0  0
    5.5753  -36.7553   10.1021 O   0  5  0  0  0  0  0  0  0  0  0  0
   -2.3042  -36.6405   12.2292 N   0  0  0  0  0  0  0  0  0  0  0  0
    3.3050  -37.2620    9.0751 O   0  0  0  0  0  0  0  0  0  0  0  0
    4.9202  -35.5191    8.2384 O   0  0  0  0  0  0  0  0  0  0  0  0
   -1.1936  -35.8831   11.9838 C   0  0  1  0  0  0  0  0  0  0  0  0
   -0.4991  -36.4128   10.9254 C   0  0  2  0  0  0  0  0  0  0  0  0
    0.7719  -35.9608   10.2501 C   0  0  0  0  0  0  0  0  0  0  0  0
    0.7078  -36.1368    8.7287 C   0  0  0  0  0  0  0  0  0  0  0  0
    0.9431  -37.4262    8.1931 O   0  0  0  0  0  0  0  0  0  0  0  0
  1 11  1  0  0  0  0
  3 13  1  6  0  0  0
  3 17  2  0  0  0  0
  3 20  1  0  0  0  0
  3 26  1  0  0  0  0
  4 14  1  6  0  0  0
  4 18  1  0  0  0  0
  4 21  2  0  0  0  0
  4 20  1  0  0  0  0
  5 19  1  0  0  0  0
  5  7  1  0  0  0  0
  6  7  2  0  0  0  0
  6 12  1  0  0  0  0
  7  8  1  0  0  0  0
  8  9  1  0  0  0  0
  8 10  2  0  0  0  0
 10 11  1  0  0  0  0
 11 12  2  0  0  0  0
 15 23  1  0  0  0  0
 15 16  1  0  0  0  0
 16 19  1  0  0  0  0
 19 22  1  0  0  0  0
 22  2  1  6  0  0  0
 22 23  1  0  0  0  0
 23 24  1  6  0  0  0
 24 25  1  0  0  0  0
 25 26  1  0  0  0  0
M  CHG  2  13  -1  18  -1
M  END
>  <CHROM.1>
-43.62305057,-86.89306628,-101.31929303,-42.30584146,38.57942645,-80.07674030
-87.09755000,-68.89432514,-0.31054622,-36.48925554,10.18066959,2.72815318
0.11304670,0.80376642

>  <Name>
ligand

>  <RI>
0

>  <Rbt.Current_Directory>
/home/itssahil/PROJECTS/Mol_Feturizer/New_Systems/rnas/3D2G

>  <Rbt.Executable>
rbdock ($Id: //depot/dev/client3/rdock/2013.1/src/exe/rbdock.cxx#4 $)

>  <Rbt.Library>
libRbt.so (2013.1, Build901 2013/11/27)

>  <Rbt.Parameter_File>
/export/apps/rDock/src/rDock_2013.1_src/data/scripts/dock_solv.prm

>  <Rbt.Receptor>
prm/blind_docking_40.prm

>  <SCORE>
-12.933

>  <SCORE.INTER>
-15.741

>  <SCORE.INTER.CONST>
1

>  <SCORE.INTER.POLAR>
0

>  <SCORE.INTER.ROT>
8

>  <SCORE.INTER.SOLV>
28.5303

>  <SCORE.INTER.VDW>
-28.9374

>  <SCORE.INTER.norm>
-0.605422

>  <SCORE.INTRA>
1.64784

>  <SCORE.INTRA.DIHEDRAL>
2.05764

>  <SCORE.INTRA.DIHEDRAL.0>
9.09364

>  <SCORE.INTRA.POLAR>
0

>  <SCORE.INTRA.POLAR.0>
0

>  <SCORE.INTRA.REPUL>
0

>  <SCORE.INTRA.REPUL.0>
0

>  <SCORE.INTRA.SOLV>
-0.159823

>  <SCORE.INTRA.SOLV.lig_0>
-78.5846

>  <SCORE.INTRA.VDW>
0.698931

>  <SCORE.INTRA.VDW.0>
-2.81163

>  <SCORE.INTRA.norm>
0.0633784

>  <SCORE.RESTR>
1.16012

>  <SCORE.RESTR.CAVITY>
1.16012

>  <SCORE.RESTR.norm>
0.0446198

>  <SCORE.SYSTEM>
0

>  <SCORE.SYSTEM.CONST>
0

>  <SCORE.SYSTEM.DIHEDRAL>
0

>  <SCORE.SYSTEM.SOLV>
0

>  <SCORE.SYSTEM.norm>
0

>  <SCORE.heavy>
26

>  <SCORE.norm>
-0.497424

>  <RMSD>
10.342

$$$$
ligand
 OpenBabel11021811463D
libRbt.so/2013.1/901 2013/11/27
 26 27  0  0  0  0  0  0  0  0999 V2000
    0.8673  -37.3635    8.7785 C   0  0  0  0  0  0  0  0  0  0  0  0
   -5.4163  -33.5725   11.9419 C   0  0  0  0  0  0  0  0  0  0  0  0
   -7.7125  -35.4462    7.1283 P   0  0  1  0  0  0  0  0  0  0  0  0
   -6.2658  -37.1288    5.5101 P   0  0  2  0  0  0  0  0  0  0  0  0
   -2.9842  -35.4285   12.5682 C   0  0  0  0  0  0  0  0  0  0  0  0
   -1.6452  -37.3025   11.5538 C   0  0  0  0  0  0  0  0  0  0  0  0
   -1.9630  -35.9412   11.5848 C   0  0  0  0  0  0  0  0  0  0  0  0
   -1.3680  -35.0547   10.6831 C   0  0  0  0  0  0  0  0  0  0  0  0
   -1.6835  -33.7768   10.7069 N   0  0  0  0  0  0  0  0  0  0  0  0
   -0.4308  -35.5171    9.7916 N   0  0  0  0  0  0  0  0  0  0  0  0
   -0.1341  -36.8652    9.7588 C   0  0  0  0  0  0  0  0  0  0  0  0
   -0.7213  -37.7545   10.6391 N   0  0  0  0  0  0  0  0  0  0  0  0
   -8.0030  -34.0046    6.8427 O   0  5  0  0  0  0  0  0  0  0  0  0
   -5.9424  -38.0336    6.6320 O   0  0  0  0  0  0  0  0  0  0  0  0
   -6.0811  -37.4041   11.5014 S   0  0  0  0  0  0  0  0  0  0  0  0
   -4.5835  -37.1910   11.9641 C   0  0  0  0  0  0  0  0  0  0  0  0
   -8.8383  -36.3920    6.9012 O   0  0  0  0  0  0  0  0  0  0  0  0
   -5.2011  -37.1016    4.4892 O   0  5  0  0  0  0  0  0  0  0  0  0
   -4.2875  -35.8703   12.1550 N   0  0  0  0  0  0  0  0  0  0  0  0
   -6.4309  -35.7342    6.2453 O   0  0  0  0  0  0  0  0  0  0  0  0
   -7.4968  -37.4311    4.7186 O   0  0  0  0  0  0  0  0  0  0  0  0
   -5.3552  -35.0676   11.8669 C   0  0  1  0  0  0  0  0  0  0  0  0
   -6.4238  -35.8404   11.4876 C   0  0  2  0  0  0  0  0  0  0  0  0
   -7.8266  -35.4598   11.0838 C   0  0  0  0  0  0  0  0  0  0  0  0
   -8.1296  -35.8419    9.6306 C   0  0  0  0  0  0  0  0  0  0  0  0
   -7.2196  -35.4315    8.6264 O   0  0  0  0  0  0  0  0  0  0  0  0
  1 11  1  0  0  0  0
  3 13  1  6  0  0  0
  3 17  2  0  0  0  0
  3 20  1  0  0  0  0
  3 26  1  0  0  0  0
  4 14  1  1  0  0  0
  4 18  1  0  0  0  0
  4 21  2  0  0  0  0
  4 20  1  0  0  0  0
  5 19  1  0  0  0  0
  5  7  1  0  0  0  0
  6  7  2  0  0  0  0
  6 12  1  0  0  0  0
  7  8  1  0  0  0  0
  8  9  1  0  0  0  0
  8 10  2  0  0  0  0
 10 11  1  0  0  0  0
 11 12  2  0  0  0  0
 15 23  1  0  0  0  0
 15 16  1  0  0  0  0
 16 19  1  0  0  0  0
 19 22  1  0  0  0  0
 22  2  1  1  0  0  0
 22 23  1  0  0  0  0
 23 24  1  1  0  0  0
 24 25  1  0  0  0  0
 25 26  1  0  0  0  0
M  CHG  2  13  -1  18  -1
M  END
>  <CHROM.1>
-142.15334122,56.23435462,-71.47561232,-73.47235734,-64.19876856,-51.19461081
-162.64905502,102.11119966,-5.03459856,-36.15084874,9.09456216,-0.68658245
0.15760866,-1.79776630

>  <Name>
ligand

>  <RI>
0

>  <Rbt.Current_Directory>
/home/itssahil/PROJECTS/Mol_Feturizer/New_Systems/rnas/3D2G

>  <Rbt.Executable>
rbdock ($Id: //depot/dev/client3/rdock/2013.1/src/exe/rbdock.cxx#4 $)

>  <Rbt.Library>
libRbt.so (2013.1, Build901 2013/11/27)

>  <Rbt.Parameter_File>
/export/apps/rDock/src/rDock_2013.1_src/data/scripts/dock_solv.prm

>  <Rbt.Receptor>
prm/blind_docking_40.prm

>  <SCORE>
-19.0149

>  <SCORE.INTER>
-18.8194

>  <SCORE.INTER.CONST>
1

>  <SCORE.INTER.POLAR>
0

>  <SCORE.INTER.ROT>
8

>  <SCORE.INTER.SOLV>
29.9075

>  <SCORE.INTER.VDW>
-31.4488

>  <SCORE.INTER.norm>
-0.723822

>  <SCORE.INTRA>
-0.195736

>  <SCORE.INTRA.DIHEDRAL>
1.47907

>  <SCORE.INTRA.DIHEDRAL.0>
9.09364

>  <SCORE.INTRA.POLAR>
0

>  <SCORE.INTRA.POLAR.0>
0

>  <SCORE.INTRA.REPUL>
0

>  <SCORE.INTRA.REPUL.0>
0

>  <SCORE.INTRA.SOLV>
-1.38383

>  <SCORE.INTRA.SOLV.lig_0>
-78.5846

>  <SCORE.INTRA.VDW>
-0.243359

>  <SCORE.INTRA.VDW.0>
-2.81163

>  <SCORE.INTRA.norm>
-0.00752829

>  <SCORE.RESTR>
0.00025794

>  <SCORE.RESTR.CAVITY>
0.00025794

>  <SCORE.RESTR.norm>
9.92077e-06

>  <SCORE.SYSTEM>
0

>  <SCORE.SYSTEM.CONST>
0

>  <SCORE.SYSTEM.DIHEDRAL>
0

>  <SCORE.SYSTEM.SOLV>
0

>  <SCORE.SYSTEM.norm>
0

>  <SCORE.heavy>
26

>  <SCORE.norm>
-0.73134

>  <RMSD>
10.358

$$$$
ligand
 OpenBabel11021811463D
libRbt.so/2013.1/901 2013/11/27
 26 27  0  0  0  0  0  0  0  0999 V2000
   -3.2141  -45.3899    9.8378 C   0  0  0  0  0  0  0  0  0  0  0  0
   -5.0857  -39.4127   10.7921 C   0  0  0  0  0  0  0  0  0  0  0  0
   -0.5252  -35.2178   11.3066 P   0  0  1  0  0  0  0  0  0  0  0  0
   -0.5005  -33.7369    8.9937 P   0  0  2  0  0  0  0  0  0  0  0  0
   -5.4973  -41.3459   13.2100 C   0  0  0  0  0  0  0  0  0  0  0  0
   -3.5086  -42.6158   12.3351 C   0  0  0  0  0  0  0  0  0  0  0  0
   -4.8894  -42.3968   12.3164 C   0  0  0  0  0  0  0  0  0  0  0  0
   -5.7182  -43.1726   11.5014 C   0  0  0  0  0  0  0  0  0  0  0  0
   -7.0193  -42.9721   11.5003 N   0  0  0  0  0  0  0  0  0  0  0  0
   -5.1666  -44.1251   10.6797 N   0  0  0  0  0  0  0  0  0  0  0  0
   -3.8038  -44.3441   10.7156 C   0  0  0  0  0  0  0  0  0  0  0  0
   -2.9733  -43.5899   11.5231 N   0  0  0  0  0  0  0  0  0  0  0  0
    0.6012  -35.8264   12.0846 O   0  5  0  0  0  0  0  0  0  0  0  0
   -0.5850  -34.9848    8.2081 O   0  0  0  0  0  0  0  0  0  0  0  0
   -3.0997  -38.4814   14.0334 S   0  0  0  0  0  0  0  0  0  0  0  0
   -3.9427  -39.7922   14.3046 C   0  0  0  0  0  0  0  0  0  0  0  0
   -1.6035  -34.5857   12.1134 O   0  0  0  0  0  0  0  0  0  0  0  0
    0.2676  -32.6881    8.2963 O   0  5  0  0  0  0  0  0  0  0  0  0
   -4.6499  -40.1855   13.2031 N   0  0  0  0  0  0  0  0  0  0  0  0
    0.2166  -34.2273   10.3197 O   0  0  0  0  0  0  0  0  0  0  0  0
   -1.7850  -33.0548    9.3371 O   0  0  0  0  0  0  0  0  0  0  0  0
   -4.4711  -39.3262   12.1558 C   0  0  1  0  0  0  0  0  0  0  0  0
   -3.6076  -38.3250   12.5233 C   0  0  2  0  0  0  0  0  0  0  0  0
   -3.0721  -37.1461   11.7492 C   0  0  0  0  0  0  0  0  0  0  0  0
   -1.7393  -37.4669   11.0633 C   0  0  0  0  0  0  0  0  0  0  0  0
   -1.0466  -36.4130   10.4195 O   0  0  0  0  0  0  0  0  0  0  0  0
  1 11  1  0  0  0  0
  3 13  1  1  0  0  0
  3 17  2  0  0  0  0
  3 20  1  0  0  0  0
  3 26  1  0  0  0  0
  4 14  1  6  0  0  0
  4 18  1  0  0  0  0
  4 21  2  0  0  0  0
  4 20  1  0  0  0  0
  5 19  1  0  0  0  0
  5  7  1  0  0  0  0
  6  7  2  0  0  0  0
  6 12  1  0  0  0  0
  7  8  1  0  0  0  0
  8  9  1  0  0  0  0
  8 10  2  0  0  0  0
 10 11  1  0  0  0  0
 11 12  2  0  0  0  0
 15 23  1  0  0  0  0
 15 16  1  0  0  0  0
 16 19  1  0  0  0  0
 19 22  1  0  0  0  0
 22  2  1  6  0  0  0
 22 23  1  0  0  0  0
 23 24  1  6  0  0  0
 24 25  1  0  0  0  0
 25 26  1  0  0  0  0
M  CHG  2  13  -1  18  -1
M  END
>  <CHROM.1>
159.11968619,-111.82959591,41.22148829,-67.06979043,87.09551745,-173.33497681
63.64846756,70.95650732,-2.63131000,-38.29121675,11.27229350,-2.60828608
1.05210104,0.76446548

>  <Name>
ligand

>  <RI>
0

>  <Rbt.Current_Directory>
/home/itssahil/PROJECTS/Mol_Feturizer/New_Systems/rnas/3D2G

>  <Rbt.Executable>
rbdock ($Id: //depot/dev/client3/rdock/2013.1/src/exe/rbdock.cxx#4 $)

>  <Rbt.Library>
libRbt.so (2013.1, Build901 2013/11/27)

>  <Rbt.Parameter_File>
/export/apps/rDock/src/rDock_2013.1_src/data/scripts/dock_solv.prm

>  <Rbt.Receptor>
prm/blind_docking_80.prm

>  <SCORE>
-19.4983

>  <SCORE.INTER>
-16.3098

>  <SCORE.INTER.CONST>
1

>  <SCORE.INTER.POLAR>
0

>  <SCORE.INTER.ROT>
8

>  <SCORE.INTER.SOLV>
23.8282

>  <SCORE.INTER.VDW>
-27.7492

>  <SCORE.INTER.norm>
-0.627299

>  <SCORE.INTRA>
-3.18851

>  <SCORE.INTRA.DIHEDRAL>
-3.51909

>  <SCORE.INTRA.DIHEDRAL.0>
9.09364

>  <SCORE.INTRA.POLAR>
0

>  <SCORE.INTRA.POLAR.0>
0

>  <SCORE.INTRA.REPUL>
0

>  <SCORE.INTRA.REPUL.0>
0

>  <SCORE.INTRA.SOLV>
-1.57402

>  <SCORE.INTRA.SOLV.lig_0>
-78.5846

>  <SCORE.INTRA.VDW>
-0.641954

>  <SCORE.INTRA.VDW.0>
-2.81163

>  <SCORE.INTRA.norm>
-0.122635

>  <SCORE.RESTR>
0

>  <SCORE.RESTR.CAVITY>
0

>  <SCORE.RESTR.norm>
0

>  <SCORE.SYSTEM>
0

>  <SCORE.SYSTEM.CONST>
0

>  <SCORE.SYSTEM.DIHEDRAL>
0

>  <SCORE.SYSTEM.SOLV>
0

>  <SCORE.SYSTEM.norm>
0

>  <SCORE.heavy>
26

>  <SCORE.norm>
-0.749934

>  <RMSD>
10.362

$$$$
ligand
 OpenBabel11021811463D
libRbt.so/2013.1/901 2013/11/27
 26 27  0  0  0  0  0  0  0  0999 V2000
   -9.0336  -35.3668   11.6588 C   0  0  0  0  0  0  0  0  0  0  0  0
   -1.6360  -37.0878   11.6044 C   0  0  0  0  0  0  0  0  0  0  0  0
    2.3261  -37.5130    8.0385 P   0  0  1  0  0  0  0  0  0  0  0  0
    4.9492  -37.0139    8.6809 P   0  0  2  0  0  0  0  0  0  0  0  0
   -3.4561  -34.9298   12.9396 C   0  0  0  0  0  0  0  0  0  0  0  0
   -5.3958  -36.2000   11.9611 C   0  0  0  0  0  0  0  0  0  0  0  0
   -4.9174  -35.0452   12.5876 C   0  0  0  0  0  0  0  0  0  0  0  0
   -5.7923  -34.0092   12.9259 C   0  0  0  0  0  0  0  0  0  0  0  0
   -5.3381  -32.9314   13.5301 N   0  0  0  0  0  0  0  0  0  0  0  0
   -7.1227  -34.1075   12.5989 N   0  0  0  0  0  0  0  0  0  0  0  0
   -7.5885  -35.2577   11.9933 C   0  0  0  0  0  0  0  0  0  0  0  0
   -6.7359  -36.2936   11.6608 N   0  0  0  0  0  0  0  0  0  0  0  0
    2.6948  -37.3015    6.6019 O   0  5  0  0  0  0  0  0  0  0  0  0
    5.2197  -36.8406   10.1226 O   0  0  0  0  0  0  0  0  0  0  0  0
   -1.8238  -33.6623    9.7208 S   0  0  0  0  0  0  0  0  0  0  0  0
   -2.7344  -33.5906   11.0123 C   0  0  0  0  0  0  0  0  0  0  0  0
    1.1833  -38.4330    8.2860 O   0  0  0  0  0  0  0  0  0  0  0  0
    4.6676  -35.7321    8.0070 O   0  5  0  0  0  0  0  0  0  0  0  0
   -2.7009  -34.7533   11.7300 N   0  0  0  0  0  0  0  0  0  0  0  0
    3.6904  -37.9773    8.6928 O   0  0  0  0  0  0  0  0  0  0  0  0
    6.0351  -37.6123    7.8468 O   0  0  0  0  0  0  0  0  0  0  0  0
   -1.9110  -35.6933   11.1304 C   0  0  1  0  0  0  0  0  0  0  0  0
   -1.3653  -35.1734    9.9836 C   0  0  2  0  0  0  0  0  0  0  0  0
   -0.4244  -35.7795    8.9722 C   0  0  0  0  0  0  0  0  0  0  0  0
    1.0118  -35.8625    9.5014 C   0  0  0  0  0  0  0  0  0  0  0  0
    2.0597  -36.0516    8.5681 O   0  0  0  0  0  0  0  0  0  0  0  0
  1 11  1  0  0  0  0
  3 13  1  6  0  0  0
  3 17  2  0  0  0  0
  3 20  1  0  0  0  0
  3 26  1  0  0  0  0
  4 14  1  1  0  0  0
  4 18  1  0  0  0  0
  4 21  2  0  0  0  0
  4 20  1  0  0  0  0
  5 19  1  0  0  0  0
  5  7  1  0  0  0  0
  6  7  2  0  0  0  0
  6 12  1  0  0  0  0
  7  8  1  0  0  0  0
  8  9  1  0  0  0  0
  8 10  2  0  0  0  0
 10 11  1  0  0  0  0
 11 12  2  0  0  0  0
 15 23  1  0  0  0  0
 15 16  1  0  0  0  0
 16 19  1  0  0  0  0
 19 22  1  0  0  0  0
 22  2  1  1  0  0  0
 22 23  1  0  0  0  0
 23 24  1  1  0  0  0
 24 25  1  0  0  0  0
 25 26  1  0  0  0  0
M  CHG  2  13  -1  18  -1
M  END
>  <CHROM.1>
61.47850468,71.55444179,71.74490239,119.92969797,104.55066605,-162.71048912
-80.37991996,143.04570056,-0.68969073,-35.88047847,10.09784264,2.76528242
0.19863037,0.55704965

>  <Name>
ligand

>  <RI>
0

>  <Rbt.Current_Directory>
/home/itssahil/PROJECTS/Mol_Feturizer/New_Systems/rnas/3D2G

>  <Rbt.Executable>
rbdock ($Id: //depot/dev/client3/rdock/2013.1/src/exe/rbdock.cxx#4 $)

>  <Rbt.Library>
libRbt.so (2013.1, Build901 2013/11/27)

>  <Rbt.Parameter_File>
/export/apps/rDock/src/rDock_2013.1_src/data/scripts/dock_solv.prm

>  <Rbt.Receptor>
prm/blind_docking_40.prm

>  <SCORE>
-20.8623

>  <SCORE.INTER>
-21.9642

>  <SCORE.INTER.CONST>
1

>  <SCORE.INTER.POLAR>
0

>  <SCORE.INTER.ROT>
8

>  <SCORE.INTER.SOLV>
22.9214

>  <SCORE.INTER.VDW>
-31.2166

>  <SCORE.INTER.norm>
-0.844775

>  <SCORE.INTRA>
1.07919

>  <SCORE.INTRA.DIHEDRAL>
2.89487

>  <SCORE.INTRA.DIHEDRAL.0>
9.09364

>  <SCORE.INTRA.POLAR>
0

>  <SCORE.INTRA.POLAR.0>
0

>  <SCORE.INTRA.REPUL>
0

>  <SCORE.INTRA.REPUL.0>
0

>  <SCORE.INTRA.SOLV>
0.297203

>  <SCORE.INTRA.SOLV.lig_0>
-78.5846

>  <SCORE.INTRA.VDW>
-0.516843

>  <SCORE.INTRA.VDW.0>
-2.81163

>  <SCORE.INTRA.norm>
0.0415074

>  <SCORE.RESTR>
0.0226337

>  <SCORE.RESTR.CAVITY>
0.0226337

>  <SCORE.RESTR.norm>
0.000870525

>  <SCORE.SYSTEM>
0

>  <SCORE.SYSTEM.CONST>
0

>  <SCORE.SYSTEM.DIHEDRAL>
0

>  <SCORE.SYSTEM.SOLV>
0

>  <SCORE.SYSTEM.norm>
0

>  <SCORE.heavy>
26

>  <SCORE.norm>
-0.802397

>  <RMSD>
10.377

$$$$
ligand
 OpenBabel11021811463D
libRbt.so/2013.1/901 2013/11/27
 26 27  0  0  0  0  0  0  0  0999 V2000
   -6.4119  -46.0219   10.7602 C   0  0  0  0  0  0  0  0  0  0  0  0
   -0.3109  -40.7634    9.3498 C   0  0  0  0  0  0  0  0  0  0  0  0
   -1.0042  -34.9691   11.0644 P   0  0  1  0  0  0  0  0  0  0  0  0
    0.2660  -33.3921    9.2089 P   0  0  2  0  0  0  0  0  0  0  0  0
   -1.5323  -43.0226   11.1264 C   0  0  0  0  0  0  0  0  0  0  0  0
   -3.6092  -43.9818   12.1751 C   0  0  0  0  0  0  0  0  0  0  0  0
   -2.8081  -43.8212   11.0405 C   0  0  0  0  0  0  0  0  0  0  0  0
   -3.2005  -44.3644    9.8142 C   0  0  0  0  0  0  0  0  0  0  0  0
   -2.4497  -44.1960    8.7461 N   0  0  0  0  0  0  0  0  0  0  0  0
   -4.3580  -45.0998    9.7345 N   0  0  0  0  0  0  0  0  0  0  0  0
   -5.1498  -45.2408   10.8568 C   0  0  0  0  0  0  0  0  0  0  0  0
   -4.7781  -44.7017   12.0740 N   0  0  0  0  0  0  0  0  0  0  0  0
   -0.7041  -35.0599   12.5294 O   0  5  0  0  0  0  0  0  0  0  0  0
   -0.7924  -33.9429    8.3380 O   0  0  0  0  0  0  0  0  0  0  0  0
   -2.9820  -39.5811   11.9546 S   0  0  0  0  0  0  0  0  0  0  0  0
   -2.8002  -41.1476   12.0781 C   0  0  0  0  0  0  0  0  0  0  0  0
   -2.4353  -35.1159   10.6852 O   0  0  0  0  0  0  0  0  0  0  0  0
    1.5465  -34.1079    9.0536 O   0  5  0  0  0  0  0  0  0  0  0  0
   -1.8641  -41.6269   11.2050 N   0  0  0  0  0  0  0  0  0  0  0  0
   -0.3595  -33.5834   10.6529 O   0  0  0  0  0  0  0  0  0  0  0  0
    0.6431  -31.9602    9.0077 O   0  0  0  0  0  0  0  0  0  0  0  0
   -1.3453  -40.6315   10.4256 C   0  0  1  0  0  0  0  0  0  0  0  0
   -1.9128  -39.4312   10.7726 C   0  0  2  0  0  0  0  0  0  0  0  0
   -1.6859  -38.0384   10.2394 C   0  0  0  0  0  0  0  0  0  0  0  0
   -0.3703  -37.4366   10.7461 C   0  0  0  0  0  0  0  0  0  0  0  0
   -0.0869  -36.0854   10.4319 O   0  0  0  0  0  0  0  0  0  0  0  0
  1 11  1  0  0  0  0
  3 13  1  1  0  0  0
  3 17  2  0  0  0  0
  3 20  1  0  0  0  0
  3 26  1  0  0  0  0
  4 14  1  6  0  0  0
  4 18  1  0  0  0  0
  4 21  2  0  0  0  0
  4 20  1  0  0  0  0
  5 19  1  0  0  0  0
  5  7  1  0  0  0  0
  6  7  2  0  0  0  0
  6 12  1  0  0  0  0
  7  8  1  0  0  0  0
  8  9  1  0  0  0  0
  8 10  2  0  0  0  0
 10 11  1  0  0  0  0
 11 12  2  0  0  0  0
 15 23  1  0  0  0  0
 15 16  1  0  0  0  0
 16 19  1  0  0  0  0
 19 22  1  0  0  0  0
 22  2  1  1  0  0  0
 22 23  1  0  0  0  0
 23 24  1  1  0  0  0
 24 25  1  0  0  0  0
 25 26  1  0  0  0  0
M  CHG  2  13  -1  18  -1
M  END
>  <CHROM.1>
146.92588924,48.59209292,-73.99477000,47.55219528,103.83391307,-173.99946084
66.40916686,66.36697040,-1.77741798,-38.82174576,10.53618366,2.13558156,-0.87615867
-2.77734025

>  <Name>
ligand

>  <RI>
0

>  <Rbt.Current_Directory>
/home/itssahil/PROJECTS/Mol_Feturizer/New_Systems/rnas/3D2G

>  <Rbt.Executable>
rbdock ($Id: //depot/dev/client3/rdock/2013.1/src/exe/rbdock.cxx#4 $)

>  <Rbt.Library>
libRbt.so (2013.1, Build901 2013/11/27)

>  <Rbt.Parameter_File>
/export/apps/rDock/src/rDock_2013.1_src/data/scripts/dock_solv.prm

>  <Rbt.Receptor>
prm/blind_docking_80.prm

>  <SCORE>
-14.9573

>  <SCORE.INTER>
-12.6545

>  <SCORE.INTER.CONST>
1

>  <SCORE.INTER.POLAR>
0

>  <SCORE.INTER.ROT>
8

>  <SCORE.INTER.SOLV>
16.2794

>  <SCORE.INTER.VDW>
-22.7961

>  <SCORE.INTER.norm>
-0.486711

>  <SCORE.INTRA>
-2.30277

>  <SCORE.INTRA.DIHEDRAL>
-2.88657

>  <SCORE.INTRA.DIHEDRAL.0>
9.09364

>  <SCORE.INTRA.POLAR>
0

>  <SCORE.INTRA.POLAR.0>
0

>  <SCORE.INTRA.REPUL>
0

>  <SCORE.INTRA.REPUL.0>
0

>  <SCORE.INTRA.SOLV>
-1.27945

>  <SCORE.INTRA.SOLV.lig_0>
-78.5846

>  <SCORE.INTRA.VDW>
-0.219761

>  <SCORE.INTRA.VDW.0>
-2.81163

>  <SCORE.INTRA.norm>
-0.0885682

>  <SCORE.RESTR>
0

>  <SCORE.RESTR.CAVITY>
0

>  <SCORE.RESTR.norm>
0

>  <SCORE.SYSTEM>
0

>  <SCORE.SYSTEM.CONST>
0

>  <SCORE.SYSTEM.DIHEDRAL>
0

>  <SCORE.SYSTEM.SOLV>
0

>  <SCORE.SYSTEM.norm>
0

>  <SCORE.heavy>
26

>  <SCORE.norm>
-0.575279

>  <RMSD>
10.391

$$$$
ligand
 OpenBabel11021811463D
libRbt.so/2013.1/901 2013/11/27
 26 27  0  0  0  0  0  0  0  0999 V2000
   -9.5069  -35.4634   11.6533 C   0  0  0  0  0  0  0  0  0  0  0  0
   -1.5525  -36.3235   12.1927 C   0  0  0  0  0  0  0  0  0  0  0  0
    1.5322  -36.8134    8.6836 P   0  0  1  0  0  0  0  0  0  0  0  0
    4.2347  -36.9326    8.2090 P   0  0  2  0  0  0  0  0  0  0  0  0
   -4.0700  -34.9376   13.4150 C   0  0  0  0  0  0  0  0  0  0  0  0
   -5.9217  -36.2777   12.3620 C   0  0  0  0  0  0  0  0  0  0  0  0
   -5.4930  -35.0776   12.9372 C   0  0  0  0  0  0  0  0  0  0  0  0
   -6.3856  -34.0159   13.1083 C   0  0  0  0  0  0  0  0  0  0  0  0
   -5.9796  -32.8943   13.6652 N   0  0  0  0  0  0  0  0  0  0  0  0
   -7.6805  -34.1372   12.6663 N   0  0  0  0  0  0  0  0  0  0  0  0
   -8.0985  -35.3310   12.1128 C   0  0  0  0  0  0  0  0  0  0  0  0
   -7.2286  -36.3920   11.9452 N   0  0  0  0  0  0  0  0  0  0  0  0
    1.0747  -38.2293    8.5091 O   0  5  0  0  0  0  0  0  0  0  0  0
    4.4802  -35.6976    8.9813 O   0  0  0  0  0  0  0  0  0  0  0  0
   -2.5349  -32.9039   10.5621 S   0  0  0  0  0  0  0  0  0  0  0  0
   -3.5656  -33.2403   11.7139 C   0  0  0  0  0  0  0  0  0  0  0  0
    1.8423  -36.3992   10.0785 O   0  0  0  0  0  0  0  0  0  0  0  0
    5.2000  -37.1036    7.1065 O   0  5  0  0  0  0  0  0  0  0  0  0
   -3.2697  -34.4184   12.3406 N   0  0  0  0  0  0  0  0  0  0  0  0
    2.7556  -36.7078    7.6849 O   0  0  0  0  0  0  0  0  0  0  0  0
    4.3175  -38.2299    8.9460 O   0  0  0  0  0  0  0  0  0  0  0  0
   -2.1737  -35.0209   11.7899 C   0  0  1  0  0  0  0  0  0  0  0  0
   -1.6812  -34.2415   10.7735 C   0  0  2  0  0  0  0  0  0  0  0  0
   -0.4947  -34.4368    9.8626 C   0  0  0  0  0  0  0  0  0  0  0  0
   -0.7145  -35.5851    8.8713 C   0  0  0  0  0  0  0  0  0  0  0  0
    0.3659  -35.9688    8.0404 O   0  0  0  0  0  0  0  0  0  0  0  0
  1 11  1  0  0  0  0
  3 13  1  1  0  0  0
  3 17  2  0  0  0  0
  3 20  1  0  0  0  0
  3 26  1  0  0  0  0
  4 14  1  1  0  0  0
  4 18  1  0  0  0  0
  4 21  2  0  0  0  0
  4 20  1  0  0  0  0
  5 19  1  0  0  0  0
  5  7  1  0  0  0  0
  6  7  2  0  0  0  0
  6 12  1  0  0  0  0
  7  8  1  0  0  0  0
  8  9  1  0  0  0  0
  8 10  2  0  0  0  0
 10 11  1  0  0  0  0
 11 12  2  0  0  0  0
 15 23  1  0  0  0  0
 15 16  1  0  0  0  0
 16 19  1  0  0  0  0
 19 22  1  0  0  0  0
 22  2  1  1  0  0  0
 22 23  1  0  0  0  0
 23 24  1  1  0  0  0
 24 25  1  0  0  0  0
 25 26  1  0  0  0  0
M  CHG  2  13  -1  18  -1
M  END
>  <CHROM.1>
-95.17279305,56.51569618,90.86480509,-72.72049671,-110.93746907,-173.95946160
75.78114626,88.79478168,-1.34121126,-35.56594435,10.39624267,2.80501224,0.29641743
0.37237285

>  <Name>
ligand

>  <RI>
0

>  <Rbt.Current_Directory>
/home/itssahil/PROJECTS/Mol_Feturizer/New_Systems/rnas/3D2G

>  <Rbt.Executable>
rbdock ($Id: //depot/dev/client3/rdock/2013.1/src/exe/rbdock.cxx#4 $)

>  <Rbt.Library>
libRbt.so (2013.1, Build901 2013/11/27)

>  <Rbt.Parameter_File>
/export/apps/rDock/src/rDock_2013.1_src/data/scripts/dock_solv.prm

>  <Rbt.Receptor>
prm/blind_docking_40.prm

>  <SCORE>
-14.5072

>  <SCORE.INTER>
-13.4959

>  <SCORE.INTER.CONST>
1

>  <SCORE.INTER.POLAR>
0

>  <SCORE.INTER.ROT>
8

>  <SCORE.INTER.SOLV>
24.3622

>  <SCORE.INTER.VDW>
-26.0514

>  <SCORE.INTER.norm>
-0.519074

>  <SCORE.INTRA>
-1.01699

>  <SCORE.INTRA.DIHEDRAL>
-0.969024

>  <SCORE.INTRA.DIHEDRAL.0>
9.09364

>  <SCORE.INTRA.POLAR>
0

>  <SCORE.INTRA.POLAR.0>
0

>  <SCORE.INTRA.REPUL>
0

>  <SCORE.INTRA.REPUL.0>
0

>  <SCORE.INTRA.SOLV>
0.495219

>  <SCORE.INTRA.SOLV.lig_0>
-78.5846

>  <SCORE.INTRA.VDW>
-0.780091

>  <SCORE.INTRA.VDW.0>
-2.81163

>  <SCORE.INTRA.norm>
-0.0391151

>  <SCORE.RESTR>
0.00569632

>  <SCORE.RESTR.CAVITY>
0.00569632

>  <SCORE.RESTR.norm>
0.000219089

>  <SCORE.SYSTEM>
0

>  <SCORE.SYSTEM.CONST>
0

>  <SCORE.SYSTEM.DIHEDRAL>
0

>  <SCORE.SYSTEM.SOLV>
0

>  <SCORE.SYSTEM.norm>
0

>  <SCORE.heavy>
26

>  <SCORE.norm>
-0.557971

>  <RMSD>
10.398

$$$$
ligand
 OpenBabel11021811463D
libRbt.so/2013.1/901 2013/11/27
 26 27  0  0  0  0  0  0  0  0999 V2000
    0.0298  -41.3679    7.4092 C   0  0  0  0  0  0  0  0  0  0  0  0
    0.5995  -35.7437   12.0260 C   0  0  0  0  0  0  0  0  0  0  0  0
   -3.2605  -37.5137   12.4789 P   0  0  1  0  0  0  0  0  0  0  0  0
   -5.8906  -38.1919   12.0721 P   0  0  2  0  0  0  0  0  0  0  0  0
    1.6860  -36.1479    9.1262 C   0  0  0  0  0  0  0  0  0  0  0  0
    0.1204  -38.1137    9.2588 C   0  0  0  0  0  0  0  0  0  0  0  0
    1.2537  -37.5246    8.6900 C   0  0  0  0  0  0  0  0  0  0  0  0
    1.9695  -38.1877    7.6895 C   0  0  0  0  0  0  0  0  0  0  0  0
    3.0263  -37.6206    7.1467 N   0  0  0  0  0  0  0  0  0  0  0  0
    1.5833  -39.4457    7.2959 N   0  0  0  0  0  0  0  0  0  0  0  0
    0.4546  -40.0133    7.8530 C   0  0  0  0  0  0  0  0  0  0  0  0
   -0.2677  -39.3653    8.8372 N   0  0  0  0  0  0  0  0  0  0  0  0
   -3.1432  -38.2838   13.7586 O   0  5  0  0  0  0  0  0  0  0  0  0
   -7.1450  -37.4702   12.3677 O   0  0  0  0  0  0  0  0  0  0  0  0
   -1.4498  -33.9589    9.2096 S   0  0  0  0  0  0  0  0  0  0  0  0
   -0.2309  -34.7245    8.5534 C   0  0  0  0  0  0  0  0  0  0  0  0
   -2.7812  -38.2118   11.2557 O   0  0  0  0  0  0  0  0  0  0  0  0
   -5.7548  -39.4262   12.8687 O   0  5  0  0  0  0  0  0  0  0  0  0
    0.5201  -35.3877    9.4830 N   0  0  0  0  0  0  0  0  0  0  0  0
   -4.7910  -37.1119   12.4429 O   0  0  0  0  0  0  0  0  0  0  0  0
   -5.6841  -38.6613   10.6685 O   0  0  0  0  0  0  0  0  0  0  0  0
    0.0421  -35.1942   10.7485 C   0  0  1  0  0  0  0  0  0  0  0  0
   -1.0750  -34.3985   10.7026 C   0  0  2  0  0  0  0  0  0  0  0  0
   -1.9803  -33.8994   11.8012 C   0  0  0  0  0  0  0  0  0  0  0  0
   -2.9768  -34.9717   12.2559 C   0  0  0  0  0  0  0  0  0  0  0  0
   -2.4644  -36.1850   12.7757 O   0  0  0  0  0  0  0  0  0  0  0  0
  1 11  1  0  0  0  0
  3 13  1  1  0  0  0
  3 17  2  0  0  0  0
  3 20  1  0  0  0  0
  3 26  1  0  0  0  0
  4 14  1  1  0  0  0
  4 18  1  0  0  0  0
  4 21  2  0  0  0  0
  4 20  1  0  0  0  0
  5 19  1  0  0  0  0
  5  7  1  0  0  0  0
  6  7  2  0  0  0  0
  6 12  1  0  0  0  0
  7  8  1  0  0  0  0
  8  9  1  0  0  0  0
  8 10  2  0  0  0  0
 10 11  1  0  0  0  0
 11 12  2  0  0  0  0
 15 23  1  0  0  0  0
 15 16  1  0  0  0  0
 16 19  1  0  0  0  0
 19 22  1  0  0  0  0
 22  2  1  6  0  0  0
 22 23  1  0  0  0  0
 23 24  1  6  0  0  0
 24 25  1  0  0  0  0
 25 26  1  0  0  0  0
M  CHG  2  13  -1  18  -1
M  END
>  <CHROM.1>
-75.57991628,-84.03073953,-31.82376704,171.29770342,100.33848468,59.82301158
-145.30131886,-141.62963411,-1.85534626,-37.15107740,10.55107518,0.14964786
-0.56207234,-2.81745328

>  <Name>
ligand

>  <RI>
0

>  <Rbt.Current_Directory>
/home/itssahil/PROJECTS/Mol_Feturizer/New_Systems/rnas/3D2G

>  <Rbt.Executable>
rbdock ($Id: //depot/dev/client3/rdock/2013.1/src/exe/rbdock.cxx#4 $)

>  <Rbt.Library>
libRbt.so (2013.1, Build901 2013/11/27)

>  <Rbt.Parameter_File>
/export/apps/rDock/src/rDock_2013.1_src/data/scripts/dock_solv.prm

>  <Rbt.Receptor>
prm/blind_docking_80.prm

>  <SCORE>
-21.0167

>  <SCORE.INTER>
-20.61

>  <SCORE.INTER.CONST>
1

>  <SCORE.INTER.POLAR>
0

>  <SCORE.INTER.ROT>
8

>  <SCORE.INTER.SOLV>
23.5505

>  <SCORE.INTER.VDW>
-30.5235

>  <SCORE.INTER.norm>
-0.792692

>  <SCORE.INTRA>
-0.406985

>  <SCORE.INTRA.DIHEDRAL>
1.82046

>  <SCORE.INTRA.DIHEDRAL.0>
9.09364

>  <SCORE.INTRA.POLAR>
0

>  <SCORE.INTRA.POLAR.0>
0

>  <SCORE.INTRA.REPUL>
0

>  <SCORE.INTRA.REPUL.0>
0

>  <SCORE.INTRA.SOLV>
0.0518367

>  <SCORE.INTRA.SOLV.lig_0>
-78.5846

>  <SCORE.INTRA.VDW>
-1.34314

>  <SCORE.INTRA.VDW.0>
-2.81163

>  <SCORE.INTRA.norm>
-0.0156533

>  <SCORE.RESTR>
0.000252139

>  <SCORE.RESTR.CAVITY>
0.000252139

>  <SCORE.RESTR.norm>
9.69767e-06

>  <SCORE.SYSTEM>
0

>  <SCORE.SYSTEM.CONST>
0

>  <SCORE.SYSTEM.DIHEDRAL>
0

>  <SCORE.SYSTEM.SOLV>
0

>  <SCORE.SYSTEM.norm>
0

>  <SCORE.heavy>
26

>  <SCORE.norm>
-0.808336

>  <RMSD>
10.400

$$$$
ligand
 OpenBabel11021811463D
libRbt.so/2013.1/901 2013/11/27
 26 27  0  0  0  0  0  0  0  0999 V2000
   -4.1707  -44.3089   12.1386 C   0  0  0  0  0  0  0  0  0  0  0  0
    1.2915  -39.2452    7.5071 C   0  0  0  0  0  0  0  0  0  0  0  0
   -0.6728  -33.6085    9.7021 P   0  0  1  0  0  0  0  0  0  0  0  0
   -2.1493  -34.1458   11.9547 P   0  0  2  0  0  0  0  0  0  0  0  0
   -0.3991  -41.5048    8.8444 C   0  0  0  0  0  0  0  0  0  0  0  0
   -1.0662  -42.5231   11.0470 C   0  0  0  0  0  0  0  0  0  0  0  0
   -1.3793  -42.2534    9.7113 C   0  0  0  0  0  0  0  0  0  0  0  0
   -2.6135  -42.6396    9.1816 C   0  0  0  0  0  0  0  0  0  0  0  0
   -2.9087  -42.3684    7.9277 N   0  0  0  0  0  0  0  0  0  0  0  0
   -3.5053  -43.3293    9.9663 N   0  0  0  0  0  0  0  0  0  0  0  0
   -3.1933  -43.5785   11.2881 C   0  0  0  0  0  0  0  0  0  0  0  0
   -1.9799  -43.1947   11.8273 N   0  0  0  0  0  0  0  0  0  0  0  0
   -0.8183  -34.0183    8.2684 O   0  5  0  0  0  0  0  0  0  0  0  0
   -0.8496  -34.4612   12.5818 O   0  0  0  0  0  0  0  0  0  0  0  0
   -1.1403  -38.0613   10.3359 S   0  0  0  0  0  0  0  0  0  0  0  0
   -1.2817  -39.6266   10.1568 C   0  0  0  0  0  0  0  0  0  0  0  0
   -0.6686  -32.1434    9.9607 O   0  0  0  0  0  0  0  0  0  0  0  0
   -3.2362  -35.0076   12.4572 O   0  5  0  0  0  0  0  0  0  0  0  0
   -0.4434  -40.1114    9.1922 N   0  0  0  0  0  0  0  0  0  0  0  0
   -1.8455  -34.3936   10.4187 O   0  0  0  0  0  0  0  0  0  0  0  0
   -2.6859  -32.7644   12.1468 O   0  0  0  0  0  0  0  0  0  0  0  0
    0.2824  -39.1126    8.6066 C   0  0  1  0  0  0  0  0  0  0  0  0
   -0.0379  -37.9101    9.1850 C   0  0  2  0  0  0  0  0  0  0  0  0
    0.4771  -36.5169    8.9217 C   0  0  0  0  0  0  0  0  0  0  0  0
    0.6837  -35.7263   10.2186 C   0  0  0  0  0  0  0  0  0  0  0  0
    0.6654  -34.3120   10.1510 O   0  0  0  0  0  0  0  0  0  0  0  0
  1 11  1  0  0  0  0
  3 13  1  6  0  0  0
  3 17  2  0  0  0  0
  3 20  1  0  0  0  0
  3 26  1  0  0  0  0
  4 14  1  1  0  0  0
  4 18  1  0  0  0  0
  4 21  2  0  0  0  0
  4 20  1  0  0  0  0
  5 19  1  0  0  0  0
  5  7  1  0  0  0  0
  6  7  2  0  0  0  0
  6 12  1  0  0  0  0
  7  8  1  0  0  0  0
  8  9  1  0  0  0  0
  8 10  2  0  0  0  0
 10 11  1  0  0  0  0
 11 12  2  0  0  0  0
 15 23  1  0  0  0  0
 15 16  1  0  0  0  0
 16 19  1  0  0  0  0
 19 22  1  0  0  0  0
 22  2  1  1  0  0  0
 22 23  1  0  0  0  0
 23 24  1  1  0  0  0
 24 25  1  0  0  0  0
 25 26  1  0  0  0  0
M  CHG  2  13  -1  18  -1
M  END
>  <CHROM.1>
-174.36299813,-0.67548028,-76.01308486,-57.08893255,40.05417528,-156.49644154
63.45450752,-66.97689854,-1.29811309,-37.74262309,10.23700736,1.75497187
-0.83047502,-2.94783139

>  <Name>
ligand

>  <RI>
0

>  <Rbt.Current_Directory>
/home/itssahil/PROJECTS/Mol_Feturizer/New_Systems/rnas/3D2G

>  <Rbt.Executable>
rbdock ($Id: //depot/dev/client3/rdock/2013.1/src/exe/rbdock.cxx#4 $)

>  <Rbt.Library>
libRbt.so (2013.1, Build901 2013/11/27)

>  <Rbt.Parameter_File>
/export/apps/rDock/src/rDock_2013.1_src/data/scripts/dock_solv.prm

>  <Rbt.Receptor>
prm/blind_docking_80.prm

>  <SCORE>
-16.5554

>  <SCORE.INTER>
-16.3357

>  <SCORE.INTER.CONST>
1

>  <SCORE.INTER.POLAR>
0

>  <SCORE.INTER.ROT>
8

>  <SCORE.INTER.SOLV>
16.2019

>  <SCORE.INTER.VDW>
-25.2245

>  <SCORE.INTER.norm>
-0.628297

>  <SCORE.INTRA>
-0.219634

>  <SCORE.INTRA.DIHEDRAL>
-1.6331

>  <SCORE.INTRA.DIHEDRAL.0>
9.09364

>  <SCORE.INTRA.POLAR>
0

>  <SCORE.INTRA.POLAR.0>
0

>  <SCORE.INTRA.REPUL>
0

>  <SCORE.INTRA.REPUL.0>
0

>  <SCORE.INTRA.SOLV>
-1.86934

>  <SCORE.INTRA.SOLV.lig_0>
-78.5846

>  <SCORE.INTRA.VDW>
1.53159

>  <SCORE.INTRA.VDW.0>
-2.81163

>  <SCORE.INTRA.norm>
-0.00844748

>  <SCORE.RESTR>
0

>  <SCORE.RESTR.CAVITY>
0

>  <SCORE.RESTR.norm>
0

>  <SCORE.SYSTEM>
0

>  <SCORE.SYSTEM.CONST>
0

>  <SCORE.SYSTEM.DIHEDRAL>
0

>  <SCORE.SYSTEM.SOLV>
0

>  <SCORE.SYSTEM.norm>
0

>  <SCORE.heavy>
26

>  <SCORE.norm>
-0.636745

>  <RMSD>
10.509

$$$$
ligand
 OpenBabel11021811463D
libRbt.so/2013.1/901 2013/11/27
 26 27  0  0  0  0  0  0  0  0999 V2000
   -1.1923  -43.4191   10.2292 C   0  0  0  0  0  0  0  0  0  0  0  0
   -2.8925  -38.0559   14.0014 C   0  0  0  0  0  0  0  0  0  0  0  0
   -0.6666  -36.2006   10.3128 P   0  0  1  0  0  0  0  0  0  0  0  0
   -0.4263  -33.6041    9.4505 P   0  0  2  0  0  0  0  0  0  0  0  0
   -4.8625  -40.4188   13.4646 C   0  0  0  0  0  0  0  0  0  0  0  0
   -2.7913  -40.5598   12.0421 C   0  0  0  0  0  0  0  0  0  0  0  0
   -3.9022  -41.1978   12.6022 C   0  0  0  0  0  0  0  0  0  0  0  0
   -4.1101  -42.5649   12.3999 C   0  0  0  0  0  0  0  0  0  0  0  0
   -5.1494  -43.1629   12.9432 N   0  0  0  0  0  0  0  0  0  0  0  0
   -3.2418  -43.2756   11.6076 N   0  0  0  0  0  0  0  0  0  0  0  0
   -2.1397  -42.6403   11.0706 C   0  0  0  0  0  0  0  0  0  0  0  0
   -1.9173  -41.2907   11.2696 N   0  0  0  0  0  0  0  0  0  0  0  0
   -1.1840  -37.4391    9.6474 O   0  5  0  0  0  0  0  0  0  0  0  0
   -1.0019  -33.1859   10.7450 O   0  0  0  0  0  0  0  0  0  0  0  0
   -5.9039  -37.2189   11.6459 S   0  0  0  0  0  0  0  0  0  0  0  0
   -6.0038  -38.7334   12.0913 C   0  0  0  0  0  0  0  0  0  0  0  0
    0.7648  -36.2313   10.7171 O   0  0  0  0  0  0  0  0  0  0  0  0
   -0.8134  -32.7022    8.3491 O   0  5  0  0  0  0  0  0  0  0  0  0
   -4.9880  -39.0896   12.9337 N   0  0  0  0  0  0  0  0  0  0  0  0
   -1.0267  -35.0608    9.2753 O   0  0  0  0  0  0  0  0  0  0  0  0
    1.0636  -33.6565    9.3477 O   0  0  0  0  0  0  0  0  0  0  0  0
   -4.1266  -38.0514   13.1519 C   0  0  1  0  0  0  0  0  0  0  0  0
   -4.5576  -36.9431   12.4671 C   0  0  2  0  0  0  0  0  0  0  0  0
   -3.9859  -35.5499   12.3790 C   0  0  0  0  0  0  0  0  0  0  0  0
   -2.9153  -35.4362   11.2878 C   0  0  0  0  0  0  0  0  0  0  0  0
   -1.6430  -36.0058   11.5359 O   0  0  0  0  0  0  0  0  0  0  0  0
  1 11  1  0  0  0  0
  3 13  1  6  0  0  0
  3 17  2  0  0  0  0
  3 20  1  0  0  0  0
  3 26  1  0  0  0  0
  4 14  1  1  0  0  0
  4 18  1  0  0  0  0
  4 21  2  0  0  0  0
  4 20  1  0  0  0  0
  5 19  1  0  0  0  0
  5  7  1  0  0  0  0
  6  7  2  0  0  0  0
  6 12  1  0  0  0  0
  7  8  1  0  0  0  0
  8  9  1  0  0  0  0
  8 10  2  0  0  0  0
 10 11  1  0  0  0  0
 11 12  2  0  0  0  0
 15 23  1  0  0  0  0
 15 16  1  0  0  0  0
 16 19  1  0  0  0  0
 19 22  1  0  0  0  0
 22  2  1  1  0  0  0
 22 23  1  0  0  0  0
 23 24  1  1  0  0  0
 24 25  1  0  0  0  0
 25 26  1  0  0  0  0
M  CHG  2  13  -1  18  -1
M  END
>  <CHROM.1>
-168.83896855,95.97812358,36.21133171,-62.72924645,-94.64650071,-74.48940056
165.51862534,-78.91433574,-2.52745000,-37.67843554,11.23283666,-2.03322255
0.49383277,-0.08602101

>  <Name>
ligand

>  <RI>
0

>  <Rbt.Current_Directory>
/home/itssahil/PROJECTS/Mol_Feturizer/New_Systems/rnas/3D2G

>  <Rbt.Executable>
rbdock ($Id: //depot/dev/client3/rdock/2013.1/src/exe/rbdock.cxx#4 $)

>  <Rbt.Library>
libRbt.so (2013.1, Build901 2013/11/27)

>  <Rbt.Parameter_File>
/export/apps/rDock/src/rDock_2013.1_src/data/scripts/dock_solv.prm

>  <Rbt.Receptor>
prm/blind_docking_80.prm

>  <SCORE>
-18.0536

>  <SCORE.INTER>
-15.1797

>  <SCORE.INTER.CONST>
1

>  <SCORE.INTER.POLAR>
0

>  <SCORE.INTER.ROT>
8

>  <SCORE.INTER.SOLV>
22.9468

>  <SCORE.INTER.VDW>
-26.7021

>  <SCORE.INTER.norm>
-0.583835

>  <SCORE.INTRA>
-2.87388

>  <SCORE.INTRA.DIHEDRAL>
-1.2877

>  <SCORE.INTRA.DIHEDRAL.0>
9.09364

>  <SCORE.INTRA.POLAR>
0

>  <SCORE.INTRA.POLAR.0>
0

>  <SCORE.INTRA.REPUL>
0

>  <SCORE.INTRA.REPUL.0>
0

>  <SCORE.INTRA.SOLV>
-3.07846

>  <SCORE.INTRA.SOLV.lig_0>
-78.5846

>  <SCORE.INTRA.VDW>
-0.690796

>  <SCORE.INTRA.VDW.0>
-2.81163

>  <SCORE.INTRA.norm>
-0.110534

>  <SCORE.RESTR>
0

>  <SCORE.RESTR.CAVITY>
0

>  <SCORE.RESTR.norm>
0

>  <SCORE.SYSTEM>
0

>  <SCORE.SYSTEM.CONST>
0

>  <SCORE.SYSTEM.DIHEDRAL>
0

>  <SCORE.SYSTEM.SOLV>
0

>  <SCORE.SYSTEM.norm>
0

>  <SCORE.heavy>
26

>  <SCORE.norm>
-0.694369

>  <RMSD>
10.606

$$$$
ligand
 OpenBabel11021811463D
libRbt.so/2013.1/901 2013/11/27
 26 27  0  0  0  0  0  0  0  0999 V2000
   -2.3706  -44.3004   10.1498 C   0  0  0  0  0  0  0  0  0  0  0  0
   -5.9283  -37.6447   11.6892 C   0  0  0  0  0  0  0  0  0  0  0  0
   -0.0086  -35.0679   11.7156 P   0  0  1  0  0  0  0  0  0  0  0  0
    0.0253  -33.3160    9.6008 P   0  0  2  0  0  0  0  0  0  0  0  0
   -5.5408  -40.4546   12.9957 C   0  0  0  0  0  0  0  0  0  0  0  0
   -4.2766  -42.6287   12.9051 C   0  0  0  0  0  0  0  0  0  0  0  0
   -4.6960  -41.4622   12.2584 C   0  0  0  0  0  0  0  0  0  0  0  0
   -4.3696  -41.2395   10.9179 C   0  0  0  0  0  0  0  0  0  0  0  0
   -4.7812  -40.1467   10.3101 N   0  0  0  0  0  0  0  0  0  0  0  0
   -3.5929  -42.1515   10.2457 N   0  0  0  0  0  0  0  0  0  0  0  0
   -3.1955  -43.3072   10.8882 C   0  0  0  0  0  0  0  0  0  0  0  0
   -3.5183  -43.5443   12.2112 N   0  0  0  0  0  0  0  0  0  0  0  0
    0.0709  -36.0284   10.5686 O   0  5  0  0  0  0  0  0  0  0  0  0
    1.4699  -33.1431    9.8560 O   0  0  0  0  0  0  0  0  0  0  0  0
   -3.0130  -37.8914   14.2888 S   0  0  0  0  0  0  0  0  0  0  0  0
   -3.7218  -39.3009   14.1744 C   0  0  0  0  0  0  0  0  0  0  0  0
    1.2352  -34.9099   12.5165 O   0  0  0  0  0  0  0  0  0  0  0  0
   -0.6062  -32.0795    9.1021 O   0  5  0  0  0  0  0  0  0  0  0  0
   -4.7430  -39.2906   13.2659 N   0  0  0  0  0  0  0  0  0  0  0  0
   -0.5166  -33.7346   11.0305 O   0  0  0  0  0  0  0  0  0  0  0  0
   -0.3743  -34.3410    8.5894 O   0  0  0  0  0  0  0  0  0  0  0  0
   -4.9103  -38.0537   12.7097 C   0  0  1  0  0  0  0  0  0  0  0  0
   -3.9772  -37.1877   13.2220 C   0  0  2  0  0  0  0  0  0  0  0  0
   -3.7202  -35.7286   12.9385 C   0  0  0  0  0  0  0  0  0  0  0  0
   -2.5174  -35.5271   12.0098 C   0  0  0  0  0  0  0  0  0  0  0  0
   -1.2188  -35.6127   12.5676 O   0  0  0  0  0  0  0  0  0  0  0  0
  1 11  1  0  0  0  0
  3 13  1  6  0  0  0
  3 17  2  0  0  0  0
  3 20  1  0  0  0  0
  3 26  1  0  0  0  0
  4 14  1  1  0  0  0
  4 18  1  0  0  0  0
  4 21  2  0  0  0  0
  4 20  1  0  0  0  0
  5 19  1  0  0  0  0
  5  7  1  0  0  0  0
  6  7  2  0  0  0  0
  6 12  1  0  0  0  0
  7  8  1  0  0  0  0
  8  9  1  0  0  0  0
  8 10  2  0  0  0  0
 10 11  1  0  0  0  0
 11 12  2  0  0  0  0
 15 23  1  0  0  0  0
 15 16  1  0  0  0  0
 16 19  1  0  0  0  0
 19 22  1  0  0  0  0
 22  2  1  6  0  0  0
 22 23  1  0  0  0  0
 23 24  1  6  0  0  0
 24 25  1  0  0  0  0
 25 26  1  0  0  0  0
M  CHG  2  13  -1  18  -1
M  END
>  <CHROM.1>
-39.15380516,-70.24049095,108.58602204,-62.09944546,77.53381933,-79.16191346
-165.37335730,-67.85253717,-2.31481099,-37.49738353,11.61295848,-2.29754547
0.80561151,0.37875071

>  <Name>
ligand

>  <RI>
0

>  <Rbt.Current_Directory>
/home/itssahil/PROJECTS/Mol_Feturizer/New_Systems/rnas/3D2G

>  <Rbt.Executable>
rbdock ($Id: //depot/dev/client3/rdock/2013.1/src/exe/rbdock.cxx#4 $)

>  <Rbt.Library>
libRbt.so (2013.1, Build901 2013/11/27)

>  <Rbt.Parameter_File>
/export/apps/rDock/src/rDock_2013.1_src/data/scripts/dock_solv.prm

>  <Rbt.Receptor>
prm/blind_docking_80.prm

>  <SCORE>
-16.7471

>  <SCORE.INTER>
-16.8763

>  <SCORE.INTER.CONST>
1

>  <SCORE.INTER.POLAR>
0

>  <SCORE.INTER.ROT>
8

>  <SCORE.INTER.SOLV>
21.2933

>  <SCORE.INTER.VDW>
-27.282

>  <SCORE.INTER.norm>
-0.649089

>  <SCORE.INTRA>
0.129205

>  <SCORE.INTRA.DIHEDRAL>
-0.366051

>  <SCORE.INTRA.DIHEDRAL.0>
9.09364

>  <SCORE.INTRA.POLAR>
0

>  <SCORE.INTRA.POLAR.0>
0

>  <SCORE.INTRA.REPUL>
0

>  <SCORE.INTRA.REPUL.0>
0

>  <SCORE.INTRA.SOLV>
1.39448

>  <SCORE.INTRA.SOLV.lig_0>
-78.5846

>  <SCORE.INTRA.VDW>
-0.385009

>  <SCORE.INTRA.VDW.0>
-2.81163

>  <SCORE.INTRA.norm>
0.00496942

>  <SCORE.RESTR>
0

>  <SCORE.RESTR.CAVITY>
0

>  <SCORE.RESTR.norm>
0

>  <SCORE.SYSTEM>
0

>  <SCORE.SYSTEM.CONST>
0

>  <SCORE.SYSTEM.DIHEDRAL>
0

>  <SCORE.SYSTEM.SOLV>
0

>  <SCORE.SYSTEM.norm>
0

>  <SCORE.heavy>
26

>  <SCORE.norm>
-0.644119

>  <RMSD>
10.623

$$$$
ligand
 OpenBabel11021811463D
libRbt.so/2013.1/901 2013/11/27
 26 27  0  0  0  0  0  0  0  0999 V2000
   -7.9737  -35.5249   11.0609 C   0  0  0  0  0  0  0  0  0  0  0  0
   -2.7194  -32.7833   11.0858 C   0  0  0  0  0  0  0  0  0  0  0  0
    0.9470  -36.7430    8.8141 P   0  0  1  0  0  0  0  0  0  0  0  0
    2.8935  -37.4658    7.0165 P   0  0  2  0  0  0  0  0  0  0  0  0
   -3.0166  -34.4149   13.7319 C   0  0  0  0  0  0  0  0  0  0  0  0
   -4.4134  -35.8213   12.1814 C   0  0  0  0  0  0  0  0  0  0  0  0
   -4.3114  -34.7043   13.0162 C   0  0  0  0  0  0  0  0  0  0  0  0
   -5.4150  -33.8723   13.2235 C   0  0  0  0  0  0  0  0  0  0  0  0
   -5.3169  -32.8313   14.0234 N   0  0  0  0  0  0  0  0  0  0  0  0
   -6.5936  -34.1284   12.5662 N   0  0  0  0  0  0  0  0  0  0  0  0
   -6.6892  -35.2417   11.7552 C   0  0  0  0  0  0  0  0  0  0  0  0
   -5.6082  -36.0778   11.5479 N   0  0  0  0  0  0  0  0  0  0  0  0
    0.5734  -38.0954    9.3394 O   0  5  0  0  0  0  0  0  0  0  0  0
    2.8022  -37.9243    5.6153 O   0  0  0  0  0  0  0  0  0  0  0  0
    0.1766  -35.3098   11.8255 S   0  0  0  0  0  0  0  0  0  0  0  0
   -0.8812  -35.3807   12.9995 C   0  0  0  0  0  0  0  0  0  0  0  0
    1.9501  -35.9906    9.6148 O   0  0  0  0  0  0  0  0  0  0  0  0
    3.3796  -38.5253    7.9207 O   0  5  0  0  0  0  0  0  0  0  0  0
   -1.9334  -34.5325   12.7953 N   0  0  0  0  0  0  0  0  0  0  0  0
    1.3961  -37.0488    7.3275 O   0  0  0  0  0  0  0  0  0  0  0  0
    3.8071  -36.3188    7.3043 O   0  0  0  0  0  0  0  0  0  0  0  0
   -1.7867  -33.8161   11.6409 C   0  0  1  0  0  0  0  0  0  0  0  0
   -0.6219  -34.1835   11.0152 C   0  0  2  0  0  0  0  0  0  0  0  0
   -0.0031  -33.7152    9.7216 C   0  0  0  0  0  0  0  0  0  0  0  0
   -0.4228  -34.5896    8.5346 C   0  0  0  0  0  0  0  0  0  0  0  0
   -0.4373  -35.9946    8.7097 O   0  0  0  0  0  0  0  0  0  0  0  0
  1 11  1  0  0  0  0
  3 13  1  1  0  0  0
  3 17  2  0  0  0  0
  3 20  1  0  0  0  0
  3 26  1  0  0  0  0
  4 14  1  6  0  0  0
  4 18  1  0  0  0  0
  4 21  2  0  0  0  0
  4 20  1  0  0  0  0
  5 19  1  0  0  0  0
  5  7  1  0  0  0  0
  6  7  2  0  0  0  0
  6 12  1  0  0  0  0
  7  8  1  0  0  0  0
  8  9  1  0  0  0  0
  8 10  2  0  0  0  0
 10 11  1  0  0  0  0
 11 12  2  0  0  0  0
 15 23  1  0  0  0  0
 15 16  1  0  0  0  0
 16 19  1  0  0  0  0
 19 22  1  0  0  0  0
 22  2  1  6  0  0  0
 22 23  1  0  0  0  0
 23 24  1  6  0  0  0
 24 25  1  0  0  0  0
 25 26  1  0  0  0  0
M  CHG  2  13  -1  18  -1
M  END
>  <CHROM.1>
-86.82191795,-123.42642095,46.87552834,168.48642807,87.19145099,-43.19246274
-71.77114295,165.82120601,-1.03058842,-35.62978755,10.25376601,2.50743230
0.08794513,0.94626948

>  <Name>
ligand

>  <RI>
0

>  <Rbt.Current_Directory>
/home/itssahil/PROJECTS/Mol_Feturizer/New_Systems/rnas/3D2G

>  <Rbt.Executable>
rbdock ($Id: //depot/dev/client3/rdock/2013.1/src/exe/rbdock.cxx#4 $)

>  <Rbt.Library>
libRbt.so (2013.1, Build901 2013/11/27)

>  <Rbt.Parameter_File>
/export/apps/rDock/src/rDock_2013.1_src/data/scripts/dock_solv.prm

>  <Rbt.Receptor>
prm/blind_docking_40.prm

>  <SCORE>
-20.6683

>  <SCORE.INTER>
-19.6042

>  <SCORE.INTER.CONST>
1

>  <SCORE.INTER.POLAR>
0

>  <SCORE.INTER.ROT>
8

>  <SCORE.INTER.SOLV>
23.1881

>  <SCORE.INTER.VDW>
-29.7322

>  <SCORE.INTER.norm>
-0.754008

>  <SCORE.INTRA>
-1.07386

>  <SCORE.INTRA.DIHEDRAL>
-1.16697

>  <SCORE.INTRA.DIHEDRAL.0>
9.09364

>  <SCORE.INTRA.POLAR>
0

>  <SCORE.INTRA.POLAR.0>
0

>  <SCORE.INTRA.REPUL>
0

>  <SCORE.INTRA.REPUL.0>
0

>  <SCORE.INTRA.SOLV>
2.02203

>  <SCORE.INTRA.SOLV.lig_0>
-78.5846

>  <SCORE.INTRA.VDW>
-1.50139

>  <SCORE.INTRA.VDW.0>
-2.81163

>  <SCORE.INTRA.norm>
-0.0413022

>  <SCORE.RESTR>
0.00978615

>  <SCORE.RESTR.CAVITY>
0.00978615

>  <SCORE.RESTR.norm>
0.000376391

>  <SCORE.SYSTEM>
0

>  <SCORE.SYSTEM.CONST>
0

>  <SCORE.SYSTEM.DIHEDRAL>
0

>  <SCORE.SYSTEM.SOLV>
0

>  <SCORE.SYSTEM.norm>
0

>  <SCORE.heavy>
26

>  <SCORE.norm>
-0.794934

>  <RMSD>
10.639

$$$$
ligand
 OpenBabel11021811463D
libRbt.so/2013.1/901 2013/11/27
 26 27  0  0  0  0  0  0  0  0999 V2000
   -8.2857  -35.3786   11.1636 C   0  0  0  0  0  0  0  0  0  0  0  0
   -1.6046  -33.6642    9.9882 C   0  0  0  0  0  0  0  0  0  0  0  0
    3.1472  -37.4099    8.2944 P   0  0  1  0  0  0  0  0  0  0  0  0
    5.5956  -36.6227    9.2580 P   0  0  2  0  0  0  0  0  0  0  0  0
   -2.8180  -34.5816   12.7156 C   0  0  0  0  0  0  0  0  0  0  0  0
   -4.9678  -33.7347   11.7184 C   0  0  0  0  0  0  0  0  0  0  0  0
   -4.2587  -34.7797   12.3184 C   0  0  0  0  0  0  0  0  0  0  0  0
   -4.8648  -36.0228   12.5191 C   0  0  0  0  0  0  0  0  0  0  0  0
   -4.1867  -37.0076   13.0700 N   0  0  0  0  0  0  0  0  0  0  0  0
   -6.1799  -36.2040   12.1662 N   0  0  0  0  0  0  0  0  0  0  0  0
   -6.8676  -35.1708   11.5612 C   0  0  0  0  0  0  0  0  0  0  0  0
   -6.2780  -33.9388   11.3489 N   0  0  0  0  0  0  0  0  0  0  0  0
    3.3785  -36.4832    7.1402 O   0  5  0  0  0  0  0  0  0  0  0  0
    4.9342  -35.4063    8.7435 O   0  0  0  0  0  0  0  0  0  0  0  0
   -0.6947  -37.3108   11.0801 S   0  0  0  0  0  0  0  0  0  0  0  0
   -1.6159  -36.6563   12.1871 C   0  0  0  0  0  0  0  0  0  0  0  0
    2.2886  -38.5923    8.0149 O   0  0  0  0  0  0  0  0  0  0  0  0
    6.9608  -36.7855    8.7229 O   0  5  0  0  0  0  0  0  0  0  0  0
   -1.9873  -35.3824   11.8594 N   0  0  0  0  0  0  0  0  0  0  0  0
    4.6154  -37.7671    8.7655 O   0  0  0  0  0  0  0  0  0  0  0  0
    5.7887  -36.7249   10.7363 O   0  0  0  0  0  0  0  0  0  0  0  0
   -1.4413  -34.9881   10.6704 C   0  0  1  0  0  0  0  0  0  0  0  0
   -0.6912  -36.0107   10.1460 C   0  0  2  0  0  0  0  0  0  0  0  0
    0.1004  -36.1013    8.8651 C   0  0  0  0  0  0  0  0  0  0  0  0
    1.5253  -35.5609    9.0310 C   0  0  0  0  0  0  0  0  0  0  0  0
    2.5459  -36.4675    9.4069 O   0  0  0  0  0  0  0  0  0  0  0  0
  1 11  1  0  0  0  0
  3 13  1  6  0  0  0
  3 17  2  0  0  0  0
  3 20  1  0  0  0  0
  3 26  1  0  0  0  0
  4 14  1  6  0  0  0
  4 18  1  0  0  0  0
  4 21  2  0  0  0  0
  4 20  1  0  0  0  0
  5 19  1  0  0  0  0
  5  7  1  0  0  0  0
  6  7  2  0  0  0  0
  6 12  1  0  0  0  0
  7  8  1  0  0  0  0
  8  9  1  0  0  0  0
  8 10  2  0  0  0  0
 10 11  1  0  0  0  0
 11 12  2  0  0  0  0
 15 23  1  0  0  0  0
 15 16  1  0  0  0  0
 16 19  1  0  0  0  0
 19 22  1  0  0  0  0
 22  2  1  6  0  0  0
 22 23  1  0  0  0  0
 23 24  1  6  0  0  0
 24 25  1  0  0  0  0
 25 26  1  0  0  0  0
M  CHG  2  13  -1  18  -1
M  END
>  <CHROM.1>
60.37381409,-92.03073515,-110.93704444,-16.49580926,-93.96840881,90.98305286
78.50247316,45.77707524,0.03242363,-36.14169430,10.24159861,2.88930170,-0.21316163
1.77231798

>  <Name>
ligand

>  <RI>
0

>  <Rbt.Current_Directory>
/home/itssahil/PROJECTS/Mol_Feturizer/New_Systems/rnas/3D2G

>  <Rbt.Executable>
rbdock ($Id: //depot/dev/client3/rdock/2013.1/src/exe/rbdock.cxx#4 $)

>  <Rbt.Library>
libRbt.so (2013.1, Build901 2013/11/27)

>  <Rbt.Parameter_File>
/export/apps/rDock/src/rDock_2013.1_src/data/scripts/dock_solv.prm

>  <Rbt.Receptor>
prm/blind_docking_40.prm

>  <SCORE>
-14.0018

>  <SCORE.INTER>
-16.3964

>  <SCORE.INTER.CONST>
1

>  <SCORE.INTER.POLAR>
0

>  <SCORE.INTER.ROT>
8

>  <SCORE.INTER.SOLV>
29.7322

>  <SCORE.INTER.VDW>
-29.775

>  <SCORE.INTER.norm>
-0.63063

>  <SCORE.INTRA>
1.99726

>  <SCORE.INTRA.DIHEDRAL>
3.00525

>  <SCORE.INTRA.DIHEDRAL.0>
9.09364

>  <SCORE.INTRA.POLAR>
0

>  <SCORE.INTRA.POLAR.0>
0

>  <SCORE.INTRA.REPUL>
0

>  <SCORE.INTRA.REPUL.0>
0

>  <SCORE.INTRA.SOLV>
-0.558481

>  <SCORE.INTRA.SOLV.lig_0>
-78.5846

>  <SCORE.INTRA.VDW>
0.77388

>  <SCORE.INTRA.VDW.0>
-2.81163

>  <SCORE.INTRA.norm>
0.0768178

>  <SCORE.RESTR>
0.397282

>  <SCORE.RESTR.CAVITY>
0.397282

>  <SCORE.RESTR.norm>
0.0152801

>  <SCORE.SYSTEM>
0

>  <SCORE.SYSTEM.CONST>
0

>  <SCORE.SYSTEM.DIHEDRAL>
0

>  <SCORE.SYSTEM.SOLV>
0

>  <SCORE.SYSTEM.norm>
0

>  <SCORE.heavy>
26

>  <SCORE.norm>
-0.538532

>  <RMSD>
10.643

$$$$
ligand
 OpenBabel11021811463D
libRbt.so/2013.1/901 2013/11/27
 26 27  0  0  0  0  0  0  0  0999 V2000
   -8.1407  -35.3357   11.4352 C   0  0  0  0  0  0  0  0  0  0  0  0
   -0.2277  -34.4812   11.0176 C   0  0  0  0  0  0  0  0  0  0  0  0
    3.5076  -37.7024    7.6612 P   0  0  1  0  0  0  0  0  0  0  0  0
    4.8267  -35.2973    7.5263 P   0  0  2  0  0  0  0  0  0  0  0  0
   -2.5561  -35.6931   12.7095 C   0  0  0  0  0  0  0  0  0  0  0  0
   -4.7587  -36.7743   12.1502 C   0  0  0  0  0  0  0  0  0  0  0  0
   -4.0200  -35.6059   12.3605 C   0  0  0  0  0  0  0  0  0  0  0  0
   -4.6383  -34.3547   12.2872 C   0  0  0  0  0  0  0  0  0  0  0  0
   -3.9407  -33.2592   12.5020 N   0  0  0  0  0  0  0  0  0  0  0  0
   -5.9700  -34.2714   11.9610 N   0  0  0  0  0  0  0  0  0  0  0  0
   -6.6945  -35.4311   11.7693 C   0  0  0  0  0  0  0  0  0  0  0  0
   -6.0978  -36.6754   11.8470 N   0  0  0  0  0  0  0  0  0  0  0  0
    4.2497  -38.1951    6.4567 O   0  5  0  0  0  0  0  0  0  0  0  0
    5.6310  -35.9031    6.4456 O   0  0  0  0  0  0  0  0  0  0  0  0
   -1.2430  -38.1433   10.0819 S   0  0  0  0  0  0  0  0  0  0  0  0
   -2.1548  -37.6447   11.2745 C   0  0  0  0  0  0  0  0  0  0  0  0
    4.0492  -38.1338    8.9780 O   0  0  0  0  0  0  0  0  0  0  0  0
    5.4827  -35.4116    8.8427 O   0  5  0  0  0  0  0  0  0  0  0  0
   -1.8644  -36.3605   11.6415 N   0  0  0  0  0  0  0  0  0  0  0  0
    3.4826  -36.1342    7.4486 O   0  0  0  0  0  0  0  0  0  0  0  0
    4.5202  -33.8387    7.4176 O   0  0  0  0  0  0  0  0  0  0  0  0
   -0.8370  -35.8451   10.9024 C   0  0  1  0  0  0  0  0  0  0  0  0
   -0.4141  -36.7769    9.9881 C   0  0  2  0  0  0  0  0  0  0  0  0
    0.6660  -36.7128    8.9370 C   0  0  0  0  0  0  0  0  0  0  0  0
    1.1093  -38.1082    8.4830 C   0  0  0  0  0  0  0  0  0  0  0  0
    2.0325  -38.2029    7.4137 O   0  0  0  0  0  0  0  0  0  0  0  0
  1 11  1  0  0  0  0
  3 13  1  6  0  0  0
  3 17  2  0  0  0  0
  3 20  1  0  0  0  0
  3 26  1  0  0  0  0
  4 14  1  6  0  0  0
  4 18  1  0  0  0  0
  4 21  2  0  0  0  0
  4 20  1  0  0  0  0
  5 19  1  0  0  0  0
  5  7  1  0  0  0  0
  6  7  2  0  0  0  0
  6 12  1  0  0  0  0
  7  8  1  0  0  0  0
  8  9  1  0  0  0  0
  8 10  2  0  0  0  0
 10 11  1  0  0  0  0
 11 12  2  0  0  0  0
 15 23  1  0  0  0  0
 15 16  1  0  0  0  0
 16 19  1  0  0  0  0
 19 22  1  0  0  0  0
 22  2  1  6  0  0  0
 22 23  1  0  0  0  0
 23 24  1  6  0  0  0
 24 25  1  0  0  0  0
 25 26  1  0  0  0  0
M  CHG  2  13  -1  18  -1
M  END
>  <CHROM.1>
-67.61672011,-61.15517093,60.27571729,60.04059455,-20.25656763,174.45062877
68.32039710,169.06447682,0.04752925,-36.28771609,9.66666746,2.94108976,0.40105926
0.26802150

>  <Name>
ligand

>  <RI>
0

>  <Rbt.Current_Directory>
/home/itssahil/PROJECTS/Mol_Feturizer/New_Systems/rnas/3D2G

>  <Rbt.Executable>
rbdock ($Id: //depot/dev/client3/rdock/2013.1/src/exe/rbdock.cxx#4 $)

>  <Rbt.Library>
libRbt.so (2013.1, Build901 2013/11/27)

>  <Rbt.Parameter_File>
/export/apps/rDock/src/rDock_2013.1_src/data/scripts/dock_solv.prm

>  <Rbt.Receptor>
prm/blind_docking_40.prm

>  <SCORE>
-16.5873

>  <SCORE.INTER>
-16.8899

>  <SCORE.INTER.CONST>
1

>  <SCORE.INTER.POLAR>
0

>  <SCORE.INTER.ROT>
8

>  <SCORE.INTER.SOLV>
21.7671

>  <SCORE.INTER.VDW>
-27.4489

>  <SCORE.INTER.norm>
-0.64961

>  <SCORE.INTRA>
0.280613

>  <SCORE.INTRA.DIHEDRAL>
-3.44066

>  <SCORE.INTRA.DIHEDRAL.0>
9.09364

>  <SCORE.INTRA.POLAR>
0

>  <SCORE.INTRA.POLAR.0>
0

>  <SCORE.INTRA.REPUL>
0

>  <SCORE.INTRA.REPUL.0>
0

>  <SCORE.INTRA.SOLV>
-0.909947

>  <SCORE.INTRA.SOLV.lig_0>
-78.5846

>  <SCORE.INTRA.VDW>
2.45592

>  <SCORE.INTRA.VDW.0>
-2.81163

>  <SCORE.INTRA.norm>
0.0107928

>  <SCORE.RESTR>
0.0219446

>  <SCORE.RESTR.CAVITY>
0.0219446

>  <SCORE.RESTR.norm>
0.000844024

>  <SCORE.SYSTEM>
0

>  <SCORE.SYSTEM.CONST>
0

>  <SCORE.SYSTEM.DIHEDRAL>
0

>  <SCORE.SYSTEM.SOLV>
0

>  <SCORE.SYSTEM.norm>
0

>  <SCORE.heavy>
26

>  <SCORE.norm>
-0.637973

>  <RMSD>
10.678

$$$$
ligand
 OpenBabel11021811463D
libRbt.so/2013.1/901 2013/11/27
 26 27  0  0  0  0  0  0  0  0999 V2000
   -8.7568  -35.5049   12.1749 C   0  0  0  0  0  0  0  0  0  0  0  0
   -1.5273  -37.1712   10.9836 C   0  0  0  0  0  0  0  0  0  0  0  0
    2.9970  -37.1201    8.1960 P   0  0  1  0  0  0  0  0  0  0  0  0
    5.3974  -36.3614    7.0982 P   0  0  2  0  0  0  0  0  0  0  0  0
   -3.0738  -35.3034   12.9514 C   0  0  0  0  0  0  0  0  0  0  0  0
   -5.1668  -36.5565   12.3331 C   0  0  0  0  0  0  0  0  0  0  0  0
   -4.5642  -35.3596   12.7319 C   0  0  0  0  0  0  0  0  0  0  0  0
   -5.3394  -34.2206   12.9666 C   0  0  0  0  0  0  0  0  0  0  0  0
   -4.7677  -33.1011   13.3575 N   0  0  0  0  0  0  0  0  0  0  0  0
   -6.6965  -34.2662   12.7593 N   0  0  0  0  0  0  0  0  0  0  0  0
   -7.2844  -35.4563   12.3794 C   0  0  0  0  0  0  0  0  0  0  0  0
   -6.5309  -36.5926   12.1520 N   0  0  0  0  0  0  0  0  0  0  0  0
    3.0494  -38.5890    7.9060 O   0  5  0  0  0  0  0  0  0  0  0  0
    5.5609  -35.4099    8.2161 O   0  0  0  0  0  0  0  0  0  0  0  0
   -1.7201  -33.4110    9.9153 S   0  0  0  0  0  0  0  0  0  0  0  0
   -2.4848  -33.5964   11.2876 C   0  0  0  0  0  0  0  0  0  0  0  0
    3.4659  -36.7085    9.5466 O   0  0  0  0  0  0  0  0  0  0  0  0
    5.9979  -35.8618    5.8466 O   0  5  0  0  0  0  0  0  0  0  0  0
   -2.4411  -34.8890   11.7297 N   0  0  0  0  0  0  0  0  0  0  0  0
    3.8205  -36.4903    7.0000 O   0  0  0  0  0  0  0  0  0  0  0  0
    6.0059  -37.7169    7.2572 O   0  0  0  0  0  0  0  0  0  0  0  0
   -1.7722  -35.6986   10.8554 C   0  0  1  0  0  0  0  0  0  0  0  0
   -1.3217  -34.9566    9.7925 C   0  0  2  0  0  0  0  0  0  0  0  0
   -0.5275  -35.3548    8.5734 C   0  0  0  0  0  0  0  0  0  0  0  0
    0.7890  -36.0458    8.9461 C   0  0  0  0  0  0  0  0  0  0  0  0
    1.4870  -36.7478    7.9337 O   0  0  0  0  0  0  0  0  0  0  0  0
  1 11  1  0  0  0  0
  3 13  1  6  0  0  0
  3 17  2  0  0  0  0
  3 20  1  0  0  0  0
  3 26  1  0  0  0  0
  4 14  1  1  0  0  0
  4 18  1  0  0  0  0
  4 21  2  0  0  0  0
  4 20  1  0  0  0  0
  5 19  1  0  0  0  0
  5  7  1  0  0  0  0
  6  7  2  0  0  0  0
  6 12  1  0  0  0  0
  7  8  1  0  0  0  0
  8  9  1  0  0  0  0
  8 10  2  0  0  0  0
 10 11  1  0  0  0  0
 11 12  2  0  0  0  0
 15 23  1  0  0  0  0
 15 16  1  0  0  0  0
 16 19  1  0  0  0  0
 19 22  1  0  0  0  0
 22  2  1  1  0  0  0
 22 23  1  0  0  0  0
 23 24  1  1  0  0  0
 24 25  1  0  0  0  0
 25 26  1  0  0  0  0
M  CHG  2  13  -1  18  -1
M  END
>  <CHROM.1>
-86.14466331,74.38657373,92.31616000,-64.53450944,123.91557811,165.54108899
163.80307630,128.32494672,-0.33654108,-35.75416562,9.84042709,2.93579957
0.42580262,0.13361725

>  <Name>
ligand

>  <RI>
0

>  <Rbt.Current_Directory>
/home/itssahil/PROJECTS/Mol_Feturizer/New_Systems/rnas/3D2G

>  <Rbt.Executable>
rbdock ($Id: //depot/dev/client3/rdock/2013.1/src/exe/rbdock.cxx#4 $)

>  <Rbt.Library>
libRbt.so (2013.1, Build901 2013/11/27)

>  <Rbt.Parameter_File>
/export/apps/rDock/src/rDock_2013.1_src/data/scripts/dock_solv.prm

>  <Rbt.Receptor>
prm/blind_docking_40.prm

>  <SCORE>
-17.5793

>  <SCORE.INTER>
-17.1129

>  <SCORE.INTER.CONST>
1

>  <SCORE.INTER.POLAR>
0

>  <SCORE.INTER.ROT>
8

>  <SCORE.INTER.SOLV>
21.092

>  <SCORE.INTER.VDW>
-27.3726

>  <SCORE.INTER.norm>
-0.65819

>  <SCORE.INTRA>
-0.466405

>  <SCORE.INTRA.DIHEDRAL>
0.485497

>  <SCORE.INTRA.DIHEDRAL.0>
9.09364

>  <SCORE.INTRA.POLAR>
0

>  <SCORE.INTRA.POLAR.0>
0

>  <SCORE.INTRA.REPUL>
0

>  <SCORE.INTRA.REPUL.0>
0

>  <SCORE.INTRA.SOLV>
-1.00682

>  <SCORE.INTRA.SOLV.lig_0>
-78.5846

>  <SCORE.INTRA.VDW>
-0.205746

>  <SCORE.INTRA.VDW.0>
-2.81163

>  <SCORE.INTRA.norm>
-0.0179387

>  <SCORE.RESTR>
0

>  <SCORE.RESTR.CAVITY>
0

>  <SCORE.RESTR.norm>
0

>  <SCORE.SYSTEM>
0

>  <SCORE.SYSTEM.CONST>
0

>  <SCORE.SYSTEM.DIHEDRAL>
0

>  <SCORE.SYSTEM.SOLV>
0

>  <SCORE.SYSTEM.norm>
0

>  <SCORE.heavy>
26

>  <SCORE.norm>
-0.676129

>  <RMSD>
10.727

$$$$
ligand
 OpenBabel11021811463D
libRbt.so/2013.1/901 2013/11/27
 26 27  0  0  0  0  0  0  0  0999 V2000
   -4.6821  -44.0217   13.0661 C   0  0  0  0  0  0  0  0  0  0  0  0
   -1.9848  -36.4340   12.8000 C   0  0  0  0  0  0  0  0  0  0  0  0
   -2.2358  -33.6112   10.7764 P   0  0  1  0  0  0  0  0  0  0  0  0
    0.1962  -33.5504    9.5018 P   0  0  2  0  0  0  0  0  0  0  0  0
   -2.8196  -38.9454   11.1421 C   0  0  0  0  0  0  0  0  0  0  0  0
   -4.0131  -40.3436   12.8609 C   0  0  0  0  0  0  0  0  0  0  0  0
   -3.2994  -40.2773   11.6604 C   0  0  0  0  0  0  0  0  0  0  0  0
   -3.0592  -41.4346   10.9148 C   0  0  0  0  0  0  0  0  0  0  0  0
   -2.4005  -41.3632    9.7772 N   0  0  0  0  0  0  0  0  0  0  0  0
   -3.4876  -42.6507   11.3885 N   0  0  0  0  0  0  0  0  0  0  0  0
   -4.2040  -42.7045   12.5676 C   0  0  0  0  0  0  0  0  0  0  0  0
   -4.4561  -41.5667   13.3108 N   0  0  0  0  0  0  0  0  0  0  0  0
   -2.7973  -32.4110   10.0775 O   0  5  0  0  0  0  0  0  0  0  0  0
    1.4371  -32.8195    9.8301 O   0  0  0  0  0  0  0  0  0  0  0  0
   -5.7979  -36.6869   11.9550 S   0  0  0  0  0  0  0  0  0  0  0  0
   -5.0490  -37.9347   11.3349 C   0  0  0  0  0  0  0  0  0  0  0  0
   -2.5993  -34.9306   10.1929 O   0  0  0  0  0  0  0  0  0  0  0  0
   -0.4542  -33.0290    8.2846 O   0  5  0  0  0  0  0  0  0  0  0  0
   -3.7100  -37.9189   11.6089 N   0  0  0  0  0  0  0  0  0  0  0  0
   -0.6811  -33.3153   10.8010 O   0  0  0  0  0  0  0  0  0  0  0  0
    0.3146  -35.0152    9.2307 O   0  0  0  0  0  0  0  0  0  0  0  0
   -3.3549  -36.8101   12.3244 C   0  0  1  0  0  0  0  0  0  0  0  0
   -4.4675  -36.0466   12.5738 C   0  0  2  0  0  0  0  0  0  0  0  0
   -4.6286  -34.7476   13.3237 C   0  0  0  0  0  0  0  0  0  0  0  0
   -4.1288  -33.5487   12.5097 C   0  0  0  0  0  0  0  0  0  0  0  0
   -2.7390  -33.4403   12.2613 O   0  0  0  0  0  0  0  0  0  0  0  0
  1 11  1  0  0  0  0
  3 13  1  6  0  0  0
  3 17  2  0  0  0  0
  3 20  1  0  0  0  0
  3 26  1  0  0  0  0
  4 14  1  1  0  0  0
  4 18  1  0  0  0  0
  4 21  2  0  0  0  0
  4 20  1  0  0  0  0
  5 19  1  0  0  0  0
  5  7  1  0  0  0  0
  6  7  2  0  0  0  0
  6 12  1  0  0  0  0
  7  8  1  0  0  0  0
  8  9  1  0  0  0  0
  8 10  2  0  0  0  0
 10 11  1  0  0  0  0
 11 12  2  0  0  0  0
 15 23  1  0  0  0  0
 15 16  1  0  0  0  0
 16 19  1  0  0  0  0
 19 22  1  0  0  0  0
 22  2  1  1  0  0  0
 22 23  1  0  0  0  0
 23 24  1  1  0  0  0
 24 25  1  0  0  0  0
 25 26  1  0  0  0  0
M  CHG  2  13  -1  18  -1
M  END
>  <CHROM.1>
-78.37236465,-57.92118611,-28.25812386,164.87843481,-104.72875153,-68.19988103
112.43887237,67.09079925,-2.76981764,-36.65038054,11.25380924,-1.99248821
0.57189424,0.00156947

>  <Name>
ligand

>  <RI>
0

>  <Rbt.Current_Directory>
/home/itssahil/PROJECTS/Mol_Feturizer/New_Systems/rnas/3D2G

>  <Rbt.Executable>
rbdock ($Id: //depot/dev/client3/rdock/2013.1/src/exe/rbdock.cxx#4 $)

>  <Rbt.Library>
libRbt.so (2013.1, Build901 2013/11/27)

>  <Rbt.Parameter_File>
/export/apps/rDock/src/rDock_2013.1_src/data/scripts/dock_solv.prm

>  <Rbt.Receptor>
prm/blind_docking_60.prm

>  <SCORE>
-12.5969

>  <SCORE.INTER>
-13.9953

>  <SCORE.INTER.CONST>
1

>  <SCORE.INTER.POLAR>
0

>  <SCORE.INTER.ROT>
8

>  <SCORE.INTER.SOLV>
16.3715

>  <SCORE.INTER.VDW>
-23.7207

>  <SCORE.INTER.norm>
-0.538282

>  <SCORE.INTRA>
1.39844

>  <SCORE.INTRA.DIHEDRAL>
3.43162

>  <SCORE.INTRA.DIHEDRAL.0>
9.09364

>  <SCORE.INTRA.POLAR>
0

>  <SCORE.INTRA.POLAR.0>
0

>  <SCORE.INTRA.REPUL>
0

>  <SCORE.INTRA.REPUL.0>
0

>  <SCORE.INTRA.SOLV>
2.45075

>  <SCORE.INTRA.SOLV.lig_0>
-78.5846

>  <SCORE.INTRA.VDW>
-1.54274

>  <SCORE.INTRA.VDW.0>
-2.81163

>  <SCORE.INTRA.norm>
0.0537862

>  <SCORE.RESTR>
0

>  <SCORE.RESTR.CAVITY>
0

>  <SCORE.RESTR.norm>
0

>  <SCORE.SYSTEM>
0

>  <SCORE.SYSTEM.CONST>
0

>  <SCORE.SYSTEM.DIHEDRAL>
0

>  <SCORE.SYSTEM.SOLV>
0

>  <SCORE.SYSTEM.norm>
0

>  <SCORE.heavy>
26

>  <SCORE.norm>
-0.484496

>  <RMSD>
10.730

$$$$
ligand
 OpenBabel11021811463D
libRbt.so/2013.1/901 2013/11/27
 26 27  0  0  0  0  0  0  0  0999 V2000
   -8.6228  -35.2984   11.5962 C   0  0  0  0  0  0  0  0  0  0  0  0
   -1.4153  -34.0149   11.2156 C   0  0  0  0  0  0  0  0  0  0  0  0
    3.6020  -37.1962    8.2272 P   0  0  1  0  0  0  0  0  0  0  0  0
    5.9941  -36.6769    6.9818 P   0  0  2  0  0  0  0  0  0  0  0  0
   -3.1135  -35.8165   13.1189 C   0  0  0  0  0  0  0  0  0  0  0  0
   -5.2207  -36.7692   12.1261 C   0  0  0  0  0  0  0  0  0  0  0  0
   -4.5565  -35.6828   12.7036 C   0  0  0  0  0  0  0  0  0  0  0  0
   -5.2323  -34.4816   12.9349 C   0  0  0  0  0  0  0  0  0  0  0  0
   -4.6057  -33.4676   13.4937 N   0  0  0  0  0  0  0  0  0  0  0  0
   -6.5447  -34.3537   12.5499 N   0  0  0  0  0  0  0  0  0  0  0  0
   -7.1963  -35.4365   11.9937 C   0  0  0  0  0  0  0  0  0  0  0  0
   -6.5425  -36.6330   11.7670 N   0  0  0  0  0  0  0  0  0  0  0  0
    3.1404  -38.5814    7.8913 O   0  5  0  0  0  0  0  0  0  0  0  0
    6.3668  -38.0213    7.4670 O   0  0  0  0  0  0  0  0  0  0  0  0
   -1.3574  -37.8399   10.3887 S   0  0  0  0  0  0  0  0  0  0  0  0
   -2.2696  -37.6012   11.6589 C   0  0  0  0  0  0  0  0  0  0  0  0
    4.3584  -37.0557    9.5006 O   0  0  0  0  0  0  0  0  0  0  0  0
    6.4693  -35.6070    7.8796 O   0  5  0  0  0  0  0  0  0  0  0  0
   -2.3487  -36.2784   11.9936 N   0  0  0  0  0  0  0  0  0  0  0  0
    4.4121  -36.7670    6.9370 O   0  0  0  0  0  0  0  0  0  0  0  0
    6.5143  -36.2625    5.6436 O   0  0  0  0  0  0  0  0  0  0  0  0
   -1.5929  -35.5016   11.1613 C   0  0  1  0  0  0  0  0  0  0  0  0
   -0.9903  -36.2914   10.2146 C   0  0  2  0  0  0  0  0  0  0  0  0
   -0.0756  -35.9387    9.0681 C   0  0  0  0  0  0  0  0  0  0  0  0
    1.2686  -36.6697    9.1599 C   0  0  0  0  0  0  0  0  0  0  0  0
    2.2703  -36.3515    8.2111 O   0  0  0  0  0  0  0  0  0  0  0  0
  1 11  1  0  0  0  0
  3 13  1  6  0  0  0
  3 17  2  0  0  0  0
  3 20  1  0  0  0  0
  3 26  1  0  0  0  0
  4 14  1  1  0  0  0
  4 18  1  0  0  0  0
  4 21  2  0  0  0  0
  4 20  1  0  0  0  0
  5 19  1  0  0  0  0
  5  7  1  0  0  0  0
  6  7  2  0  0  0  0
  6 12  1  0  0  0  0
  7  8  1  0  0  0  0
  8  9  1  0  0  0  0
  8 10  2  0  0  0  0
 10 11  1  0  0  0  0
 11 12  2  0  0  0  0
 15 23  1  0  0  0  0
 15 16  1  0  0  0  0
 16 19  1  0  0  0  0
 19 22  1  0  0  0  0
 22  2  1  6  0  0  0
 22 23  1  0  0  0  0
 23 24  1  6  0  0  0
 24 25  1  0  0  0  0
 25 26  1  0  0  0  0
M  CHG  2  13  -1  18  -1
M  END
>  <CHROM.1>
-107.47609503,-82.95512775,54.05776521,54.49162983,-58.39414350,-174.84817416
-174.57122035,63.35315053,0.01586313,-36.33547345,9.88692567,2.87530635,0.35605962
0.37525953

>  <Name>
ligand

>  <RI>
0

>  <Rbt.Current_Directory>
/home/itssahil/PROJECTS/Mol_Feturizer/New_Systems/rnas/3D2G

>  <Rbt.Executable>
rbdock ($Id: //depot/dev/client3/rdock/2013.1/src/exe/rbdock.cxx#4 $)

>  <Rbt.Library>
libRbt.so (2013.1, Build901 2013/11/27)

>  <Rbt.Parameter_File>
/export/apps/rDock/src/rDock_2013.1_src/data/scripts/dock_solv.prm

>  <Rbt.Receptor>
prm/blind_docking_40.prm

>  <SCORE>
-20.4051

>  <SCORE.INTER>
-18.8495

>  <SCORE.INTER.CONST>
1

>  <SCORE.INTER.POLAR>
0

>  <SCORE.INTER.ROT>
8

>  <SCORE.INTER.SOLV>
18.32

>  <SCORE.INTER.VDW>
-27.6063

>  <SCORE.INTER.norm>
-0.724982

>  <SCORE.INTRA>
-1.55676

>  <SCORE.INTRA.DIHEDRAL>
-1.72228

>  <SCORE.INTRA.DIHEDRAL.0>
9.09364

>  <SCORE.INTRA.POLAR>
0

>  <SCORE.INTRA.POLAR.0>
0

>  <SCORE.INTRA.REPUL>
0

>  <SCORE.INTRA.REPUL.0>
0

>  <SCORE.INTRA.SOLV>
-1.58803

>  <SCORE.INTRA.SOLV.lig_0>
-78.5846

>  <SCORE.INTRA.VDW>
0.098395

>  <SCORE.INTRA.VDW.0>
-2.81163

>  <SCORE.INTRA.norm>
-0.0598752

>  <SCORE.RESTR>
0.00119836

>  <SCORE.RESTR.CAVITY>
0.00119836

>  <SCORE.RESTR.norm>
4.60908e-05

>  <SCORE.SYSTEM>
0

>  <SCORE.SYSTEM.CONST>
0

>  <SCORE.SYSTEM.DIHEDRAL>
0

>  <SCORE.SYSTEM.SOLV>
0

>  <SCORE.SYSTEM.norm>
0

>  <SCORE.heavy>
26

>  <SCORE.norm>
-0.784811

>  <RMSD>
10.749

$$$$
ligand
 OpenBabel11021811463D
libRbt.so/2013.1/901 2013/11/27
 26 27  0  0  0  0  0  0  0  0999 V2000
   -8.5817  -35.4421   11.8700 C   0  0  0  0  0  0  0  0  0  0  0  0
   -1.9088  -37.7906   10.8091 C   0  0  0  0  0  0  0  0  0  0  0  0
    3.2956  -37.0206    8.0602 P   0  0  1  0  0  0  0  0  0  0  0  0
    5.9899  -36.6251    7.7040 P   0  0  2  0  0  0  0  0  0  0  0  0
   -3.0385  -36.1203   13.1938 C   0  0  0  0  0  0  0  0  0  0  0  0
   -5.2066  -37.0110   12.2777 C   0  0  0  0  0  0  0  0  0  0  0  0
   -4.4910  -35.9446   12.8306 C   0  0  0  0  0  0  0  0  0  0  0  0
   -5.1231  -34.7246   13.0857 C   0  0  0  0  0  0  0  0  0  0  0  0
   -4.4477  -33.7296   13.6213 N   0  0  0  0  0  0  0  0  0  0  0  0
   -6.4442  -34.5585   12.7481 N   0  0  0  0  0  0  0  0  0  0  0  0
   -7.1463  -35.6216   12.2159 C   0  0  0  0  0  0  0  0  0  0  0  0
   -6.5360  -36.8364   11.9663 N   0  0  0  0  0  0  0  0  0  0  0  0
    3.3909  -36.8503    6.5748 O   0  5  0  0  0  0  0  0  0  0  0  0
    6.1199  -38.0950    7.6389 O   0  0  0  0  0  0  0  0  0  0  0  0
   -1.0030  -33.9834   10.7603 S   0  0  0  0  0  0  0  0  0  0  0  0
   -1.8896  -34.2856   12.0350 C   0  0  0  0  0  0  0  0  0  0  0  0
    2.9879  -38.3960    8.5368 O   0  0  0  0  0  0  0  0  0  0  0  0
    7.1661  -35.9868    8.3250 O   0  5  0  0  0  0  0  0  0  0  0  0
   -2.2283  -35.6068   12.1241 N   0  0  0  0  0  0  0  0  0  0  0  0
    4.6776  -36.4461    8.5751 O   0  0  0  0  0  0  0  0  0  0  0  0
    5.8410  -35.8921    6.4103 O   0  0  0  0  0  0  0  0  0  0  0  0
   -1.7384  -36.3250   11.0698 C   0  0  1  0  0  0  0  0  0  0  0  0
   -1.0269  -35.4967   10.2386 C   0  0  2  0  0  0  0  0  0  0  0  0
   -0.2803  -35.7821    8.9593 C   0  0  0  0  0  0  0  0  0  0  0  0
    1.0840  -36.4294    9.2226 C   0  0  0  0  0  0  0  0  0  0  0  0
    2.1985  -35.9685    8.4807 O   0  0  0  0  0  0  0  0  0  0  0  0
  1 11  1  0  0  0  0
  3 13  1  6  0  0  0
  3 17  2  0  0  0  0
  3 20  1  0  0  0  0
  3 26  1  0  0  0  0
  4 14  1  6  0  0  0
  4 18  1  0  0  0  0
  4 21  2  0  0  0  0
  4 20  1  0  0  0  0
  5 19  1  0  0  0  0
  5  7  1  0  0  0  0
  6  7  2  0  0  0  0
  6 12  1  0  0  0  0
  7  8  1  0  0  0  0
  8  9  1  0  0  0  0
  8 10  2  0  0  0  0
 10 11  1  0  0  0  0
 11 12  2  0  0  0  0
 15 23  1  0  0  0  0
 15 16  1  0  0  0  0
 16 19  1  0  0  0  0
 19 22  1  0  0  0  0
 22  2  1  1  0  0  0
 22 23  1  0  0  0  0
 23 24  1  1  0  0  0
 24 25  1  0  0  0  0
 25 26  1  0  0  0  0
M  CHG  2  13  -1  18  -1
M  END
>  <CHROM.1>
-33.97460065,85.58590247,97.41008194,-61.43357841,101.27302259,-136.76068914
-144.44558507,125.39443432,-0.02531757,-36.05442533,10.04092751,2.83820653
0.31602361,0.51277364

>  <Name>
ligand

>  <RI>
0

>  <Rbt.Current_Directory>
/home/itssahil/PROJECTS/Mol_Feturizer/New_Systems/rnas/3D2G

>  <Rbt.Executable>
rbdock ($Id: //depot/dev/client3/rdock/2013.1/src/exe/rbdock.cxx#4 $)

>  <Rbt.Library>
libRbt.so (2013.1, Build901 2013/11/27)

>  <Rbt.Parameter_File>
/export/apps/rDock/src/rDock_2013.1_src/data/scripts/dock_solv.prm

>  <Rbt.Receptor>
prm/blind_docking_40.prm

>  <SCORE>
-12.4141

>  <SCORE.INTER>
-16.4254

>  <SCORE.INTER.CONST>
1

>  <SCORE.INTER.POLAR>
0

>  <SCORE.INTER.ROT>
8

>  <SCORE.INTER.SOLV>
19.2775

>  <SCORE.INTER.VDW>
-26.3094

>  <SCORE.INTER.norm>
-0.631746

>  <SCORE.INTRA>
3.9336

>  <SCORE.INTRA.DIHEDRAL>
8.43776

>  <SCORE.INTRA.DIHEDRAL.0>
9.09364

>  <SCORE.INTRA.POLAR>
0

>  <SCORE.INTRA.POLAR.0>
0

>  <SCORE.INTRA.REPUL>
0

>  <SCORE.INTRA.REPUL.0>
0

>  <SCORE.INTRA.SOLV>
-0.456698

>  <SCORE.INTRA.SOLV.lig_0>
-78.5846

>  <SCORE.INTRA.VDW>
-0.0569345

>  <SCORE.INTRA.VDW.0>
-2.81163

>  <SCORE.INTRA.norm>
0.151292

>  <SCORE.RESTR>
0.0777292

>  <SCORE.RESTR.CAVITY>
0.0777292

>  <SCORE.RESTR.norm>
0.00298958

>  <SCORE.SYSTEM>
0

>  <SCORE.SYSTEM.CONST>
0

>  <SCORE.SYSTEM.DIHEDRAL>
0

>  <SCORE.SYSTEM.SOLV>
0

>  <SCORE.SYSTEM.norm>
0

>  <SCORE.heavy>
26

>  <SCORE.norm>
-0.477464

>  <RMSD>
10.764

$$$$
ligand
 OpenBabel11021811463D
libRbt.so/2013.1/901 2013/11/27
 26 27  0  0  0  0  0  0  0  0999 V2000
    0.7325  -37.1344    9.0733 C   0  0  0  0  0  0  0  0  0  0  0  0
   -3.9349  -36.5724   13.0513 C   0  0  0  0  0  0  0  0  0  0  0  0
   -7.9003  -36.4179    8.3420 P   0  0  1  0  0  0  0  0  0  0  0  0
   -7.0876  -36.6212    5.7264 P   0  0  2  0  0  0  0  0  0  0  0  0
   -2.2770  -33.9407   12.7723 C   0  0  0  0  0  0  0  0  0  0  0  0
   -0.8190  -35.9268   12.2598 C   0  0  0  0  0  0  0  0  0  0  0  0
   -1.4731  -34.7763   11.8089 C   0  0  0  0  0  0  0  0  0  0  0  0
   -1.4194  -34.4139   10.4602 C   0  0  0  0  0  0  0  0  0  0  0  0
   -2.0508  -33.3382   10.0392 N   0  0  0  0  0  0  0  0  0  0  0  0
   -0.6808  -35.1683    9.5815 N   0  0  0  0  0  0  0  0  0  0  0  0
   -0.0501  -36.3106   10.0331 C   0  0  0  0  0  0  0  0  0  0  0  0
   -0.1020  -36.6854   11.3625 N   0  0  0  0  0  0  0  0  0  0  0  0
   -7.8744  -34.9385    8.1071 O   0  5  0  0  0  0  0  0  0  0  0  0
   -8.4692  -37.0839    5.4837 O   0  0  0  0  0  0  0  0  0  0  0  0
   -5.9353  -33.4660   11.7606 S   0  0  0  0  0  0  0  0  0  0  0  0
   -4.4345  -33.0399   12.0220 C   0  0  0  0  0  0  0  0  0  0  0  0
   -9.2433  -37.0571    8.3046 O   0  0  0  0  0  0  0  0  0  0  0  0
   -6.1084  -37.3072    4.8622 O   0  5  0  0  0  0  0  0  0  0  0  0
   -3.6718  -34.0864   12.4595 N   0  0  0  0  0  0  0  0  0  0  0  0
   -6.8855  -36.9693    7.2597 O   0  0  0  0  0  0  0  0  0  0  0  0
   -6.7991  -35.1733    5.4951 O   0  0  0  0  0  0  0  0  0  0  0  0
   -4.4102  -35.2290   12.5887 C   0  0  1  0  0  0  0  0  0  0  0  0
   -5.7078  -34.9839   12.2155 C   0  0  2  0  0  0  0  0  0  0  0  0
   -6.9099  -35.8935   12.1589 C   0  0  0  0  0  0  0  0  0  0  0  0
   -7.6460  -35.7898   10.8184 C   0  0  0  0  0  0  0  0  0  0  0  0
   -7.1849  -36.5805    9.7381 O   0  0  0  0  0  0  0  0  0  0  0  0
  1 11  1  0  0  0  0
  3 13  1  6  0  0  0
  3 17  2  0  0  0  0
  3 20  1  0  0  0  0
  3 26  1  0  0  0  0
  4 14  1  6  0  0  0
  4 18  1  0  0  0  0
  4 21  2  0  0  0  0
  4 20  1  0  0  0  0
  5 19  1  0  0  0  0
  5  7  1  0  0  0  0
  6  7  2  0  0  0  0
  6 12  1  0  0  0  0
  7  8  1  0  0  0  0
  8  9  1  0  0  0  0
  8 10  2  0  0  0  0
 10 11  1  0  0  0  0
 11 12  2  0  0  0  0
 15 23  1  0  0  0  0
 15 16  1  0  0  0  0
 16 19  1  0  0  0  0
 19 22  1  0  0  0  0
 22  2  1  6  0  0  0
 22 23  1  0  0  0  0
 23 24  1  6  0  0  0
 24 25  1  0  0  0  0
 25 26  1  0  0  0  0
M  CHG  2  13  -1  18  -1
M  END
>  <CHROM.1>
-55.25535977,-115.55438263,-109.95753423,-55.09312377,48.55148919,84.98810656
-177.04480174,51.39190210,-4.99902568,-35.61502937,9.61346827,-0.68663007
0.05230697,-1.92411896

>  <Name>
ligand

>  <RI>
0

>  <Rbt.Current_Directory>
/home/itssahil/PROJECTS/Mol_Feturizer/New_Systems/rnas/3D2G

>  <Rbt.Executable>
rbdock ($Id: //depot/dev/client3/rdock/2013.1/src/exe/rbdock.cxx#4 $)

>  <Rbt.Library>
libRbt.so (2013.1, Build901 2013/11/27)

>  <Rbt.Parameter_File>
/export/apps/rDock/src/rDock_2013.1_src/data/scripts/dock_solv.prm

>  <Rbt.Receptor>
prm/blind_docking_40.prm

>  <SCORE>
-15.7974

>  <SCORE.INTER>
-14.9988

>  <SCORE.INTER.CONST>
1

>  <SCORE.INTER.POLAR>
0

>  <SCORE.INTER.ROT>
8

>  <SCORE.INTER.SOLV>
33.1405

>  <SCORE.INTER.VDW>
-29.9794

>  <SCORE.INTER.norm>
-0.576878

>  <SCORE.INTRA>
-0.798583

>  <SCORE.INTRA.DIHEDRAL>
-1.24429

>  <SCORE.INTRA.DIHEDRAL.0>
9.09364

>  <SCORE.INTRA.POLAR>
0

>  <SCORE.INTRA.POLAR.0>
0

>  <SCORE.INTRA.REPUL>
0

>  <SCORE.INTRA.REPUL.0>
0

>  <SCORE.INTRA.SOLV>
-0.520557

>  <SCORE.INTRA.SOLV.lig_0>
-78.5846

>  <SCORE.INTRA.VDW>
0.083842

>  <SCORE.INTRA.VDW.0>
-2.81163

>  <SCORE.INTRA.norm>
-0.0307147

>  <SCORE.RESTR>
0

>  <SCORE.RESTR.CAVITY>
0

>  <SCORE.RESTR.norm>
0

>  <SCORE.SYSTEM>
0

>  <SCORE.SYSTEM.CONST>
0

>  <SCORE.SYSTEM.DIHEDRAL>
0

>  <SCORE.SYSTEM.SOLV>
0

>  <SCORE.SYSTEM.norm>
0

>  <SCORE.heavy>
26

>  <SCORE.norm>
-0.607593

>  <RMSD>
10.774

$$$$
ligand
 OpenBabel11021811463D
libRbt.so/2013.1/901 2013/11/27
 26 27  0  0  0  0  0  0  0  0999 V2000
   -8.6565  -35.4204   11.7807 C   0  0  0  0  0  0  0  0  0  0  0  0
   -1.3710  -34.0373   11.3049 C   0  0  0  0  0  0  0  0  0  0  0  0
    3.6459  -37.0398    8.3385 P   0  0  1  0  0  0  0  0  0  0  0  0
    6.0455  -36.6998    7.0464 P   0  0  2  0  0  0  0  0  0  0  0  0
   -3.1030  -35.8543   13.1627 C   0  0  0  0  0  0  0  0  0  0  0  0
   -5.2143  -36.8317   12.2035 C   0  0  0  0  0  0  0  0  0  0  0  0
   -4.5579  -35.7423   12.7843 C   0  0  0  0  0  0  0  0  0  0  0  0
   -5.2514  -34.5591   13.0529 C   0  0  0  0  0  0  0  0  0  0  0  0
   -4.6315  -33.5426   13.6146 N   0  0  0  0  0  0  0  0  0  0  0  0
   -6.5749  -34.4509   12.7015 N   0  0  0  0  0  0  0  0  0  0  0  0
   -7.2183  -35.5367   12.1417 C   0  0  0  0  0  0  0  0  0  0  0  0
   -6.5468  -36.7158   11.8783 N   0  0  0  0  0  0  0  0  0  0  0  0
    3.3265  -38.4830    8.0940 O   0  5  0  0  0  0  0  0  0  0  0  0
    6.2941  -38.0884    7.4843 O   0  0  0  0  0  0  0  0  0  0  0  0
   -1.4224  -37.8333   10.3536 S   0  0  0  0  0  0  0  0  0  0  0  0
   -2.3183  -37.6121   11.6384 C   0  0  0  0  0  0  0  0  0  0  0  0
    4.3371  -36.7368    9.6206 O   0  0  0  0  0  0  0  0  0  0  0  0
    6.6491  -35.7096    7.9583 O   0  5  0  0  0  0  0  0  0  0  0  0
   -2.3593  -36.2992   12.0167 N   0  0  0  0  0  0  0  0  0  0  0  0
    4.4618  -36.6305    7.0454 O   0  0  0  0  0  0  0  0  0  0  0  0
    6.5692  -36.2998    5.7052 O   0  0  0  0  0  0  0  0  0  0  0  0
   -1.5890  -35.5161   11.2038 C   0  0  1  0  0  0  0  0  0  0  0  0
   -1.0150  -36.2903   10.2269 C   0  0  2  0  0  0  0  0  0  0  0  0
   -0.0997  -35.9248    9.0849 C   0  0  0  0  0  0  0  0  0  0  0  0
    1.2662  -36.6107    9.2014 C   0  0  0  0  0  0  0  0  0  0  0  0
    2.2439  -36.3278    8.2171 O   0  0  0  0  0  0  0  0  0  0  0  0
  1 11  1  0  0  0  0
  3 13  1  6  0  0  0
  3 17  2  0  0  0  0
  3 20  1  0  0  0  0
  3 26  1  0  0  0  0
  4 14  1  1  0  0  0
  4 18  1  0  0  0  0
  4 21  2  0  0  0  0
  4 20  1  0  0  0  0
  5 19  1  0  0  0  0
  5  7  1  0  0  0  0
  6  7  2  0  0  0  0
  6 12  1  0  0  0  0
  7  8  1  0  0  0  0
  8  9  1  0  0  0  0
  8 10  2  0  0  0  0
 10 11  1  0  0  0  0
 11 12  2  0  0  0  0
 15 23  1  0  0  0  0
 15 16  1  0  0  0  0
 16 19  1  0  0  0  0
 19 22  1  0  0  0  0
 22  2  1  6  0  0  0
 22 23  1  0  0  0  0
 23 24  1  6  0  0  0
 24 25  1  0  0  0  0
 25 26  1  0  0  0  0
M  CHG  2  13  -1  18  -1
M  END
>  <CHROM.1>
-93.91664126,-79.83648566,53.25539862,53.39414067,-62.85318283,-178.15094929
-179.78660182,66.98184314,0.02576650,-36.33346350,9.96005954,2.86193845,0.34146256
0.44375564

>  <Name>
ligand

>  <RI>
0

>  <Rbt.Current_Directory>
/home/itssahil/PROJECTS/Mol_Feturizer/New_Systems/rnas/3D2G

>  <Rbt.Executable>
rbdock ($Id: //depot/dev/client3/rdock/2013.1/src/exe/rbdock.cxx#4 $)

>  <Rbt.Library>
libRbt.so (2013.1, Build901 2013/11/27)

>  <Rbt.Parameter_File>
/export/apps/rDock/src/rDock_2013.1_src/data/scripts/dock_solv.prm

>  <Rbt.Receptor>
prm/blind_docking_40.prm

>  <SCORE>
-20.4459

>  <SCORE.INTER>
-18.2728

>  <SCORE.INTER.CONST>
1

>  <SCORE.INTER.POLAR>
0

>  <SCORE.INTER.ROT>
8

>  <SCORE.INTER.SOLV>
19.2319

>  <SCORE.INTER.VDW>
-27.5258

>  <SCORE.INTER.norm>
-0.702799

>  <SCORE.INTRA>
-2.19701

>  <SCORE.INTRA.DIHEDRAL>
-2.73419

>  <SCORE.INTRA.DIHEDRAL.0>
9.09364

>  <SCORE.INTRA.POLAR>
0

>  <SCORE.INTRA.POLAR.0>
0

>  <SCORE.INTRA.REPUL>
0

>  <SCORE.INTRA.REPUL.0>
0

>  <SCORE.INTRA.SOLV>
-1.58315

>  <SCORE.INTRA.SOLV.lig_0>
-78.5846

>  <SCORE.INTRA.VDW>
-0.0383402

>  <SCORE.INTRA.VDW.0>
-2.81163

>  <SCORE.INTRA.norm>
-0.0845004

>  <SCORE.RESTR>
0.0238931

>  <SCORE.RESTR.CAVITY>
0.0238931

>  <SCORE.RESTR.norm>
0.000918967

>  <SCORE.SYSTEM>
0

>  <SCORE.SYSTEM.CONST>
0

>  <SCORE.SYSTEM.DIHEDRAL>
0

>  <SCORE.SYSTEM.SOLV>
0

>  <SCORE.SYSTEM.norm>
0

>  <SCORE.heavy>
26

>  <SCORE.norm>
-0.78638

>  <RMSD>
10.795

$$$$
ligand
 OpenBabel11021811463D
libRbt.so/2013.1/901 2013/11/27
 26 27  0  0  0  0  0  0  0  0999 V2000
   -8.5996  -35.2785   11.6282 C   0  0  0  0  0  0  0  0  0  0  0  0
   -2.3450  -37.5151   11.3270 C   0  0  0  0  0  0  0  0  0  0  0  0
    3.4056  -36.4366    8.2402 P   0  0  1  0  0  0  0  0  0  0  0  0
    5.4910  -37.1823    6.6160 P   0  0  2  0  0  0  0  0  0  0  0  0
   -3.1398  -35.3161   13.3971 C   0  0  0  0  0  0  0  0  0  0  0  0
   -5.1540  -36.4911   12.4506 C   0  0  0  0  0  0  0  0  0  0  0  0
   -4.5690  -35.3102   12.9177 C   0  0  0  0  0  0  0  0  0  0  0  0
   -5.3125  -34.1284   12.9799 C   0  0  0  0  0  0  0  0  0  0  0  0
   -4.7606  -33.0236   13.4357 N   0  0  0  0  0  0  0  0  0  0  0  0
   -6.6123  -34.1176   12.5359 N   0  0  0  0  0  0  0  0  0  0  0  0
   -7.1858  -35.2918   12.0899 C   0  0  0  0  0  0  0  0  0  0  0  0
   -6.4648  -36.4696   12.0309 N   0  0  0  0  0  0  0  0  0  0  0  0
    3.9589  -37.3579    9.2841 O   0  5  0  0  0  0  0  0  0  0  0  0
    5.5259  -37.7112    5.2374 O   0  0  0  0  0  0  0  0  0  0  0  0
   -0.8127  -33.9734   10.6743 S   0  0  0  0  0  0  0  0  0  0  0  0
   -1.7172  -33.9124   11.9707 C   0  0  0  0  0  0  0  0  0  0  0  0
    3.7307  -34.9947    8.4096 O   0  0  0  0  0  0  0  0  0  0  0  0
    6.1648  -38.0777    7.5755 O   0  5  0  0  0  0  0  0  0  0  0  0
   -2.2718  -35.1258   12.2680 N   0  0  0  0  0  0  0  0  0  0  0  0
    3.9335  -37.0697    6.8890 O   0  0  0  0  0  0  0  0  0  0  0  0
    6.1432  -35.8600    6.8597 O   0  0  0  0  0  0  0  0  0  0  0  0
   -1.9265  -36.0766   11.3494 C   0  0  1  0  0  0  0  0  0  0  0  0
   -1.0991  -35.5250   10.4037 C   0  0  2  0  0  0  0  0  0  0  0  0
   -0.4315  -36.1346    9.1961 C   0  0  0  0  0  0  0  0  0  0  0  0
    1.0965  -36.1251    9.3186 C   0  0  0  0  0  0  0  0  0  0  0  0
    1.8552  -36.7225    8.2830 O   0  0  0  0  0  0  0  0  0  0  0  0
  1 11  1  0  0  0  0
  3 13  1  1  0  0  0
  3 17  2  0  0  0  0
  3 20  1  0  0  0  0
  3 26  1  0  0  0  0
  4 14  1  6  0  0  0
  4 18  1  0  0  0  0
  4 21  2  0  0  0  0
  4 20  1  0  0  0  0
  5 19  1  0  0  0  0
  5  7  1  0  0  0  0
  6  7  2  0  0  0  0
  6 12  1  0  0  0  0
  7  8  1  0  0  0  0
  8  9  1  0  0  0  0
  8 10  2  0  0  0  0
 10 11  1  0  0  0  0
 11 12  2  0  0  0  0
 15 23  1  0  0  0  0
 15 16  1  0  0  0  0
 16 19  1  0  0  0  0
 19 22  1  0  0  0  0
 22  2  1  1  0  0  0
 22 23  1  0  0  0  0
 23 24  1  1  0  0  0
 24 25  1  0  0  0  0
 25 26  1  0  0  0  0
M  CHG  2  13  -1  18  -1
M  END
>  <CHROM.1>
-61.62377734,100.06888107,85.88427037,-175.61018144,63.82944918,177.17241601
166.61293682,79.14140094,-0.12982541,-35.87303033,9.92376640,2.74161643,0.29831613
0.61094687

>  <Name>
ligand

>  <RI>
0

>  <Rbt.Current_Directory>
/home/itssahil/PROJECTS/Mol_Feturizer/New_Systems/rnas/3D2G

>  <Rbt.Executable>
rbdock ($Id: //depot/dev/client3/rdock/2013.1/src/exe/rbdock.cxx#4 $)

>  <Rbt.Library>
libRbt.so (2013.1, Build901 2013/11/27)

>  <Rbt.Parameter_File>
/export/apps/rDock/src/rDock_2013.1_src/data/scripts/dock_solv.prm

>  <Rbt.Receptor>
prm/blind_docking_40.prm

>  <SCORE>
-17.139

>  <SCORE.INTER>
-15.8763

>  <SCORE.INTER.CONST>
1

>  <SCORE.INTER.POLAR>
0

>  <SCORE.INTER.ROT>
8

>  <SCORE.INTER.SOLV>
21.6379

>  <SCORE.INTER.VDW>
-26.7302

>  <SCORE.INTER.norm>
-0.610627

>  <SCORE.INTRA>
-1.30269

>  <SCORE.INTRA.DIHEDRAL>
-2.6044

>  <SCORE.INTRA.DIHEDRAL.0>
9.09364

>  <SCORE.INTRA.POLAR>
0

>  <SCORE.INTRA.POLAR.0>
0

>  <SCORE.INTRA.REPUL>
0

>  <SCORE.INTRA.REPUL.0>
0

>  <SCORE.INTRA.SOLV>
0.617486

>  <SCORE.INTRA.SOLV.lig_0>
-78.5846

>  <SCORE.INTRA.VDW>
-0.309236

>  <SCORE.INTRA.VDW.0>
-2.81163

>  <SCORE.INTRA.norm>
-0.0501036

>  <SCORE.RESTR>
0.0400264

>  <SCORE.RESTR.CAVITY>
0.0400264

>  <SCORE.RESTR.norm>
0.00153948

>  <SCORE.SYSTEM>
0

>  <SCORE.SYSTEM.CONST>
0

>  <SCORE.SYSTEM.DIHEDRAL>
0

>  <SCORE.SYSTEM.SOLV>
0

>  <SCORE.SYSTEM.norm>
0

>  <SCORE.heavy>
26

>  <SCORE.norm>
-0.659191

>  <RMSD>
10.810

$$$$
ligand
 OpenBabel11021811463D
libRbt.so/2013.1/901 2013/11/27
 26 27  0  0  0  0  0  0  0  0999 V2000
   -7.7796  -35.6566   12.3072 C   0  0  0  0  0  0  0  0  0  0  0  0
   -1.7167  -36.7791   12.0041 C   0  0  0  0  0  0  0  0  0  0  0  0
    3.4210  -36.8665    7.8666 P   0  0  1  0  0  0  0  0  0  0  0  0
    5.7143  -36.5184    9.3372 P   0  0  2  0  0  0  0  0  0  0  0  0
   -2.3827  -33.7281   12.0023 C   0  0  0  0  0  0  0  0  0  0  0  0
   -4.6613  -34.0593   10.9868 C   0  0  0  0  0  0  0  0  0  0  0  0
   -3.8056  -34.2196   12.0808 C   0  0  0  0  0  0  0  0  0  0  0  0
   -4.2485  -34.8681   13.2369 C   0  0  0  0  0  0  0  0  0  0  0  0
   -3.4329  -35.0300   14.2575 N   0  0  0  0  0  0  0  0  0  0  0  0
   -5.5469  -35.3094   13.3149 N   0  0  0  0  0  0  0  0  0  0  0  0
   -6.3803  -35.1596   12.2242 C   0  0  0  0  0  0  0  0  0  0  0  0
   -5.9529  -34.5278   11.0715 N   0  0  0  0  0  0  0  0  0  0  0  0
    3.8728  -35.5781    7.2499 O   0  5  0  0  0  0  0  0  0  0  0  0
    5.9969  -36.6773   10.7783 O   0  0  0  0  0  0  0  0  0  0  0  0
   -0.5921  -34.8251    8.8050 S   0  0  0  0  0  0  0  0  0  0  0  0
   -1.3017  -33.8202    9.7995 C   0  0  0  0  0  0  0  0  0  0  0  0
    3.6336  -38.0885    7.0450 O   0  0  0  0  0  0  0  0  0  0  0  0
    5.9951  -35.1510    8.8599 O   0  5  0  0  0  0  0  0  0  0  0  0
   -1.7056  -34.4359   10.9510 N   0  0  0  0  0  0  0  0  0  0  0  0
    4.1725  -36.8785    9.2596 O   0  0  0  0  0  0  0  0  0  0  0  0
    6.4825  -37.3807    8.3888 O   0  0  0  0  0  0  0  0  0  0  0  0
   -1.4194  -35.7720   10.9354 C   0  0  1  0  0  0  0  0  0  0  0  0
   -0.7856  -36.0940    9.7616 C   0  0  2  0  0  0  0  0  0  0  0  0
   -0.2515  -37.4104    9.2541 C   0  0  0  0  0  0  0  0  0  0  0  0
    1.2791  -37.4157    9.1715 C   0  0  0  0  0  0  0  0  0  0  0  0
    1.8998  -36.6050    8.1904 O   0  0  0  0  0  0  0  0  0  0  0  0
  1 11  1  0  0  0  0
  3 13  1  6  0  0  0
  3 17  2  0  0  0  0
  3 20  1  0  0  0  0
  3 26  1  0  0  0  0
  4 14  1  1  0  0  0
  4 18  1  0  0  0  0
  4 21  2  0  0  0  0
  4 20  1  0  0  0  0
  5 19  1  0  0  0  0
  5  7  1  0  0  0  0
  6  7  2  0  0  0  0
  6 12  1  0  0  0  0
  7  8  1  0  0  0  0
  8  9  1  0  0  0  0
  8 10  2  0  0  0  0
 10 11  1  0  0  0  0
 11 12  2  0  0  0  0
 15 23  1  0  0  0  0
 15 16  1  0  0  0  0
 16 19  1  0  0  0  0
 19 22  1  0  0  0  0
 22  2  1  1  0  0  0
 22 23  1  0  0  0  0
 23 24  1  1  0  0  0
 24 25  1  0  0  0  0
 25 26  1  0  0  0  0
M  CHG  2  13  -1  18  -1
M  END
>  <CHROM.1>
-46.26162543,111.82894139,-61.71253250,-178.95261600,67.44431761,-69.31419116
-165.37071879,-158.81655131,0.26419623,-35.82626084,10.05989772,2.77278056
-0.11759839,1.40369039

>  <Name>
ligand

>  <RI>
0

>  <Rbt.Current_Directory>
/home/itssahil/PROJECTS/Mol_Feturizer/New_Systems/rnas/3D2G

>  <Rbt.Executable>
rbdock ($Id: //depot/dev/client3/rdock/2013.1/src/exe/rbdock.cxx#4 $)

>  <Rbt.Library>
libRbt.so (2013.1, Build901 2013/11/27)

>  <Rbt.Parameter_File>
/export/apps/rDock/src/rDock_2013.1_src/data/scripts/dock_solv.prm

>  <Rbt.Receptor>
prm/blind_docking_40.prm

>  <SCORE>
-18.4943

>  <SCORE.INTER>
-17.8481

>  <SCORE.INTER.CONST>
1

>  <SCORE.INTER.POLAR>
0

>  <SCORE.INTER.ROT>
8

>  <SCORE.INTER.SOLV>
27.1971

>  <SCORE.INTER.VDW>
-29.8978

>  <SCORE.INTER.norm>
-0.686467

>  <SCORE.INTRA>
-0.945694

>  <SCORE.INTRA.DIHEDRAL>
-1.6582

>  <SCORE.INTRA.DIHEDRAL.0>
9.09364

>  <SCORE.INTRA.POLAR>
0

>  <SCORE.INTRA.POLAR.0>
0

>  <SCORE.INTRA.REPUL>
0

>  <SCORE.INTRA.REPUL.0>
0

>  <SCORE.INTRA.SOLV>
1.17195

>  <SCORE.INTRA.SOLV.lig_0>
-78.5846

>  <SCORE.INTRA.VDW>
-0.702566

>  <SCORE.INTRA.VDW.0>
-2.81163

>  <SCORE.INTRA.norm>
-0.0363728

>  <SCORE.RESTR>
0.299574

>  <SCORE.RESTR.CAVITY>
0.299574

>  <SCORE.RESTR.norm>
0.0115221

>  <SCORE.SYSTEM>
0

>  <SCORE.SYSTEM.CONST>
0

>  <SCORE.SYSTEM.DIHEDRAL>
0

>  <SCORE.SYSTEM.SOLV>
0

>  <SCORE.SYSTEM.norm>
0

>  <SCORE.heavy>
26

>  <SCORE.norm>
-0.711318

>  <RMSD>
10.838

$$$$
ligand
 OpenBabel11021811463D
libRbt.so/2013.1/901 2013/11/27
 26 27  0  0  0  0  0  0  0  0999 V2000
   -6.1843  -37.8055   11.8079 C   0  0  0  0  0  0  0  0  0  0  0  0
   -0.2892  -34.5976   12.0726 C   0  0  0  0  0  0  0  0  0  0  0  0
    2.2205  -37.4939    8.1468 P   0  0  1  0  0  0  0  0  0  0  0  0
    4.9404  -37.1821    8.3648 P   0  0  2  0  0  0  0  0  0  0  0  0
   -2.9977  -33.0501   12.2216 C   0  0  0  0  0  0  0  0  0  0  0  0
   -3.2649  -35.4713   11.5895 C   0  0  0  0  0  0  0  0  0  0  0  0
   -3.8330  -34.2988   12.0970 C   0  0  0  0  0  0  0  0  0  0  0  0
   -5.1627  -34.2849   12.5269 C   0  0  0  0  0  0  0  0  0  0  0  0
   -5.6868  -33.1820   13.0186 N   0  0  0  0  0  0  0  0  0  0  0  0
   -5.9289  -35.4186   12.4068 N   0  0  0  0  0  0  0  0  0  0  0  0
   -5.3552  -36.5755   11.9179 C   0  0  0  0  0  0  0  0  0  0  0  0
   -4.0390  -36.6058   11.4970 N   0  0  0  0  0  0  0  0  0  0  0  0
    2.1865  -37.3328    6.6577 O   0  5  0  0  0  0  0  0  0  0  0  0
    4.9973  -36.6693    9.7489 O   0  0  0  0  0  0  0  0  0  0  0  0
   -1.1335  -32.4015    8.9450 S   0  0  0  0  0  0  0  0  0  0  0  0
   -2.3077  -32.2724    9.9971 C   0  0  0  0  0  0  0  0  0  0  0  0
    1.1019  -38.2749    8.7403 O   0  0  0  0  0  0  0  0  0  0  0  0
    4.8171  -36.0982    7.3717 O   0  5  0  0  0  0  0  0  0  0  0  0
   -2.0682  -33.0035   11.1269 N   0  0  0  0  0  0  0  0  0  0  0  0
    3.6553  -38.1093    8.4069 O   0  0  0  0  0  0  0  0  0  0  0  0
    6.1139  -37.9677    7.8760 O   0  0  0  0  0  0  0  0  0  0  0  0
   -0.8865  -33.6850   11.0453 C   0  0  1  0  0  0  0  0  0  0  0  0
   -0.2778  -33.4103    9.8465 C   0  0  2  0  0  0  0  0  0  0  0  0
    1.0324  -33.8863    9.2699 C   0  0  0  0  0  0  0  0  0  0  0  0
    1.0689  -35.4102    9.1081 C   0  0  0  0  0  0  0  0  0  0  0  0
    2.2769  -36.0091    8.6755 O   0  0  0  0  0  0  0  0  0  0  0  0
  1 11  1  0  0  0  0
  3 13  1  6  0  0  0
  3 17  2  0  0  0  0
  3 20  1  0  0  0  0
  3 26  1  0  0  0  0
  4 14  1  1  0  0  0
  4 18  1  0  0  0  0
  4 21  2  0  0  0  0
  4 20  1  0  0  0  0
  5 19  1  0  0  0  0
  5  7  1  0  0  0  0
  6  7  2  0  0  0  0
  6 12  1  0  0  0  0
  7  8  1  0  0  0  0
  8  9  1  0  0  0  0
  8 10  2  0  0  0  0
 10 11  1  0  0  0  0
 11 12  2  0  0  0  0
 15 23  1  0  0  0  0
 15 16  1  0  0  0  0
 16 19  1  0  0  0  0
 19 22  1  0  0  0  0
 22  2  1  1  0  0  0
 22 23  1  0  0  0  0
 23 24  1  1  0  0  0
 24 25  1  0  0  0  0
 25 26  1  0  0  0  0
M  CHG  2  13  -1  18  -1
M  END
>  <CHROM.1>
77.34352915,97.58471084,34.82557357,86.51165610,-119.80213350,-175.14098957
-164.15986964,98.67309657,-0.05638559,-35.53235145,9.86992697,2.86038308
0.40609633,0.02357685

>  <Name>
ligand

>  <RI>
0

>  <Rbt.Current_Directory>
/home/itssahil/PROJECTS/Mol_Feturizer/New_Systems/rnas/3D2G

>  <Rbt.Executable>
rbdock ($Id: //depot/dev/client3/rdock/2013.1/src/exe/rbdock.cxx#4 $)

>  <Rbt.Library>
libRbt.so (2013.1, Build901 2013/11/27)

>  <Rbt.Parameter_File>
/export/apps/rDock/src/rDock_2013.1_src/data/scripts/dock_solv.prm

>  <Rbt.Receptor>
prm/blind_docking_40.prm

>  <SCORE>
-16.3283

>  <SCORE.INTER>
-15.6066

>  <SCORE.INTER.CONST>
1

>  <SCORE.INTER.POLAR>
0

>  <SCORE.INTER.ROT>
8

>  <SCORE.INTER.SOLV>
23.4574

>  <SCORE.INTER.VDW>
-27.1568

>  <SCORE.INTER.norm>
-0.600252

>  <SCORE.INTRA>
-1.21199

>  <SCORE.INTRA.DIHEDRAL>
-0.161254

>  <SCORE.INTRA.DIHEDRAL.0>
9.09364

>  <SCORE.INTRA.POLAR>
0

>  <SCORE.INTRA.POLAR.0>
0

>  <SCORE.INTRA.REPUL>
0

>  <SCORE.INTRA.REPUL.0>
0

>  <SCORE.INTRA.SOLV>
-2.22657

>  <SCORE.INTRA.SOLV.lig_0>
-78.5846

>  <SCORE.INTRA.VDW>
-0.0180798

>  <SCORE.INTRA.VDW.0>
-2.81163

>  <SCORE.INTRA.norm>
-0.0466152

>  <SCORE.RESTR>
0.490258

>  <SCORE.RESTR.CAVITY>
0.490258

>  <SCORE.RESTR.norm>
0.0188561

>  <SCORE.SYSTEM>
0

>  <SCORE.SYSTEM.CONST>
0

>  <SCORE.SYSTEM.DIHEDRAL>
0

>  <SCORE.SYSTEM.SOLV>
0

>  <SCORE.SYSTEM.norm>
0

>  <SCORE.heavy>
26

>  <SCORE.norm>
-0.628011

>  <RMSD>
10.912

$$$$
ligand
 OpenBabel11021811463D
libRbt.so/2013.1/901 2013/11/27
 26 27  0  0  0  0  0  0  0  0999 V2000
   -7.7061  -35.5545   11.5735 C   0  0  0  0  0  0  0  0  0  0  0  0
    0.4325  -35.6184   12.2253 C   0  0  0  0  0  0  0  0  0  0  0  0
    3.2553  -37.6975    7.7235 P   0  0  1  0  0  0  0  0  0  0  0  0
    4.8094  -35.4337    7.7807 P   0  0  2  0  0  0  0  0  0  0  0  0
   -2.2394  -34.0105   12.3924 C   0  0  0  0  0  0  0  0  0  0  0  0
   -4.5818  -33.4919   11.6325 C   0  0  0  0  0  0  0  0  0  0  0  0
   -3.6800  -34.4048   12.1877 C   0  0  0  0  0  0  0  0  0  0  0  0
   -4.0953  -35.6971   12.5204 C   0  0  0  0  0  0  0  0  0  0  0  0
   -3.2374  -36.5570   13.0279 N   0  0  0  0  0  0  0  0  0  0  0  0
   -5.4091  -36.0567   12.3431 N   0  0  0  0  0  0  0  0  0  0  0  0
   -6.2890  -35.1533   11.7809 C   0  0  0  0  0  0  0  0  0  0  0  0
   -5.8898  -33.8748   11.4394 N   0  0  0  0  0  0  0  0  0  0  0  0
    3.5651  -38.4305    6.4542 O   0  5  0  0  0  0  0  0  0  0  0  0
    4.8415  -35.7137    9.2307 O   0  0  0  0  0  0  0  0  0  0  0  0
   -0.9610  -34.3326    8.8016 S   0  0  0  0  0  0  0  0  0  0  0  0
   -1.9448  -33.8880    9.9578 C   0  0  0  0  0  0  0  0  0  0  0  0
    4.0094  -38.1386    8.9278 O   0  0  0  0  0  0  0  0  0  0  0  0
    4.7613  -33.9879    7.4914 O   0  5  0  0  0  0  0  0  0  0  0  0
   -1.5070  -34.2907   11.1884 N   0  0  0  0  0  0  0  0  0  0  0  0
    3.4880  -36.1829    7.3272 O   0  0  0  0  0  0  0  0  0  0  0  0
    5.9663  -35.9118    6.9645 O   0  0  0  0  0  0  0  0  0  0  0  0
   -0.3439  -35.0028   11.1015 C   0  0  1  0  0  0  0  0  0  0  0  0
    0.0508  -35.0826    9.7897 C   0  0  2  0  0  0  0  0  0  0  0  0
    1.2542  -35.7355    9.1563 C   0  0  0  0  0  0  0  0  0  0  0  0
    1.0603  -37.2453    8.9762 C   0  0  0  0  0  0  0  0  0  0  0  0
    1.6962  -37.8762    7.8795 O   0  0  0  0  0  0  0  0  0  0  0  0
  1 11  1  0  0  0  0
  3 13  1  6  0  0  0
  3 17  2  0  0  0  0
  3 20  1  0  0  0  0
  3 26  1  0  0  0  0
  4 14  1  1  0  0  0
  4 18  1  0  0  0  0
  4 21  2  0  0  0  0
  4 20  1  0  0  0  0
  5 19  1  0  0  0  0
  5  7  1  0  0  0  0
  6  7  2  0  0  0  0
  6 12  1  0  0  0  0
  7  8  1  0  0  0  0
  8  9  1  0  0  0  0
  8 10  2  0  0  0  0
 10 11  1  0  0  0  0
 11 12  2  0  0  0  0
 15 23  1  0  0  0  0
 15 16  1  0  0  0  0
 16 19  1  0  0  0  0
 19 22  1  0  0  0  0
 22  2  1  1  0  0  0
 22 23  1  0  0  0  0
 23 24  1  1  0  0  0
 24 25  1  0  0  0  0
 25 26  1  0  0  0  0
M  CHG  2  13  -1  18  -1
M  END
>  <CHROM.1>
-102.88527920,49.18719097,-87.37265475,-51.21805525,-99.80390260,148.84187287
54.87000592,-177.58650016,0.21126622,-35.68032440,9.65331399,2.89530207,0.38999074
0.22273753

>  <Name>
ligand

>  <RI>
0

>  <Rbt.Current_Directory>
/home/itssahil/PROJECTS/Mol_Feturizer/New_Systems/rnas/3D2G

>  <Rbt.Executable>
rbdock ($Id: //depot/dev/client3/rdock/2013.1/src/exe/rbdock.cxx#4 $)

>  <Rbt.Library>
libRbt.so (2013.1, Build901 2013/11/27)

>  <Rbt.Parameter_File>
/export/apps/rDock/src/rDock_2013.1_src/data/scripts/dock_solv.prm

>  <Rbt.Receptor>
prm/blind_docking_40.prm

>  <SCORE>
-17.8772

>  <SCORE.INTER>
-18.3798

>  <SCORE.INTER.CONST>
1

>  <SCORE.INTER.POLAR>
0

>  <SCORE.INTER.ROT>
8

>  <SCORE.INTER.SOLV>
20.9443

>  <SCORE.INTER.VDW>
-28.168

>  <SCORE.INTER.norm>
-0.706916

>  <SCORE.INTRA>
0.298987

>  <SCORE.INTRA.DIHEDRAL>
0.501794

>  <SCORE.INTRA.DIHEDRAL.0>
9.09364

>  <SCORE.INTRA.POLAR>
0

>  <SCORE.INTRA.POLAR.0>
0

>  <SCORE.INTRA.REPUL>
0

>  <SCORE.INTRA.REPUL.0>
0

>  <SCORE.INTRA.SOLV>
0.275113

>  <SCORE.INTRA.SOLV.lig_0>
-78.5846

>  <SCORE.INTRA.VDW>
-0.0894669

>  <SCORE.INTRA.VDW.0>
-2.81163

>  <SCORE.INTRA.norm>
0.0114995

>  <SCORE.RESTR>
0.203599

>  <SCORE.RESTR.CAVITY>
0.203599

>  <SCORE.RESTR.norm>
0.00783074

>  <SCORE.SYSTEM>
0

>  <SCORE.SYSTEM.CONST>
0

>  <SCORE.SYSTEM.DIHEDRAL>
0

>  <SCORE.SYSTEM.SOLV>
0

>  <SCORE.SYSTEM.norm>
0

>  <SCORE.heavy>
26

>  <SCORE.norm>
-0.687585

>  <RMSD>
10.929

$$$$
ligand
 OpenBabel11021811463D
libRbt.so/2013.1/901 2013/11/27
 26 27  0  0  0  0  0  0  0  0999 V2000
   -7.3695  -33.8874   11.4246 C   0  0  0  0  0  0  0  0  0  0  0  0
   -1.4086  -37.8032   10.3560 C   0  0  0  0  0  0  0  0  0  0  0  0
    3.8749  -36.8133    8.1799 P   0  0  1  0  0  0  0  0  0  0  0  0
    6.1457  -36.5552    6.6568 P   0  0  2  0  0  0  0  0  0  0  0  0
   -2.3680  -36.2799   12.9078 C   0  0  0  0  0  0  0  0  0  0  0  0
   -3.8353  -34.2581   12.6039 C   0  0  0  0  0  0  0  0  0  0  0  0
   -3.6835  -35.6462   12.5333 C   0  0  0  0  0  0  0  0  0  0  0  0
   -4.7326  -36.4509   12.0803 C   0  0  0  0  0  0  0  0  0  0  0  0
   -4.5779  -37.7558   12.0009 N   0  0  0  0  0  0  0  0  0  0  0  0
   -5.9353  -35.8774   11.7465 N   0  0  0  0  0  0  0  0  0  0  0  0
   -6.0711  -34.5047   11.8057 C   0  0  0  0  0  0  0  0  0  0  0  0
   -5.0392  -33.6961   12.2437 N   0  0  0  0  0  0  0  0  0  0  0  0
    4.5334  -37.4129    9.3846 O   0  5  0  0  0  0  0  0  0  0  0  0
    7.0675  -37.6783    6.3906 O   0  0  0  0  0  0  0  0  0  0  0  0
    0.3365  -34.3601   11.0020 S   0  0  0  0  0  0  0  0  0  0  0  0
   -0.7210  -34.6247   12.1483 C   0  0  0  0  0  0  0  0  0  0  0  0
    3.6657  -35.3409    8.2205 O   0  0  0  0  0  0  0  0  0  0  0  0
    6.6040  -35.7088    7.7748 O   0  5  0  0  0  0  0  0  0  0  0  0
   -1.3576  -35.8243   11.9935 N   0  0  0  0  0  0  0  0  0  0  0  0
    4.7911  -37.3090    6.9883 O   0  0  0  0  0  0  0  0  0  0  0  0
    5.9209  -35.5759    5.5506 O   0  0  0  0  0  0  0  0  0  0  0  0
   -0.9381  -36.4761   10.8680 C   0  0  1  0  0  0  0  0  0  0  0  0
    0.0236  -35.7298   10.2346 C   0  0  2  0  0  0  0  0  0  0  0  0
    0.8128  -35.9948    8.9766 C   0  0  0  0  0  0  0  0  0  0  0  0
    1.5084  -37.3604    9.0119 C   0  0  0  0  0  0  0  0  0  0  0  0
    2.5246  -37.6193    8.0604 O   0  0  0  0  0  0  0  0  0  0  0  0
  1 11  1  0  0  0  0
  3 13  1  1  0  0  0
  3 17  2  0  0  0  0
  3 20  1  0  0  0  0
  3 26  1  0  0  0  0
  4 14  1  6  0  0  0
  4 18  1  0  0  0  0
  4 21  2  0  0  0  0
  4 20  1  0  0  0  0
  5 19  1  0  0  0  0
  5  7  1  0  0  0  0
  6  7  2  0  0  0  0
  6 12  1  0  0  0  0
  7  8  1  0  0  0  0
  8  9  1  0  0  0  0
  8 10  2  0  0  0  0
 10 11  1  0  0  0  0
 11 12  2  0  0  0  0
 15 23  1  0  0  0  0
 15 16  1  0  0  0  0
 16 19  1  0  0  0  0
 19 22  1  0  0  0  0
 22  2  1  1  0  0  0
 22 23  1  0  0  0  0
 23 24  1  1  0  0  0
 24 25  1  0  0  0  0
 25 26  1  0  0  0  0
M  CHG  2  13  -1  18  -1
M  END
>  <CHROM.1>
-81.07027842,82.36162613,-63.39270621,138.17291804,126.63518620,-165.46366655
68.31563522,72.28429056,0.65431075,-36.04495215,9.73394900,-2.94241680,-0.42244886
-2.96183699

>  <Name>
ligand

>  <RI>
0

>  <Rbt.Current_Directory>
/home/itssahil/PROJECTS/Mol_Feturizer/New_Systems/rnas/3D2G

>  <Rbt.Executable>
rbdock ($Id: //depot/dev/client3/rdock/2013.1/src/exe/rbdock.cxx#4 $)

>  <Rbt.Library>
libRbt.so (2013.1, Build901 2013/11/27)

>  <Rbt.Parameter_File>
/export/apps/rDock/src/rDock_2013.1_src/data/scripts/dock_solv.prm

>  <Rbt.Receptor>
prm/blind_docking_40.prm

>  <SCORE>
-15.1573

>  <SCORE.INTER>
-15.6087

>  <SCORE.INTER.CONST>
1

>  <SCORE.INTER.POLAR>
0

>  <SCORE.INTER.ROT>
8

>  <SCORE.INTER.SOLV>
17.8707

>  <SCORE.INTER.VDW>
-25.296

>  <SCORE.INTER.norm>
-0.600334

>  <SCORE.INTRA>
0.0461234

>  <SCORE.INTRA.DIHEDRAL>
-1.19677

>  <SCORE.INTRA.DIHEDRAL.0>
9.09364

>  <SCORE.INTRA.POLAR>
0

>  <SCORE.INTRA.POLAR.0>
0

>  <SCORE.INTRA.REPUL>
0

>  <SCORE.INTRA.REPUL.0>
0

>  <SCORE.INTRA.SOLV>
1.76646

>  <SCORE.INTRA.SOLV.lig_0>
-78.5846

>  <SCORE.INTRA.VDW>
-0.238725

>  <SCORE.INTRA.VDW.0>
-2.81163

>  <SCORE.INTRA.norm>
0.00177398

>  <SCORE.RESTR>
0.405263

>  <SCORE.RESTR.CAVITY>
0.405263

>  <SCORE.RESTR.norm>
0.015587

>  <SCORE.SYSTEM>
0

>  <SCORE.SYSTEM.CONST>
0

>  <SCORE.SYSTEM.DIHEDRAL>
0

>  <SCORE.SYSTEM.SOLV>
0

>  <SCORE.SYSTEM.norm>
0

>  <SCORE.heavy>
26

>  <SCORE.norm>
-0.582973

>  <RMSD>
10.990

$$$$
ligand
 OpenBabel11021811463D
libRbt.so/2013.1/901 2013/11/27
 26 27  0  0  0  0  0  0  0  0999 V2000
   -8.1793  -35.5897   11.9777 C   0  0  0  0  0  0  0  0  0  0  0  0
   -0.1899  -35.6793   12.2288 C   0  0  0  0  0  0  0  0  0  0  0  0
    2.7764  -37.1156    8.0606 P   0  0  1  0  0  0  0  0  0  0  0  0
    5.0651  -36.5827    6.6390 P   0  0  2  0  0  0  0  0  0  0  0  0
   -2.7420  -34.0294   12.9477 C   0  0  0  0  0  0  0  0  0  0  0  0
   -4.4354  -35.5934   11.9379 C   0  0  0  0  0  0  0  0  0  0  0  0
   -4.1679  -34.4372   12.6772 C   0  0  0  0  0  0  0  0  0  0  0  0
   -5.2148  -33.6744   13.2018 C   0  0  0  0  0  0  0  0  0  0  0  0
   -4.9560  -32.5956   13.9105 N   0  0  0  0  0  0  0  0  0  0  0  0
   -6.5151  -34.0385   12.9499 N   0  0  0  0  0  0  0  0  0  0  0  0
   -6.7694  -35.1897   12.2312 C   0  0  0  0  0  0  0  0  0  0  0  0
   -5.7436  -35.9581   11.7137 N   0  0  0  0  0  0  0  0  0  0  0  0
    2.9040  -38.6074    8.1124 O   0  5  0  0  0  0  0  0  0  0  0  0
    5.5281  -37.8972    7.1284 O   0  0  0  0  0  0  0  0  0  0  0  0
   -1.4943  -33.3037    9.4053 S   0  0  0  0  0  0  0  0  0  0  0  0
   -2.4428  -33.1761   10.6648 C   0  0  0  0  0  0  0  0  0  0  0  0
    3.2951  -36.3788    9.2445 O   0  0  0  0  0  0  0  0  0  0  0  0
    5.5467  -35.4714    7.4812 O   0  5  0  0  0  0  0  0  0  0  0  0
   -2.0328  -33.9695   11.6995 N   0  0  0  0  0  0  0  0  0  0  0  0
    3.4891  -36.7432    6.6973 O   0  0  0  0  0  0  0  0  0  0  0  0
    5.4808  -36.1788    5.2617 O   0  0  0  0  0  0  0  0  0  0  0  0
   -0.9227  -34.6948   11.3694 C   0  0  1  0  0  0  0  0  0  0  0  0
   -0.5363  -34.3890   10.0887 C   0  0  2  0  0  0  0  0  0  0  0  0
    0.6175  -34.8910    9.2565 C   0  0  0  0  0  0  0  0  0  0  0  0
    0.4662  -36.3743    8.9004 C   0  0  0  0  0  0  0  0  0  0  0  0
    1.2336  -36.8870    7.8266 O   0  0  0  0  0  0  0  0  0  0  0  0
  1 11  1  0  0  0  0
  3 13  1  1  0  0  0
  3 17  2  0  0  0  0
  3 20  1  0  0  0  0
  3 26  1  0  0  0  0
  4 14  1  1  0  0  0
  4 18  1  0  0  0  0
  4 21  2  0  0  0  0
  4 20  1  0  0  0  0
  5 19  1  0  0  0  0
  5  7  1  0  0  0  0
  6  7  2  0  0  0  0
  6 12  1  0  0  0  0
  7  8  1  0  0  0  0
  8  9  1  0  0  0  0
  8 10  2  0  0  0  0
 10 11  1  0  0  0  0
 11 12  2  0  0  0  0
 15 23  1  0  0  0  0
 15 16  1  0  0  0  0
 16 19  1  0  0  0  0
 19 22  1  0  0  0  0
 22  2  1  1  0  0  0
 22 23  1  0  0  0  0
 23 24  1  1  0  0  0
 24 25  1  0  0  0  0
 25 26  1  0  0  0  0
M  CHG  2  13  -1  18  -1
M  END
>  <CHROM.1>
-83.44450013,57.12089745,53.18823668,57.10778430,-113.45791729,161.82871188
74.09164444,108.40810563,-0.18701471,-35.47733208,9.74567217,2.74384629,0.38657212
0.40827765

>  <Name>
ligand

>  <RI>
0

>  <Rbt.Current_Directory>
/home/itssahil/PROJECTS/Mol_Feturizer/New_Systems/rnas/3D2G

>  <Rbt.Executable>
rbdock ($Id: //depot/dev/client3/rdock/2013.1/src/exe/rbdock.cxx#4 $)

>  <Rbt.Library>
libRbt.so (2013.1, Build901 2013/11/27)

>  <Rbt.Parameter_File>
/export/apps/rDock/src/rDock_2013.1_src/data/scripts/dock_solv.prm

>  <Rbt.Receptor>
prm/blind_docking_40.prm

>  <SCORE>
-18.4123

>  <SCORE.INTER>
-17.55

>  <SCORE.INTER.CONST>
1

>  <SCORE.INTER.POLAR>
0

>  <SCORE.INTER.ROT>
8

>  <SCORE.INTER.SOLV>
20.717

>  <SCORE.INTER.VDW>
-27.539

>  <SCORE.INTER.norm>
-0.675001

>  <SCORE.INTRA>
-0.890107

>  <SCORE.INTRA.DIHEDRAL>
-0.0303629

>  <SCORE.INTRA.DIHEDRAL.0>
9.09364

>  <SCORE.INTRA.POLAR>
0

>  <SCORE.INTRA.POLAR.0>
0

>  <SCORE.INTRA.REPUL>
0

>  <SCORE.INTRA.REPUL.0>
0

>  <SCORE.INTRA.SOLV>
-1.44719

>  <SCORE.INTRA.SOLV.lig_0>
-78.5846

>  <SCORE.INTRA.VDW>
-0.15133

>  <SCORE.INTRA.VDW.0>
-2.81163

>  <SCORE.INTRA.norm>
-0.0342349

>  <SCORE.RESTR>
0.0278525

>  <SCORE.RESTR.CAVITY>
0.0278525

>  <SCORE.RESTR.norm>
0.00107125

>  <SCORE.SYSTEM>
0

>  <SCORE.SYSTEM.CONST>
0

>  <SCORE.SYSTEM.DIHEDRAL>
0

>  <SCORE.SYSTEM.SOLV>
0

>  <SCORE.SYSTEM.norm>
0

>  <SCORE.heavy>
26

>  <SCORE.norm>
-0.708165

>  <RMSD>
11.002

$$$$
ligand
 OpenBabel11021811463D
libRbt.so/2013.1/901 2013/11/27
 26 27  0  0  0  0  0  0  0  0999 V2000
   -7.8545  -35.4933   10.8688 C   0  0  0  0  0  0  0  0  0  0  0  0
   -1.8619  -38.1934   10.6415 C   0  0  0  0  0  0  0  0  0  0  0  0
    4.3494  -37.0290    8.7040 P   0  0  1  0  0  0  0  0  0  0  0  0
    6.2313  -35.5423    7.3655 P   0  0  2  0  0  0  0  0  0  0  0  0
   -2.6868  -36.5191   13.1453 C   0  0  0  0  0  0  0  0  0  0  0  0
   -4.9397  -37.3143   12.3544 C   0  0  0  0  0  0  0  0  0  0  0  0
   -4.0404  -36.2590   12.5348 C   0  0  0  0  0  0  0  0  0  0  0  0
   -4.4015  -34.9542   12.1881 C   0  0  0  0  0  0  0  0  0  0  0  0
   -3.5561  -33.9626   12.3754 N   0  0  0  0  0  0  0  0  0  0  0  0
   -5.6307  -34.7151   11.6238 N   0  0  0  0  0  0  0  0  0  0  0  0
   -6.5175  -35.7611   11.4627 C   0  0  0  0  0  0  0  0  0  0  0  0
   -6.1768  -37.0551   11.8091 N   0  0  0  0  0  0  0  0  0  0  0  0
    4.9298  -38.3109    8.1899 O   0  5  0  0  0  0  0  0  0  0  0  0
    6.9618  -36.8050    7.5977 O   0  0  0  0  0  0  0  0  0  0  0  0
    0.0762  -34.8260   11.1128 S   0  0  0  0  0  0  0  0  0  0  0  0
   -0.9702  -34.9870   12.2882 C   0  0  0  0  0  0  0  0  0  0  0  0
    4.7752  -36.6268   10.0716 O   0  0  0  0  0  0  0  0  0  0  0  0
    6.6359  -34.4811    8.3071 O   0  5  0  0  0  0  0  0  0  0  0  0
   -1.6725  -36.1558   12.1947 N   0  0  0  0  0  0  0  0  0  0  0  0
    4.7241  -35.9880    7.5720 O   0  0  0  0  0  0  0  0  0  0  0  0
    6.3877  -34.8959    6.0273 O   0  0  0  0  0  0  0  0  0  0  0  0
   -1.3113  -36.8740   11.0896 C   0  0  1  0  0  0  0  0  0  0  0  0
   -0.3245  -36.2067   10.4085 C   0  0  2  0  0  0  0  0  0  0  0  0
    0.4237  -36.5642    9.1483 C   0  0  0  0  0  0  0  0  0  0  0  0
    1.9380  -36.3894    9.3102 C   0  0  0  0  0  0  0  0  0  0  0  0
    2.7933  -37.2593    8.5914 O   0  0  0  0  0  0  0  0  0  0  0  0
  1 11  1  0  0  0  0
  3 13  1  6  0  0  0
  3 17  2  0  0  0  0
  3 20  1  0  0  0  0
  3 26  1  0  0  0  0
  4 14  1  1  0  0  0
  4 18  1  0  0  0  0
  4 21  2  0  0  0  0
  4 20  1  0  0  0  0
  5 19  1  0  0  0  0
  5  7  1  0  0  0  0
  6  7  2  0  0  0  0
  6 12  1  0  0  0  0
  7  8  1  0  0  0  0
  8  9  1  0  0  0  0
  8 10  2  0  0  0  0
 10 11  1  0  0  0  0
 11 12  2  0  0  0  0
 15 23  1  0  0  0  0
 15 16  1  0  0  0  0
 16 19  1  0  0  0  0
 19 22  1  0  0  0  0
 22  2  1  1  0  0  0
 22 23  1  0  0  0  0
 23 24  1  1  0  0  0
 24 25  1  0  0  0  0
 25 26  1  0  0  0  0
M  CHG  2  13  -1  18  -1
M  END
>  <CHROM.1>
-70.14500401,102.22195261,119.07331081,38.33207267,47.51963112,147.90738589
176.96201172,163.83698851,0.63574912,-36.09241527,10.00239187,-3.06476796
-0.36137210,-2.99502991

>  <Name>
ligand

>  <RI>
0

>  <Rbt.Current_Directory>
/home/itssahil/PROJECTS/Mol_Feturizer/New_Systems/rnas/3D2G

>  <Rbt.Executable>
rbdock ($Id: //depot/dev/client3/rdock/2013.1/src/exe/rbdock.cxx#4 $)

>  <Rbt.Library>
libRbt.so (2013.1, Build901 2013/11/27)

>  <Rbt.Parameter_File>
/export/apps/rDock/src/rDock_2013.1_src/data/scripts/dock_solv.prm

>  <Rbt.Receptor>
prm/blind_docking_80.prm

>  <SCORE>
-16.5283

>  <SCORE.INTER>
-17.1858

>  <SCORE.INTER.CONST>
1

>  <SCORE.INTER.POLAR>
0

>  <SCORE.INTER.ROT>
8

>  <SCORE.INTER.SOLV>
19.0371

>  <SCORE.INTER.VDW>
-26.7362

>  <SCORE.INTER.norm>
-0.660993

>  <SCORE.INTRA>
0.601681

>  <SCORE.INTRA.DIHEDRAL>
0.496451

>  <SCORE.INTRA.DIHEDRAL.0>
9.09364

>  <SCORE.INTRA.POLAR>
0

>  <SCORE.INTRA.POLAR.0>
0

>  <SCORE.INTRA.REPUL>
0

>  <SCORE.INTRA.REPUL.0>
0

>  <SCORE.INTRA.SOLV>
-0.683416

>  <SCORE.INTRA.SOLV.lig_0>
-78.5846

>  <SCORE.INTRA.VDW>
0.695163

>  <SCORE.INTRA.VDW.0>
-2.81163

>  <SCORE.INTRA.norm>
0.0231416

>  <SCORE.RESTR>
0.0558425

>  <SCORE.RESTR.CAVITY>
0.0558425

>  <SCORE.RESTR.norm>
0.00214779

>  <SCORE.SYSTEM>
0

>  <SCORE.SYSTEM.CONST>
0

>  <SCORE.SYSTEM.DIHEDRAL>
0

>  <SCORE.SYSTEM.SOLV>
0

>  <SCORE.SYSTEM.norm>
0

>  <SCORE.heavy>
26

>  <SCORE.norm>
-0.635704

>  <RMSD>
11.018

$$$$
ligand
 OpenBabel11021811463D
libRbt.so/2013.1/901 2013/11/27
 26 27  0  0  0  0  0  0  0  0999 V2000
   -7.8201  -33.5588   11.5794 C   0  0  0  0  0  0  0  0  0  0  0  0
   -2.5061  -37.3805   11.6192 C   0  0  0  0  0  0  0  0  0  0  0  0
    3.0885  -37.7528    7.5884 P   0  0  1  0  0  0  0  0  0  0  0  0
    5.2955  -36.4565    6.5925 P   0  0  2  0  0  0  0  0  0  0  0  0
   -2.5058  -34.7900   13.3632 C   0  0  0  0  0  0  0  0  0  0  0  0
   -4.3084  -34.8572   11.6084 C   0  0  0  0  0  0  0  0  0  0  0  0
   -3.8956  -34.4575   12.8830 C   0  0  0  0  0  0  0  0  0  0  0  0
   -4.7762  -33.7832   13.7333 C   0  0  0  0  0  0  0  0  0  0  0  0
   -4.3864  -33.4237   14.9382 N   0  0  0  0  0  0  0  0  0  0  0  0
   -6.0403  -33.4711   13.2956 N   0  0  0  0  0  0  0  0  0  0  0  0
   -6.4438  -33.8826   12.0409 C   0  0  0  0  0  0  0  0  0  0  0  0
   -5.5860  -34.5576   11.1928 N   0  0  0  0  0  0  0  0  0  0  0  0
    3.0576  -39.0136    6.7799 O   0  5  0  0  0  0  0  0  0  0  0  0
    5.5342  -35.9777    5.2157 O   0  0  0  0  0  0  0  0  0  0  0  0
    0.0125  -34.6059   10.4899 S   0  0  0  0  0  0  0  0  0  0  0  0
   -0.7781  -34.0971   11.7620 C   0  0  0  0  0  0  0  0  0  0  0  0
    3.7739  -37.8437    8.9058 O   0  0  0  0  0  0  0  0  0  0  0  0
    6.0568  -37.6827    6.8978 O   0  5  0  0  0  0  0  0  0  0  0  0
   -1.6662  -35.0287   12.2219 N   0  0  0  0  0  0  0  0  0  0  0  0
    3.7298  -36.7045    6.5909 O   0  0  0  0  0  0  0  0  0  0  0  0
    5.6596  -35.5353    7.7114 O   0  0  0  0  0  0  0  0  0  0  0  0
   -1.6657  -36.1525   11.4445 C   0  0  1  0  0  0  0  0  0  0  0  0
   -0.7467  -36.0142   10.4348 C   0  0  2  0  0  0  0  0  0  0  0  0
   -0.3463  -36.9546    9.3254 C   0  0  0  0  0  0  0  0  0  0  0  0
    1.1269  -36.7888    8.9355 C   0  0  0  0  0  0  0  0  0  0  0  0
    1.5660  -37.3619    7.7175 O   0  0  0  0  0  0  0  0  0  0  0  0
  1 11  1  0  0  0  0
  3 13  1  6  0  0  0
  3 17  2  0  0  0  0
  3 20  1  0  0  0  0
  3 26  1  0  0  0  0
  4 14  1  6  0  0  0
  4 18  1  0  0  0  0
  4 21  2  0  0  0  0
  4 20  1  0  0  0  0
  5 19  1  0  0  0  0
  5  7  1  0  0  0  0
  6  7  2  0  0  0  0
  6 12  1  0  0  0  0
  7  8  1  0  0  0  0
  8  9  1  0  0  0  0
  8 10  2  0  0  0  0
 10 11  1  0  0  0  0
 11 12  2  0  0  0  0
 15 23  1  0  0  0  0
 15 16  1  0  0  0  0
 16 19  1  0  0  0  0
 19 22  1  0  0  0  0
 22  2  1  1  0  0  0
 22 23  1  0  0  0  0
 23 24  1  1  0  0  0
 24 25  1  0  0  0  0
 25 26  1  0  0  0  0
M  CHG  2  13  -1  18  -1
M  END
>  <CHROM.1>
-92.65915066,102.22447718,22.04829420,154.42562197,31.07590466,-165.28990380
-154.07421578,143.39460700,0.07513510,-35.84387536,9.79351504,2.56762700
0.16985710,0.85330120

>  <Name>
ligand

>  <RI>
0

>  <Rbt.Current_Directory>
/home/itssahil/PROJECTS/Mol_Feturizer/New_Systems/rnas/3D2G

>  <Rbt.Executable>
rbdock ($Id: //depot/dev/client3/rdock/2013.1/src/exe/rbdock.cxx#4 $)

>  <Rbt.Library>
libRbt.so (2013.1, Build901 2013/11/27)

>  <Rbt.Parameter_File>
/export/apps/rDock/src/rDock_2013.1_src/data/scripts/dock_solv.prm

>  <Rbt.Receptor>
prm/blind_docking_40.prm

>  <SCORE>
-9.6835

>  <SCORE.INTER>
-12.9719

>  <SCORE.INTER.CONST>
1

>  <SCORE.INTER.POLAR>
0

>  <SCORE.INTER.ROT>
8

>  <SCORE.INTER.SOLV>
22.7302

>  <SCORE.INTER.VDW>
-25.158

>  <SCORE.INTER.norm>
-0.498918

>  <SCORE.INTRA>
3.28837

>  <SCORE.INTRA.DIHEDRAL>
3.04763

>  <SCORE.INTRA.DIHEDRAL.0>
9.09364

>  <SCORE.INTRA.POLAR>
0

>  <SCORE.INTRA.POLAR.0>
0

>  <SCORE.INTRA.REPUL>
0

>  <SCORE.INTRA.REPUL.0>
0

>  <SCORE.INTRA.SOLV>
-0.846968

>  <SCORE.INTRA.SOLV.lig_0>
-78.5846

>  <SCORE.INTRA.VDW>
2.18804

>  <SCORE.INTRA.VDW.0>
-2.81163

>  <SCORE.INTRA.norm>
0.126476

>  <SCORE.RESTR>
0

>  <SCORE.RESTR.CAVITY>
0

>  <SCORE.RESTR.norm>
0

>  <SCORE.SYSTEM>
0

>  <SCORE.SYSTEM.CONST>
0

>  <SCORE.SYSTEM.DIHEDRAL>
0

>  <SCORE.SYSTEM.SOLV>
0

>  <SCORE.SYSTEM.norm>
0

>  <SCORE.heavy>
26

>  <SCORE.norm>
-0.372442

>  <RMSD>
11.027

$$$$
ligand
 OpenBabel11021811463D
libRbt.so/2013.1/901 2013/11/27
 26 27  0  0  0  0  0  0  0  0999 V2000
   -7.7083  -35.9442   12.1636 C   0  0  0  0  0  0  0  0  0  0  0  0
    0.4114  -35.7330   12.1971 C   0  0  0  0  0  0  0  0  0  0  0  0
    3.1449  -37.6252    7.7169 P   0  0  1  0  0  0  0  0  0  0  0  0
    5.0899  -35.6901    7.5951 P   0  0  2  0  0  0  0  0  0  0  0  0
   -2.2653  -34.1973   12.6759 C   0  0  0  0  0  0  0  0  0  0  0  0
   -3.9941  -35.7609   11.7274 C   0  0  0  0  0  0  0  0  0  0  0  0
   -3.6945  -34.6528   12.5257 C   0  0  0  0  0  0  0  0  0  0  0  0
   -4.7078  -33.9847   13.2184 C   0  0  0  0  0  0  0  0  0  0  0  0
   -4.4169  -32.9519   13.9812 N   0  0  0  0  0  0  0  0  0  0  0  0
   -6.0120  -34.3919   13.0769 N   0  0  0  0  0  0  0  0  0  0  0  0
   -6.2965  -35.4959   12.2980 C   0  0  0  0  0  0  0  0  0  0  0  0
   -5.3031  -36.1712   11.6140 N   0  0  0  0  0  0  0  0  0  0  0  0
    3.4610  -38.4248    6.4900 O   0  5  0  0  0  0  0  0  0  0  0  0
    5.1698  -35.7666    9.0681 O   0  0  0  0  0  0  0  0  0  0  0  0
   -1.1872  -34.1262    9.0065 S   0  0  0  0  0  0  0  0  0  0  0  0
   -2.1095  -33.8200   10.2547 C   0  0  0  0  0  0  0  0  0  0  0  0
    3.7342  -38.1268    8.9876 O   0  0  0  0  0  0  0  0  0  0  0  0
    5.3474  -34.3276    7.0914 O   0  5  0  0  0  0  0  0  0  0  0  0
   -1.5986  -34.3395   11.4111 N   0  0  0  0  0  0  0  0  0  0  0  0
    3.6026  -36.1634    7.3184 O   0  0  0  0  0  0  0  0  0  0  0  0
    6.0424  -36.5344    6.8122 O   0  0  0  0  0  0  0  0  0  0  0  0
   -0.4340  -35.0186   11.1874 C   0  0  1  0  0  0  0  0  0  0  0  0
   -0.1127  -34.9562    9.8547 C   0  0  2  0  0  0  0  0  0  0  0  0
    1.0607  -35.5195    9.0922 C   0  0  0  0  0  0  0  0  0  0  0  0
    0.9298  -37.0307    8.8709 C   0  0  0  0  0  0  0  0  0  0  0  0
    1.5682  -37.6002    7.7426 O   0  0  0  0  0  0  0  0  0  0  0  0
  1 11  1  0  0  0  0
  3 13  1  6  0  0  0
  3 17  2  0  0  0  0
  3 20  1  0  0  0  0
  3 26  1  0  0  0  0
  4 14  1  1  0  0  0
  4 18  1  0  0  0  0
  4 21  2  0  0  0  0
  4 20  1  0  0  0  0
  5 19  1  0  0  0  0
  5  7  1  0  0  0  0
  6  7  2  0  0  0  0
  6 12  1  0  0  0  0
  7  8  1  0  0  0  0
  8  9  1  0  0  0  0
  8 10  2  0  0  0  0
 10 11  1  0  0  0  0
 11 12  2  0  0  0  0
 15 23  1  0  0  0  0
 15 16  1  0  0  0  0
 16 19  1  0  0  0  0
 19 22  1  0  0  0  0
 22  2  1  1  0  0  0
 22 23  1  0  0  0  0
 23 24  1  1  0  0  0
 24 25  1  0  0  0  0
 25 26  1  0  0  0  0
M  CHG  2  13  -1  18  -1
M  END
>  <CHROM.1>
-89.37504995,51.73077160,38.41175920,-62.61839226,-104.64075637,152.78558808
68.12285440,173.54377317,0.16036330,-35.64483984,9.77953269,2.74585993,0.32850435
0.55559030

>  <Name>
ligand

>  <RI>
0

>  <Rbt.Current_Directory>
/home/itssahil/PROJECTS/Mol_Feturizer/New_Systems/rnas/3D2G

>  <Rbt.Executable>
rbdock ($Id: //depot/dev/client3/rdock/2013.1/src/exe/rbdock.cxx#4 $)

>  <Rbt.Library>
libRbt.so (2013.1, Build901 2013/11/27)

>  <Rbt.Parameter_File>
/export/apps/rDock/src/rDock_2013.1_src/data/scripts/dock_solv.prm

>  <Rbt.Receptor>
prm/blind_docking_40.prm

>  <SCORE>
-18.642

>  <SCORE.INTER>
-17.7462

>  <SCORE.INTER.CONST>
1

>  <SCORE.INTER.POLAR>
0

>  <SCORE.INTER.ROT>
8

>  <SCORE.INTER.SOLV>
21.121

>  <SCORE.INTER.VDW>
-27.8045

>  <SCORE.INTER.norm>
-0.682546

>  <SCORE.INTRA>
-1.57762

>  <SCORE.INTRA.DIHEDRAL>
-0.700166

>  <SCORE.INTRA.DIHEDRAL.0>
9.09364

>  <SCORE.INTRA.POLAR>
0

>  <SCORE.INTRA.POLAR.0>
0

>  <SCORE.INTRA.REPUL>
0

>  <SCORE.INTRA.REPUL.0>
0

>  <SCORE.INTRA.SOLV>
-1.63158

>  <SCORE.INTRA.SOLV.lig_0>
-78.5846

>  <SCORE.INTRA.VDW>
-0.411748

>  <SCORE.INTRA.VDW.0>
-2.81163

>  <SCORE.INTRA.norm>
-0.0606778

>  <SCORE.RESTR>
0.681785

>  <SCORE.RESTR.CAVITY>
0.681785

>  <SCORE.RESTR.norm>
0.0262225

>  <SCORE.SYSTEM>
0

>  <SCORE.SYSTEM.CONST>
0

>  <SCORE.SYSTEM.DIHEDRAL>
0

>  <SCORE.SYSTEM.SOLV>
0

>  <SCORE.SYSTEM.norm>
0

>  <SCORE.heavy>
26

>  <SCORE.norm>
-0.717001

>  <RMSD>
11.096

$$$$
ligand
 OpenBabel11021811463D
libRbt.so/2013.1/901 2013/11/27
 26 27  0  0  0  0  0  0  0  0999 V2000
   -7.7967  -35.5475   11.8197 C   0  0  0  0  0  0  0  0  0  0  0  0
   -1.5365  -37.7860   10.3411 C   0  0  0  0  0  0  0  0  0  0  0  0
    4.1954  -36.7496    8.5934 P   0  0  1  0  0  0  0  0  0  0  0  0
    6.0424  -37.0470    6.5826 P   0  0  2  0  0  0  0  0  0  0  0  0
   -2.4458  -37.0614   13.2394 C   0  0  0  0  0  0  0  0  0  0  0  0
   -4.5978  -37.4844   12.0053 C   0  0  0  0  0  0  0  0  0  0  0  0
   -3.8468  -36.6626   12.8512 C   0  0  0  0  0  0  0  0  0  0  0  0
   -4.3995  -35.4896   13.3723 C   0  0  0  0  0  0  0  0  0  0  0  0
   -3.6926  -34.7284   14.1811 N   0  0  0  0  0  0  0  0  0  0  0  0
   -5.6726  -35.1190   13.0137 N   0  0  0  0  0  0  0  0  0  0  0  0
   -6.4117  -35.9441   12.1894 C   0  0  0  0  0  0  0  0  0  0  0  0
   -5.8806  -37.1114   11.6736 N   0  0  0  0  0  0  0  0  0  0  0  0
    3.7800  -38.0562    7.9894 O   0  5  0  0  0  0  0  0  0  0  0  0
    6.6164  -37.9669    7.5856 O   0  0  0  0  0  0  0  0  0  0  0  0
    0.0376  -34.5220   11.8195 S   0  0  0  0  0  0  0  0  0  0  0  0
   -0.9404  -35.1532   12.8907 C   0  0  0  0  0  0  0  0  0  0  0  0
    4.8271  -36.8284    9.9381 O   0  0  0  0  0  0  0  0  0  0  0  0
    7.0810  -36.2833    5.8653 O   0  5  0  0  0  0  0  0  0  0  0  0
   -1.5135  -36.3110   12.4443 N   0  0  0  0  0  0  0  0  0  0  0  0
    5.1195  -36.1169    7.4750 O   0  0  0  0  0  0  0  0  0  0  0  0
    5.2343  -37.6519    5.4807 O   0  0  0  0  0  0  0  0  0  0  0  0
   -1.1173  -36.6115   11.1715 C   0  0  1  0  0  0  0  0  0  0  0  0
   -0.2355  -35.6590   10.7262 C   0  0  2  0  0  0  0  0  0  0  0  0
    0.4998  -35.5266    9.4157 C   0  0  0  0  0  0  0  0  0  0  0  0
    1.7871  -36.3584    9.3928 C   0  0  0  0  0  0  0  0  0  0  0  0
    2.8636  -35.9048    8.5926 O   0  0  0  0  0  0  0  0  0  0  0  0
  1 11  1  0  0  0  0
  3 13  1  6  0  0  0
  3 17  2  0  0  0  0
  3 20  1  0  0  0  0
  3 26  1  0  0  0  0
  4 14  1  1  0  0  0
  4 18  1  0  0  0  0
  4 21  2  0  0  0  0
  4 20  1  0  0  0  0
  5 19  1  0  0  0  0
  5  7  1  0  0  0  0
  6  7  2  0  0  0  0
  6 12  1  0  0  0  0
  7  8  1  0  0  0  0
  8  9  1  0  0  0  0
  8 10  2  0  0  0  0
 10 11  1  0  0  0  0
 11 12  2  0  0  0  0
 15 23  1  0  0  0  0
 15 16  1  0  0  0  0
 16 19  1  0  0  0  0
 19 22  1  0  0  0  0
 22  2  1  1  0  0  0
 22 23  1  0  0  0  0
 23 24  1  1  0  0  0
 24 25  1  0  0  0  0
 25 26  1  0  0  0  0
M  CHG  2  13  -1  18  -1
M  END
>  <CHROM.1>
-34.87195157,95.57007647,101.22650505,-44.06614220,95.85766705,-150.70760357
178.87567556,64.33310935,0.59898824,-36.36426171,10.09099621,2.68012821,0.18258314
1.02995210

>  <Name>
ligand

>  <RI>
0

>  <Rbt.Current_Directory>
/home/itssahil/PROJECTS/Mol_Feturizer/New_Systems/rnas/3D2G

>  <Rbt.Executable>
rbdock ($Id: //depot/dev/client3/rdock/2013.1/src/exe/rbdock.cxx#4 $)

>  <Rbt.Library>
libRbt.so (2013.1, Build901 2013/11/27)

>  <Rbt.Parameter_File>
/export/apps/rDock/src/rDock_2013.1_src/data/scripts/dock_solv.prm

>  <Rbt.Receptor>
prm/blind_docking_40.prm

>  <SCORE>
-19.2729

>  <SCORE.INTER>
-18.5917

>  <SCORE.INTER.CONST>
1

>  <SCORE.INTER.POLAR>
0

>  <SCORE.INTER.ROT>
8

>  <SCORE.INTER.SOLV>
26.7991

>  <SCORE.INTER.VDW>
-30.2608

>  <SCORE.INTER.norm>
-0.715066

>  <SCORE.INTRA>
-0.697627

>  <SCORE.INTRA.DIHEDRAL>
0.105567

>  <SCORE.INTRA.DIHEDRAL.0>
9.09364

>  <SCORE.INTRA.POLAR>
0

>  <SCORE.INTRA.POLAR.0>
0

>  <SCORE.INTRA.REPUL>
0

>  <SCORE.INTRA.REPUL.0>
0

>  <SCORE.INTRA.SOLV>
-0.862081

>  <SCORE.INTRA.SOLV.lig_0>
-78.5846

>  <SCORE.INTRA.VDW>
-0.31937

>  <SCORE.INTRA.VDW.0>
-2.81163

>  <SCORE.INTRA.norm>
-0.0268318

>  <SCORE.RESTR>
0.0164014

>  <SCORE.RESTR.CAVITY>
0.0164014

>  <SCORE.RESTR.norm>
0.000630824

>  <SCORE.SYSTEM>
0

>  <SCORE.SYSTEM.CONST>
0

>  <SCORE.SYSTEM.DIHEDRAL>
0

>  <SCORE.SYSTEM.SOLV>
0

>  <SCORE.SYSTEM.norm>
0

>  <SCORE.heavy>
26

>  <SCORE.norm>
-0.741267

>  <RMSD>
11.117

$$$$
ligand
 OpenBabel11021811463D
libRbt.so/2013.1/901 2013/11/27
 26 27  0  0  0  0  0  0  0  0999 V2000
    7.8632  -36.2949    7.4942 C   0  0  0  0  0  0  0  0  0  0  0  0
    0.0931  -37.7421   10.3203 C   0  0  0  0  0  0  0  0  0  0  0  0
   -3.9697  -40.1953   10.7561 P   0  0  1  0  0  0  0  0  0  0  0  0
   -4.0455  -42.6868   11.9093 P   0  0  2  0  0  0  0  0  0  0  0  0
    2.2515  -36.1790    8.6922 C   0  0  0  0  0  0  0  0  0  0  0  0
    4.3581  -35.0458    7.9103 C   0  0  0  0  0  0  0  0  0  0  0  0
    3.7222  -36.2062    8.3622 C   0  0  0  0  0  0  0  0  0  0  0  0
    4.4491  -37.3853    8.5476 C   0  0  0  0  0  0  0  0  0  0  0  0
    3.8476  -38.4701    8.9886 N   0  0  0  0  0  0  0  0  0  0  0  0
    5.7874  -37.4157    8.2397 N   0  0  0  0  0  0  0  0  0  0  0  0
    6.4097  -36.2613    7.8079 C   0  0  0  0  0  0  0  0  0  0  0  0
    5.7048  -35.0859    7.6282 N   0  0  0  0  0  0  0  0  0  0  0  0
   -5.0059  -40.6163    9.7594 O   0  5  0  0  0  0  0  0  0  0  0  0
   -4.5325  -43.1501   13.2246 O   0  0  0  0  0  0  0  0  0  0  0  0
    1.2078  -39.4314    6.9705 S   0  0  0  0  0  0  0  0  0  0  0  0
    1.9982  -38.0731    7.1503 C   0  0  0  0  0  0  0  0  0  0  0  0
   -3.9236  -38.7416   11.0690 O   0  0  0  0  0  0  0  0  0  0  0  0
   -2.6289  -43.0320   11.6845 O   0  5  0  0  0  0  0  0  0  0  0  0
    1.6688  -37.4369    8.3144 N   0  0  0  0  0  0  0  0  0  0  0  0
   -4.2762  -41.1212   12.0027 O   0  0  0  0  0  0  0  0  0  0  0  0
   -4.7303  -43.2265   10.6957 O   0  0  0  0  0  0  0  0  0  0  0  0
    0.7157  -38.1240    9.0121 C   0  0  1  0  0  0  0  0  0  0  0  0
    0.3868  -39.2716    8.3355 C   0  0  2  0  0  0  0  0  0  0  0  0
   -0.5869  -40.3738    8.6712 C   0  0  0  0  0  0  0  0  0  0  0  0
   -1.8513  -39.8360    9.3508 C   0  0  0  0  0  0  0  0  0  0  0  0
   -2.6228  -40.7292   10.1330 O   0  0  0  0  0  0  0  0  0  0  0  0
  1 11  1  0  0  0  0
  3 13  1  6  0  0  0
  3 17  2  0  0  0  0
  3 20  1  0  0  0  0
  3 26  1  0  0  0  0
  4 14  1  1  0  0  0
  4 18  1  0  0  0  0
  4 21  2  0  0  0  0
  4 20  1  0  0  0  0
  5 19  1  0  0  0  0
  5  7  1  0  0  0  0
  6  7  2  0  0  0  0
  6 12  1  0  0  0  0
  7  8  1  0  0  0  0
  8  9  1  0  0  0  0
  8 10  2  0  0  0  0
 10 11  1  0  0  0  0
 11 12  2  0  0  0  0
 15 23  1  0  0  0  0
 15 16  1  0  0  0  0
 16 19  1  0  0  0  0
 19 22  1  0  0  0  0
 22  2  1  1  0  0  0
 22 23  1  0  0  0  0
 23 24  1  1  0  0  0
 24 25  1  0  0  0  0
 25 26  1  0  0  0  0
M  CHG  2  13  -1  18  -1
M  END
>  <CHROM.1>
66.95701917,-41.24034355,144.17726008,-176.32863748,-143.71872403,-158.17120269
-176.25443113,95.15579353,-0.07914500,-39.28857211,9.50581012,-0.56721448
-0.22396391,2.88438428

>  <Name>
ligand

>  <RI>
0

>  <Rbt.Current_Directory>
/home/itssahil/PROJECTS/Mol_Feturizer/New_Systems/rnas/3D2G

>  <Rbt.Executable>
rbdock ($Id: //depot/dev/client3/rdock/2013.1/src/exe/rbdock.cxx#4 $)

>  <Rbt.Library>
libRbt.so (2013.1, Build901 2013/11/27)

>  <Rbt.Parameter_File>
/export/apps/rDock/src/rDock_2013.1_src/data/scripts/dock_solv.prm

>  <Rbt.Receptor>
prm/blind_docking_100.prm

>  <SCORE>
-5.77922

>  <SCORE.INTER>
-9.545

>  <SCORE.INTER.CONST>
1

>  <SCORE.INTER.POLAR>
0

>  <SCORE.INTER.ROT>
8

>  <SCORE.INTER.SOLV>
18.2948

>  <SCORE.INTER.VDW>
-21.3949

>  <SCORE.INTER.norm>
-0.367115

>  <SCORE.INTRA>
3.71294

>  <SCORE.INTRA.DIHEDRAL>
-1.30539

>  <SCORE.INTRA.DIHEDRAL.0>
9.09364

>  <SCORE.INTRA.POLAR>
0

>  <SCORE.INTRA.POLAR.0>
0

>  <SCORE.INTRA.REPUL>
0

>  <SCORE.INTRA.REPUL.0>
0

>  <SCORE.INTRA.SOLV>
3.90479

>  <SCORE.INTRA.SOLV.lig_0>
-78.5846

>  <SCORE.INTRA.VDW>
2.41325

>  <SCORE.INTRA.VDW.0>
-2.81163

>  <SCORE.INTRA.norm>
0.142806

>  <SCORE.RESTR>
0.0528325

>  <SCORE.RESTR.CAVITY>
0.0528325

>  <SCORE.RESTR.norm>
0.00203202

>  <SCORE.SYSTEM>
0

>  <SCORE.SYSTEM.CONST>
0

>  <SCORE.SYSTEM.DIHEDRAL>
0

>  <SCORE.SYSTEM.SOLV>
0

>  <SCORE.SYSTEM.norm>
0

>  <SCORE.heavy>
26

>  <SCORE.norm>
-0.222278

>  <RMSD>
11.122

$$$$
ligand
 OpenBabel11021811463D
libRbt.so/2013.1/901 2013/11/27
 26 27  0  0  0  0  0  0  0  0999 V2000
   -7.3502  -35.8562   11.5355 C   0  0  0  0  0  0  0  0  0  0  0  0
   -1.6246  -33.6852    9.6544 C   0  0  0  0  0  0  0  0  0  0  0  0
    3.1694  -37.4236    7.9242 P   0  0  1  0  0  0  0  0  0  0  0  0
    4.7285  -35.1757    7.6814 P   0  0  2  0  0  0  0  0  0  0  0  0
   -2.2431  -33.5161   12.7108 C   0  0  0  0  0  0  0  0  0  0  0  0
   -3.9277  -35.3672   12.9730 C   0  0  0  0  0  0  0  0  0  0  0  0
   -3.5771  -34.1432   12.3952 C   0  0  0  0  0  0  0  0  0  0  0  0
   -4.4717  -33.4753   11.5545 C   0  0  0  0  0  0  0  0  0  0  0  0
   -4.1419  -32.3154   11.0264 N   0  0  0  0  0  0  0  0  0  0  0  0
   -5.6845  -34.0480   11.2582 N   0  0  0  0  0  0  0  0  0  0  0  0
   -6.0277  -35.2499   11.8449 C   0  0  0  0  0  0  0  0  0  0  0  0
   -5.1562  -35.9173   12.6848 N   0  0  0  0  0  0  0  0  0  0  0  0
    3.4595  -37.8615    6.5212 O   0  5  0  0  0  0  0  0  0  0  0  0
    5.2132  -35.7743    6.4211 O   0  0  0  0  0  0  0  0  0  0  0  0
    0.7060  -35.8312   11.9523 S   0  0  0  0  0  0  0  0  0  0  0  0
   -0.3446  -35.0667   12.8545 C   0  0  0  0  0  0  0  0  0  0  0  0
    4.0004  -38.0537    8.9853 O   0  0  0  0  0  0  0  0  0  0  0  0
    5.6189  -35.4721    8.8198 O   0  5  0  0  0  0  0  0  0  0  0  0
   -1.2054  -34.3086   12.1111 N   0  0  0  0  0  0  0  0  0  0  0  0
    3.3021  -35.8485    7.8415 O   0  0  0  0  0  0  0  0  0  0  0  0
    4.5929  -33.6881    7.7261 O   0  0  0  0  0  0  0  0  0  0  0  0
   -0.9179  -34.3815   10.7771 C   0  0  1  0  0  0  0  0  0  0  0  0
    0.1496  -35.2211   10.5808 C   0  0  2  0  0  0  0  0  0  0  0  0
    0.8498  -35.6526    9.3162 C   0  0  0  0  0  0  0  0  0  0  0  0
    0.9632  -37.1779    9.2143 C   0  0  0  0  0  0  0  0  0  0  0  0
    1.6308  -37.7265    8.0926 O   0  0  0  0  0  0  0  0  0  0  0  0
  1 11  1  0  0  0  0
  3 13  1  6  0  0  0
  3 17  2  0  0  0  0
  3 20  1  0  0  0  0
  3 26  1  0  0  0  0
  4 14  1  6  0  0  0
  4 18  1  0  0  0  0
  4 21  2  0  0  0  0
  4 20  1  0  0  0  0
  5 19  1  0  0  0  0
  5  7  1  0  0  0  0
  6  7  2  0  0  0  0
  6 12  1  0  0  0  0
  7  8  1  0  0  0  0
  8  9  1  0  0  0  0
  8 10  2  0  0  0  0
 10 11  1  0  0  0  0
 11 12  2  0  0  0  0
 15 23  1  0  0  0  0
 15 16  1  0  0  0  0
 16 19  1  0  0  0  0
 19 22  1  0  0  0  0
 22  2  1  6  0  0  0
 22 23  1  0  0  0  0
 23 24  1  6  0  0  0
 24 25  1  0  0  0  0
 25 26  1  0  0  0  0
M  CHG  2  13  -1  18  -1
M  END
>  <CHROM.1>
-72.13470911,-109.58950545,69.26922581,58.89883475,51.52398844,-178.38008281
64.54485535,-167.20596386,0.27499537,-35.47101098,9.92201291,2.80490041,0.34724329
0.41751260

>  <Name>
ligand

>  <RI>
0

>  <Rbt.Current_Directory>
/home/itssahil/PROJECTS/Mol_Feturizer/New_Systems/rnas/3D2G

>  <Rbt.Executable>
rbdock ($Id: //depot/dev/client3/rdock/2013.1/src/exe/rbdock.cxx#4 $)

>  <Rbt.Library>
libRbt.so (2013.1, Build901 2013/11/27)

>  <Rbt.Parameter_File>
/export/apps/rDock/src/rDock_2013.1_src/data/scripts/dock_solv.prm

>  <Rbt.Receptor>
prm/blind_docking_40.prm

>  <SCORE>
-18.5279

>  <SCORE.INTER>
-17.2907

>  <SCORE.INTER.CONST>
1

>  <SCORE.INTER.POLAR>
0

>  <SCORE.INTER.ROT>
8

>  <SCORE.INTER.SOLV>
24.7303

>  <SCORE.INTER.VDW>
-28.7039

>  <SCORE.INTER.norm>
-0.665026

>  <SCORE.INTRA>
-1.30394

>  <SCORE.INTRA.DIHEDRAL>
-3.54834

>  <SCORE.INTRA.DIHEDRAL.0>
9.09364

>  <SCORE.INTRA.POLAR>
0

>  <SCORE.INTRA.POLAR.0>
0

>  <SCORE.INTRA.REPUL>
0

>  <SCORE.INTRA.REPUL.0>
0

>  <SCORE.INTRA.SOLV>
0.615476

>  <SCORE.INTRA.SOLV.lig_0>
-78.5846

>  <SCORE.INTRA.VDW>
0.162492

>  <SCORE.INTRA.VDW.0>
-2.81163

>  <SCORE.INTRA.norm>
-0.0501515

>  <SCORE.RESTR>
0.0666674

>  <SCORE.RESTR.CAVITY>
0.0666674

>  <SCORE.RESTR.norm>
0.00256413

>  <SCORE.SYSTEM>
0

>  <SCORE.SYSTEM.CONST>
0

>  <SCORE.SYSTEM.DIHEDRAL>
0

>  <SCORE.SYSTEM.SOLV>
0

>  <SCORE.SYSTEM.norm>
0

>  <SCORE.heavy>
26

>  <SCORE.norm>
-0.712613

>  <RMSD>
11.123

$$$$
ligand
 OpenBabel11021811463D
libRbt.so/2013.1/901 2013/11/27
 26 27  0  0  0  0  0  0  0  0999 V2000
   -7.4716  -36.2731   12.1733 C   0  0  0  0  0  0  0  0  0  0  0  0
   -1.6087  -33.0432    9.5823 C   0  0  0  0  0  0  0  0  0  0  0  0
    2.8918  -37.1572    8.0707 P   0  0  1  0  0  0  0  0  0  0  0  0
    4.9698  -37.0334    6.2791 P   0  0  2  0  0  0  0  0  0  0  0  0
   -2.7126  -33.0820   12.5033 C   0  0  0  0  0  0  0  0  0  0  0  0
   -4.0008  -35.0185   11.5420 C   0  0  0  0  0  0  0  0  0  0  0  0
   -3.9643  -33.9160   12.4012 C   0  0  0  0  0  0  0  0  0  0  0  0
   -5.0691  -33.6022   13.1975 C   0  0  0  0  0  0  0  0  0  0  0  0
   -5.0225  -32.5723   14.0162 N   0  0  0  0  0  0  0  0  0  0  0  0
   -6.2140  -34.3549   13.1005 N   0  0  0  0  0  0  0  0  0  0  0  0
   -6.2357  -35.4502   12.2600 C   0  0  0  0  0  0  0  0  0  0  0  0
   -5.1474  -35.7771   11.4732 N   0  0  0  0  0  0  0  0  0  0  0  0
    3.0622  -38.6156    7.7733 O   0  5  0  0  0  0  0  0  0  0  0  0
    5.4834  -35.8954    5.4899 O   0  0  0  0  0  0  0  0  0  0  0  0
    0.2918  -35.4069   12.0558 S   0  0  0  0  0  0  0  0  0  0  0  0
   -0.8818  -34.6847   12.8326 C   0  0  0  0  0  0  0  0  0  0  0  0
    3.3785  -36.7057    9.4021 O   0  0  0  0  0  0  0  0  0  0  0  0
    4.7696  -38.2404    5.4548 O   0  5  0  0  0  0  0  0  0  0  0  0
   -1.6012  -33.8538   12.0200 N   0  0  0  0  0  0  0  0  0  0  0  0
    3.6053  -36.4568    6.8438 O   0  0  0  0  0  0  0  0  0  0  0  0
    5.8172  -37.5222    7.4088 O   0  0  0  0  0  0  0  0  0  0  0  0
   -1.1021  -33.8363   10.7480 C   0  0  1  0  0  0  0  0  0  0  0  0
   -0.0273  -34.6852   10.6629 C   0  0  2  0  0  0  0  0  0  0  0  0
    0.8635  -35.0405    9.4984 C   0  0  0  0  0  0  0  0  0  0  0  0
    0.5954  -36.4586    8.9819 C   0  0  0  0  0  0  0  0  0  0  0  0
    1.3451  -36.9205    7.8731 O   0  0  0  0  0  0  0  0  0  0  0  0
  1 11  1  0  0  0  0
  3 13  1  6  0  0  0
  3 17  2  0  0  0  0
  3 20  1  0  0  0  0
  3 26  1  0  0  0  0
  4 14  1  6  0  0  0
  4 18  1  0  0  0  0
  4 21  2  0  0  0  0
  4 20  1  0  0  0  0
  5 19  1  0  0  0  0
  5  7  1  0  0  0  0
  6  7  2  0  0  0  0
  6 12  1  0  0  0  0
  7  8  1  0  0  0  0
  8  9  1  0  0  0  0
  8 10  2  0  0  0  0
 10 11  1  0  0  0  0
 11 12  2  0  0  0  0
 15 23  1  0  0  0  0
 15 16  1  0  0  0  0
 16 19  1  0  0  0  0
 19 22  1  0  0  0  0
 22  2  1  6  0  0  0
 22 23  1  0  0  0  0
 23 24  1  6  0  0  0
 24 25  1  0  0  0  0
 25 26  1  0  0  0  0
M  CHG  2  13  -1  18  -1
M  END
>  <CHROM.1>
-40.91278631,-87.77399752,-19.92482536,-162.64762806,71.95200129,178.94986640
67.52809368,119.58641756,0.07318412,-35.66575639,9.82671919,2.57798518,0.24720770
0.74248663

>  <Name>
ligand

>  <RI>
0

>  <Rbt.Current_Directory>
/home/itssahil/PROJECTS/Mol_Feturizer/New_Systems/rnas/3D2G

>  <Rbt.Executable>
rbdock ($Id: //depot/dev/client3/rdock/2013.1/src/exe/rbdock.cxx#4 $)

>  <Rbt.Library>
libRbt.so (2013.1, Build901 2013/11/27)

>  <Rbt.Parameter_File>
/export/apps/rDock/src/rDock_2013.1_src/data/scripts/dock_solv.prm

>  <Rbt.Receptor>
prm/blind_docking_40.prm

>  <SCORE>
-16.307

>  <SCORE.INTER>
-16.986

>  <SCORE.INTER.CONST>
1

>  <SCORE.INTER.POLAR>
0

>  <SCORE.INTER.ROT>
8

>  <SCORE.INTER.SOLV>
25.3608

>  <SCORE.INTER.VDW>
-28.7109

>  <SCORE.INTER.norm>
-0.653306

>  <SCORE.INTRA>
0.658667

>  <SCORE.INTRA.DIHEDRAL>
0.158531

>  <SCORE.INTRA.DIHEDRAL.0>
9.09364

>  <SCORE.INTRA.POLAR>
0

>  <SCORE.INTRA.POLAR.0>
0

>  <SCORE.INTRA.REPUL>
0

>  <SCORE.INTRA.REPUL.0>
0

>  <SCORE.INTRA.SOLV>
0.377342

>  <SCORE.INTRA.SOLV.lig_0>
-78.5846

>  <SCORE.INTRA.VDW>
0.390731

>  <SCORE.INTRA.VDW.0>
-2.81163

>  <SCORE.INTRA.norm>
0.0253333

>  <SCORE.RESTR>
0.0202397

>  <SCORE.RESTR.CAVITY>
0.0202397

>  <SCORE.RESTR.norm>
0.00077845

>  <SCORE.SYSTEM>
0

>  <SCORE.SYSTEM.CONST>
0

>  <SCORE.SYSTEM.DIHEDRAL>
0

>  <SCORE.SYSTEM.SOLV>
0

>  <SCORE.SYSTEM.norm>
0

>  <SCORE.heavy>
26

>  <SCORE.norm>
-0.627194

>  <RMSD>
11.130

$$$$
ligand
 OpenBabel11021811463D
libRbt.so/2013.1/901 2013/11/27
 26 27  0  0  0  0  0  0  0  0999 V2000
   -5.9841  -41.0151   13.4286 C   0  0  0  0  0  0  0  0  0  0  0  0
   -1.4043  -34.1867   10.3941 C   0  0  0  0  0  0  0  0  0  0  0  0
    4.5701  -36.9324    8.7748 P   0  0  1  0  0  0  0  0  0  0  0  0
    6.1662  -35.3993    7.1485 P   0  0  2  0  0  0  0  0  0  0  0  0
   -3.2770  -36.1980   11.8773 C   0  0  0  0  0  0  0  0  0  0  0  0
   -5.0703  -37.9269   11.5190 C   0  0  0  0  0  0  0  0  0  0  0  0
   -4.0016  -37.4549   12.2870 C   0  0  0  0  0  0  0  0  0  0  0  0
   -3.5733  -38.1617   13.4140 C   0  0  0  0  0  0  0  0  0  0  0  0
   -2.5561  -37.7204   14.1238 N   0  0  0  0  0  0  0  0  0  0  0  0
   -4.2367  -39.3025   13.7949 N   0  0  0  0  0  0  0  0  0  0  0  0
   -5.2816  -39.7687   13.0222 C   0  0  0  0  0  0  0  0  0  0  0  0
   -5.7102  -39.0844   11.9003 N   0  0  0  0  0  0  0  0  0  0  0  0
    4.2016  -38.3845    8.7671 O   0  5  0  0  0  0  0  0  0  0  0  0
    5.4184  -34.9798    5.9458 O   0  0  0  0  0  0  0  0  0  0  0  0
   -0.5804  -37.9698    9.8229 S   0  0  0  0  0  0  0  0  0  0  0  0
   -1.8253  -37.8544   10.7920 C   0  0  0  0  0  0  0  0  0  0  0  0
    5.1881  -36.4267   10.0302 O   0  0  0  0  0  0  0  0  0  0  0  0
    7.6127  -35.5303    6.8900 O   0  5  0  0  0  0  0  0  0  0  0  0
   -2.1797  -36.5543   11.0210 N   0  0  0  0  0  0  0  0  0  0  0  0
    5.4877  -36.7899    7.4931 O   0  0  0  0  0  0  0  0  0  0  0  0
    6.1076  -34.4999    8.3405 O   0  0  0  0  0  0  0  0  0  0  0  0
   -1.3465  -35.6837   10.3764 C   0  0  1  0  0  0  0  0  0  0  0  0
   -0.4049  -36.3862    9.6673 C   0  0  2  0  0  0  0  0  0  0  0  0
    0.7246  -35.9151    8.7853 C   0  0  0  0  0  0  0  0  0  0  0  0
    2.0625  -36.5538    9.1752 C   0  0  0  0  0  0  0  0  0  0  0  0
    3.2134  -36.2075    8.4266 O   0  0  0  0  0  0  0  0  0  0  0  0
  1 11  1  0  0  0  0
  3 13  1  1  0  0  0
  3 17  2  0  0  0  0
  3 20  1  0  0  0  0
  3 26  1  0  0  0  0
  4 14  1  6  0  0  0
  4 18  1  0  0  0  0
  4 21  2  0  0  0  0
  4 20  1  0  0  0  0
  5 19  1  0  0  0  0
  5  7  1  0  0  0  0
  6  7  2  0  0  0  0
  6 12  1  0  0  0  0
  7  8  1  0  0  0  0
  8  9  1  0  0  0  0
  8 10  2  0  0  0  0
 10 11  1  0  0  0  0
 11 12  2  0  0  0  0
 15 23  1  0  0  0  0
 15 16  1  0  0  0  0
 16 19  1  0  0  0  0
 19 22  1  0  0  0  0
 22  2  1  6  0  0  0
 22 23  1  0  0  0  0
 23 24  1  6  0  0  0
 24 25  1  0  0  0  0
 25 26  1  0  0  0  0
M  CHG  2  13  -1  18  -1
M  END
>  <CHROM.1>
-177.17434907,-6.79184688,-90.81681907,-109.78969476,-52.11934410,179.70260026
-176.37131624,50.69955545,0.78350843,-36.95706010,9.95799959,-2.76224470
0.34253105,-0.37398886

>  <Name>
ligand

>  <RI>
0

>  <Rbt.Current_Directory>
/home/itssahil/PROJECTS/Mol_Feturizer/New_Systems/rnas/3D2G

>  <Rbt.Executable>
rbdock ($Id: //depot/dev/client3/rdock/2013.1/src/exe/rbdock.cxx#4 $)

>  <Rbt.Library>
libRbt.so (2013.1, Build901 2013/11/27)

>  <Rbt.Parameter_File>
/export/apps/rDock/src/rDock_2013.1_src/data/scripts/dock_solv.prm

>  <Rbt.Receptor>
prm/blind_docking_80.prm

>  <SCORE>
-16.2675

>  <SCORE.INTER>
-16.5221

>  <SCORE.INTER.CONST>
1

>  <SCORE.INTER.POLAR>
0

>  <SCORE.INTER.ROT>
8

>  <SCORE.INTER.SOLV>
25.5556

>  <SCORE.INTER.VDW>
-28.4666

>  <SCORE.INTER.norm>
-0.635464

>  <SCORE.INTRA>
0.254608

>  <SCORE.INTRA.DIHEDRAL>
-1.28639

>  <SCORE.INTRA.DIHEDRAL.0>
9.09364

>  <SCORE.INTRA.POLAR>
0

>  <SCORE.INTRA.POLAR.0>
0

>  <SCORE.INTRA.REPUL>
0

>  <SCORE.INTRA.REPUL.0>
0

>  <SCORE.INTRA.SOLV>
-1.05636

>  <SCORE.INTRA.SOLV.lig_0>
-78.5846

>  <SCORE.INTRA.VDW>
1.42598

>  <SCORE.INTRA.VDW.0>
-2.81163

>  <SCORE.INTRA.norm>
0.00979261

>  <SCORE.RESTR>
0

>  <SCORE.RESTR.CAVITY>
0

>  <SCORE.RESTR.norm>
0

>  <SCORE.SYSTEM>
0

>  <SCORE.SYSTEM.CONST>
0

>  <SCORE.SYSTEM.DIHEDRAL>
0

>  <SCORE.SYSTEM.SOLV>
0

>  <SCORE.SYSTEM.norm>
0

>  <SCORE.heavy>
26

>  <SCORE.norm>
-0.625672

>  <RMSD>
11.307

$$$$
ligand
 OpenBabel11021811463D
libRbt.so/2013.1/901 2013/11/27
 26 27  0  0  0  0  0  0  0  0999 V2000
    5.3271  -37.2154    6.3708 C   0  0  0  0  0  0  0  0  0  0  0  0
   -0.6914  -36.0578   11.9694 C   0  0  0  0  0  0  0  0  0  0  0  0
   -4.1004  -34.7226   12.8989 P   0  0  1  0  0  0  0  0  0  0  0  0
   -4.0651  -37.4634   12.7275 P   0  0  2  0  0  0  0  0  0  0  0  0
    0.4670  -37.4322    9.4157 C   0  0  0  0  0  0  0  0  0  0  0  0
    2.6502  -36.3247    8.8324 C   0  0  0  0  0  0  0  0  0  0  0  0
    1.7388  -37.3613    8.6095 C   0  0  0  0  0  0  0  0  0  0  0  0
    2.0157  -38.3573    7.6690 C   0  0  0  0  0  0  0  0  0  0  0  0
    1.1608  -39.3395    7.4753 N   0  0  0  0  0  0  0  0  0  0  0  0
    3.1696  -38.2909    6.9268 N   0  0  0  0  0  0  0  0  0  0  0  0
    4.0702  -37.2716    7.1640 C   0  0  0  0  0  0  0  0  0  0  0  0
    3.8132  -36.2848    8.0971 N   0  0  0  0  0  0  0  0  0  0  0  0
   -5.1478  -33.7425   13.3311 O   0  5  0  0  0  0  0  0  0  0  0  0
   -3.0776  -37.4691   13.8259 O   0  0  0  0  0  0  0  0  0  0  0  0
   -0.8917  -33.9308    8.6902 S   0  0  0  0  0  0  0  0  0  0  0  0
   -0.2096  -35.3199    8.3624 C   0  0  0  0  0  0  0  0  0  0  0  0
   -2.8141  -34.6680   13.6444 O   0  0  0  0  0  0  0  0  0  0  0  0
   -3.4238  -37.4854   11.3991 O   0  5  0  0  0  0  0  0  0  0  0  0
   -0.1237  -36.1233    9.4648 N   0  0  0  0  0  0  0  0  0  0  0  0
   -4.8509  -36.1128   12.9946 O   0  0  0  0  0  0  0  0  0  0  0  0
   -5.0284  -38.6042   12.6659 O   0  0  0  0  0  0  0  0  0  0  0  0
   -0.6229  -35.5071   10.5777 C   0  0  1  0  0  0  0  0  0  0  0  0
   -1.0852  -34.2586   10.2452 C   0  0  2  0  0  0  0  0  0  0  0  0
   -1.7349  -33.1876   11.0856 C   0  0  0  0  0  0  0  0  0  0  0  0
   -3.2640  -33.2281   10.9860 C   0  0  0  0  0  0  0  0  0  0  0  0
   -3.9283  -34.4213   11.3604 O   0  0  0  0  0  0  0  0  0  0  0  0
  1 11  1  0  0  0  0
  3 13  1  1  0  0  0
  3 17  2  0  0  0  0
  3 20  1  0  0  0  0
  3 26  1  0  0  0  0
  4 14  1  1  0  0  0
  4 18  1  0  0  0  0
  4 21  2  0  0  0  0
  4 20  1  0  0  0  0
  5 19  1  0  0  0  0
  5  7  1  0  0  0  0
  6  7  2  0  0  0  0
  6 12  1  0  0  0  0
  7  8  1  0  0  0  0
  8  9  1  0  0  0  0
  8 10  2  0  0  0  0
 10 11  1  0  0  0  0
 11 12  2  0  0  0  0
 15 23  1  0  0  0  0
 15 16  1  0  0  0  0
 16 19  1  0  0  0  0
 19 22  1  0  0  0  0
 22  2  1  6  0  0  0
 22 23  1  0  0  0  0
 23 24  1  6  0  0  0
 24 25  1  0  0  0  0
 25 26  1  0  0  0  0
M  CHG  2  13  -1  18  -1
M  END
>  <CHROM.1>
-175.22699298,43.78172564,45.59043307,63.72838120,82.72910058,58.55410693
77.23466526,72.61732663,-1.22554124,-36.05209209,10.52741568,-0.11008192
0.64929933,-0.11080684

>  <Name>
ligand

>  <RI>
0

>  <Rbt.Current_Directory>
/home/itssahil/PROJECTS/Mol_Feturizer/New_Systems/rnas/3D2G

>  <Rbt.Executable>
rbdock ($Id: //depot/dev/client3/rdock/2013.1/src/exe/rbdock.cxx#4 $)

>  <Rbt.Library>
libRbt.so (2013.1, Build901 2013/11/27)

>  <Rbt.Parameter_File>
/export/apps/rDock/src/rDock_2013.1_src/data/scripts/dock_solv.prm

>  <Rbt.Receptor>
prm/blind_docking_60.prm

>  <SCORE>
-21.3263

>  <SCORE.INTER>
-18.8815

>  <SCORE.INTER.CONST>
1

>  <SCORE.INTER.POLAR>
0

>  <SCORE.INTER.ROT>
8

>  <SCORE.INTER.SOLV>
18.2211

>  <SCORE.INTER.VDW>
-27.5947

>  <SCORE.INTER.norm>
-0.726213

>  <SCORE.INTRA>
-2.44475

>  <SCORE.INTRA.DIHEDRAL>
-2.40343

>  <SCORE.INTRA.DIHEDRAL.0>
9.09364

>  <SCORE.INTRA.POLAR>
0

>  <SCORE.INTRA.POLAR.0>
0

>  <SCORE.INTRA.REPUL>
0

>  <SCORE.INTRA.REPUL.0>
0

>  <SCORE.INTRA.SOLV>
0.657836

>  <SCORE.INTRA.SOLV.lig_0>
-78.5846

>  <SCORE.INTRA.VDW>
-1.57195

>  <SCORE.INTRA.VDW.0>
-2.81163

>  <SCORE.INTRA.norm>
-0.0940288

>  <SCORE.RESTR>
0

>  <SCORE.RESTR.CAVITY>
0

>  <SCORE.RESTR.norm>
0

>  <SCORE.SYSTEM>
0

>  <SCORE.SYSTEM.CONST>
0

>  <SCORE.SYSTEM.DIHEDRAL>
0

>  <SCORE.SYSTEM.SOLV>
0

>  <SCORE.SYSTEM.norm>
0

>  <SCORE.heavy>
26

>  <SCORE.norm>
-0.820242

>  <RMSD>
11.345

$$$$
ligand
 OpenBabel11021811463D
libRbt.so/2013.1/901 2013/11/27
 26 27  0  0  0  0  0  0  0  0999 V2000
   -8.4838  -34.9677   11.6701 C   0  0  0  0  0  0  0  0  0  0  0  0
   -2.0447  -34.1604   11.9203 C   0  0  0  0  0  0  0  0  0  0  0  0
    0.8247  -32.1398    8.2796 P   0  0  1  0  0  0  0  0  0  0  0  0
    3.4451  -32.9595    8.3444 P   0  0  2  0  0  0  0  0  0  0  0  0
   -3.2303  -36.8170   13.0559 C   0  0  0  0  0  0  0  0  0  0  0  0
   -5.4000  -37.0865   11.8096 C   0  0  0  0  0  0  0  0  0  0  0  0
   -4.6056  -36.3300   12.6765 C   0  0  0  0  0  0  0  0  0  0  0  0
   -5.0923  -35.1410   13.2265 C   0  0  0  0  0  0  0  0  0  0  0  0
   -4.3454  -34.4415   14.0547 N   0  0  0  0  0  0  0  0  0  0  0  0
   -6.3416  -34.6901   12.8762 N   0  0  0  0  0  0  0  0  0  0  0  0
   -7.1243  -35.4512   12.0308 C   0  0  0  0  0  0  0  0  0  0  0  0
   -6.6589  -36.6333   11.4864 N   0  0  0  0  0  0  0  0  0  0  0  0
    0.5511  -31.5540    9.6310 O   0  5  0  0  0  0  0  0  0  0  0  0
    3.4553  -32.4966    6.9417 O   0  0  0  0  0  0  0  0  0  0  0  0
   -1.0044  -37.4093   10.0020 S   0  0  0  0  0  0  0  0  0  0  0  0
   -1.9516  -37.8031   11.2061 C   0  0  0  0  0  0  0  0  0  0  0  0
    1.2237  -31.1724    7.2221 O   0  0  0  0  0  0  0  0  0  0  0  0
    4.2830  -34.1572    8.5440 O   0  5  0  0  0  0  0  0  0  0  0  0
   -2.3687  -36.7089   11.9111 N   0  0  0  0  0  0  0  0  0  0  0  0
    1.9063  -33.2541    8.5855 O   0  0  0  0  0  0  0  0  0  0  0  0
    3.9461  -32.0094    9.3834 O   0  0  0  0  0  0  0  0  0  0  0  0
   -1.8346  -35.5542   11.4124 C   0  0  1  0  0  0  0  0  0  0  0  0
   -1.0463  -35.8422   10.3267 C   0  0  2  0  0  0  0  0  0  0  0  0
   -0.2488  -34.9420    9.4160 C   0  0  0  0  0  0  0  0  0  0  0  0
   -1.0718  -33.7446    8.9275 C   0  0  0  0  0  0  0  0  0  0  0  0
   -0.5099  -32.9061    7.9345 O   0  0  0  0  0  0  0  0  0  0  0  0
  1 11  1  0  0  0  0
  3 13  1  1  0  0  0
  3 17  2  0  0  0  0
  3 20  1  0  0  0  0
  3 26  1  0  0  0  0
  4 14  1  6  0  0  0
  4 18  1  0  0  0  0
  4 21  2  0  0  0  0
  4 20  1  0  0  0  0
  5 19  1  0  0  0  0
  5  7  1  0  0  0  0
  6  7  2  0  0  0  0
  6 12  1  0  0  0  0
  7  8  1  0  0  0  0
  8  9  1  0  0  0  0
  8 10  2  0  0  0  0
 10 11  1  0  0  0  0
 11 12  2  0  0  0  0
 15 23  1  0  0  0  0
 15 16  1  0  0  0  0
 16 19  1  0  0  0  0
 19 22  1  0  0  0  0
 22  2  1  6  0  0  0
 22 23  1  0  0  0  0
 23 24  1  6  0  0  0
 24 25  1  0  0  0  0
 25 26  1  0  0  0  0
M  CHG  2  13  -1  18  -1
M  END
>  <CHROM.1>
-98.76484419,-107.08715311,70.51081655,-53.31784173,131.21912945,-172.19562434
-61.84641524,-47.22248229,-1.16071104,-34.45832707,10.18661634,2.65844427
-0.32834574,2.79942089

>  <Name>
ligand

>  <RI>
0

>  <Rbt.Current_Directory>
/home/itssahil/PROJECTS/Mol_Feturizer/New_Systems/rnas/3D2G

>  <Rbt.Executable>
rbdock ($Id: //depot/dev/client3/rdock/2013.1/src/exe/rbdock.cxx#4 $)

>  <Rbt.Library>
libRbt.so (2013.1, Build901 2013/11/27)

>  <Rbt.Parameter_File>
/export/apps/rDock/src/rDock_2013.1_src/data/scripts/dock_solv.prm

>  <Rbt.Receptor>
prm/blind_docking_40.prm

>  <SCORE>
-15.5678

>  <SCORE.INTER>
-16.541

>  <SCORE.INTER.CONST>
1

>  <SCORE.INTER.POLAR>
0

>  <SCORE.INTER.ROT>
8

>  <SCORE.INTER.SOLV>
23.3565

>  <SCORE.INTER.VDW>
-27.7462

>  <SCORE.INTER.norm>
-0.636192

>  <SCORE.INTRA>
-0.0135672

>  <SCORE.INTRA.DIHEDRAL>
-2.54264

>  <SCORE.INTRA.DIHEDRAL.0>
9.09364

>  <SCORE.INTRA.POLAR>
0

>  <SCORE.INTRA.POLAR.0>
0

>  <SCORE.INTRA.REPUL>
0

>  <SCORE.INTRA.REPUL.0>
0

>  <SCORE.INTRA.SOLV>
0.748266

>  <SCORE.INTRA.SOLV.lig_0>
-78.5846

>  <SCORE.INTRA.VDW>
0.883619

>  <SCORE.INTRA.VDW.0>
-2.81163

>  <SCORE.INTRA.norm>
-0.000521814

>  <SCORE.RESTR>
0.986737

>  <SCORE.RESTR.CAVITY>
0.986737

>  <SCORE.RESTR.norm>
0.0379514

>  <SCORE.SYSTEM>
0

>  <SCORE.SYSTEM.CONST>
0

>  <SCORE.SYSTEM.DIHEDRAL>
0

>  <SCORE.SYSTEM.SOLV>
0

>  <SCORE.SYSTEM.norm>
0

>  <SCORE.heavy>
26

>  <SCORE.norm>
-0.598762

>  <RMSD>
11.389

$$$$
ligand
 OpenBabel11021811463D
libRbt.so/2013.1/901 2013/11/27
 26 27  0  0  0  0  0  0  0  0999 V2000
    0.1087  -30.7117    7.0903 C   0  0  0  0  0  0  0  0  0  0  0  0
   -1.5323  -37.7772   10.7292 C   0  0  0  0  0  0  0  0  0  0  0  0
   -6.6298  -34.9424   11.6912 P   0  0  1  0  0  0  0  0  0  0  0  0
   -9.1514  -34.9515   12.7795 P   0  0  2  0  0  0  0  0  0  0  0  0
    0.5148  -35.4605   10.2876 C   0  0  0  0  0  0  0  0  0  0  0  0
    1.5743  -33.5161    9.0918 C   0  0  0  0  0  0  0  0  0  0  0  0
    0.4144  -34.2046    9.4598 C   0  0  0  0  0  0  0  0  0  0  0  0
   -0.8394  -33.7581    9.0333 C   0  0  0  0  0  0  0  0  0  0  0  0
   -1.9264  -34.4200    9.3699 N   0  0  0  0  0  0  0  0  0  0  0  0
   -0.9350  -32.6094    8.2862 N   0  0  0  0  0  0  0  0  0  0  0  0
    0.2169  -31.9443    7.9155 C   0  0  0  0  0  0  0  0  0  0  0  0
    1.4638  -32.3795    8.3232 N   0  0  0  0  0  0  0  0  0  0  0  0
   -6.8995  -36.0806   10.7551 O   0  5  0  0  0  0  0  0  0  0  0  0
   -9.6758  -36.2594   12.3362 O   0  0  0  0  0  0  0  0  0  0  0  0
   -1.9739  -34.6847   13.0869 S   0  0  0  0  0  0  0  0  0  0  0  0
   -0.7477  -34.4256   12.1217 C   0  0  0  0  0  0  0  0  0  0  0  0
   -6.7756  -33.5791   11.1136 O   0  0  0  0  0  0  0  0  0  0  0  0
   -9.4428  -33.8758   11.8130 O   0  5  0  0  0  0  0  0  0  0  0  0
   -0.5473  -35.4636   11.2553 N   0  0  0  0  0  0  0  0  0  0  0  0
   -7.5983  -35.2424   12.9066 O   0  0  0  0  0  0  0  0  0  0  0  0
   -9.6704  -34.4069   14.0707 O   0  0  0  0  0  0  0  0  0  0  0  0
   -1.4412  -36.4755   11.4656 C   0  0  1  0  0  0  0  0  0  0  0  0
   -2.2955  -36.1320   12.4831 C   0  0  2  0  0  0  0  0  0  0  0  0
   -3.4575  -36.8756   13.0933 C   0  0  0  0  0  0  0  0  0  0  0  0
   -4.7733  -36.5836   12.3633 C   0  0  0  0  0  0  0  0  0  0  0  0
   -5.1695  -35.2327   12.2111 O   0  0  0  0  0  0  0  0  0  0  0  0
  1 11  1  0  0  0  0
  3 13  1  6  0  0  0
  3 17  2  0  0  0  0
  3 20  1  0  0  0  0
  3 26  1  0  0  0  0
  4 14  1  6  0  0  0
  4 18  1  0  0  0  0
  4 21  2  0  0  0  0
  4 20  1  0  0  0  0
  5 19  1  0  0  0  0
  5  7  1  0  0  0  0
  6  7  2  0  0  0  0
  6 12  1  0  0  0  0
  7  8  1  0  0  0  0
  8  9  1  0  0  0  0
  8 10  2  0  0  0  0
 10 11  1  0  0  0  0
 11 12  2  0  0  0  0
 15 23  1  0  0  0  0
 15 16  1  0  0  0  0
 16 19  1  0  0  0  0
 19 22  1  0  0  0  0
 22  2  1  6  0  0  0
 22 23  1  0  0  0  0
 23 24  1  6  0  0  0
 24 25  1  0  0  0  0
 25 26  1  0  0  0  0
M  CHG  2  13  -1  18  -1
M  END
>  <CHROM.1>
-76.21733632,-54.37205168,140.25527338,93.34118636,90.83276716,-54.39739678
-169.49330351,-33.38189974,-3.89737307,-34.73055919,11.21612158,0.35571485
0.16270048,-0.72661639

>  <Name>
ligand

>  <RI>
0

>  <Rbt.Current_Directory>
/home/itssahil/PROJECTS/Mol_Feturizer/New_Systems/rnas/3D2G

>  <Rbt.Executable>
rbdock ($Id: //depot/dev/client3/rdock/2013.1/src/exe/rbdock.cxx#4 $)

>  <Rbt.Library>
libRbt.so (2013.1, Build901 2013/11/27)

>  <Rbt.Parameter_File>
/export/apps/rDock/src/rDock_2013.1_src/data/scripts/dock_solv.prm

>  <Rbt.Receptor>
prm/blind_docking_40.prm

>  <SCORE>
-13.397

>  <SCORE.INTER>
-14.26

>  <SCORE.INTER.CONST>
1

>  <SCORE.INTER.POLAR>
0

>  <SCORE.INTER.ROT>
8

>  <SCORE.INTER.SOLV>
24.7231

>  <SCORE.INTER.VDW>
-26.681

>  <SCORE.INTER.norm>
-0.548462

>  <SCORE.INTRA>
0.835315

>  <SCORE.INTRA.DIHEDRAL>
-1.36644

>  <SCORE.INTRA.DIHEDRAL.0>
9.09364

>  <SCORE.INTRA.POLAR>
0

>  <SCORE.INTRA.POLAR.0>
0

>  <SCORE.INTRA.REPUL>
0

>  <SCORE.INTRA.REPUL.0>
0

>  <SCORE.INTRA.SOLV>
2.72836

>  <SCORE.INTRA.SOLV.lig_0>
-78.5846

>  <SCORE.INTRA.VDW>
0.154357

>  <SCORE.INTRA.VDW.0>
-2.81163

>  <SCORE.INTRA.norm>
0.0321275

>  <SCORE.RESTR>
0.0276645

>  <SCORE.RESTR.CAVITY>
0.0276645

>  <SCORE.RESTR.norm>
0.00106402

>  <SCORE.SYSTEM>
0

>  <SCORE.SYSTEM.CONST>
0

>  <SCORE.SYSTEM.DIHEDRAL>
0

>  <SCORE.SYSTEM.SOLV>
0

>  <SCORE.SYSTEM.norm>
0

>  <SCORE.heavy>
26

>  <SCORE.norm>
-0.51527

>  <RMSD>
11.443

$$$$
ligand
 OpenBabel11021811463D
libRbt.so/2013.1/901 2013/11/27
 26 27  0  0  0  0  0  0  0  0999 V2000
    1.8960  -40.0343    5.9852 C   0  0  0  0  0  0  0  0  0  0  0  0
   -0.2612  -36.8833   11.3429 C   0  0  0  0  0  0  0  0  0  0  0  0
   -5.0617  -33.5549   12.9083 P   0  0  1  0  0  0  0  0  0  0  0  0
   -7.0956  -34.6221   11.4026 P   0  0  2  0  0  0  0  0  0  0  0  0
    1.6423  -35.3997    9.3610 C   0  0  0  0  0  0  0  0  0  0  0  0
    0.6638  -37.5547    8.5056 C   0  0  0  0  0  0  0  0  0  0  0  0
    1.7091  -36.6264    8.4873 C   0  0  0  0  0  0  0  0  0  0  0  0
    2.8016  -36.8072    7.6347 C   0  0  0  0  0  0  0  0  0  0  0  0
    3.7749  -35.9211    7.6105 N   0  0  0  0  0  0  0  0  0  0  0  0
    2.8697  -37.9281    6.8437 N   0  0  0  0  0  0  0  0  0  0  0  0
    1.8260  -38.8320    6.8580 C   0  0  0  0  0  0  0  0  0  0  0  0
    0.7355  -38.6613    7.6900 N   0  0  0  0  0  0  0  0  0  0  0  0
   -4.0487  -32.5079   12.5589 O   0  5  0  0  0  0  0  0  0  0  0  0
   -7.9674  -33.4465   11.2029 O   0  0  0  0  0  0  0  0  0  0  0  0
   -1.8677  -33.8800    9.4149 S   0  0  0  0  0  0  0  0  0  0  0  0
   -0.3563  -34.0273    8.9718 C   0  0  0  0  0  0  0  0  0  0  0  0
   -6.0818  -33.1594   13.9164 O   0  0  0  0  0  0  0  0  0  0  0  0
   -7.4465  -35.3778   12.6200 O   0  5  0  0  0  0  0  0  0  0  0  0
    0.2629  -35.0735    9.5965 N   0  0  0  0  0  0  0  0  0  0  0  0
   -5.6595  -33.9578   11.4992 O   0  0  0  0  0  0  0  0  0  0  0  0
   -7.0978  -35.6666   10.3339 O   0  0  0  0  0  0  0  0  0  0  0  0
   -0.5760  -35.7075   10.4693 C   0  0  1  0  0  0  0  0  0  0  0  0
   -1.8101  -35.1080   10.4403 C   0  0  2  0  0  0  0  0  0  0  0  0
   -3.0806  -35.4219   11.1905 C   0  0  0  0  0  0  0  0  0  0  0  0
   -2.9817  -35.0414   12.6722 C   0  0  0  0  0  0  0  0  0  0  0  0
   -4.1806  -34.7761   13.3771 O   0  0  0  0  0  0  0  0  0  0  0  0
  1 11  1  0  0  0  0
  3 13  1  6  0  0  0
  3 17  2  0  0  0  0
  3 20  1  0  0  0  0
  3 26  1  0  0  0  0
  4 14  1  6  0  0  0
  4 18  1  0  0  0  0
  4 21  2  0  0  0  0
  4 20  1  0  0  0  0
  5 19  1  0  0  0  0
  5  7  1  0  0  0  0
  6  7  2  0  0  0  0
  6 12  1  0  0  0  0
  7  8  1  0  0  0  0
  8  9  1  0  0  0  0
  8 10  2  0  0  0  0
 10 11  1  0  0  0  0
 11 12  2  0  0  0  0
 15 23  1  0  0  0  0
 15 16  1  0  0  0  0
 16 19  1  0  0  0  0
 19 22  1  0  0  0  0
 22  2  1  6  0  0  0
 22 23  1  0  0  0  0
 23 24  1  6  0  0  0
 24 25  1  0  0  0  0
 25 26  1  0  0  0  0
M  CHG  2  13  -1  18  -1
M  END
>  <CHROM.1>
-157.46686254,-104.91790569,-27.07973506,92.40052970,-108.51091779,155.71596822
-62.95680067,-38.99164447,-2.37977618,-35.35457208,10.35521070,0.57917787
-0.16717011,-2.45155434

>  <Name>
ligand

>  <RI>
0

>  <Rbt.Current_Directory>
/home/itssahil/PROJECTS/Mol_Feturizer/New_Systems/rnas/3D2G

>  <Rbt.Executable>
rbdock ($Id: //depot/dev/client3/rdock/2013.1/src/exe/rbdock.cxx#4 $)

>  <Rbt.Library>
libRbt.so (2013.1, Build901 2013/11/27)

>  <Rbt.Parameter_File>
/export/apps/rDock/src/rDock_2013.1_src/data/scripts/dock_solv.prm

>  <Rbt.Receptor>
prm/blind_docking_40.prm

>  <SCORE>
-4.42626

>  <SCORE.INTER>
-5.97263

>  <SCORE.INTER.CONST>
1

>  <SCORE.INTER.POLAR>
0

>  <SCORE.INTER.ROT>
8

>  <SCORE.INTER.SOLV>
19.4806

>  <SCORE.INTER.VDW>
-19.4086

>  <SCORE.INTER.norm>
-0.229716

>  <SCORE.INTRA>
0.284142

>  <SCORE.INTRA.DIHEDRAL>
0.596244

>  <SCORE.INTRA.DIHEDRAL.0>
9.09364

>  <SCORE.INTRA.POLAR>
0

>  <SCORE.INTRA.POLAR.0>
0

>  <SCORE.INTRA.REPUL>
0

>  <SCORE.INTRA.REPUL.0>
0

>  <SCORE.INTRA.SOLV>
-0.928235

>  <SCORE.INTRA.SOLV.lig_0>
-78.5846

>  <SCORE.INTRA.VDW>
0.450138

>  <SCORE.INTRA.VDW.0>
-2.81163

>  <SCORE.INTRA.norm>
0.0109286

>  <SCORE.RESTR>
1.26223

>  <SCORE.RESTR.CAVITY>
1.26223

>  <SCORE.RESTR.norm>
0.0485473

>  <SCORE.SYSTEM>
0

>  <SCORE.SYSTEM.CONST>
0

>  <SCORE.SYSTEM.DIHEDRAL>
0

>  <SCORE.SYSTEM.SOLV>
0

>  <SCORE.SYSTEM.norm>
0

>  <SCORE.heavy>
26

>  <SCORE.norm>
-0.170241

>  <RMSD>
11.553

$$$$
ligand
 OpenBabel11021811463D
libRbt.so/2013.1/901 2013/11/27
 26 27  0  0  0  0  0  0  0  0999 V2000
   -5.4871  -33.3260   12.2223 C   0  0  0  0  0  0  0  0  0  0  0  0
   -0.0668  -34.4120   11.4479 C   0  0  0  0  0  0  0  0  0  0  0  0
    5.2700  -36.2664    8.6336 P   0  0  1  0  0  0  0  0  0  0  0  0
    5.6404  -37.2260    6.0870 P   0  0  2  0  0  0  0  0  0  0  0  0
   -1.3922  -37.2344   11.2759 C   0  0  0  0  0  0  0  0  0  0  0  0
   -2.7668  -35.2630   10.5292 C   0  0  0  0  0  0  0  0  0  0  0  0
   -2.4569  -36.1962   11.5233 C   0  0  0  0  0  0  0  0  0  0  0  0
   -3.1546  -36.1986   12.7342 C   0  0  0  0  0  0  0  0  0  0  0  0
   -2.8689  -37.0901   13.6598 N   0  0  0  0  0  0  0  0  0  0  0  0
   -4.1192  -35.2486   12.9660 N   0  0  0  0  0  0  0  0  0  0  0  0
   -4.4284  -34.3404   11.9730 C   0  0  0  0  0  0  0  0  0  0  0  0
   -3.7522  -34.3319   10.7675 N   0  0  0  0  0  0  0  0  0  0  0  0
    5.6980  -36.9102    9.9169 O   0  5  0  0  0  0  0  0  0  0  0  0
    4.8077  -38.2349    5.4011 O   0  0  0  0  0  0  0  0  0  0  0  0
    1.0744  -36.6124    8.4192 S   0  0  0  0  0  0  0  0  0  0  0  0
    0.0212  -37.4231    9.2770 C   0  0  0  0  0  0  0  0  0  0  0  0
    6.0715  -35.0908    8.1990 O   0  0  0  0  0  0  0  0  0  0  0  0
    7.0790  -37.4125    5.8188 O   0  5  0  0  0  0  0  0  0  0  0  0
   -0.4346  -36.7032   10.3457 N   0  0  0  0  0  0  0  0  0  0  0  0
    5.2747  -37.4733    7.6096 O   0  0  0  0  0  0  0  0  0  0  0  0
    5.4063  -35.7919    5.7381 O   0  0  0  0  0  0  0  0  0  0  0  0
    0.1606  -35.4752   10.4171 C   0  0  1  0  0  0  0  0  0  0  0  0
    1.0331  -35.3242    9.3688 C   0  0  2  0  0  0  0  0  0  0  0  0
    1.9213  -34.1688    8.9789 C   0  0  0  0  0  0  0  0  0  0  0  0
    3.2891  -34.6410    8.4731 C   0  0  0  0  0  0  0  0  0  0  0  0
    3.7544  -35.9123    8.8882 O   0  0  0  0  0  0  0  0  0  0  0  0
  1 11  1  0  0  0  0
  3 13  1  1  0  0  0
  3 17  2  0  0  0  0
  3 20  1  0  0  0  0
  3 26  1  0  0  0  0
  4 14  1  6  0  0  0
  4 18  1  0  0  0  0
  4 21  2  0  0  0  0
  4 20  1  0  0  0  0
  5 19  1  0  0  0  0
  5  7  1  0  0  0  0
  6  7  2  0  0  0  0
  6 12  1  0  0  0  0
  7  8  1  0  0  0  0
  8  9  1  0  0  0  0
  8 10  2  0  0  0  0
 10 11  1  0  0  0  0
 11 12  2  0  0  0  0
 15 23  1  0  0  0  0
 15 16  1  0  0  0  0
 16 19  1  0  0  0  0
 19 22  1  0  0  0  0
 22  2  1  6  0  0  0
 22 23  1  0  0  0  0
 23 24  1  6  0  0  0
 24 25  1  0  0  0  0
 25 26  1  0  0  0  0
M  CHG  2  13  -1  18  -1
M  END
>  <CHROM.1>
-147.52721256,-133.84715980,28.56629224,-147.69213129,-40.07421408,-23.83278282
-166.96640955,136.37867564,1.56874042,-36.05121282,9.29856949,-2.75329734
-0.36162823,-2.57879927

>  <Name>
ligand

>  <RI>
0

>  <Rbt.Current_Directory>
/home/itssahil/PROJECTS/Mol_Feturizer/New_Systems/rnas/3D2G

>  <Rbt.Executable>
rbdock ($Id: //depot/dev/client3/rdock/2013.1/src/exe/rbdock.cxx#4 $)

>  <Rbt.Library>
libRbt.so (2013.1, Build901 2013/11/27)

>  <Rbt.Parameter_File>
/export/apps/rDock/src/rDock_2013.1_src/data/scripts/dock_solv.prm

>  <Rbt.Receptor>
prm/blind_docking_40.prm

>  <SCORE>
10.5039

>  <SCORE.INTER>
4.3695

>  <SCORE.INTER.CONST>
1

>  <SCORE.INTER.POLAR>
0

>  <SCORE.INTER.ROT>
8

>  <SCORE.INTER.SOLV>
25.9374

>  <SCORE.INTER.VDW>
-14.6661

>  <SCORE.INTER.norm>
0.168058

>  <SCORE.INTRA>
5.51454

>  <SCORE.INTRA.DIHEDRAL>
5.54407

>  <SCORE.INTRA.DIHEDRAL.0>
9.09364

>  <SCORE.INTRA.POLAR>
0

>  <SCORE.INTRA.POLAR.0>
0

>  <SCORE.INTRA.REPUL>
0

>  <SCORE.INTRA.REPUL.0>
0

>  <SCORE.INTRA.SOLV>
-0.524525

>  <SCORE.INTRA.SOLV.lig_0>
-78.5846

>  <SCORE.INTRA.VDW>
3.00477

>  <SCORE.INTRA.VDW.0>
-2.81163

>  <SCORE.INTRA.norm>
0.212098

>  <SCORE.RESTR>
0.619817

>  <SCORE.RESTR.CAVITY>
0.619817

>  <SCORE.RESTR.norm>
0.0238391

>  <SCORE.SYSTEM>
0

>  <SCORE.SYSTEM.CONST>
0

>  <SCORE.SYSTEM.DIHEDRAL>
0

>  <SCORE.SYSTEM.SOLV>
0

>  <SCORE.SYSTEM.norm>
0

>  <SCORE.heavy>
26

>  <SCORE.norm>
0.403995

>  <RMSD>
11.585

$$$$
ligand
 OpenBabel11021811463D
libRbt.so/2013.1/901 2013/11/27
 26 27  0  0  0  0  0  0  0  0999 V2000
    2.8612  -37.6876    8.4552 C   0  0  0  0  0  0  0  0  0  0  0  0
   -3.4759  -32.7101   11.7567 C   0  0  0  0  0  0  0  0  0  0  0  0
   -8.0408  -35.2680   10.6798 P   0  0  1  0  0  0  0  0  0  0  0  0
   -9.9657  -34.8157   12.5859 P   0  0  2  0  0  0  0  0  0  0  0  0
   -1.3682  -34.0922    9.9129 C   0  0  0  0  0  0  0  0  0  0  0  0
   -0.2209  -35.5733    8.2327 C   0  0  0  0  0  0  0  0  0  0  0  0
   -0.2681  -35.0482    9.5276 C   0  0  0  0  0  0  0  0  0  0  0  0
    0.7211  -35.3733   10.4598 C   0  0  0  0  0  0  0  0  0  0  0  0
    0.6797  -34.8627   11.6726 N   0  0  0  0  0  0  0  0  0  0  0  0
    1.7199  -36.2507   10.1146 N   0  0  0  0  0  0  0  0  0  0  0  0
    1.7664  -36.7529    8.8293 C   0  0  0  0  0  0  0  0  0  0  0  0
    0.7996  -36.4332    7.8947 N   0  0  0  0  0  0  0  0  0  0  0  0
   -7.9756  -36.2278    9.5313 O   0  5  0  0  0  0  0  0  0  0  0  0
  -11.2260  -34.3855   11.9470 O   0  0  0  0  0  0  0  0  0  0  0  0
   -3.4405  -36.6211   11.8983 S   0  0  0  0  0  0  0  0  0  0  0  0
   -2.3397  -36.1328   10.8725 C   0  0  0  0  0  0  0  0  0  0  0  0
   -8.0412  -33.8245   10.3193 O   0  0  0  0  0  0  0  0  0  0  0  0
   -9.0962  -33.6751   12.9313 O   0  5  0  0  0  0  0  0  0  0  0  0
   -2.2855  -34.7697   10.7869 N   0  0  0  0  0  0  0  0  0  0  0  0
   -9.3274  -35.7430   11.4698 O   0  0  0  0  0  0  0  0  0  0  0  0
  -10.0716  -35.5718   13.8705 O   0  0  0  0  0  0  0  0  0  0  0  0
   -3.2195  -34.1766   11.5889 C   0  0  1  0  0  0  0  0  0  0  0  0
   -3.9264  -35.1401   12.2635 C   0  0  2  0  0  0  0  0  0  0  0  0
   -5.0447  -35.0249   13.2695 C   0  0  0  0  0  0  0  0  0  0  0  0
   -6.4009  -34.7871   12.5959 C   0  0  0  0  0  0  0  0  0  0  0  0
   -6.8038  -35.6753   11.5693 O   0  0  0  0  0  0  0  0  0  0  0  0
  1 11  1  0  0  0  0
  3 13  1  6  0  0  0
  3 17  2  0  0  0  0
  3 20  1  0  0  0  0
  3 26  1  0  0  0  0
  4 14  1  6  0  0  0
  4 18  1  0  0  0  0
  4 21  2  0  0  0  0
  4 20  1  0  0  0  0
  5 19  1  0  0  0  0
  5  7  1  0  0  0  0
  6  7  2  0  0  0  0
  6 12  1  0  0  0  0
  7  8  1  0  0  0  0
  8  9  1  0  0  0  0
  8 10  2  0  0  0  0
 10 11  1  0  0  0  0
 11 12  2  0  0  0  0
 15 23  1  0  0  0  0
 15 16  1  0  0  0  0
 16 19  1  0  0  0  0
 19 22  1  0  0  0  0
 22  2  1  1  0  0  0
 22 23  1  0  0  0  0
 23 24  1  1  0  0  0
 24 25  1  0  0  0  0
 25 26  1  0  0  0  0
M  CHG  2  13  -1  18  -1
M  END
>  <CHROM.1>
-166.44653233,-18.43825468,107.51710914,109.70608298,-100.00035775,52.46132968
-167.60630585,166.83560432,-4.62582383,-35.28132430,11.10059016,0.25933546
-0.01553949,-2.04246715

>  <Name>
ligand

>  <RI>
0

>  <Rbt.Current_Directory>
/home/itssahil/PROJECTS/Mol_Feturizer/New_Systems/rnas/3D2G

>  <Rbt.Executable>
rbdock ($Id: //depot/dev/client3/rdock/2013.1/src/exe/rbdock.cxx#4 $)

>  <Rbt.Library>
libRbt.so (2013.1, Build901 2013/11/27)

>  <Rbt.Parameter_File>
/export/apps/rDock/src/rDock_2013.1_src/data/scripts/dock_solv.prm

>  <Rbt.Receptor>
prm/blind_docking_40.prm

>  <SCORE>
-9.78748

>  <SCORE.INTER>
-9.61082

>  <SCORE.INTER.CONST>
1

>  <SCORE.INTER.POLAR>
0

>  <SCORE.INTER.ROT>
8

>  <SCORE.INTER.SOLV>
27.4296

>  <SCORE.INTER.VDW>
-24.4838

>  <SCORE.INTER.norm>
-0.369647

>  <SCORE.INTRA>
-0.211603

>  <SCORE.INTRA.DIHEDRAL>
0.0261887

>  <SCORE.INTRA.DIHEDRAL.0>
9.09364

>  <SCORE.INTRA.POLAR>
0

>  <SCORE.INTRA.POLAR.0>
0

>  <SCORE.INTRA.REPUL>
0

>  <SCORE.INTRA.REPUL.0>
0

>  <SCORE.INTRA.SOLV>
0.647596

>  <SCORE.INTRA.SOLV.lig_0>
-78.5846

>  <SCORE.INTRA.VDW>
-0.548495

>  <SCORE.INTRA.VDW.0>
-2.81163

>  <SCORE.INTRA.norm>
-0.00813857

>  <SCORE.RESTR>
0.0349429

>  <SCORE.RESTR.CAVITY>
0.0349429

>  <SCORE.RESTR.norm>
0.00134396

>  <SCORE.SYSTEM>
0

>  <SCORE.SYSTEM.CONST>
0

>  <SCORE.SYSTEM.DIHEDRAL>
0

>  <SCORE.SYSTEM.SOLV>
0

>  <SCORE.SYSTEM.norm>
0

>  <SCORE.heavy>
26

>  <SCORE.norm>
-0.376442

>  <RMSD>
11.675

$$$$
ligand
 OpenBabel11021811463D
libRbt.so/2013.1/901 2013/11/27
 26 27  0  0  0  0  0  0  0  0999 V2000
    6.1825  -37.1030    6.5339 C   0  0  0  0  0  0  0  0  0  0  0  0
   -1.4834  -37.0858   10.7816 C   0  0  0  0  0  0  0  0  0  0  0  0
   -4.9012  -34.3362   11.9214 P   0  0  1  0  0  0  0  0  0  0  0  0
   -7.1768  -35.7344   11.2813 P   0  0  2  0  0  0  0  0  0  0  0  0
    1.0227  -37.6137    8.9946 C   0  0  0  0  0  0  0  0  0  0  0  0
    3.4288  -36.8794    9.0610 C   0  0  0  0  0  0  0  0  0  0  0  0
    2.3767  -37.4636    8.3492 C   0  0  0  0  0  0  0  0  0  0  0  0
    2.5805  -37.9460    7.0534 C   0  0  0  0  0  0  0  0  0  0  0  0
    1.5899  -38.5096    6.3946 N   0  0  0  0  0  0  0  0  0  0  0  0
    3.8107  -37.8030    6.4594 N   0  0  0  0  0  0  0  0  0  0  0  0
    4.8473  -37.2379    7.1753 C   0  0  0  0  0  0  0  0  0  0  0  0
    4.6621  -36.7643    8.4605 N   0  0  0  0  0  0  0  0  0  0  0  0
   -5.5345  -33.6035   13.0644 O   0  5  0  0  0  0  0  0  0  0  0  0
   -7.6577  -35.3253   12.6167 O   0  0  0  0  0  0  0  0  0  0  0  0
    0.5963  -33.9073    9.8386 S   0  0  0  0  0  0  0  0  0  0  0  0
    1.2783  -35.1797    9.1920 C   0  0  0  0  0  0  0  0  0  0  0  0
   -4.1285  -35.5556   12.2811 O   0  0  0  0  0  0  0  0  0  0  0  0
   -6.5705  -37.0793   11.2933 O   0  5  0  0  0  0  0  0  0  0  0  0
    0.5901  -36.3279    9.4680 N   0  0  0  0  0  0  0  0  0  0  0  0
   -6.1204  -34.6006   10.9473 O   0  0  0  0  0  0  0  0  0  0  0  0
   -8.1886  -35.8205   10.1850 O   0  0  0  0  0  0  0  0  0  0  0  0
   -0.4972  -36.0861   10.2596 C   0  0  1  0  0  0  0  0  0  0  0  0
   -0.5839  -34.7427   10.5257 C   0  0  2  0  0  0  0  0  0  0  0  0
   -1.5898  -33.9558   11.3286 C   0  0  0  0  0  0  0  0  0  0  0  0
   -2.8587  -33.6547   10.5230 C   0  0  0  0  0  0  0  0  0  0  0  0
   -4.0139  -33.2337   11.2253 O   0  0  0  0  0  0  0  0  0  0  0  0
  1 11  1  0  0  0  0
  3 13  1  1  0  0  0
  3 17  2  0  0  0  0
  3 20  1  0  0  0  0
  3 26  1  0  0  0  0
  4 14  1  1  0  0  0
  4 18  1  0  0  0  0
  4 21  2  0  0  0  0
  4 20  1  0  0  0  0
  5 19  1  0  0  0  0
  5  7  1  0  0  0  0
  6  7  2  0  0  0  0
  6 12  1  0  0  0  0
  7  8  1  0  0  0  0
  8  9  1  0  0  0  0
  8 10  2  0  0  0  0
 10 11  1  0  0  0  0
 11 12  2  0  0  0  0
 15 23  1  0  0  0  0
 15 16  1  0  0  0  0
 16 19  1  0  0  0  0
 19 22  1  0  0  0  0
 22  2  1  6  0  0  0
 22 23  1  0  0  0  0
 23 24  1  6  0  0  0
 24 25  1  0  0  0  0
 25 26  1  0  0  0  0
M  CHG  2  13  -1  18  -1
M  END
>  <CHROM.1>
-75.81765678,7.12175254,54.50357057,57.24346896,97.92993031,164.16028650
-80.68058745,152.19760788,-1.66709320,-35.70540952,10.05148683,0.35865093
-0.22485943,-2.57853004

>  <Name>
ligand

>  <RI>
0

>  <Rbt.Current_Directory>
/home/itssahil/PROJECTS/Mol_Feturizer/New_Systems/rnas/3D2G

>  <Rbt.Executable>
rbdock ($Id: //depot/dev/client3/rdock/2013.1/src/exe/rbdock.cxx#4 $)

>  <Rbt.Library>
libRbt.so (2013.1, Build901 2013/11/27)

>  <Rbt.Parameter_File>
/export/apps/rDock/src/rDock_2013.1_src/data/scripts/dock_solv.prm

>  <Rbt.Receptor>
prm/blind_docking_40.prm

>  <SCORE>
-15.5718

>  <SCORE.INTER>
-16.2346

>  <SCORE.INTER.CONST>
1

>  <SCORE.INTER.POLAR>
0

>  <SCORE.INTER.ROT>
8

>  <SCORE.INTER.SOLV>
23.9912

>  <SCORE.INTER.VDW>
-27.7535

>  <SCORE.INTER.norm>
-0.624408

>  <SCORE.INTRA>
0.662843

>  <SCORE.INTRA.DIHEDRAL>
0.0488234

>  <SCORE.INTRA.DIHEDRAL.0>
9.09364

>  <SCORE.INTRA.POLAR>
0

>  <SCORE.INTRA.POLAR.0>
0

>  <SCORE.INTRA.REPUL>
0

>  <SCORE.INTRA.REPUL.0>
0

>  <SCORE.INTRA.SOLV>
-0.815945

>  <SCORE.INTRA.SOLV.lig_0>
-78.5846

>  <SCORE.INTRA.VDW>
1.0464

>  <SCORE.INTRA.VDW.0>
-2.81163

>  <SCORE.INTRA.norm>
0.025494

>  <SCORE.RESTR>
0

>  <SCORE.RESTR.CAVITY>
0

>  <SCORE.RESTR.norm>
0

>  <SCORE.SYSTEM>
0

>  <SCORE.SYSTEM.CONST>
0

>  <SCORE.SYSTEM.DIHEDRAL>
0

>  <SCORE.SYSTEM.SOLV>
0

>  <SCORE.SYSTEM.norm>
0

>  <SCORE.heavy>
26

>  <SCORE.norm>
-0.598914

>  <RMSD>
11.871

$$$$
ligand
 OpenBabel11021811463D
libRbt.so/2013.1/901 2013/11/27
 26 27  0  0  0  0  0  0  0  0999 V2000
    5.8790  -36.3285    5.6685 C   0  0  0  0  0  0  0  0  0  0  0  0
   -1.4842  -37.0931   10.1944 C   0  0  0  0  0  0  0  0  0  0  0  0
   -4.8945  -34.9793   13.0292 P   0  0  1  0  0  0  0  0  0  0  0  0
   -7.4138  -35.2973   11.9828 P   0  0  2  0  0  0  0  0  0  0  0  0
    1.4887  -37.2435    9.2500 C   0  0  0  0  0  0  0  0  0  0  0  0
    3.6489  -36.0918    8.6667 C   0  0  0  0  0  0  0  0  0  0  0  0
    2.6374  -36.9879    8.3078 C   0  0  0  0  0  0  0  0  0  0  0  0
    2.7021  -37.6798    7.0953 C   0  0  0  0  0  0  0  0  0  0  0  0
    1.7546  -38.5342    6.7705 N   0  0  0  0  0  0  0  0  0  0  0  0
    3.7429  -37.4428    6.2309 N   0  0  0  0  0  0  0  0  0  0  0  0
    4.7444  -36.5670    6.6001 C   0  0  0  0  0  0  0  0  0  0  0  0
    4.6975  -35.8823    7.8000 N   0  0  0  0  0  0  0  0  0  0  0  0
   -4.3547  -34.1543   14.1573 O   0  5  0  0  0  0  0  0  0  0  0  0
   -7.2990  -36.7196   12.3644 O   0  0  0  0  0  0  0  0  0  0  0  0
    0.1638  -33.6556    9.3080 S   0  0  0  0  0  0  0  0  0  0  0  0
    1.2261  -34.8074    9.0908 C   0  0  0  0  0  0  0  0  0  0  0  0
   -4.6273  -36.4407   13.1087 O   0  0  0  0  0  0  0  0  0  0  0  0
   -7.0201  -35.0611   10.5808 O   0  5  0  0  0  0  0  0  0  0  0  0
    0.7090  -36.0423    9.3663 N   0  0  0  0  0  0  0  0  0  0  0  0
   -6.4304  -34.5975   13.0105 O   0  0  0  0  0  0  0  0  0  0  0  0
   -8.7675  -34.6705   12.0726 O   0  0  0  0  0  0  0  0  0  0  0  0
   -0.5880  -35.9628    9.7893 C   0  0  1  0  0  0  0  0  0  0  0  0
   -0.9929  -34.6516    9.7905 C   0  0  2  0  0  0  0  0  0  0  0  0
   -2.3163  -34.0249   10.1530 C   0  0  0  0  0  0  0  0  0  0  0  0
   -2.9382  -34.6738   11.3948 C   0  0  0  0  0  0  0  0  0  0  0  0
   -4.2601  -34.3109   11.7493 O   0  0  0  0  0  0  0  0  0  0  0  0
  1 11  1  0  0  0  0
  3 13  1  1  0  0  0
  3 17  2  0  0  0  0
  3 20  1  0  0  0  0
  3 26  1  0  0  0  0
  4 14  1  1  0  0  0
  4 18  1  0  0  0  0
  4 21  2  0  0  0  0
  4 20  1  0  0  0  0
  5 19  1  0  0  0  0
  5  7  1  0  0  0  0
  6  7  2  0  0  0  0
  6 12  1  0  0  0  0
  7  8  1  0  0  0  0
  8  9  1  0  0  0  0
  8 10  2  0  0  0  0
 10 11  1  0  0  0  0
 11 12  2  0  0  0  0
 15 23  1  0  0  0  0
 15 16  1  0  0  0  0
 16 19  1  0  0  0  0
 19 22  1  0  0  0  0
 22  2  1  6  0  0  0
 22 23  1  0  0  0  0
 23 24  1  6  0  0  0
 24 25  1  0  0  0  0
 25 26  1  0  0  0  0
M  CHG  2  13  -1  18  -1
M  END
>  <CHROM.1>
-177.64411723,-22.51974355,66.65123001,60.50277485,-139.76955827,-171.77643614
-179.88935294,82.22253731,-1.75358982,-35.59566190,10.21276368,-0.35735206
0.33657110,0.56919455

>  <Name>
ligand

>  <RI>
0

>  <Rbt.Current_Directory>
/home/itssahil/PROJECTS/Mol_Feturizer/New_Systems/rnas/3D2G

>  <Rbt.Executable>
rbdock ($Id: //depot/dev/client3/rdock/2013.1/src/exe/rbdock.cxx#4 $)

>  <Rbt.Library>
libRbt.so (2013.1, Build901 2013/11/27)

>  <Rbt.Parameter_File>
/export/apps/rDock/src/rDock_2013.1_src/data/scripts/dock_solv.prm

>  <Rbt.Receptor>
prm/blind_docking_40.prm

>  <SCORE>
-16.5156

>  <SCORE.INTER>
-15.206

>  <SCORE.INTER.CONST>
1

>  <SCORE.INTER.POLAR>
0

>  <SCORE.INTER.ROT>
8

>  <SCORE.INTER.SOLV>
23.0114

>  <SCORE.INTER.VDW>
-26.7411

>  <SCORE.INTER.norm>
-0.584848

>  <SCORE.INTRA>
-1.30958

>  <SCORE.INTRA.DIHEDRAL>
-3.59716

>  <SCORE.INTRA.DIHEDRAL.0>
9.09364

>  <SCORE.INTRA.POLAR>
0

>  <SCORE.INTRA.POLAR.0>
0

>  <SCORE.INTRA.REPUL>
0

>  <SCORE.INTRA.REPUL.0>
0

>  <SCORE.INTRA.SOLV>
-2.55566

>  <SCORE.INTRA.SOLV.lig_0>
-78.5846

>  <SCORE.INTRA.VDW>
1.76683

>  <SCORE.INTRA.VDW.0>
-2.81163

>  <SCORE.INTRA.norm>
-0.0503684

>  <SCORE.RESTR>
0

>  <SCORE.RESTR.CAVITY>
0

>  <SCORE.RESTR.norm>
0

>  <SCORE.SYSTEM>
0

>  <SCORE.SYSTEM.CONST>
0

>  <SCORE.SYSTEM.DIHEDRAL>
0

>  <SCORE.SYSTEM.SOLV>
0

>  <SCORE.SYSTEM.norm>
0

>  <SCORE.heavy>
26

>  <SCORE.norm>
-0.635216

>  <RMSD>
11.900

$$$$
ligand
 OpenBabel11021811463D
libRbt.so/2013.1/901 2013/11/27
 26 27  0  0  0  0  0  0  0  0999 V2000
    6.2629  -36.9169    7.1516 C   0  0  0  0  0  0  0  0  0  0  0  0
   -1.3742  -38.0577   10.7038 C   0  0  0  0  0  0  0  0  0  0  0  0
   -3.6050  -35.0595   13.8234 P   0  0  1  0  0  0  0  0  0  0  0  0
   -5.9342  -34.3623   12.5459 P   0  0  2  0  0  0  0  0  0  0  0  0
    0.8461  -38.2356    8.5149 C   0  0  0  0  0  0  0  0  0  0  0  0
    3.0489  -37.1467    9.0583 C   0  0  0  0  0  0  0  0  0  0  0  0
    2.2652  -37.8737    8.1572 C   0  0  0  0  0  0  0  0  0  0  0  0
    2.8001  -38.3021    6.9392 C   0  0  0  0  0  0  0  0  0  0  0  0
    2.0619  -39.0001    6.1020 N   0  0  0  0  0  0  0  0  0  0  0  0
    4.0899  -37.9666    6.6066 N   0  0  0  0  0  0  0  0  0  0  0  0
    4.8608  -37.2609    7.5089 C   0  0  0  0  0  0  0  0  0  0  0  0
    4.3472  -36.8383    8.7206 N   0  0  0  0  0  0  0  0  0  0  0  0
   -3.6643  -33.6817   14.4088 O   0  5  0  0  0  0  0  0  0  0  0  0
   -6.0636  -33.7015   11.2312 O   0  0  0  0  0  0  0  0  0  0  0  0
   -0.4827  -34.6750    8.9487 S   0  0  0  0  0  0  0  0  0  0  0  0
    0.4198  -35.8238    8.3418 C   0  0  0  0  0  0  0  0  0  0  0  0
   -4.0475  -36.1635   14.7172 O   0  0  0  0  0  0  0  0  0  0  0  0
   -6.1412  -33.4246   13.6657 O   0  5  0  0  0  0  0  0  0  0  0  0
    0.1466  -37.0412    8.8999 N   0  0  0  0  0  0  0  0  0  0  0  0
   -4.4508  -34.9190   12.4929 O   0  0  0  0  0  0  0  0  0  0  0  0
   -6.8815  -35.4777   12.8487 O   0  0  0  0  0  0  0  0  0  0  0  0
   -0.8178  -36.9489    9.8638 C   0  0  1  0  0  0  0  0  0  0  0  0
   -1.2420  -35.6480    9.9683 C   0  0  2  0  0  0  0  0  0  0  0  0
   -2.2845  -35.0154   10.8564 C   0  0  0  0  0  0  0  0  0  0  0  0
   -1.6932  -34.5429   12.1894 C   0  0  0  0  0  0  0  0  0  0  0  0
   -2.1001  -35.2031   13.3741 O   0  0  0  0  0  0  0  0  0  0  0  0
  1 11  1  0  0  0  0
  3 13  1  1  0  0  0
  3 17  2  0  0  0  0
  3 20  1  0  0  0  0
  3 26  1  0  0  0  0
  4 14  1  6  0  0  0
  4 18  1  0  0  0  0
  4 21  2  0  0  0  0
  4 20  1  0  0  0  0
  5 19  1  0  0  0  0
  5  7  1  0  0  0  0
  6  7  2  0  0  0  0
  6 12  1  0  0  0  0
  7  8  1  0  0  0  0
  8  9  1  0  0  0  0
  8 10  2  0  0  0  0
 10 11  1  0  0  0  0
 11 12  2  0  0  0  0
 15 23  1  0  0  0  0
 15 16  1  0  0  0  0
 16 19  1  0  0  0  0
 19 22  1  0  0  0  0
 22  2  1  6  0  0  0
 22 23  1  0  0  0  0
 23 24  1  6  0  0  0
 24 25  1  0  0  0  0
 25 26  1  0  0  0  0
M  CHG  2  13  -1  18  -1
M  END
>  <CHROM.1>
-54.69586670,33.06036853,53.04263703,149.66056811,-91.08863840,-112.93789852
-66.13222769,-76.53250847,-1.26641662,-35.87724360,10.62046692,-0.63409208
-0.13314899,1.26791417

>  <Name>
ligand

>  <RI>
0

>  <Rbt.Current_Directory>
/home/itssahil/PROJECTS/Mol_Feturizer/New_Systems/rnas/3D2G

>  <Rbt.Executable>
rbdock ($Id: //depot/dev/client3/rdock/2013.1/src/exe/rbdock.cxx#4 $)

>  <Rbt.Library>
libRbt.so (2013.1, Build901 2013/11/27)

>  <Rbt.Parameter_File>
/export/apps/rDock/src/rDock_2013.1_src/data/scripts/dock_solv.prm

>  <Rbt.Receptor>
prm/blind_docking_40.prm

>  <SCORE>
-11.6083

>  <SCORE.INTER>
-14.9237

>  <SCORE.INTER.CONST>
1

>  <SCORE.INTER.POLAR>
0

>  <SCORE.INTER.ROT>
8

>  <SCORE.INTER.SOLV>
23.7825

>  <SCORE.INTER.VDW>
-26.81

>  <SCORE.INTER.norm>
-0.573988

>  <SCORE.INTRA>
3.27418

>  <SCORE.INTRA.DIHEDRAL>
3.44617

>  <SCORE.INTRA.DIHEDRAL.0>
9.09364

>  <SCORE.INTRA.POLAR>
0

>  <SCORE.INTRA.POLAR.0>
0

>  <SCORE.INTRA.REPUL>
0

>  <SCORE.INTRA.REPUL.0>
0

>  <SCORE.INTRA.SOLV>
0.307245

>  <SCORE.INTRA.SOLV.lig_0>
-78.5846

>  <SCORE.INTRA.VDW>
1.39748

>  <SCORE.INTRA.VDW.0>
-2.81163

>  <SCORE.INTRA.norm>
0.12593

>  <SCORE.RESTR>
0.0411778

>  <SCORE.RESTR.CAVITY>
0.0411778

>  <SCORE.RESTR.norm>
0.00158376

>  <SCORE.SYSTEM>
0

>  <SCORE.SYSTEM.CONST>
0

>  <SCORE.SYSTEM.DIHEDRAL>
0

>  <SCORE.SYSTEM.SOLV>
0

>  <SCORE.SYSTEM.norm>
0

>  <SCORE.heavy>
26

>  <SCORE.norm>
-0.446474

>  <RMSD>
11.908

$$$$
ligand
 OpenBabel11021811463D
libRbt.so/2013.1/901 2013/11/27
 26 27  0  0  0  0  0  0  0  0999 V2000
    5.1086  -37.1589    5.7144 C   0  0  0  0  0  0  0  0  0  0  0  0
   -1.8664  -36.0117   10.5283 C   0  0  0  0  0  0  0  0  0  0  0  0
   -4.2605  -34.1755   13.1916 P   0  0  1  0  0  0  0  0  0  0  0  0
   -6.5312  -35.4132   12.2669 P   0  0  2  0  0  0  0  0  0  0  0  0
    1.1058  -36.6259    9.7928 C   0  0  0  0  0  0  0  0  0  0  0  0
    3.2465  -35.8797    8.7002 C   0  0  0  0  0  0  0  0  0  0  0  0
    2.1534  -36.7513    8.7160 C   0  0  0  0  0  0  0  0  0  0  0  0
    2.0431  -37.7658    7.7612 C   0  0  0  0  0  0  0  0  0  0  0  0
    1.0197  -38.5933    7.7912 N   0  0  0  0  0  0  0  0  0  0  0  0
    2.9914  -37.8774    6.7737 N   0  0  0  0  0  0  0  0  0  0  0  0
    4.0747  -37.0213    6.7747 C   0  0  0  0  0  0  0  0  0  0  0  0
    4.2008  -36.0189    7.7180 N   0  0  0  0  0  0  0  0  0  0  0  0
   -5.1564  -32.9860   13.3554 O   0  5  0  0  0  0  0  0  0  0  0  0
   -7.3865  -34.3616   12.8538 O   0  0  0  0  0  0  0  0  0  0  0  0
    0.1861  -32.9636    9.1815 S   0  0  0  0  0  0  0  0  0  0  0  0
    1.1216  -34.2387    9.2185 C   0  0  0  0  0  0  0  0  0  0  0  0
   -3.1383  -34.2808   14.1627 O   0  0  0  0  0  0  0  0  0  0  0  0
   -7.1983  -36.7288   12.2452 O   0  5  0  0  0  0  0  0  0  0  0  0
    0.4603  -35.3487    9.6644 N   0  0  0  0  0  0  0  0  0  0  0  0
   -5.2719  -35.3924   13.2296 O   0  0  0  0  0  0  0  0  0  0  0  0
   -6.0882  -35.2262   10.8521 O   0  0  0  0  0  0  0  0  0  0  0  0
   -0.8353  -35.0653    9.9938 C   0  0  1  0  0  0  0  0  0  0  0  0
   -1.0919  -33.7385    9.7553 C   0  0  2  0  0  0  0  0  0  0  0  0
   -2.3506  -32.9264    9.9332 C   0  0  0  0  0  0  0  0  0  0  0  0
   -2.8857  -33.0031   11.3676 C   0  0  0  0  0  0  0  0  0  0  0  0
   -3.7672  -34.0607   11.6980 O   0  0  0  0  0  0  0  0  0  0  0  0
  1 11  1  0  0  0  0
  3 13  1  1  0  0  0
  3 17  2  0  0  0  0
  3 20  1  0  0  0  0
  3 26  1  0  0  0  0
  4 14  1  1  0  0  0
  4 18  1  0  0  0  0
  4 21  2  0  0  0  0
  4 20  1  0  0  0  0
  5 19  1  0  0  0  0
  5  7  1  0  0  0  0
  6  7  2  0  0  0  0
  6 12  1  0  0  0  0
  7  8  1  0  0  0  0
  8  9  1  0  0  0  0
  8 10  2  0  0  0  0
 10 11  1  0  0  0  0
 11 12  2  0  0  0  0
 15 23  1  0  0  0  0
 15 16  1  0  0  0  0
 16 19  1  0  0  0  0
 19 22  1  0  0  0  0
 22  2  1  6  0  0  0
 22 23  1  0  0  0  0
 23 24  1  6  0  0  0
 24 25  1  0  0  0  0
 25 26  1  0  0  0  0
M  CHG  2  13  -1  18  -1
M  END
>  <CHROM.1>
52.56128513,-32.70202839,63.57413419,-71.14158531,-124.57599475,-87.73156576
177.12942066,69.21148493,-1.66273627,-35.18963583,10.41642337,0.34530548
-0.44459760,-2.80388581

>  <Name>
ligand

>  <RI>
0

>  <Rbt.Current_Directory>
/home/itssahil/PROJECTS/Mol_Feturizer/New_Systems/rnas/3D2G

>  <Rbt.Executable>
rbdock ($Id: //depot/dev/client3/rdock/2013.1/src/exe/rbdock.cxx#4 $)

>  <Rbt.Library>
libRbt.so (2013.1, Build901 2013/11/27)

>  <Rbt.Parameter_File>
/export/apps/rDock/src/rDock_2013.1_src/data/scripts/dock_solv.prm

>  <Rbt.Receptor>
prm/blind_docking_40.prm

>  <SCORE>
-14.8992

>  <SCORE.INTER>
-14.311

>  <SCORE.INTER.CONST>
1

>  <SCORE.INTER.POLAR>
0

>  <SCORE.INTER.ROT>
8

>  <SCORE.INTER.SOLV>
25.0959

>  <SCORE.INTER.VDW>
-26.8393

>  <SCORE.INTER.norm>
-0.550423

>  <SCORE.INTRA>
-0.588184

>  <SCORE.INTRA.DIHEDRAL>
-1.86051

>  <SCORE.INTRA.DIHEDRAL.0>
9.09364

>  <SCORE.INTRA.POLAR>
0

>  <SCORE.INTRA.POLAR.0>
0

>  <SCORE.INTRA.REPUL>
0

>  <SCORE.INTRA.REPUL.0>
0

>  <SCORE.INTRA.SOLV>
-1.101

>  <SCORE.INTRA.SOLV.lig_0>
-78.5846

>  <SCORE.INTRA.VDW>
0.892571

>  <SCORE.INTRA.VDW.0>
-2.81163

>  <SCORE.INTRA.norm>
-0.0226225

>  <SCORE.RESTR>
0

>  <SCORE.RESTR.CAVITY>
0

>  <SCORE.RESTR.norm>
0

>  <SCORE.SYSTEM>
0

>  <SCORE.SYSTEM.CONST>
0

>  <SCORE.SYSTEM.DIHEDRAL>
0

>  <SCORE.SYSTEM.SOLV>
0

>  <SCORE.SYSTEM.norm>
0

>  <SCORE.heavy>
26

>  <SCORE.norm>
-0.573046

>  <RMSD>
11.911

$$$$
ligand
 OpenBabel11021811463D
libRbt.so/2013.1/901 2013/11/27
 26 27  0  0  0  0  0  0  0  0999 V2000
    6.3487  -37.0920    8.1071 C   0  0  0  0  0  0  0  0  0  0  0  0
   -1.2520  -34.0307    9.1251 C   0  0  0  0  0  0  0  0  0  0  0  0
   -4.7172  -34.0858   12.7570 P   0  0  1  0  0  0  0  0  0  0  0  0
   -6.3943  -36.0592   11.8425 P   0  0  2  0  0  0  0  0  0  0  0  0
    0.6598  -36.3882    8.3906 C   0  0  0  0  0  0  0  0  0  0  0  0
    3.0016  -35.5027    8.6456 C   0  0  0  0  0  0  0  0  0  0  0  0
    2.1548  -36.5618    8.3048 C   0  0  0  0  0  0  0  0  0  0  0  0
    2.6849  -37.7965    7.9204 C   0  0  0  0  0  0  0  0  0  0  0  0
    1.8821  -38.7945    7.6163 N   0  0  0  0  0  0  0  0  0  0  0  0
    4.0465  -37.9553    7.8330 N   0  0  0  0  0  0  0  0  0  0  0  0
    4.8748  -36.9083    8.1853 C   0  0  0  0  0  0  0  0  0  0  0  0
    4.3643  -35.6845    8.5753 N   0  0  0  0  0  0  0  0  0  0  0  0
   -4.6826  -33.7162   11.3056 O   0  5  0  0  0  0  0  0  0  0  0  0
   -6.8384  -35.2886   10.6632 O   0  0  0  0  0  0  0  0  0  0  0  0
    0.2566  -35.9700   12.1714 S   0  0  0  0  0  0  0  0  0  0  0  0
    0.7932  -36.6177   10.8316 C   0  0  0  0  0  0  0  0  0  0  0  0
   -4.5990  -32.9555   13.7171 O   0  0  0  0  0  0  0  0  0  0  0  0
   -7.4382  -36.9776   12.3356 O   0  5  0  0  0  0  0  0  0  0  0  0
    0.3174  -35.9746    9.7233 N   0  0  0  0  0  0  0  0  0  0  0  0
   -6.0622  -34.9107   12.8835 O   0  0  0  0  0  0  0  0  0  0  0  0
   -5.2041  -36.9467   11.6731 O   0  0  0  0  0  0  0  0  0  0  0  0
   -0.5266  -34.9528   10.0568 C   0  0  1  0  0  0  0  0  0  0  0  0
   -0.6277  -34.8655   11.4225 C   0  0  2  0  0  0  0  0  0  0  0  0
   -1.4072  -33.9165   12.2985 C   0  0  0  0  0  0  0  0  0  0  0  0
   -2.2783  -34.6597   13.3176 C   0  0  0  0  0  0  0  0  0  0  0  0
   -3.5454  -35.1320   12.8975 O   0  0  0  0  0  0  0  0  0  0  0  0
  1 11  1  0  0  0  0
  3 13  1  6  0  0  0
  3 17  2  0  0  0  0
  3 20  1  0  0  0  0
  3 26  1  0  0  0  0
  4 14  1  6  0  0  0
  4 18  1  0  0  0  0
  4 21  2  0  0  0  0
  4 20  1  0  0  0  0
  5 19  1  0  0  0  0
  5  7  1  0  0  0  0
  6  7  2  0  0  0  0
  6 12  1  0  0  0  0
  7  8  1  0  0  0  0
  8  9  1  0  0  0  0
  8 10  2  0  0  0  0
 10 11  1  0  0  0  0
 11 12  2  0  0  0  0
 15 23  1  0  0  0  0
 15 16  1  0  0  0  0
 16 19  1  0  0  0  0
 19 22  1  0  0  0  0
 22  2  1  1  0  0  0
 22 23  1  0  0  0  0
 23 24  1  1  0  0  0
 24 25  1  0  0  0  0
 25 26  1  0  0  0  0
M  CHG  2  13  -1  18  -1
M  END
>  <CHROM.1>
47.74371167,-48.99926138,-55.81184237,-77.31286102,-52.95764452,-83.18698672
-76.54287341,95.00967593,-1.47910681,-35.67694779,10.79151525,-0.40212267
0.16996511,0.76662915

>  <Name>
ligand

>  <RI>
0

>  <Rbt.Current_Directory>
/home/itssahil/PROJECTS/Mol_Feturizer/New_Systems/rnas/3D2G

>  <Rbt.Executable>
rbdock ($Id: //depot/dev/client3/rdock/2013.1/src/exe/rbdock.cxx#4 $)

>  <Rbt.Library>
libRbt.so (2013.1, Build901 2013/11/27)

>  <Rbt.Parameter_File>
/export/apps/rDock/src/rDock_2013.1_src/data/scripts/dock_solv.prm

>  <Rbt.Receptor>
prm/blind_docking_40.prm

>  <SCORE>
-10.5751

>  <SCORE.INTER>
-10.8024

>  <SCORE.INTER.CONST>
1

>  <SCORE.INTER.POLAR>
0

>  <SCORE.INTER.ROT>
8

>  <SCORE.INTER.SOLV>
23.9747

>  <SCORE.INTER.VDW>
-24.1265

>  <SCORE.INTER.norm>
-0.415477

>  <SCORE.INTRA>
0.0412817

>  <SCORE.INTRA.DIHEDRAL>
0.7076

>  <SCORE.INTRA.DIHEDRAL.0>
9.09364

>  <SCORE.INTRA.POLAR>
0

>  <SCORE.INTRA.POLAR.0>
0

>  <SCORE.INTRA.REPUL>
0

>  <SCORE.INTRA.REPUL.0>
0

>  <SCORE.INTRA.SOLV>
-0.731158

>  <SCORE.INTRA.SOLV.lig_0>
-78.5846

>  <SCORE.INTRA.VDW>
0.0530607

>  <SCORE.INTRA.VDW.0>
-2.81163

>  <SCORE.INTRA.norm>
0.00158776

>  <SCORE.RESTR>
0.186045

>  <SCORE.RESTR.CAVITY>
0.186045

>  <SCORE.RESTR.norm>
0.00715558

>  <SCORE.SYSTEM>
0

>  <SCORE.SYSTEM.CONST>
0

>  <SCORE.SYSTEM.DIHEDRAL>
0

>  <SCORE.SYSTEM.SOLV>
0

>  <SCORE.SYSTEM.norm>
0

>  <SCORE.heavy>
26

>  <SCORE.norm>
-0.406733

>  <RMSD>
12.084

$$$$
ligand
 OpenBabel11021811463D
libRbt.so/2013.1/901 2013/11/27
 26 27  0  0  0  0  0  0  0  0999 V2000
    5.8777  -37.7548    7.5892 C   0  0  0  0  0  0  0  0  0  0  0  0
   -0.3732  -34.8618   12.0489 C   0  0  0  0  0  0  0  0  0  0  0  0
   -4.9862  -34.6951   12.5504 P   0  0  1  0  0  0  0  0  0  0  0  0
   -7.5975  -35.4483   12.1539 P   0  0  2  0  0  0  0  0  0  0  0  0
    1.0720  -35.1197    9.2925 C   0  0  0  0  0  0  0  0  0  0  0  0
    2.3950  -37.2150    8.8533 C   0  0  0  0  0  0  0  0  0  0  0  0
    2.3360  -35.8181    8.8598 C   0  0  0  0  0  0  0  0  0  0  0  0
    3.4297  -35.0614    8.4307 C   0  0  0  0  0  0  0  0  0  0  0  0
    3.3621  -33.7467    8.4240 N   0  0  0  0  0  0  0  0  0  0  0  0
    4.5858  -35.6944    8.0439 N   0  0  0  0  0  0  0  0  0  0  0  0
    4.6298  -37.0743    8.0272 C   0  0  0  0  0  0  0  0  0  0  0  0
    3.5525  -37.8352    8.4409 N   0  0  0  0  0  0  0  0  0  0  0  0
   -4.9525  -34.4361   11.0752 O   0  5  0  0  0  0  0  0  0  0  0  0
   -8.3955  -36.5391   12.7499 O   0  0  0  0  0  0  0  0  0  0  0  0
   -1.1615  -38.1318   10.0481 S   0  0  0  0  0  0  0  0  0  0  0  0
   -0.1553  -37.2448    9.2096 C   0  0  0  0  0  0  0  0  0  0  0  0
   -5.1463  -33.4957   13.4159 O   0  0  0  0  0  0  0  0  0  0  0  0
   -7.6571  -35.4531   10.6799 O   0  5  0  0  0  0  0  0  0  0  0  0
    0.1780  -36.0904    9.8610 N   0  0  0  0  0  0  0  0  0  0  0  0
   -6.1429  -35.7653   12.6988 O   0  0  0  0  0  0  0  0  0  0  0  0
   -7.9763  -34.0476   12.5113 O   0  0  0  0  0  0  0  0  0  0  0  0
   -0.4689  -35.9833   11.0600 C   0  0  1  0  0  0  0  0  0  0  0  0
   -1.2530  -37.0913   11.2613 C   0  0  2  0  0  0  0  0  0  0  0  0
   -2.1488  -37.4738   12.4132 C   0  0  0  0  0  0  0  0  0  0  0  0
   -3.5178  -36.7894   12.3279 C   0  0  0  0  0  0  0  0  0  0  0  0
   -3.6370  -35.4665   12.8186 O   0  0  0  0  0  0  0  0  0  0  0  0
  1 11  1  0  0  0  0
  3 13  1  6  0  0  0
  3 17  2  0  0  0  0
  3 20  1  0  0  0  0
  3 26  1  0  0  0  0
  4 14  1  1  0  0  0
  4 18  1  0  0  0  0
  4 21  2  0  0  0  0
  4 20  1  0  0  0  0
  5 19  1  0  0  0  0
  5  7  1  0  0  0  0
  6  7  2  0  0  0  0
  6 12  1  0  0  0  0
  7  8  1  0  0  0  0
  8  9  1  0  0  0  0
  8 10  2  0  0  0  0
 10 11  1  0  0  0  0
 11 12  2  0  0  0  0
 15 23  1  0  0  0  0
 15 16  1  0  0  0  0
 16 19  1  0  0  0  0
 19 22  1  0  0  0  0
 22  2  1  1  0  0  0
 22 23  1  0  0  0  0
 23 24  1  1  0  0  0
 24 25  1  0  0  0  0
 25 26  1  0  0  0  0
M  CHG  2  13  -1  18  -1
M  END
>  <CHROM.1>
-56.40104681,-51.74856759,9.90530926,-168.00080698,-99.11053612,-83.00395345
171.69263516,-70.18479140,-1.95225281,-35.91342321,10.78586147,0.16820713
-0.34190896,-2.99196114

>  <Name>
ligand

>  <RI>
0

>  <Rbt.Current_Directory>
/home/itssahil/PROJECTS/Mol_Feturizer/New_Systems/rnas/3D2G

>  <Rbt.Executable>
rbdock ($Id: //depot/dev/client3/rdock/2013.1/src/exe/rbdock.cxx#4 $)

>  <Rbt.Library>
libRbt.so (2013.1, Build901 2013/11/27)

>  <Rbt.Parameter_File>
/export/apps/rDock/src/rDock_2013.1_src/data/scripts/dock_solv.prm

>  <Rbt.Receptor>
prm/blind_docking_40.prm

>  <SCORE>
-12.6134

>  <SCORE.INTER>
-13.6282

>  <SCORE.INTER.CONST>
1

>  <SCORE.INTER.POLAR>
0

>  <SCORE.INTER.ROT>
8

>  <SCORE.INTER.SOLV>
22.406

>  <SCORE.INTER.VDW>
-25.4875

>  <SCORE.INTER.norm>
-0.524163

>  <SCORE.INTRA>
0.959334

>  <SCORE.INTRA.DIHEDRAL>
-1.39465

>  <SCORE.INTRA.DIHEDRAL.0>
9.09364

>  <SCORE.INTRA.POLAR>
0

>  <SCORE.INTRA.POLAR.0>
0

>  <SCORE.INTRA.REPUL>
0

>  <SCORE.INTRA.REPUL.0>
0

>  <SCORE.INTRA.SOLV>
-0.309116

>  <SCORE.INTRA.SOLV.lig_0>
-78.5846

>  <SCORE.INTRA.VDW>
1.81122

>  <SCORE.INTRA.VDW.0>
-2.81163

>  <SCORE.INTRA.norm>
0.0368975

>  <SCORE.RESTR>
0.0554824

>  <SCORE.RESTR.CAVITY>
0.0554824

>  <SCORE.RESTR.norm>
0.00213394

>  <SCORE.SYSTEM>
0

>  <SCORE.SYSTEM.CONST>
0

>  <SCORE.SYSTEM.DIHEDRAL>
0

>  <SCORE.SYSTEM.SOLV>
0

>  <SCORE.SYSTEM.norm>
0

>  <SCORE.heavy>
26

>  <SCORE.norm>
-0.485132

>  <RMSD>
12.095

$$$$
ligand
 OpenBabel11021811463D
libRbt.so/2013.1/901 2013/11/27
 26 27  0  0  0  0  0  0  0  0999 V2000
    5.8455  -37.8223    7.5882 C   0  0  0  0  0  0  0  0  0  0  0  0
   -0.3542  -34.7654   12.0179 C   0  0  0  0  0  0  0  0  0  0  0  0
   -4.8592  -34.4350   12.2621 P   0  0  1  0  0  0  0  0  0  0  0  0
   -7.3283  -34.9447   11.1728 P   0  0  2  0  0  0  0  0  0  0  0  0
    1.0802  -35.0976    9.2639 C   0  0  0  0  0  0  0  0  0  0  0  0
    2.3662  -37.2173    8.8321 C   0  0  0  0  0  0  0  0  0  0  0  0
    2.3334  -35.8195    8.8384 C   0  0  0  0  0  0  0  0  0  0  0  0
    3.4437  -35.0835    8.4158 C   0  0  0  0  0  0  0  0  0  0  0  0
    3.4008  -33.7677    8.4090 N   0  0  0  0  0  0  0  0  0  0  0  0
    4.5899  -35.7380    8.0357 N   0  0  0  0  0  0  0  0  0  0  0  0
    4.6080  -37.1186    8.0190 C   0  0  0  0  0  0  0  0  0  0  0  0
    3.5143  -37.8591    8.4263 N   0  0  0  0  0  0  0  0  0  0  0  0
   -4.5459  -33.1909   11.4884 O   0  5  0  0  0  0  0  0  0  0  0  0
   -7.3384  -33.4940   10.8947 O   0  0  0  0  0  0  0  0  0  0  0  0
   -1.1834  -38.0685   10.0894 S   0  0  0  0  0  0  0  0  0  0  0  0
   -0.1701  -37.2105    9.2295 C   0  0  0  0  0  0  0  0  0  0  0  0
   -5.4520  -34.2279   13.6109 O   0  0  0  0  0  0  0  0  0  0  0  0
   -8.0420  -35.2798   12.4197 O   0  5  0  0  0  0  0  0  0  0  0  0
    0.1775  -36.0461    9.8553 N   0  0  0  0  0  0  0  0  0  0  0  0
   -5.7763  -35.2540   11.2655 O   0  0  0  0  0  0  0  0  0  0  0  0
   -7.9622  -35.8414   10.1593 O   0  0  0  0  0  0  0  0  0  0  0  0
   -0.4648  -35.9065   11.0534 C   0  0  1  0  0  0  0  0  0  0  0  0
   -1.2602  -37.0015   11.2803 C   0  0  2  0  0  0  0  0  0  0  0  0
   -2.1568  -37.3495   12.4425 C   0  0  0  0  0  0  0  0  0  0  0  0
   -3.4969  -36.6082   12.3762 C   0  0  0  0  0  0  0  0  0  0  0  0
   -3.4775  -35.1939   12.3120 O   0  0  0  0  0  0  0  0  0  0  0  0
  1 11  1  0  0  0  0
  3 13  1  6  0  0  0
  3 17  2  0  0  0  0
  3 20  1  0  0  0  0
  3 26  1  0  0  0  0
  4 14  1  6  0  0  0
  4 18  1  0  0  0  0
  4 21  2  0  0  0  0
  4 20  1  0  0  0  0
  5 19  1  0  0  0  0
  5  7  1  0  0  0  0
  6  7  2  0  0  0  0
  6 12  1  0  0  0  0
  7  8  1  0  0  0  0
  8  9  1  0  0  0  0
  8 10  2  0  0  0  0
 10 11  1  0  0  0  0
 11 12  2  0  0  0  0
 15 23  1  0  0  0  0
 15 16  1  0  0  0  0
 16 19  1  0  0  0  0
 19 22  1  0  0  0  0
 22  2  1  1  0  0  0
 22 23  1  0  0  0  0
 23 24  1  1  0  0  0
 24 25  1  0  0  0  0
 25 26  1  0  0  0  0
M  CHG  2  13  -1  18  -1
M  END
>  <CHROM.1>
-83.10171913,-51.55106142,11.22824503,54.47587127,-101.43078004,-56.50620595
-179.25100225,-150.39627337,-1.87561587,-35.73361500,10.54778912,0.18483208
-0.30089418,-3.06593578

>  <Name>
ligand

>  <RI>
0

>  <Rbt.Current_Directory>
/home/itssahil/PROJECTS/Mol_Feturizer/New_Systems/rnas/3D2G

>  <Rbt.Executable>
rbdock ($Id: //depot/dev/client3/rdock/2013.1/src/exe/rbdock.cxx#4 $)

>  <Rbt.Library>
libRbt.so (2013.1, Build901 2013/11/27)

>  <Rbt.Parameter_File>
/export/apps/rDock/src/rDock_2013.1_src/data/scripts/dock_solv.prm

>  <Rbt.Receptor>
prm/blind_docking_40.prm

>  <SCORE>
-11.5872

>  <SCORE.INTER>
-10.6567

>  <SCORE.INTER.CONST>
1

>  <SCORE.INTER.POLAR>
0

>  <SCORE.INTER.ROT>
8

>  <SCORE.INTER.SOLV>
23.3067

>  <SCORE.INTER.VDW>
-23.8067

>  <SCORE.INTER.norm>
-0.409875

>  <SCORE.INTRA>
-0.970274

>  <SCORE.INTRA.DIHEDRAL>
-3.07108

>  <SCORE.INTRA.DIHEDRAL.0>
9.09364

>  <SCORE.INTRA.POLAR>
0

>  <SCORE.INTRA.POLAR.0>
0

>  <SCORE.INTRA.REPUL>
0

>  <SCORE.INTRA.REPUL.0>
0

>  <SCORE.INTRA.SOLV>
-2.50469

>  <SCORE.INTRA.SOLV.lig_0>
-78.5846

>  <SCORE.INTRA.VDW>
1.81761

>  <SCORE.INTRA.VDW.0>
-2.81163

>  <SCORE.INTRA.norm>
-0.0373182

>  <SCORE.RESTR>
0.0397892

>  <SCORE.RESTR.CAVITY>
0.0397892

>  <SCORE.RESTR.norm>
0.00153035

>  <SCORE.SYSTEM>
0

>  <SCORE.SYSTEM.CONST>
0

>  <SCORE.SYSTEM.DIHEDRAL>
0

>  <SCORE.SYSTEM.SOLV>
0

>  <SCORE.SYSTEM.norm>
0

>  <SCORE.heavy>
26

>  <SCORE.norm>
-0.445663

>  <RMSD>
12.130

$$$$
ligand
 OpenBabel11021811463D
libRbt.so/2013.1/901 2013/11/27
 26 27  0  0  0  0  0  0  0  0999 V2000
    4.5636  -32.5088    7.9872 C   0  0  0  0  0  0  0  0  0  0  0  0
   -3.3048  -32.7582   11.0082 C   0  0  0  0  0  0  0  0  0  0  0  0
   -5.7823  -34.3445   12.8262 P   0  0  1  0  0  0  0  0  0  0  0  0
   -7.9598  -35.6966   11.8397 P   0  0  2  0  0  0  0  0  0  0  0  0
   -0.9837  -33.5156    9.0610 C   0  0  0  0  0  0  0  0  0  0  0  0
    1.4172  -34.2674    9.0001 C   0  0  0  0  0  0  0  0  0  0  0  0
    0.4767  -33.2534    8.7945 C   0  0  0  0  0  0  0  0  0  0  0  0
    0.8757  -32.0063    8.3059 C   0  0  0  0  0  0  0  0  0  0  0  0
   -0.0169  -31.0610    8.0993 N   0  0  0  0  0  0  0  0  0  0  0  0
    2.2066  -31.7615    8.0701 N   0  0  0  0  0  0  0  0  0  0  0  0
    3.1261  -32.7734    8.2624 C   0  0  0  0  0  0  0  0  0  0  0  0
    2.7444  -34.0142    8.7371 N   0  0  0  0  0  0  0  0  0  0  0  0
   -5.3442  -34.9525   11.5289 O   0  5  0  0  0  0  0  0  0  0  0  0
   -7.2858  -36.9551   12.2187 O   0  0  0  0  0  0  0  0  0  0  0  0
   -0.6459  -35.2354   12.4610 S   0  0  0  0  0  0  0  0  0  0  0  0
   -0.2499  -34.8687   10.9740 C   0  0  0  0  0  0  0  0  0  0  0  0
   -5.4466  -32.9075   13.0150 O   0  0  0  0  0  0  0  0  0  0  0  0
   -7.6992  -35.3236   10.4364 O   0  5  0  0  0  0  0  0  0  0  0  0
   -1.1306  -33.9889   10.4097 N   0  0  0  0  0  0  0  0  0  0  0  0
   -7.3324  -34.6624   12.8642 O   0  0  0  0  0  0  0  0  0  0  0  0
   -9.4507  -35.6614   11.9361 O   0  0  0  0  0  0  0  0  0  0  0  0
   -2.1475  -33.6739   11.2665 C   0  0  1  0  0  0  0  0  0  0  0  0
   -1.9649  -34.3283   12.4588 C   0  0  2  0  0  0  0  0  0  0  0  0
   -2.7799  -34.3181   13.7283 C   0  0  0  0  0  0  0  0  0  0  0  0
   -3.7253  -35.5217   13.8135 C   0  0  0  0  0  0  0  0  0  0  0  0
   -5.1162  -35.2753   13.9112 O   0  0  0  0  0  0  0  0  0  0  0  0
  1 11  1  0  0  0  0
  3 13  1  6  0  0  0
  3 17  2  0  0  0  0
  3 20  1  0  0  0  0
  3 26  1  0  0  0  0
  4 14  1  1  0  0  0
  4 18  1  0  0  0  0
  4 21  2  0  0  0  0
  4 20  1  0  0  0  0
  5 19  1  0  0  0  0
  5  7  1  0  0  0  0
  6  7  2  0  0  0  0
  6 12  1  0  0  0  0
  7  8  1  0  0  0  0
  8  9  1  0  0  0  0
  8 10  2  0  0  0  0
 10 11  1  0  0  0  0
 11 12  2  0  0  0  0
 15 23  1  0  0  0  0
 15 16  1  0  0  0  0
 16 19  1  0  0  0  0
 19 22  1  0  0  0  0
 22  2  1  1  0  0  0
 22 23  1  0  0  0  0
 23 24  1  1  0  0  0
 24 25  1  0  0  0  0
 25 26  1  0  0  0  0
M  CHG  2  13  -1  18  -1
M  END
>  <CHROM.1>
12.42787442,-40.21713717,55.10657844,63.65759827,-82.75365514,-120.34349870
53.40629526,52.12147423,-2.92538395,-34.23453548,11.14432900,0.43685435,-0.06289129
-1.12475746

>  <Name>
ligand

>  <RI>
0

>  <Rbt.Current_Directory>
/home/itssahil/PROJECTS/Mol_Feturizer/New_Systems/rnas/3D2G

>  <Rbt.Executable>
rbdock ($Id: //depot/dev/client3/rdock/2013.1/src/exe/rbdock.cxx#4 $)

>  <Rbt.Library>
libRbt.so (2013.1, Build901 2013/11/27)

>  <Rbt.Parameter_File>
/export/apps/rDock/src/rDock_2013.1_src/data/scripts/dock_solv.prm

>  <Rbt.Receptor>
prm/blind_docking_40.prm

>  <SCORE>
-7.13546

>  <SCORE.INTER>
-12.4354

>  <SCORE.INTER.CONST>
1

>  <SCORE.INTER.POLAR>
0

>  <SCORE.INTER.ROT>
8

>  <SCORE.INTER.SOLV>
19.5766

>  <SCORE.INTER.VDW>
-23.7491

>  <SCORE.INTER.norm>
-0.478284

>  <SCORE.INTRA>
5.16146

>  <SCORE.INTRA.DIHEDRAL>
3.80071

>  <SCORE.INTRA.DIHEDRAL.0>
9.09364

>  <SCORE.INTRA.POLAR>
0

>  <SCORE.INTRA.POLAR.0>
0

>  <SCORE.INTRA.REPUL>
0

>  <SCORE.INTRA.REPUL.0>
0

>  <SCORE.INTRA.SOLV>
1.90738

>  <SCORE.INTRA.SOLV.lig_0>
-78.5846

>  <SCORE.INTRA.VDW>
2.30742

>  <SCORE.INTRA.VDW.0>
-2.81163

>  <SCORE.INTRA.norm>
0.198518

>  <SCORE.RESTR>
0.138464

>  <SCORE.RESTR.CAVITY>
0.138464

>  <SCORE.RESTR.norm>
0.00532552

>  <SCORE.SYSTEM>
0

>  <SCORE.SYSTEM.CONST>
0

>  <SCORE.SYSTEM.DIHEDRAL>
0

>  <SCORE.SYSTEM.SOLV>
0

>  <SCORE.SYSTEM.norm>
0

>  <SCORE.heavy>
26

>  <SCORE.norm>
-0.274441

>  <RMSD>
12.148

$$$$
ligand
 OpenBabel11021811463D
libRbt.so/2013.1/901 2013/11/27
 26 27  0  0  0  0  0  0  0  0999 V2000
    6.6075  -36.7868    8.1336 C   0  0  0  0  0  0  0  0  0  0  0  0
   -0.4509  -34.4920    8.3779 C   0  0  0  0  0  0  0  0  0  0  0  0
   -4.9614  -33.6105   12.6588 P   0  0  1  0  0  0  0  0  0  0  0  0
   -6.6604  -35.6136   11.8563 P   0  0  2  0  0  0  0  0  0  0  0  0
    0.8978  -37.3086    8.3917 C   0  0  0  0  0  0  0  0  0  0  0  0
    3.0474  -36.2501    9.1612 C   0  0  0  0  0  0  0  0  0  0  0  0
    2.3959  -37.1563    8.3191 C   0  0  0  0  0  0  0  0  0  0  0  0
    3.1281  -37.9526    7.4343 C   0  0  0  0  0  0  0  0  0  0  0  0
    2.5100  -38.8154    6.6554 N   0  0  0  0  0  0  0  0  0  0  0  0
    4.4922  -37.8102    7.3596 N   0  0  0  0  0  0  0  0  0  0  0  0
    5.1282  -36.9231    8.2052 C   0  0  0  0  0  0  0  0  0  0  0  0
    4.4173  -36.1355    9.0912 N   0  0  0  0  0  0  0  0  0  0  0  0
   -5.4950  -32.8806   11.4642 O   0  5  0  0  0  0  0  0  0  0  0  0
   -6.7770  -35.0525   10.4949 O   0  0  0  0  0  0  0  0  0  0  0  0
   -0.1236  -36.1710   11.8980 S   0  0  0  0  0  0  0  0  0  0  0  0
    0.4826  -37.1417   10.8060 C   0  0  0  0  0  0  0  0  0  0  0  0
   -5.5190  -33.1961   13.9744 O   0  0  0  0  0  0  0  0  0  0  0  0
   -7.7149  -35.1142   12.7590 O   0  5  0  0  0  0  0  0  0  0  0  0
    0.4166  -36.6072    9.5497 N   0  0  0  0  0  0  0  0  0  0  0  0
   -5.2153  -35.1292   12.2923 O   0  0  0  0  0  0  0  0  0  0  0  0
   -6.7589  -37.0981   11.9967 O   0  0  0  0  0  0  0  0  0  0  0  0
   -0.1855  -35.3805    9.5547 C   0  0  1  0  0  0  0  0  0  0  0  0
   -0.5287  -35.0407   10.8392 C   0  0  2  0  0  0  0  0  0  0  0  0
   -1.1957  -33.8055   11.3915 C   0  0  0  0  0  0  0  0  0  0  0  0
   -2.7199  -33.9557   11.4554 C   0  0  0  0  0  0  0  0  0  0  0  0
   -3.4032  -33.3889   12.5585 O   0  0  0  0  0  0  0  0  0  0  0  0
  1 11  1  0  0  0  0
  3 13  1  6  0  0  0
  3 17  2  0  0  0  0
  3 20  1  0  0  0  0
  3 26  1  0  0  0  0
  4 14  1  6  0  0  0
  4 18  1  0  0  0  0
  4 21  2  0  0  0  0
  4 20  1  0  0  0  0
  5 19  1  0  0  0  0
  5  7  1  0  0  0  0
  6  7  2  0  0  0  0
  6 12  1  0  0  0  0
  7  8  1  0  0  0  0
  8  9  1  0  0  0  0
  8 10  2  0  0  0  0
 10 11  1  0  0  0  0
 11 12  2  0  0  0  0
 15 23  1  0  0  0  0
 15 16  1  0  0  0  0
 16 19  1  0  0  0  0
 19 22  1  0  0  0  0
 22  2  1  1  0  0  0
 22 23  1  0  0  0  0
 23 24  1  1  0  0  0
 24 25  1  0  0  0  0
 25 26  1  0  0  0  0
M  CHG  2  13  -1  18  -1
M  END
>  <CHROM.1>
-52.83221849,-80.20376741,-10.34333714,73.23612561,-89.10438677,142.62276042
-176.87402230,-64.92962199,-1.53080466,-35.58564031,10.58138236,-0.42738852
0.16228044,0.67019774

>  <Name>
ligand

>  <RI>
0

>  <Rbt.Current_Directory>
/home/itssahil/PROJECTS/Mol_Feturizer/New_Systems/rnas/3D2G

>  <Rbt.Executable>
rbdock ($Id: //depot/dev/client3/rdock/2013.1/src/exe/rbdock.cxx#4 $)

>  <Rbt.Library>
libRbt.so (2013.1, Build901 2013/11/27)

>  <Rbt.Parameter_File>
/export/apps/rDock/src/rDock_2013.1_src/data/scripts/dock_solv.prm

>  <Rbt.Receptor>
prm/blind_docking_40.prm

>  <SCORE>
-12.7817

>  <SCORE.INTER>
-12.2957

>  <SCORE.INTER.CONST>
1

>  <SCORE.INTER.POLAR>
0

>  <SCORE.INTER.ROT>
8

>  <SCORE.INTER.SOLV>
21.88

>  <SCORE.INTER.VDW>
-24.4238

>  <SCORE.INTER.norm>
-0.47291

>  <SCORE.INTRA>
-0.540181

>  <SCORE.INTRA.DIHEDRAL>
0.636302

>  <SCORE.INTRA.DIHEDRAL.0>
9.09364

>  <SCORE.INTRA.POLAR>
0

>  <SCORE.INTRA.POLAR.0>
0

>  <SCORE.INTRA.REPUL>
0

>  <SCORE.INTRA.REPUL.0>
0

>  <SCORE.INTRA.SOLV>
-1.9903

>  <SCORE.INTRA.SOLV.lig_0>
-78.5846

>  <SCORE.INTRA.VDW>
0.136819

>  <SCORE.INTRA.VDW.0>
-2.81163

>  <SCORE.INTRA.norm>
-0.0207762

>  <SCORE.RESTR>
0.0541566

>  <SCORE.RESTR.CAVITY>
0.0541566

>  <SCORE.RESTR.norm>
0.00208295

>  <SCORE.SYSTEM>
0

>  <SCORE.SYSTEM.CONST>
0

>  <SCORE.SYSTEM.DIHEDRAL>
0

>  <SCORE.SYSTEM.SOLV>
0

>  <SCORE.SYSTEM.norm>
0

>  <SCORE.heavy>
26

>  <SCORE.norm>
-0.491603

>  <RMSD>
12.248

$$$$
ligand
 OpenBabel11021811463D
libRbt.so/2013.1/901 2013/11/27
 26 27  0  0  0  0  0  0  0  0999 V2000
    4.7667  -36.1722    7.8608 C   0  0  0  0  0  0  0  0  0  0  0  0
   -2.7577  -33.0113   10.2594 C   0  0  0  0  0  0  0  0  0  0  0  0
   -6.1911  -34.6241   11.8290 P   0  0  1  0  0  0  0  0  0  0  0  0
   -7.8512  -35.6770    9.9110 P   0  0  2  0  0  0  0  0  0  0  0  0
    0.2942  -33.0226    9.5974 C   0  0  0  0  0  0  0  0  0  0  0  0
    1.3983  -35.2508    9.2111 C   0  0  0  0  0  0  0  0  0  0  0  0
    1.4707  -33.8556    9.1561 C   0  0  0  0  0  0  0  0  0  0  0  0
    2.6141  -33.2251    8.6580 C   0  0  0  0  0  0  0  0  0  0  0  0
    2.6697  -31.9114    8.5940 N   0  0  0  0  0  0  0  0  0  0  0  0
    3.6910  -33.9810    8.2632 N   0  0  0  0  0  0  0  0  0  0  0  0
    3.6048  -35.3583    8.3076 C   0  0  0  0  0  0  0  0  0  0  0  0
    2.4769  -35.9952    8.7899 N   0  0  0  0  0  0  0  0  0  0  0  0
   -7.1950  -34.1218   12.8212 O   0  5  0  0  0  0  0  0  0  0  0  0
   -9.0229  -35.6102   10.8080 O   0  0  0  0  0  0  0  0  0  0  0  0
   -0.5031  -34.9523   12.8024 S   0  0  0  0  0  0  0  0  0  0  0  0
    0.4089  -34.3582   11.6545 C   0  0  0  0  0  0  0  0  0  0  0  0
   -5.6416  -35.9813   12.0927 O   0  0  0  0  0  0  0  0  0  0  0  0
   -7.1611  -36.9786    9.9888 O   0  5  0  0  0  0  0  0  0  0  0  0
   -0.3155  -33.6495   10.7374 N   0  0  0  0  0  0  0  0  0  0  0  0
   -6.9533  -34.4863   10.4487 O   0  0  0  0  0  0  0  0  0  0  0  0
   -8.0975  -35.5025    8.4474 O   0  0  0  0  0  0  0  0  0  0  0  0
   -1.6501  -33.6613   11.0311 C   0  0  1  0  0  0  0  0  0  0  0  0
   -1.8618  -34.3731   12.1850 C   0  0  2  0  0  0  0  0  0  0  0  0
   -3.1309  -34.6755   12.9425 C   0  0  0  0  0  0  0  0  0  0  0  0
   -4.1284  -33.5133   12.8792 C   0  0  0  0  0  0  0  0  0  0  0  0
   -5.0806  -33.5042   11.8313 O   0  0  0  0  0  0  0  0  0  0  0  0
  1 11  1  0  0  0  0
  3 13  1  1  0  0  0
  3 17  2  0  0  0  0
  3 20  1  0  0  0  0
  3 26  1  0  0  0  0
  4 14  1  1  0  0  0
  4 18  1  0  0  0  0
  4 21  2  0  0  0  0
  4 20  1  0  0  0  0
  5 19  1  0  0  0  0
  5  7  1  0  0  0  0
  6  7  2  0  0  0  0
  6 12  1  0  0  0  0
  7  8  1  0  0  0  0
  8  9  1  0  0  0  0
  8 10  2  0  0  0  0
 10 11  1  0  0  0  0
 11 12  2  0  0  0  0
 15 23  1  0  0  0  0
 15 16  1  0  0  0  0
 16 19  1  0  0  0  0
 19 22  1  0  0  0  0
 22  2  1  1  0  0  0
 22 23  1  0  0  0  0
 23 24  1  1  0  0  0
 24 25  1  0  0  0  0
 25 26  1  0  0  0  0
M  CHG  2  13  -1  18  -1
M  END
>  <CHROM.1>
-88.86960169,32.42694096,37.62102098,72.86550327,144.48300010,91.09697716
67.10813985,80.15667448,-2.66278715,-34.61689417,10.58885995,0.14145712,-0.13685009
-1.91117796

>  <Name>
ligand

>  <RI>
0

>  <Rbt.Current_Directory>
/home/itssahil/PROJECTS/Mol_Feturizer/New_Systems/rnas/3D2G

>  <Rbt.Executable>
rbdock ($Id: //depot/dev/client3/rdock/2013.1/src/exe/rbdock.cxx#4 $)

>  <Rbt.Library>
libRbt.so (2013.1, Build901 2013/11/27)

>  <Rbt.Parameter_File>
/export/apps/rDock/src/rDock_2013.1_src/data/scripts/dock_solv.prm

>  <Rbt.Receptor>
prm/blind_docking_40.prm

>  <SCORE>
-9.82826

>  <SCORE.INTER>
-12.6161

>  <SCORE.INTER.CONST>
1

>  <SCORE.INTER.POLAR>
0

>  <SCORE.INTER.ROT>
8

>  <SCORE.INTER.SOLV>
24.1686

>  <SCORE.INTER.VDW>
-25.4002

>  <SCORE.INTER.norm>
-0.485233

>  <SCORE.INTRA>
2.7878

>  <SCORE.INTRA.DIHEDRAL>
0.31826

>  <SCORE.INTRA.DIHEDRAL.0>
9.09364

>  <SCORE.INTRA.POLAR>
0

>  <SCORE.INTRA.POLAR.0>
0

>  <SCORE.INTRA.REPUL>
0

>  <SCORE.INTRA.REPUL.0>
0

>  <SCORE.INTRA.SOLV>
-0.742416

>  <SCORE.INTRA.SOLV.lig_0>
-78.5846

>  <SCORE.INTRA.VDW>
2.99988

>  <SCORE.INTRA.VDW.0>
-2.81163

>  <SCORE.INTRA.norm>
0.107223

>  <SCORE.RESTR>
0

>  <SCORE.RESTR.CAVITY>
0

>  <SCORE.RESTR.norm>
0

>  <SCORE.SYSTEM>
0

>  <SCORE.SYSTEM.CONST>
0

>  <SCORE.SYSTEM.DIHEDRAL>
0

>  <SCORE.SYSTEM.SOLV>
0

>  <SCORE.SYSTEM.norm>
0

>  <SCORE.heavy>
26

>  <SCORE.norm>
-0.37801

>  <RMSD>
12.257

$$$$
ligand
 OpenBabel11021811463D
libRbt.so/2013.1/901 2013/11/27
 26 27  0  0  0  0  0  0  0  0999 V2000
    6.9517  -37.0807    7.9179 C   0  0  0  0  0  0  0  0  0  0  0  0
   -0.4831  -37.6871   10.7876 C   0  0  0  0  0  0  0  0  0  0  0  0
   -4.7079  -34.0084   12.8879 P   0  0  1  0  0  0  0  0  0  0  0  0
   -6.8080  -35.5395   12.0001 P   0  0  2  0  0  0  0  0  0  0  0  0
    1.2214  -37.1012    8.2373 C   0  0  0  0  0  0  0  0  0  0  0  0
    3.4794  -36.6341    9.2454 C   0  0  0  0  0  0  0  0  0  0  0  0
    2.7265  -37.0799    8.1548 C   0  0  0  0  0  0  0  0  0  0  0  0
    3.3606  -37.5433    6.9989 C   0  0  0  0  0  0  0  0  0  0  0  0
    2.6461  -37.9768    5.9817 N   0  0  0  0  0  0  0  0  0  0  0  0
    4.7315  -37.5172    6.9174 N   0  0  0  0  0  0  0  0  0  0  0  0
    5.4669  -37.0888    8.0046 C   0  0  0  0  0  0  0  0  0  0  0  0
    4.8531  -36.6358    9.1572 N   0  0  0  0  0  0  0  0  0  0  0  0
   -4.7388  -33.2801   11.5791 O   0  5  0  0  0  0  0  0  0  0  0  0
   -6.6766  -35.1078   10.5936 O   0  0  0  0  0  0  0  0  0  0  0  0
    0.5507  -33.9451   10.2918 S   0  0  0  0  0  0  0  0  0  0  0  0
    1.1365  -34.8037    9.0993 C   0  0  0  0  0  0  0  0  0  0  0  0
   -5.3813  -33.3263   14.0258 O   0  0  0  0  0  0  0  0  0  0  0  0
   -7.7377  -34.6847   12.7627 O   0  5  0  0  0  0  0  0  0  0  0  0
    0.7964  -36.1236    9.2007 N   0  0  0  0  0  0  0  0  0  0  0  0
   -5.3163  -35.4235   12.5237 O   0  0  0  0  0  0  0  0  0  0  0  0
   -7.3243  -36.9197   12.2481 O   0  0  0  0  0  0  0  0  0  0  0  0
    0.0609  -36.3697   10.3258 C   0  0  1  0  0  0  0  0  0  0  0  0
   -0.1351  -35.1986   11.0137 C   0  0  2  0  0  0  0  0  0  0  0  0
   -0.8799  -34.9161   12.2948 C   0  0  0  0  0  0  0  0  0  0  0  0
   -2.3709  -34.6598   12.0478 C   0  0  0  0  0  0  0  0  0  0  0  0
   -3.1691  -34.2437   13.1408 O   0  0  0  0  0  0  0  0  0  0  0  0
  1 11  1  0  0  0  0
  3 13  1  6  0  0  0
  3 17  2  0  0  0  0
  3 20  1  0  0  0  0
  3 26  1  0  0  0  0
  4 14  1  6  0  0  0
  4 18  1  0  0  0  0
  4 21  2  0  0  0  0
  4 20  1  0  0  0  0
  5 19  1  0  0  0  0
  5  7  1  0  0  0  0
  6  7  2  0  0  0  0
  6 12  1  0  0  0  0
  7  8  1  0  0  0  0
  8  9  1  0  0  0  0
  8 10  2  0  0  0  0
 10 11  1  0  0  0  0
 11 12  2  0  0  0  0
 15 23  1  0  0  0  0
 15 16  1  0  0  0  0
 16 19  1  0  0  0  0
 19 22  1  0  0  0  0
 22  2  1  6  0  0  0
 22 23  1  0  0  0  0
 23 24  1  6  0  0  0
 24 25  1  0  0  0  0
 25 26  1  0  0  0  0
M  CHG  2  13  -1  18  -1
M  END
>  <CHROM.1>
-62.71174192,56.81594110,25.26138905,77.57975161,93.13707457,-173.52126691
-178.83610350,-42.84991274,-1.29094485,-35.59169743,10.57148398,-0.42688110
0.17069562,0.76442572

>  <Name>
ligand

>  <RI>
0

>  <Rbt.Current_Directory>
/home/itssahil/PROJECTS/Mol_Feturizer/New_Systems/rnas/3D2G

>  <Rbt.Executable>
rbdock ($Id: //depot/dev/client3/rdock/2013.1/src/exe/rbdock.cxx#4 $)

>  <Rbt.Library>
libRbt.so (2013.1, Build901 2013/11/27)

>  <Rbt.Parameter_File>
/export/apps/rDock/src/rDock_2013.1_src/data/scripts/dock_solv.prm

>  <Rbt.Receptor>
prm/blind_docking_40.prm

>  <SCORE>
-16.9441

>  <SCORE.INTER>
-14.7834

>  <SCORE.INTER.CONST>
1

>  <SCORE.INTER.POLAR>
0

>  <SCORE.INTER.ROT>
8

>  <SCORE.INTER.SOLV>
25.4449

>  <SCORE.INTER.VDW>
-27.2705

>  <SCORE.INTER.norm>
-0.56859

>  <SCORE.INTRA>
-2.16468

>  <SCORE.INTRA.DIHEDRAL>
-3.37383

>  <SCORE.INTRA.DIHEDRAL.0>
9.09364

>  <SCORE.INTRA.POLAR>
0

>  <SCORE.INTRA.POLAR.0>
0

>  <SCORE.INTRA.REPUL>
0

>  <SCORE.INTRA.REPUL.0>
0

>  <SCORE.INTRA.SOLV>
-1.86388

>  <SCORE.INTRA.SOLV.lig_0>
-78.5846

>  <SCORE.INTRA.VDW>
0.454178

>  <SCORE.INTRA.VDW.0>
-2.81163

>  <SCORE.INTRA.norm>
-0.0832569

>  <SCORE.RESTR>
0.0039788

>  <SCORE.RESTR.CAVITY>
0.0039788

>  <SCORE.RESTR.norm>
0.000153031

>  <SCORE.SYSTEM>
0

>  <SCORE.SYSTEM.CONST>
0

>  <SCORE.SYSTEM.DIHEDRAL>
0

>  <SCORE.SYSTEM.SOLV>
0

>  <SCORE.SYSTEM.norm>
0

>  <SCORE.heavy>
26

>  <SCORE.norm>
-0.651694

>  <RMSD>
12.336

$$$$
ligand
 OpenBabel11021811463D
libRbt.so/2013.1/901 2013/11/27
 26 27  0  0  0  0  0  0  0  0999 V2000
    6.8145  -36.8078    8.6169 C   0  0  0  0  0  0  0  0  0  0  0  0
   -0.6089  -34.0766    8.6397 C   0  0  0  0  0  0  0  0  0  0  0  0
   -4.1263  -35.1429   13.6645 P   0  0  1  0  0  0  0  0  0  0  0  0
   -6.2369  -35.5448   11.9536 P   0  0  2  0  0  0  0  0  0  0  0  0
    1.0865  -36.6749    8.2831 C   0  0  0  0  0  0  0  0  0  0  0  0
    3.2633  -37.9373    8.2533 C   0  0  0  0  0  0  0  0  0  0  0  0
    2.5900  -36.7189    8.3839 C   0  0  0  0  0  0  0  0  0  0  0  0
    3.3038  -35.5319    8.5697 C   0  0  0  0  0  0  0  0  0  0  0  0
    2.6647  -34.3860    8.6759 N   0  0  0  0  0  0  0  0  0  0  0  0
    4.6732  -35.5697    8.6706 N   0  0  0  0  0  0  0  0  0  0  0  0
    5.3303  -36.7754    8.5259 C   0  0  0  0  0  0  0  0  0  0  0  0
    4.6374  -37.9558    8.3333 N   0  0  0  0  0  0  0  0  0  0  0  0
   -4.0472  -34.6607   15.0807 O   0  5  0  0  0  0  0  0  0  0  0  0
   -5.5130  -36.7809   11.5932 O   0  0  0  0  0  0  0  0  0  0  0  0
    0.0284  -36.1192   11.9168 S   0  0  0  0  0  0  0  0  0  0  0  0
    0.7218  -36.8615   10.7041 C   0  0  0  0  0  0  0  0  0  0  0  0
   -3.3690  -36.3867   13.3596 O   0  0  0  0  0  0  0  0  0  0  0  0
   -5.9600  -34.4409   11.0150 O   0  5  0  0  0  0  0  0  0  0  0  0
    0.5530  -36.1896    9.5259 N   0  0  0  0  0  0  0  0  0  0  0  0
   -5.6849  -35.2496   13.4101 O   0  0  0  0  0  0  0  0  0  0  0  0
   -7.7296  -35.6083   11.9828 O   0  0  0  0  0  0  0  0  0  0  0  0
   -0.1996  -35.0612    9.6923 C   0  0  1  0  0  0  0  0  0  0  0  0
   -0.5467  -34.9293   11.0133 C   0  0  2  0  0  0  0  0  0  0  0  0
   -1.3493  -33.8683   11.7245 C   0  0  0  0  0  0  0  0  0  0  0  0
   -2.8547  -34.1516   11.6665 C   0  0  0  0  0  0  0  0  0  0  0  0
   -3.6282  -33.9034   12.8262 O   0  0  0  0  0  0  0  0  0  0  0  0
  1 11  1  0  0  0  0
  3 13  1  1  0  0  0
  3 17  2  0  0  0  0
  3 20  1  0  0  0  0
  3 26  1  0  0  0  0
  4 14  1  6  0  0  0
  4 18  1  0  0  0  0
  4 21  2  0  0  0  0
  4 20  1  0  0  0  0
  5 19  1  0  0  0  0
  5  7  1  0  0  0  0
  6  7  2  0  0  0  0
  6 12  1  0  0  0  0
  7  8  1  0  0  0  0
  8  9  1  0  0  0  0
  8 10  2  0  0  0  0
 10 11  1  0  0  0  0
 11 12  2  0  0  0  0
 15 23  1  0  0  0  0
 15 16  1  0  0  0  0
 16 19  1  0  0  0  0
 19 22  1  0  0  0  0
 22  2  1  1  0  0  0
 22 23  1  0  0  0  0
 23 24  1  1  0  0  0
 24 25  1  0  0  0  0
 25 26  1  0  0  0  0
M  CHG  2  13  -1  18  -1
M  END
>  <CHROM.1>
171.78319209,-62.70152888,118.63132082,54.37158095,-94.77734121,139.68252361
-105.88696666,143.76898423,-1.18638099,-35.62644055,10.95750363,-0.42038148
-0.07073308,1.43197424

>  <Name>
ligand

>  <RI>
0

>  <Rbt.Current_Directory>
/home/itssahil/PROJECTS/Mol_Feturizer/New_Systems/rnas/3D2G

>  <Rbt.Executable>
rbdock ($Id: //depot/dev/client3/rdock/2013.1/src/exe/rbdock.cxx#4 $)

>  <Rbt.Library>
libRbt.so (2013.1, Build901 2013/11/27)

>  <Rbt.Parameter_File>
/export/apps/rDock/src/rDock_2013.1_src/data/scripts/dock_solv.prm

>  <Rbt.Receptor>
prm/blind_docking_40.prm

>  <SCORE>
-6.03676

>  <SCORE.INTER>
-9.28782

>  <SCORE.INTER.CONST>
1

>  <SCORE.INTER.POLAR>
0

>  <SCORE.INTER.ROT>
8

>  <SCORE.INTER.SOLV>
25.42

>  <SCORE.INTER.VDW>
-23.5986

>  <SCORE.INTER.norm>
-0.357224

>  <SCORE.INTRA>
3.25105

>  <SCORE.INTRA.DIHEDRAL>
8.15223

>  <SCORE.INTRA.DIHEDRAL.0>
9.09364

>  <SCORE.INTRA.POLAR>
0

>  <SCORE.INTRA.POLAR.0>
0

>  <SCORE.INTRA.REPUL>
0

>  <SCORE.INTRA.REPUL.0>
0

>  <SCORE.INTRA.SOLV>
1.42557

>  <SCORE.INTRA.SOLV.lig_0>
-78.5846

>  <SCORE.INTRA.VDW>
-1.53785

>  <SCORE.INTRA.VDW.0>
-2.81163

>  <SCORE.INTRA.norm>
0.12504

>  <SCORE.RESTR>
0

>  <SCORE.RESTR.CAVITY>
0

>  <SCORE.RESTR.norm>
0

>  <SCORE.SYSTEM>
0

>  <SCORE.SYSTEM.CONST>
0

>  <SCORE.SYSTEM.DIHEDRAL>
0

>  <SCORE.SYSTEM.SOLV>
0

>  <SCORE.SYSTEM.norm>
0

>  <SCORE.heavy>
26

>  <SCORE.norm>
-0.232183

>  <RMSD>
12.363

$$$$
ligand
 OpenBabel11021811463D
libRbt.so/2013.1/901 2013/11/27
 26 27  0  0  0  0  0  0  0  0999 V2000
    7.1016  -36.7812    8.5617 C   0  0  0  0  0  0  0  0  0  0  0  0
    1.0263  -34.4178    9.2537 C   0  0  0  0  0  0  0  0  0  0  0  0
   -4.4920  -35.7411   12.1488 P   0  0  1  0  0  0  0  0  0  0  0  0
   -4.5905  -33.9993   14.2700 P   0  0  2  0  0  0  0  0  0  0  0  0
    1.4318  -37.1177    7.7376 C   0  0  0  0  0  0  0  0  0  0  0  0
    3.4170  -36.6661    9.2168 C   0  0  0  0  0  0  0  0  0  0  0  0
    2.9196  -37.0137    7.9572 C   0  0  0  0  0  0  0  0  0  0  0  0
    3.7939  -37.3037    6.9062 C   0  0  0  0  0  0  0  0  0  0  0  0
    3.3193  -37.6460    5.7269 N   0  0  0  0  0  0  0  0  0  0  0  0
    5.1498  -37.2015    7.1007 N   0  0  0  0  0  0  0  0  0  0  0  0
    5.6320  -36.8717    8.3517 C   0  0  0  0  0  0  0  0  0  0  0  0
    4.7789  -36.5906    9.4023 N   0  0  0  0  0  0  0  0  0  0  0  0
   -4.4223  -37.2349   12.0571 O   0  5  0  0  0  0  0  0  0  0  0  0
   -3.3807  -33.3672   13.7055 O   0  0  0  0  0  0  0  0  0  0  0  0
   -0.4753  -37.5697   11.0225 S   0  0  0  0  0  0  0  0  0  0  0  0
    0.2022  -38.0151    9.6642 C   0  0  0  0  0  0  0  0  0  0  0  0
   -5.6219  -35.0989   11.4248 O   0  0  0  0  0  0  0  0  0  0  0  0
   -4.6064  -33.9585   15.7446 O   0  5  0  0  0  0  0  0  0  0  0  0
    0.7651  -36.9610    9.0007 N   0  0  0  0  0  0  0  0  0  0  0  0
   -4.4844  -35.4784   13.7096 O   0  0  0  0  0  0  0  0  0  0  0  0
   -5.9111  -33.4102   13.8931 O   0  0  0  0  0  0  0  0  0  0  0  0
    0.5714  -35.7841    9.6676 C   0  0  1  0  0  0  0  0  0  0  0  0
   -0.1212  -36.0206   10.8284 C   0  0  2  0  0  0  0  0  0  0  0  0
   -0.5760  -35.0819   11.9182 C   0  0  0  0  0  0  0  0  0  0  0  0
   -1.9592  -35.4588   12.4606 C   0  0  0  0  0  0  0  0  0  0  0  0
   -3.0821  -35.2745   11.6179 O   0  0  0  0  0  0  0  0  0  0  0  0
  1 11  1  0  0  0  0
  3 13  1  6  0  0  0
  3 17  2  0  0  0  0
  3 20  1  0  0  0  0
  3 26  1  0  0  0  0
  4 14  1  6  0  0  0
  4 18  1  0  0  0  0
  4 21  2  0  0  0  0
  4 20  1  0  0  0  0
  5 19  1  0  0  0  0
  5  7  1  0  0  0  0
  6  7  2  0  0  0  0
  6 12  1  0  0  0  0
  7  8  1  0  0  0  0
  8  9  1  0  0  0  0
  8 10  2  0  0  0  0
 10 11  1  0  0  0  0
 11 12  2  0  0  0  0
 15 23  1  0  0  0  0
 15 16  1  0  0  0  0
 16 19  1  0  0  0  0
 19 22  1  0  0  0  0
 22  2  1  1  0  0  0
 22 23  1  0  0  0  0
 23 24  1  1  0  0  0
 24 25  1  0  0  0  0
 25 26  1  0  0  0  0
M  CHG  2  13  -1  18  -1
M  END
>  <CHROM.1>
-178.19865729,-105.72397644,-6.34996698,-61.19192563,-38.55621835,-69.42005997
176.52763626,-73.78955452,-0.71854192,-35.91022058,10.88716564,-0.58089990
0.15855145,0.93187715

>  <Name>
ligand

>  <RI>
0

>  <Rbt.Current_Directory>
/home/itssahil/PROJECTS/Mol_Feturizer/New_Systems/rnas/3D2G

>  <Rbt.Executable>
rbdock ($Id: //depot/dev/client3/rdock/2013.1/src/exe/rbdock.cxx#4 $)

>  <Rbt.Library>
libRbt.so (2013.1, Build901 2013/11/27)

>  <Rbt.Parameter_File>
/export/apps/rDock/src/rDock_2013.1_src/data/scripts/dock_solv.prm

>  <Rbt.Receptor>
prm/blind_docking_40.prm

>  <SCORE>
-13.1267

>  <SCORE.INTER>
-11.4116

>  <SCORE.INTER.CONST>
1

>  <SCORE.INTER.POLAR>
0

>  <SCORE.INTER.ROT>
8

>  <SCORE.INTER.SOLV>
26.1903

>  <SCORE.INTER.VDW>
-25.2711

>  <SCORE.INTER.norm>
-0.438906

>  <SCORE.INTRA>
-1.71516

>  <SCORE.INTRA.DIHEDRAL>
-2.91882

>  <SCORE.INTRA.DIHEDRAL.0>
9.09364

>  <SCORE.INTRA.POLAR>
0

>  <SCORE.INTRA.POLAR.0>
0

>  <SCORE.INTRA.REPUL>
0

>  <SCORE.INTRA.REPUL.0>
0

>  <SCORE.INTRA.SOLV>
-3.3013

>  <SCORE.INTRA.SOLV.lig_0>
-78.5846

>  <SCORE.INTRA.VDW>
1.3949

>  <SCORE.INTRA.VDW.0>
-2.81163

>  <SCORE.INTRA.norm>
-0.0659675

>  <SCORE.RESTR>
0

>  <SCORE.RESTR.CAVITY>
0

>  <SCORE.RESTR.norm>
0

>  <SCORE.SYSTEM>
0

>  <SCORE.SYSTEM.CONST>
0

>  <SCORE.SYSTEM.DIHEDRAL>
0

>  <SCORE.SYSTEM.SOLV>
0

>  <SCORE.SYSTEM.norm>
0

>  <SCORE.heavy>
26

>  <SCORE.norm>
-0.504873

>  <RMSD>
12.391

$$$$
ligand
 OpenBabel11021811463D
libRbt.so/2013.1/901 2013/11/27
 26 27  0  0  0  0  0  0  0  0999 V2000
   10.5202  -35.4761    7.9719 C   0  0  0  0  0  0  0  0  0  0  0  0
    2.5494  -38.4031    5.7518 C   0  0  0  0  0  0  0  0  0  0  0  0
   -1.3952  -35.3421   10.5082 P   0  0  1  0  0  0  0  0  0  0  0  0
   -3.0450  -36.9615   11.9910 P   0  0  2  0  0  0  0  0  0  0  0  0
    5.4994  -37.4010    5.9654 C   0  0  0  0  0  0  0  0  0  0  0  0
    7.5573  -37.6887    7.3851 C   0  0  0  0  0  0  0  0  0  0  0  0
    6.8122  -36.8955    6.5073 C   0  0  0  0  0  0  0  0  0  0  0  0
    7.2941  -35.6496    6.0966 C   0  0  0  0  0  0  0  0  0  0  0  0
    6.5952  -34.9146    5.2573 N   0  0  0  0  0  0  0  0  0  0  0  0
    8.4857  -35.1825    6.5952 N   0  0  0  0  0  0  0  0  0  0  0  0
    9.2213  -35.9789    7.4502 C   0  0  0  0  0  0  0  0  0  0  0  0
    8.7608  -37.2167    7.8580 N   0  0  0  0  0  0  0  0  0  0  0  0
   -1.6610  -34.3115    9.4539 O   0  5  0  0  0  0  0  0  0  0  0  0
   -2.1923  -36.5406   13.1213 O   0  0  0  0  0  0  0  0  0  0  0  0
    3.4821  -36.6606    9.1299 S   0  0  0  0  0  0  0  0  0  0  0  0
    4.7553  -36.6796    8.1913 C   0  0  0  0  0  0  0  0  0  0  0  0
   -0.5031  -34.9171   11.6204 O   0  0  0  0  0  0  0  0  0  0  0  0
   -2.6264  -38.2592   11.4278 O   0  5  0  0  0  0  0  0  0  0  0  0
    4.4940  -37.2608    6.9822 N   0  0  0  0  0  0  0  0  0  0  0  0
   -2.8492  -35.7687   10.9654 O   0  0  0  0  0  0  0  0  0  0  0  0
   -4.5008  -37.1569   12.2662 O   0  0  0  0  0  0  0  0  0  0  0  0
    3.2041  -37.7054    6.9048 C   0  0  1  0  0  0  0  0  0  0  0  0
    2.5447  -37.4122    8.0720 C   0  0  2  0  0  0  0  0  0  0  0  0
    1.1197  -37.6694    8.4951 C   0  0  0  0  0  0  0  0  0  0  0  0
    0.4756  -36.4301    9.1267 C   0  0  0  0  0  0  0  0  0  0  0  0
   -0.8159  -36.5612    9.6922 O   0  0  0  0  0  0  0  0  0  0  0  0
  1 11  1  0  0  0  0
  3 13  1  6  0  0  0
  3 17  2  0  0  0  0
  3 20  1  0  0  0  0
  3 26  1  0  0  0  0
  4 14  1  1  0  0  0
  4 18  1  0  0  0  0
  4 21  2  0  0  0  0
  4 20  1  0  0  0  0
  5 19  1  0  0  0  0
  5  7  1  0  0  0  0
  6  7  2  0  0  0  0
  6 12  1  0  0  0  0
  7  8  1  0  0  0  0
  8  9  1  0  0  0  0
  8 10  2  0  0  0  0
 10 11  1  0  0  0  0
 11 12  2  0  0  0  0
 15 23  1  0  0  0  0
 15 16  1  0  0  0  0
 16 19  1  0  0  0  0
 19 22  1  0  0  0  0
 22  2  1  6  0  0  0
 22 23  1  0  0  0  0
 23 24  1  6  0  0  0
 24 25  1  0  0  0  0
 25 26  1  0  0  0  0
M  CHG  2  13  -1  18  -1
M  END
>  <CHROM.1>
174.11461656,3.41203777,77.53262607,54.44123959,46.21375098,-173.82811478
171.99723217,70.09030046,2.20379799,-36.50784942,9.00214173,-0.35695897,0.22611493
1.04046993

>  <Name>
ligand

>  <RI>
0

>  <Rbt.Current_Directory>
/home/itssahil/PROJECTS/Mol_Feturizer/New_Systems/rnas/3D2G

>  <Rbt.Executable>
rbdock ($Id: //depot/dev/client3/rdock/2013.1/src/exe/rbdock.cxx#4 $)

>  <Rbt.Library>
libRbt.so (2013.1, Build901 2013/11/27)

>  <Rbt.Parameter_File>
/export/apps/rDock/src/rDock_2013.1_src/data/scripts/dock_solv.prm

>  <Rbt.Receptor>
prm/blind_docking_80.prm

>  <SCORE>
-19.3163

>  <SCORE.INTER>
-17.6449

>  <SCORE.INTER.CONST>
1

>  <SCORE.INTER.POLAR>
0

>  <SCORE.INTER.ROT>
8

>  <SCORE.INTER.SOLV>
18.4629

>  <SCORE.INTER.VDW>
-26.8509

>  <SCORE.INTER.norm>
-0.678649

>  <SCORE.INTRA>
-1.67145

>  <SCORE.INTRA.DIHEDRAL>
-3.31737

>  <SCORE.INTRA.DIHEDRAL.0>
9.09364

>  <SCORE.INTRA.POLAR>
0

>  <SCORE.INTRA.POLAR.0>
0

>  <SCORE.INTRA.REPUL>
0

>  <SCORE.INTRA.REPUL.0>
0

>  <SCORE.INTRA.SOLV>
-2.75157

>  <SCORE.INTRA.SOLV.lig_0>
-78.5846

>  <SCORE.INTRA.VDW>
1.36302

>  <SCORE.INTRA.VDW.0>
-2.81163

>  <SCORE.INTRA.norm>
-0.0642865

>  <SCORE.RESTR>
0

>  <SCORE.RESTR.CAVITY>
0

>  <SCORE.RESTR.norm>
0

>  <SCORE.SYSTEM>
0

>  <SCORE.SYSTEM.CONST>
0

>  <SCORE.SYSTEM.DIHEDRAL>
0

>  <SCORE.SYSTEM.SOLV>
0

>  <SCORE.SYSTEM.norm>
0

>  <SCORE.heavy>
26

>  <SCORE.norm>
-0.742935

>  <RMSD>
13.577

$$$$
