@<TRIPOS>MOLECULE
3D2G_rdock.pdb
 1655 1852 0 0 0
SMALL
GASTEIGER

@<TRIPOS>ATOM
      1  P        -20.0830  -64.8950   12.3080 P.3     1  G1          0.1280
      2  C5'      -17.9760  -64.5940   10.7080 C.3     1  G1          0.1795
      3  O5'      -18.7890  -65.4610   11.5230 O.3     1  G1         -0.3259
      4  C4'      -17.4130  -65.3120    9.4860 C.3     1  G1          0.1772
      5  O4'      -17.7860  -66.7170    9.5220 O.3     1  G1         -0.3307
      6  C3'      -17.9370  -64.8050    8.1450 C.3     1  G1          0.1860
      7  O3'      -17.0760  -63.8000    7.6270 O.3     1  G1         -0.3112
      8  C2'      -17.9990  -66.0530    7.2500 C.3     1  G1          0.2309
      9  O2'      -16.8320  -66.3430    6.4830 O.3     1  G1         -0.2156
     10  C1'      -18.3240  -67.1600    8.2710 C.3     1  G1          0.2408
     11  N1       -22.6340  -68.1840    5.7030 N.ar    1  G1         -0.1709
     12  C2       -21.3380  -68.1450    5.2510 C.ar    1  G1          0.2606
     13  N2       -21.1670  -68.3950    3.9450 N.pl3   1  G1         -0.0859
     14  N3       -20.2870  -67.8780    6.0210 N.ar    1  G1         -0.1918
     15  C4       -20.6420  -67.6510    7.3140 C.ar    1  G1          0.1723
     16  C5       -21.9100  -67.6660    7.8640 C.ar    1  G1          0.1748
     17  C6       -23.0250  -67.9600    7.0240 C.ar    1  G1          0.3023
     18  O6       -24.2300  -68.0360    7.3320 O.2     1  G1         -0.2633
     19  N7       -21.8580  -67.3560    9.2270 N.ar    1  G1         -0.2173
     20  C8       -20.5890  -67.1720    9.4670 C.ar    1  G1          0.1817
     21  N9       -19.7850  -67.3440    8.3580 N.ar    1  G1         -0.2693
     22  OP1      -20.3610  -65.7010   13.5320 O.3     1  G1         -0.1955
     23  OP2      -20.0230  -63.4040   12.3520 O.co2   1  G1         -0.7863
     24  P        -17.7280  -62.4090    7.1720 P.3     2  G2          0.2141
     25  C5'      -17.9810  -63.6700    4.8280 C.3     2  G2          0.1812
     26  O5'      -18.5090  -62.7650    5.8180 O.3     2  G2         -0.3114
     27  C4'      -19.0690  -63.9520    3.8030 C.3     2  G2          0.1773
     28  O4'      -19.8340  -65.1470    4.1270 O.3     2  G2         -0.3307
     29  C3'      -20.1360  -62.8650    3.7220 C.3     2  G2          0.1860
     30  O3'      -19.6390  -61.7710    2.9840 O.3     2  G2         -0.3112
     31  C2'      -21.2140  -63.6300    2.9600 C.3     2  G2          0.2309
     32  O2'      -20.8960  -63.7390    1.5830 O.3     2  G2         -0.2156
     33  C1'      -21.1730  -64.9910    3.6700 C.3     2  G2          0.2408
     34  N1       -26.0220  -65.0520    5.3970 N.ar    2  G2         -0.1709
     35  C2       -25.5910  -65.1650    4.0990 C.ar    2  G2          0.2606
     36  N2       -26.5730  -65.2760    3.2020 N.pl3   2  G2         -0.0859
     37  N3       -24.3100  -65.1560    3.7350 N.ar    2  G2         -0.1918
     38  C4       -23.4740  -65.0110    4.8070 C.ar    2  G2          0.1723
     39  C5       -23.8220  -64.9030    6.1370 C.ar    2  G2          0.1748
     40  C6       -25.1800  -64.9270    6.5000 C.ar    2  G2          0.3023
     41  O6       -25.6420  -64.8500    7.6390 O.2     2  G2         -0.2633
     42  N7       -22.7140  -64.7920    6.9600 N.ar    2  G2         -0.2173
     43  C8       -21.7120  -64.8240    6.1280 C.ar    2  G2          0.1817
     44  N9       -22.0860  -64.9610    4.8100 N.ar    2  G2         -0.2693
     45  OP1      -16.6130  -61.4990    6.8000 O.2     2  G2         -0.5172
     46  OP2      -18.7410  -62.0170    8.1880 O.co2   2  G2         -0.4373
     47  P        -20.2980  -60.3130    3.0890 P.3     3  G3          0.2141
     48  C5'      -22.3780  -60.6190    1.3410 C.3     3  G3          0.1812
     49  O5'      -21.8510  -60.5070    2.6940 O.3     3  G3         -0.3114
     50  C4'      -23.9060  -60.7870    1.3120 C.3     3  G3          0.1773
     51  O4'      -24.2930  -61.9880    2.0560 O.3     3  G3         -0.3307
     52  C3'      -24.7300  -59.6220    1.9020 C.3     3  G3          0.1860
     53  O3'      -25.1820  -58.6360    0.9420 O.3     3  G3         -0.3112
     54  C2'      -25.9210  -60.3140    2.5860 C.3     3  G3          0.2309
     55  O2'      -27.2070  -60.0330    2.0490 O.3     3  G3         -0.2156
     56  C1'      -25.5740  -61.8120    2.6090 C.3     3  G3          0.2408
     57  N1       -27.7200  -62.0900    7.2200 N.ar    3  G3         -0.1709
     58  C2       -28.3120  -61.9500    5.9850 C.ar    3  G3          0.2606
     59  N2       -29.6470  -61.8570    5.9930 N.pl3   3  G3         -0.0859
     60  N3       -27.6600  -61.9010    4.8260 N.ar    3  G3         -0.1918
     61  C4       -26.3280  -62.0060    4.9890 C.ar    3  G3          0.1723
     62  C5       -25.6330  -62.1530    6.1570 C.ar    3  G3          0.1748
     63  C6       -26.3430  -62.2160    7.3900 C.ar    3  G3          0.3023
     64  O6       -25.8780  -62.3610    8.5230 O.2     3  G3         -0.2633
     65  N7       -24.2620  -62.2370    5.8890 N.ar    3  G3         -0.2173
     66  C8       -24.1510  -62.1260    4.6000 C.ar    3  G3          0.1817
     67  N9       -25.3730  -62.0160    4.0050 N.ar    3  G3         -0.2693
     68  OP1      -19.6410  -59.5180    2.0420 O.2     3  G3         -0.5172
     69  OP2      -20.1970  -59.8430    4.4960 O.co2   3  G3         -0.4373
     70  P        -25.5590  -57.1600    1.4680 P.3     4  A4          0.2141
     71  C5'      -28.0500  -57.6630    1.1130 C.3     4  A4          0.1812
     72  O5'      -27.0430  -57.2950    2.0280 O.3     4  A4         -0.3114
     73  C4'      -29.3580  -57.8190    1.8460 C.3     4  A4          0.1773
     74  O4'      -29.3170  -59.0100    2.6710 O.3     4  A4         -0.3307
     75  C3'      -29.6360  -56.6580    2.7770 C.3     4  A4          0.1860
     76  O3'      -30.3320  -55.6520    2.0570 O.3     4  A4         -0.3112
     77  C2'      -30.4570  -57.3070    3.9010 C.3     4  A4          0.2309
     78  O2'      -31.8580  -57.2290    3.7390 O.3     4  A4         -0.2156
     79  C1'      -29.9760  -58.7550    3.8880 C.3     4  A4          0.2408
     80  N1       -29.2360  -58.9350    8.9330 N.ar    4  A4         -0.2040
     81  C2       -30.3590  -58.8180    8.2000 C.ar    4  A4          0.2016
     82  N3       -30.4820  -58.7780    6.8720 N.ar    4  A4         -0.2048
     83  C4       -29.2700  -58.8810    6.2870 C.ar    4  A4          0.1692
     84  C5       -28.0350  -59.0070    6.8970 C.ar    4  A4          0.1518
     85  C6       -28.0330  -59.0360    8.3080 C.ar    4  A4          0.1919
     86  N6       -26.9080  -59.1460    9.0270 N.pl3   4  A4         -0.1054
     87  N7       -27.0140  -59.0840    5.9510 N.ar    4  A4         -0.2193
     88  C8       -27.6360  -59.0010    4.7980 C.ar    4  A4          0.1816
     89  N9       -28.9940  -58.8930    4.9410 N.ar    4  A4         -0.2693
     90  OP1      -25.6580  -56.2310    0.3120 O.2     4  A4         -0.5172
     91  OP2      -24.6290  -56.8650    2.5820 O.co2   4  A4         -0.4373
     92  P        -30.7160  -54.2710    2.7780 P.3     5  C5          0.2141
     93  C5'      -32.9760  -54.6760    3.8910 C.3     5  C5          0.1812
     94  O5'      -31.5770  -54.7140    4.0450 O.3     5  C5         -0.3114
     95  C4'      -33.5510  -54.5340    5.2710 C.3     5  C5          0.1773
     96  O4'      -33.2270  -55.7090    6.0510 O.3     5  C5         -0.3307
     97  C3'      -32.8930  -53.4360    6.0730 C.3     5  C5          0.1860
     98  O3'      -33.1930  -52.1330    5.5430 O.3     5  C5         -0.3112
     99  C2'      -33.5050  -53.8520    7.3960 C.3     5  C5          0.2309
    100  O2'      -34.9100  -53.8130    7.3110 O.3     5  C5         -0.2156
    101  C1'      -33.0230  -55.3010    7.3900 C.3     5  C5          0.2420
    102  N1       -31.5500  -55.4620    7.6960 N.ar    5  C5         -0.2535
    103  C2       -31.1320  -55.7620    8.9980 C.ar    5  C5          0.3532
    104  O2       -32.0060  -55.8830    9.8590 O.2     5  C5         -0.2443
    105  N3       -29.8020  -55.8980    9.2700 N.ar    5  C5         -0.1739
    106  C4       -28.9100  -55.7280    8.2880 C.ar    5  C5          0.1759
    107  N4       -27.6070  -55.8520    8.5640 N.pl3   5  C5         -0.1070
    108  C5       -29.3080  -55.4170    6.9540 C.ar    5  C5          0.0566
    109  C6       -30.6160  -55.3030    6.7080 C.ar    5  C5          0.0850
    110  OP1      -31.6780  -53.5400    1.9270 O.2     5  C5         -0.5172
    111  OP2      -29.4570  -53.6520    3.2550 O.co2   5  C5         -0.4373
    112  P        -34.3990  -51.1450    5.9790 P.3     6  C6          0.2141
    113  C5'      -34.2420  -50.3700    8.5110 C.3     6  C6          0.1812
    114  O5'      -34.6650  -51.3310    7.5540 O.3     6  C6         -0.3114
    115  C4'      -34.3380  -50.9310    9.9240 C.3     6  C6          0.1773
    116  O4'      -33.6580  -52.2150    9.9770 O.3     6  C6         -0.3307
    117  C3'      -33.6030  -50.1020   10.9630 C.3     6  C6          0.1860
    118  O3'      -34.3800  -48.9810   11.4120 O.3     6  C6         -0.3112
    119  C2'      -33.1970  -51.1140   12.0390 C.3     6  C6          0.2309
    120  O2'      -34.1700  -51.3650   13.0370 O.3     6  C6         -0.2156
    121  C1'      -32.9160  -52.3390   11.1760 C.3     6  C6          0.2420
    122  N1       -31.4700  -52.4540   10.8480 N.ar    6  C6         -0.2535
    123  C2       -30.5700  -52.8010   11.8600 C.ar    6  C6          0.3532
    124  O2       -30.9950  -53.0190   13.0030 O.2     6  C6         -0.2443
    125  N3       -29.2530  -52.8950   11.5770 N.ar    6  C6         -0.1739
    126  C4       -28.8240  -52.6660   10.3350 C.ar    6  C6          0.1759
    127  N4       -27.5070  -52.7900   10.1060 N.pl3   6  C6         -0.1070
    128  C5       -29.7230  -52.3090    9.2730 C.ar    6  C6          0.0566
    129  C6       -31.0270  -52.2100    9.5750 C.ar    6  C6          0.0850
    130  OP1      -35.5980  -51.6280    5.2470 O.2     6  C6         -0.5172
    131  OP2      -33.8930  -49.7720    5.7800 O.co2   6  C6         -0.4373
    132  P        -33.9600  -47.5270   10.8370 P.3     7  A7          0.2141
    133  C5'      -33.5360  -47.5470   13.3830 C.3     7  A7          0.1812
    134  O5'      -33.1420  -46.9830   12.1060 O.3     7  A7         -0.3114
    135  C4'      -32.3560  -47.8880   14.2810 C.3     7  A7          0.1773
    136  O4'      -31.7190  -49.1070   13.8300 O.3     7  A7         -0.3307
    137  C3'      -31.2020  -46.8870   14.2660 C.3     7  A7          0.1860
    138  O3'      -31.4600  -45.6540   14.9970 O.3     7  A7         -0.3112
    139  C2'      -30.0920  -47.7360   14.8860 C.3     7  A7          0.2309
    140  O2'      -30.2210  -47.9210   16.2850 O.3     7  A7         -0.2156
    141  C1'      -30.3330  -49.0410   14.1410 C.3     7  A7          0.2408
    142  N1       -25.8140  -50.0540   11.8990 N.ar    7  A7         -0.2040
    143  C2       -26.1920  -50.0670   13.1690 C.ar    7  A7          0.2016
    144  N3       -27.3910  -49.7680   13.6690 N.ar    7  A7         -0.2048
    145  C4       -28.2810  -49.4500   12.7280 C.ar    7  A7          0.1692
    146  C5       -28.0430  -49.3850   11.3800 C.ar    7  A7          0.1518
    147  C6       -26.7350  -49.7150   10.9640 C.ar    7  A7          0.1919
    148  N6       -26.3700  -49.7010    9.6820 N.pl3   7  A7         -0.1054
    149  N7       -29.1960  -49.0090   10.6970 N.ar    7  A7         -0.2193
    150  C8       -30.0980  -48.8600   11.6450 C.ar    7  A7          0.1816
    151  N9       -29.6020  -49.1160   12.8900 N.ar    7  A7         -0.2693
    152  OP1      -35.1470  -46.6440   10.6670 O.3     7  A7         -0.4373
    153  OP2      -33.0770  -47.8160    9.6800 O.co2   7  A7         -0.5172
    154  P        -30.7090  -44.3290   14.5030 P.3     8  G8          0.2141
    155  C5'      -28.4400  -44.5100   15.9580 C.3     8  G8          0.1812
    156  O5'      -29.1150  -44.5960   14.6570 O.3     8  G8         -0.3114
    157  C4'      -27.0320  -45.1080   16.0200 C.3     8  G8          0.1773
    158  O4'      -27.0170  -46.4290   15.3770 O.3     8  G8         -0.3307
    159  C3'      -25.8860  -44.3520   15.3290 C.3     8  G8          0.1860
    160  O3'      -25.4220  -43.3060   16.1750 O.3     8  G8         -0.3112
    161  C2'      -24.8730  -45.4910   15.3380 C.3     8  G8          0.2309
    162  O2'      -24.4460  -45.8520   16.6300 O.3     8  G8         -0.2156
    163  C1'      -25.7240  -46.6530   14.8320 C.3     8  G8          0.2408
    164  N1       -22.9210  -47.2270   10.6560 N.ar    8  G8         -0.1709
    165  C2       -22.5440  -47.4150   11.9450 C.ar    8  G8          0.2606
    166  N2       -21.2730  -47.7900   12.0780 N.pl3   8  G8         -0.0859
    167  N3       -23.3570  -47.2530   12.9820 N.ar    8  G8         -0.1918
    168  C4       -24.6140  -46.8660   12.5770 C.ar    8  G8          0.1723
    169  C5       -25.0690  -46.6570   11.3120 C.ar    8  G8          0.1748
    170  C6       -24.1880  -46.8580   10.2380 C.ar    8  G8          0.3023
    171  O6       -24.4170  -46.7510    9.0340 O.2     8  G8         -0.2633
    172  N7       -26.4030  -46.2660   11.3080 N.ar    8  G8         -0.2173
    173  C8       -26.7490  -46.2530   12.5680 C.ar    8  G8          0.1817
    174  N9       -25.7180  -46.6100   13.3780 N.ar    8  G8         -0.2693
    175  OP1      -31.0600  -43.2660   15.4860 O.3     8  G8         -0.4373
    176  OP2      -31.0330  -44.1520   13.0700 O.co2   8  G8         -0.5172
    177  P        -24.6770  -41.9380   15.7840 P.3     9  G9          0.2141
    178  C5'      -22.4670  -43.2670   16.3450 C.3     9  G9          0.1812
    179  O5'      -23.2160  -42.4840   15.4080 O.3     9  G9         -0.3114
    180  C4'      -21.1880  -43.7070   15.6700 C.3     9  G9          0.1773
    181  O4'      -21.5920  -44.6250   14.6100 O.3     9  G9         -0.3307
    182  C3'      -20.4500  -42.6380   14.8610 C.3     9  G9          0.1860
    183  O3'      -19.7020  -41.6650   15.6450 O.3     9  G9         -0.3112
    184  C2'      -19.5710  -43.5660   14.0220 C.3     9  G9          0.2309
    185  O2'      -18.5920  -44.1630   14.8590 O.3     9  G9         -0.2156
    186  C1'      -20.6200  -44.6190   13.5820 C.3     9  G9          0.2408
    187  N1       -20.3280  -44.3770    8.4600 N.ar    9  G9         -0.1709
    188  C2       -19.3670  -44.7280    9.3880 C.ar    9  G9          0.2606
    189  N2       -18.1750  -45.0200    8.8710 N.pl3   9  G9         -0.0859
    190  N3       -19.5530  -44.7620   10.7110 N.ar    9  G9         -0.1918
    191  C4       -20.8250  -44.4330   11.0510 C.ar    9  G9          0.1723
    192  C5       -21.8710  -44.0800   10.2090 C.ar    9  G9          0.1748
    193  C6       -21.6440  -44.0380    8.8020 C.ar    9  G9          0.3023
    194  O6       -22.4340  -43.7470    7.8990 O.2     9  G9         -0.2633
    195  N7       -23.0130  -43.7670   10.9500 N.ar    9  G9         -0.2173
    196  C8       -22.6380  -43.9540   12.2050 C.ar    9  G9          0.1817
    197  N9       -21.3230  -44.3480   12.3320 N.ar    9  G9         -0.2693
    198  OP1      -24.6310  -41.1810   17.0760 O.3     9  G9         -0.4373
    199  OP2      -25.1730  -41.3030   14.5530 O.co2   9  G9         -0.5172
    200  P        -19.5040  -40.1720   15.0980 P.3    10  G10         0.2141
    201  C5'      -17.3050  -40.9760   13.9020 C.3    10  G10         0.1812
    202  O5'      -18.5010  -40.2070   13.8190 O.3    10  G10        -0.3114
    203  C4'      -16.6620  -41.1540   12.5220 C.3    10  G10         0.1773
    204  O4'      -17.5120  -41.9670   11.6900 O.3    10  G10        -0.3307
    205  C3'      -16.4240  -39.8870   11.7250 C.3    10  G10         0.1860
    206  O3'      -15.2280  -39.2230   12.2230 O.3    10  G10        -0.3112
    207  C2'      -16.2270  -40.5250   10.3300 C.3    10  G10         0.2309
    208  O2'      -14.9030  -40.9940   10.0290 O.3    10  G10        -0.2156
    209  C1'      -17.2420  -41.7120   10.3320 C.3    10  G10         0.2408
    210  N1       -19.5690  -41.4500    5.7900 N.ar   10  G10        -0.1709
    211  C2       -18.2890  -41.8240    6.1070 C.ar   10  G10         0.2606
    212  N2       -17.4540  -42.1880    5.1130 N.pl3  10  G10        -0.0859
    213  N3       -17.8300  -41.8450    7.3420 N.ar   10  G10        -0.1918
    214  C4       -18.7240  -41.4680    8.2660 C.ar   10  G10         0.1723
    215  C5       -20.0260  -41.1010    8.0600 C.ar   10  G10         0.1748
    216  C6       -20.5250  -41.0700    6.7310 C.ar   10  G10         0.3023
    217  O6       -21.6540  -40.7570    6.3460 O.2    10  G10        -0.2633
    218  N7       -20.6300  -40.7920    9.2700 N.ar   10  G10        -0.2173
    219  C8       -19.6910  -41.0210   10.1580 C.ar   10  G10         0.1817
    220  N9       -18.4990  -41.4230    9.6190 N.ar   10  G10        -0.2693
    221  OP1      -18.8330  -39.5210   16.2540 O.3    10  G10        -0.4373
    222  OP2      -20.7750  -39.7400   14.4450 O.co2  10  G10        -0.5172
    223  P        -14.9690  -37.6210   12.2350 P.3    11  G11         0.2141
    224  C5'      -12.7800  -37.9550   10.6760 C.3    11  G11         0.1812
    225  O5'      -13.9860  -37.2790   11.0060 O.3    11  G11        -0.3114
    226  C4'      -12.5040  -37.9520    9.1620 C.3    11  G11         0.1773
    227  O4'      -13.4030  -38.8800    8.4700 O.3    11  G11        -0.3307
    228  C3'      -12.7200  -36.6620    8.4410 C.3    11  G11         0.1860
    229  O3'      -11.5540  -35.9250    8.7050 O.3    11  G11        -0.3112
    230  C2'      -12.7930  -37.1990    6.9970 C.3    11  G11         0.2309
    231  O2'      -11.5330  -37.5670    6.4370 O.3    11  G11        -0.2156
    232  C1'      -13.6310  -38.4690    7.1600 C.3    11  G11         0.2408
    233  N1       -17.9420  -38.9220    4.5060 N.ar   11  G11        -0.1709
    234  C2       -16.6640  -39.2220    4.1160 C.ar   11  G11         0.2606
    235  N2       -16.5300  -39.7210    2.8660 N.pl3  11  G11        -0.0859
    236  N3       -15.6110  -39.0800    4.9050 N.ar   11  G11        -0.1918
    237  C4       -15.9480  -38.5880    6.1200 C.ar   11  G11         0.1723
    238  C5       -17.2110  -38.2440    6.5960 C.ar   11  G11         0.1748
    239  C6       -18.3450  -38.4200    5.7410 C.ar   11  G11         0.3023
    240  O6       -19.5620  -38.1860    5.9310 O.2    11  G11        -0.2633
    241  N7       -17.1210  -37.7420    7.8960 N.ar   11  G11        -0.2173
    242  C8       -15.8410  -37.8140    8.1550 C.ar   11  G11         0.1817
    243  N9       -15.0650  -38.2910    7.1300 N.ar   11  G11        -0.2693
    244  OP1      -14.2810  -37.3120   13.4970 O.3    11  G11        -0.4373
    245  OP2      -16.2240  -36.9700   11.8410 O.co2  11  G11        -0.5172
    246  P        -11.5820  -34.2970    8.7610 P.3    12  U12         0.2141
    247  C5'      -10.8110  -34.0610    6.3170 C.3    12  U12         0.1812
    248  O5'      -11.7890  -33.7890    7.2890 O.3    12  U12        -0.3114
    249  C4'      -11.4560  -33.7620    4.9880 C.3    12  U12         0.1773
    250  O4'      -12.4890  -34.7340    4.7590 O.3    12  U12        -0.3307
    251  C3'      -12.1600  -32.4130    4.9430 C.3    12  U12         0.1860
    252  O3'      -11.2660  -31.5530    4.2990 O.3    12  U12        -0.3112
    253  C2'      -13.2410  -32.6910    3.9300 C.3    12  U12         0.2309
    254  O2'      -12.6920  -32.4400    2.6730 O.3    12  U12        -0.2156
    255  C1'      -13.5100  -34.1850    3.9790 C.3    12  U12         0.2420
    256  N1       -14.7990  -34.4190    4.5650 N.ar   12  U12        -0.2534
    257  C2       -15.7640  -34.9760    3.7830 C.ar   12  U12         0.3546
    258  O2       -15.5700  -35.2920    2.6230 O.2    12  U12        -0.2443
    259  N3       -16.9770  -35.1640    4.3850 N.ar   12  U12        -0.1530
    260  C4       -17.3500  -34.7820    5.6420 C.ar   12  U12         0.2846
    261  O4       -18.4980  -34.9980    5.9960 O.2    12  U12        -0.2650
    262  C5       -16.2930  -34.1980    6.4210 C.ar   12  U12         0.0814
    263  C6       -15.0800  -34.0480    5.8620 C.ar   12  U12         0.0870
    264  OP1      -10.2090  -33.9150    9.1180 O.2    12  U12        -0.5172
    265  OP2      -12.7890  -33.8890    9.5140 O.co2  12  U12        -0.4373
    266  P        -10.8080  -30.0650    4.7230 P.3    13  G13         0.2141
    267  C5'       -8.4850  -30.9960    5.7390 C.3    13  G13         0.1812
    268  O5'       -9.1870  -30.1540    4.7840 O.3    13  G13        -0.3114
    269  C4'       -7.2490  -31.6040    5.1250 C.3    13  G13         0.1773
    270  O4'       -7.6700  -32.7020    4.2220 O.3    13  G13        -0.3307
    271  C3'       -6.4860  -30.6980    4.1610 C.3    13  G13         0.1860
    272  O3'       -5.5880  -29.8330    4.7650 O.3    13  G13        -0.3112
    273  C2'       -5.6970  -31.7580    3.3520 C.3    13  G13         0.2309
    274  O2'       -4.7950  -32.5120    4.1250 O.3    13  G13        -0.2156
    275  C1'       -6.7950  -32.7250    3.1070 C.3    13  G13         0.2408
    276  N1        -6.8190  -33.3440   -1.9080 N.ar   13  G13        -0.1709
    277  C2        -5.7850  -33.5520   -1.0140 C.ar   13  G13         0.2606
    278  N2        -4.6050  -34.0120   -1.4980 N.pl3  13  G13        -0.0859
    279  N3        -5.9050  -33.3300    0.2990 N.ar   13  G13        -0.1918
    280  C4        -7.1500  -32.8870    0.6430 C.ar   13  G13         0.1723
    281  C5        -8.2340  -32.6340   -0.1610 C.ar   13  G13         0.1748
    282  C6        -8.0910  -32.8950   -1.5580 C.ar   13  G13         0.3023
    283  O6        -8.9490  -32.7430   -2.4150 O.2    13  G13        -0.2633
    284  N7        -9.3350  -32.1680    0.5890 N.ar   13  G13        -0.2173
    285  C8        -8.9000  -32.1740    1.8200 C.ar   13  G13         0.1817
    286  N9        -7.5780  -32.5540    1.9170 N.ar   13  G13        -0.2693
    287  OP1      -11.2650  -29.8000    6.1160 O.3    13  G13        -0.4373
    288  OP2      -11.1720  -29.1550    3.5980 O.co2  13  G13        -0.5172
    289  P         -5.2410  -28.4120    4.1640 P.3    14  C14         0.2141
    290  C5'       -2.9360  -29.0360    3.0700 C.3    14  C14         0.1812
    291  O5'       -4.3170  -28.7380    2.9000 O.3    14  C14        -0.3114
    292  C4'       -2.3870  -29.6830    1.7930 C.3    14  C14         0.1773
    293  O4'       -3.2950  -30.6350    1.1970 O.3    14  C14        -0.3307
    294  C3'       -2.1790  -28.6810    0.6650 C.3    14  C14         0.1860
    295  O3'       -1.0070  -27.9330    0.8880 O.3    14  C14        -0.3112
    296  C2'       -2.0830  -29.5120   -0.5950 C.3    14  C14         0.2309
    297  O2'       -0.7930  -30.0680   -0.8010 O.3    14  C14        -0.2156
    298  C1'       -3.1230  -30.5570   -0.2320 C.3    14  C14         0.2420
    299  N1        -4.4300  -30.2400   -0.8140 N.ar   14  C14        -0.2535
    300  C2        -4.6140  -30.3940   -2.1930 C.ar   14  C14         0.3532
    301  O2        -3.6530  -30.7700   -2.8630 O.2    14  C14        -0.2443
    302  N3        -5.8380  -30.1500   -2.7470 N.ar   14  C14        -0.1739
    303  C4        -6.8380  -29.7600   -1.9570 C.ar   14  C14         0.1759
    304  N4        -8.0320  -29.5790   -2.5160 N.pl3  14  C14        -0.1070
    305  C5        -6.6720  -29.6450   -0.5480 C.ar   14  C14         0.0566
    306  C6        -5.4690  -29.8720   -0.0260 C.ar   14  C14         0.0850
    307  OP1       -4.3300  -27.7680    5.1420 O.3    14  C14        -0.4373
    308  OP2       -6.4850  -27.8220    3.5570 O.co2  14  C14        -0.5172
    309  P         -1.1420  -26.3230    0.7600 P.3    15  U15         0.2141
    310  C5'       -0.1120  -26.4780   -1.5810 C.3    15  U15         0.1812
    311  O5'       -1.1570  -25.9890   -0.7850 O.3    15  U15        -0.3114
    312  C4'       -0.5460  -26.4770   -3.0510 C.3    15  U15         0.1773
    313  O4'       -1.5770  -27.4650   -3.3080 O.3    15  U15        -0.3307
    314  C3'       -1.1420  -25.1550   -3.5710 C.3    15  U15         0.1860
    315  O3'       -0.1730  -24.2410   -4.0060 O.3    15  U15        -0.3112
    316  C2'       -1.9090  -25.6250   -4.7990 C.3    15  U15         0.2309
    317  O2'       -1.0840  -25.7500   -5.9510 O.3    15  U15        -0.2156
    318  C1'       -2.4280  -26.9810   -4.3240 C.3    15  U15         0.2420
    319  N1        -3.7430  -26.7940   -3.7130 N.ar   15  U15        -0.2534
    320  C2        -4.7910  -26.7340   -4.5890 C.ar   15  U15         0.3546
    321  O2        -4.6690  -26.8870   -5.7920 O.2    15  U15        -0.2443
    322  N3        -5.9930  -26.5530   -4.0030 N.ar   15  U15        -0.1530
    323  C4        -6.2470  -26.3560   -2.6700 C.ar   15  U15         0.2846
    324  O4        -7.4170  -26.1930   -2.3650 O.2    15  U15        -0.2650
    325  C5        -5.1000  -26.3880   -1.7850 C.ar   15  U15         0.0814
    326  C6        -3.8910  -26.5970   -2.3270 C.ar   15  U15         0.0870
    327  OP1        0.0790  -25.7080    1.3280 O.3    15  U15        -0.4373
    328  OP2       -2.4870  -26.0110    1.2640 O.co2  15  U15        -0.5172
    329  P         -0.5740  -22.6360   -4.0830 P.3    16  U16         0.2141
    330  C5'       -0.3720  -22.8130   -6.8170 C.3    16  U16         0.1812
    331  O5'       -1.0050  -22.3700   -5.5910 O.3    16  U16        -0.3114
    332  C4'       -1.2540  -22.4640   -8.0250 C.3    16  U16         0.1773
    333  O4'       -2.3920  -23.3850   -8.2330 O.3    16  U16        -0.3307
    334  C3'       -1.9130  -21.0700   -7.9270 C.3    16  U16         0.1860
    335  O3'       -1.0990  -19.9480   -8.3190 O.3    16  U16        -0.3112
    336  C2'       -3.0070  -21.1740   -8.9630 C.3    16  U16         0.2309
    337  O2'       -2.4070  -21.1950  -10.2420 O.3    16  U16        -0.2156
    338  C1'       -3.5170  -22.5600   -8.5980 C.3    16  U16         0.2420
    339  N1        -4.5270  -22.6780   -7.5030 N.ar   16  U16        -0.2534
    340  C2        -5.8250  -22.7310   -7.9190 C.ar   16  U16         0.3546
    341  O2        -6.0860  -22.6070   -9.0820 O.2    16  U16        -0.2443
    342  N3        -6.7760  -22.9170   -6.9360 N.ar   16  U16        -0.1530
    343  C4        -6.5670  -23.0240   -5.5590 C.ar   16  U16         0.2846
    344  O4        -7.5530  -23.2030   -4.8120 O.2    16  U16        -0.2650
    345  C5        -5.1630  -22.9460   -5.1780 C.ar   16  U16         0.0814
    346  C6        -4.2130  -22.7880   -6.1380 C.ar   16  U16         0.0870
    347  OP1        0.5970  -21.9180   -3.5040 O.2    16  U16        -0.5172
    348  OP2       -1.8460  -22.4260   -3.3270 O.co2  16  U16        -0.4373
    349  P         -1.4960  -18.5030   -7.6800 P.3    17  G17         0.2141
    350  C5'       -2.7650  -17.8040   -9.9240 C.3    17  G17         0.1812
    351  O5'       -2.8190  -18.1520   -8.5460 O.3    17  G17        -0.3114
    352  C4'       -4.1370  -17.5350  -10.5360 C.3    17  G17         0.1773
    353  O4'       -4.9210  -18.7570  -10.5940 O.3    17  G17        -0.3307
    354  C3'       -5.0490  -16.4740   -9.8830 C.3    17  G17         0.1860
    355  O3'       -4.6800  -15.1610  -10.3490 O.3    17  G17        -0.3112
    356  C2'       -6.3730  -16.9150  -10.4880 C.3    17  G17         0.2309
    357  O2'       -6.4020  -16.5340  -11.8530 O.3    17  G17        -0.2156
    358  C1'       -6.2750  -18.4390  -10.3270 C.3    17  G17         0.2408
    359  N1       -10.1620  -19.6350   -7.2980 N.ar   17  G17        -0.1709
    360  C2       -10.1300  -19.2890   -8.6340 C.ar   17  G17         0.2606
    361  N2       -11.2840  -19.2260   -9.3090 N.pl3  17  G17        -0.0859
    362  N3        -9.0210  -19.0050   -9.2890 N.ar   17  G17        -0.1918
    363  C4        -7.9240  -19.1020   -8.5130 C.ar   17  G17         0.1723
    364  C5        -7.8440  -19.4420   -7.1820 C.ar   17  G17         0.1748
    365  C6        -9.0380  -19.7420   -6.4570 C.ar   17  G17         0.3023
    366  O6        -9.2010  -20.0610   -5.2550 O.2    17  G17        -0.2633
    367  N7        -6.5120  -19.4080   -6.8020 N.ar   17  G17        -0.2173
    368  C8        -5.8390  -19.0510   -7.8710 C.ar   17  G17         0.1817
    369  N9        -6.6460  -18.8570   -8.9620 N.ar   17  G17        -0.2693
    370  OP1       -0.2810  -17.6830   -7.8590 O.2    17  G17        -0.5172
    371  OP2       -1.9860  -18.5990   -6.2800 O.co2  17  G17        -0.4373
    372  P         -5.5220  -13.8130  -10.0450 P.3    18  U18         0.2141
    373  C5'       -4.1570  -13.0500   -7.7950 C.3    18  U18         0.1812
    374  O5'       -5.2850  -13.6640   -8.4560 O.3    18  U18        -0.3114
    375  C4'       -4.6820  -12.2430   -6.6060 C.3    18  U18         0.1773
    376  O4'       -5.4540  -11.1080   -7.1090 O.3    18  U18        -0.3307
    377  C3'       -5.6290  -13.0090   -5.6700 C.3    18  U18         0.1860
    378  O3'       -5.4830  -12.6500   -4.2960 O.3    18  U18        -0.3112
    379  C2'       -7.0050  -12.6400   -6.2320 C.3    18  U18         0.2309
    380  O2'       -8.0770  -12.6620   -5.3090 O.3    18  U18        -0.2156
    381  C1'       -6.7990  -11.2060   -6.6650 C.3    18  U18         0.2420
    382  N1        -7.8540  -10.8910   -7.6960 N.ar   18  U18        -0.2534
    383  C2        -9.0450  -10.3310   -7.2640 C.ar   18  U18         0.3546
    384  O2        -9.2700  -10.0430   -6.0970 O.2    18  U18        -0.2443
    385  N3        -9.9650  -10.1050   -8.2540 N.ar   18  U18        -0.1530
    386  C4        -9.8280  -10.3780   -9.5990 C.ar   18  U18         0.2846
    387  O4       -10.7430  -10.1140  -10.3700 O.2    18  U18        -0.2650
    388  C5        -8.5740  -10.9790   -9.9690 C.ar   18  U18         0.0814
    389  C6        -7.6610  -11.2130   -9.0210 C.ar   18  U18         0.0870
    390  OP1       -6.9730  -14.0530  -10.2690 O.3    18  U18        -0.4373
    391  OP2       -4.8490  -12.6990  -10.7870 O.co2  18  U18        -0.5172
    392  P         -4.6140  -13.5240   -3.2680 P.3    19  U19         0.2141
    393  C5'       -6.3110  -14.2360   -1.4020 C.3    19  U19         0.1812
    394  O5'       -5.7210  -14.5400   -2.6830 O.3    19  U19        -0.3114
    395  C4'       -7.1330  -15.3620   -0.7520 C.3    19  U19         0.1773
    396  O4'       -8.2540  -15.6670   -1.6020 O.3    19  U19        -0.3307
    397  C3'       -6.5290  -16.7480   -0.5510 C.3    19  U19         0.1860
    398  O3'       -7.4170  -17.5370    0.3050 O.3    19  U19        -0.3112
    399  C2'       -6.5890  -17.2860   -1.9760 C.3    19  U19         0.2309
    400  O2'       -6.4160  -18.7030   -2.0280 O.3    19  U19        -0.2156
    401  C1'       -8.0600  -16.9490   -2.1770 C.3    19  U19         0.2420
    402  N1        -8.5890  -16.8270   -3.5460 N.ar   19  U19        -0.2534
    403  C2        -9.9120  -17.1690   -3.7010 C.ar   19  U19         0.3546
    404  O2       -10.6090  -17.5880   -2.7860 O.2    19  U19        -0.2443
    405  N3       -10.3930  -16.9920   -4.9640 N.ar   19  U19        -0.1530
    406  C4        -9.6910  -16.5310   -6.0500 C.ar   19  U19         0.2846
    407  O4       -10.2720  -16.4590   -7.1260 O.2    19  U19        -0.2650
    408  C5        -8.3150  -16.1820   -5.8000 C.ar   19  U19         0.0814
    409  C6        -7.8180  -16.3240   -4.5680 C.ar   19  U19         0.0870
    410  OP1       -4.1820  -12.6250   -2.1500 O.3    19  U19        -0.4373
    411  OP2       -3.5410  -14.2050   -4.0230 O.co2  19  U19        -0.5172
    412  P         -7.8460  -17.0550    1.7930 P.3    20  C20         0.2141
    413  C5'      -10.3180  -17.0380    0.7850 C.3    20  C20         0.1812
    414  O5'       -9.2610  -16.3310    1.4940 O.3    20  C20        -0.3114
    415  C4'      -11.6210  -16.2330    0.8110 C.3    20  C20         0.1773
    416  O4'      -11.4530  -14.8690    0.3080 O.3    20  C20        -0.3307
    417  C3'      -12.7440  -16.8300   -0.0360 C.3    20  C20         0.1860
    418  O3'      -13.4190  -17.9080    0.6810 O.3    20  C20        -0.3112
    419  C2'      -13.5990  -15.5830   -0.3680 C.3    20  C20         0.2309
    420  O2'      -14.5800  -15.2720    0.5960 O.3    20  C20        -0.2156
    421  C1'      -12.6070  -14.4280   -0.3800 C.3    20  C20         0.2420
    422  N1       -12.1460  -14.0180   -1.7120 N.ar   20  C20        -0.2535
    423  C2       -13.0150  -13.5560   -2.7350 C.ar   20  C20         0.3532
    424  O2       -14.2330  -13.4900   -2.5400 O.2    20  C20        -0.2443
    425  N3       -12.5030  -13.2030   -3.9410 N.ar   20  C20        -0.1739
    426  C4       -11.1850  -13.2950   -4.1340 C.ar   20  C20         0.1759
    427  N4       -10.6740  -12.9470   -5.3180 N.pl3  20  C20        -0.1070
    428  C5       -10.2950  -13.7460   -3.1060 C.ar   20  C20         0.0566
    429  C6       -10.8040  -14.0910   -1.9200 C.ar   20  C20         0.0850
    430  OP1       -6.8100  -16.0460    2.1910 O.2    20  C20        -0.5172
    431  OP2       -8.1400  -18.2120    2.6750 O.co2  20  C20        -0.4373
    432  P        -13.7410  -19.2690   -0.1110 P.3    21  A21         0.2141
    433  C5'      -16.0970  -18.2380   -0.5160 C.3    21  A21         0.1812
    434  O5'      -14.9280  -18.8000   -1.0630 O.3    21  A21        -0.3114
    435  C4'      -16.7930  -17.4340   -1.5960 C.3    21  A21         0.1773
    436  O4'      -15.8920  -16.4590   -2.1820 O.3    21  A21        -0.3307
    437  C3'      -17.2320  -18.2320   -2.8020 C.3    21  A21         0.1860
    438  O3'      -18.4220  -18.9540   -2.5270 O.3    21  A21        -0.3112
    439  C2'      -17.4700  -17.1340   -3.8240 C.3    21  A21         0.2309
    440  O2'      -18.7920  -16.6470   -3.7440 O.3    21  A21        -0.2156
    441  C1'      -16.4190  -16.0830   -3.4450 C.3    21  A21         0.2408
    442  N1       -15.1840  -15.8080   -8.3860 N.ar   21  A21        -0.2040
    443  C2       -16.3610  -15.7210   -7.7500 C.ar   21  A21         0.2016
    444  N3       -16.6100  -15.8060   -6.4440 N.ar   21  A21        -0.2048
    445  C4       -15.4670  -15.9920   -5.7610 C.ar   21  A21         0.1692
    446  C5       -14.1890  -16.0860   -6.2760 C.ar   21  A21         0.1518
    447  C6       -14.0640  -15.9890   -7.6700 C.ar   21  A21         0.1919
    448  N6       -12.9050  -16.0680   -8.3140 N.pl3  21  A21        -0.1054
    449  N7       -13.2650  -16.2840   -5.2740 N.ar   21  A21        -0.2193
    450  C8       -13.9970  -16.2900   -4.1840 C.ar   21  A21         0.1816
    451  N9       -15.3330  -16.1040   -4.4080 N.ar   21  A21        -0.2693
    452  OP1      -14.2770  -20.3310    0.7890 O.3    21  A21        -0.4373
    453  OP2      -12.5170  -19.5250   -0.9070 O.co2  21  A21        -0.5172
    454  P        -18.4490  -20.5090   -2.9630 P.3    22  C22         0.2141
    455  C5'      -19.2880  -20.4530   -5.5090 C.3    22  C22         0.1812
    456  O5'      -18.2210  -20.3710   -4.5480 O.3    22  C22        -0.3114
    457  C4'      -18.7060  -20.1580   -6.8850 C.3    22  C22         0.1773
    458  O4'      -17.6640  -19.1530   -6.6920 O.3    22  C22        -0.3307
    459  C3'      -18.0110  -21.3020   -7.6260 C.3    22  C22         0.1860
    460  O3'      -18.9080  -22.1300   -8.3960 O.3    22  C22        -0.3112
    461  C2'      -16.9810  -20.5790   -8.4960 C.3    22  C22         0.2309
    462  O2'      -17.5050  -20.0880   -9.7220 O.3    22  C22        -0.2156
    463  C1'      -16.5840  -19.4140   -7.5820 C.3    22  C22         0.2420
    464  N1       -15.3150  -19.5910   -6.7830 N.ar   22  C22        -0.2535
    465  C2       -14.0800  -19.3900   -7.4260 C.ar   22  C22         0.3532
    466  O2       -14.0960  -19.0930   -8.6290 O.2    22  C22        -0.2443
    467  N3       -12.9230  -19.5260   -6.7130 N.ar   22  C22        -0.1739
    468  C4       -12.9810  -19.8480   -5.4000 C.ar   22  C22         0.1759
    469  N4       -11.8300  -19.9760   -4.7080 N.pl3  22  C22        -0.1070
    470  C5       -14.2360  -20.0590   -4.7280 C.ar   22  C22         0.0566
    471  C6       -15.3660  -19.9210   -5.4480 C.ar   22  C22         0.0850
    472  OP1      -19.7640  -21.1490   -2.7070 O.2    22  C22        -0.5172
    473  OP2      -17.2520  -21.1220   -2.3430 O.co2  22  C22        -0.4373
    474  P        -18.6010  -23.7200   -8.5560 P.3    23  A23         0.2141
    475  C5'      -17.3820  -23.0860  -10.7580 C.3    23  A23         0.1812
    476  O5'      -17.2780  -23.6680   -9.4610 O.3    23  A23        -0.3114
    477  C4'      -16.0050  -22.9930  -11.3730 C.3    23  A23         0.1773
    478  O4'      -15.2640  -21.9250  -10.6980 O.3    23  A23        -0.3307
    479  C3'      -15.1090  -24.2360  -11.2500 C.3    23  A23         0.1860
    480  O3'      -15.3720  -25.2680  -12.2190 O.3    23  A23        -0.3112
    481  C2'      -13.7730  -23.5740  -11.5510 C.3    23  A23         0.2309
    482  O2'      -13.5860  -23.3030  -12.9260 O.3    23  A23        -0.2156
    483  C1'      -13.8800  -22.2510  -10.7630 C.3    23  A23         0.2408
    484  N1        -9.5410  -22.6250   -8.0880 N.ar   23  A23        -0.2040
    485  C2        -9.7790  -22.2860   -9.3630 C.ar   23  A23         0.2016
    486  N3       -10.9510  -22.2020   -9.9990 N.ar   23  A23        -0.2048
    487  C4       -11.9610  -22.5220   -9.1660 C.ar   23  A23         0.1692
    488  C5       -11.8730  -22.8860   -7.8390 C.ar   23  A23         0.1518
    489  C6       -10.5800  -22.9340   -7.2800 C.ar   23  A23         0.1919
    490  N6       -10.3410  -23.2750   -6.0090 N.pl3  23  A23        -0.1054
    491  N7       -13.1270  -23.1290   -7.3080 N.ar   23  A23        -0.2193
    492  C8       -13.9400  -22.9130   -8.3110 C.ar   23  A23         0.1816
    493  N9       -13.3000  -22.5300   -9.4550 N.ar   23  A23        -0.2693
    494  OP1      -19.6810  -24.3490   -9.3640 O.2    23  A23        -0.5172
    495  OP2      -18.3080  -24.3330   -7.2380 O.co2  23  A23        -0.4373
    496  P        -15.1080  -26.8500  -11.9030 P.3    24  G24         0.2141
    497  C5'      -12.7320  -27.0700  -13.0300 C.3    24  G24         0.1812
    498  O5'      -13.5130  -27.1090  -11.8600 O.3    24  G24        -0.3114
    499  C4'      -11.2530  -26.7410  -12.8480 C.3    24  G24         0.1773
    500  O4'      -10.9680  -25.5470  -12.0030 O.3    24  G24        -0.3307
    501  C3'      -10.3370  -27.8060  -12.2940 C.3    24  G24         0.1860
    502  O3'      -10.0870  -28.8760  -13.2070 O.3    24  G24        -0.3112
    503  C2'       -9.0750  -26.9440  -12.1720 C.3    24  G24         0.2309
    504  O2'       -8.4080  -26.6450  -13.3800 O.3    24  G24        -0.2156
    505  C1'       -9.6210  -25.6510  -11.5430 C.3    24  G24         0.2408
    506  N1        -6.5960  -26.1650   -7.4350 N.ar   24  G24        -0.1709
    507  C2        -6.2270  -25.9860   -8.7520 C.ar   24  G24         0.2606
    508  N2        -4.9050  -25.9420   -8.9920 N.pl3  24  G24        -0.0859
    509  N3        -7.1160  -25.8660   -9.7480 N.ar   24  G24        -0.1918
    510  C4        -8.4140  -25.9300   -9.3290 C.ar   24  G24         0.1723
    511  C5        -8.8680  -26.0990   -8.0500 C.ar   24  G24         0.1748
    512  C6        -7.9270  -26.2310   -7.0080 C.ar   24  G24         0.3023
    513  O6        -8.1820  -26.3980   -5.8250 O.2    24  G24        -0.2633
    514  N7       -10.2510  -26.1270   -8.0070 N.ar   24  G24        -0.2173
    515  C8       -10.6220  -25.9570   -9.2380 C.ar   24  G24         0.1817
    516  N9        -9.5570  -25.8250  -10.0860 N.ar   24  G24        -0.2693
    517  OP1      -15.6310  -27.6260  -13.0390 O.2    24  G24        -0.5172
    518  OP2      -15.6940  -27.1340  -10.5720 O.co2  24  G24        -0.4373
    519  P         -9.7970  -30.3760  -12.6800 P.3    25  G25         0.2141
    520  C5'       -7.2530  -30.0390  -13.1950 C.3    25  G25         0.1812
    521  O5'       -8.2370  -30.4240  -12.3150 O.3    25  G25        -0.3114
    522  C4'       -5.8930  -30.1070  -12.5340 C.3    25  G25         0.1773
    523  O4'       -5.6230  -28.8630  -11.8310 O.3    25  G25        -0.3307
    524  C3'       -5.6810  -31.2250  -11.5170 C.3    25  G25         0.1860
    525  O3'       -5.1260  -32.3230  -12.2070 O.3    25  G25        -0.3112
    526  C2'       -4.6160  -30.5740  -10.6410 C.3    25  G25         0.2309
    527  O2'       -3.3080  -30.6760  -11.1640 O.3    25  G25        -0.2156
    528  C1'       -5.0900  -29.1100  -10.5450 C.3    25  G25         0.2408
    529  N1        -5.8310  -29.9510   -5.6160 N.ar   25  G25        -0.1709
    530  C2        -4.6610  -29.9540   -6.3520 C.ar   25  G25         0.2606
    531  N2        -3.5480  -30.2410   -5.6460 N.pl3  25  G25        -0.0859
    532  N3        -4.6020  -29.6780   -7.6780 N.ar   25  G25        -0.1918
    533  C4        -5.8520  -29.4490   -8.1900 C.ar   25  G25         0.1723
    534  C5        -7.0830  -29.4460   -7.5450 C.ar   25  G25         0.1748
    535  C6        -7.1080  -29.7230   -6.1400 C.ar   25  G25         0.3023
    536  O6        -8.0970  -29.7390   -5.3840 O.2    25  G25        -0.2633
    537  N7        -8.1240  -29.1240   -8.4330 N.ar   25  G25        -0.2173
    538  C8        -7.5130  -28.9650   -9.5910 C.ar   25  G25         0.1817
    539  N9        -6.1290  -29.1240   -9.5090 N.ar   25  G25        -0.2693
    540  OP1      -10.0280  -31.3470  -13.7790 O.2    25  G25        -0.5172
    541  OP2      -10.6000  -30.5460  -11.4400 O.co2  25  G25        -0.4373
    542  P         -5.4120  -33.8470  -11.7870 P.3    26  C26         0.2141
    543  C5'       -3.0930  -33.9830  -10.4960 C.3    26  C26         0.1812
    544  O5'       -4.5210  -33.9820  -10.4690 O.3    26  C26        -0.3114
    545  C4'       -2.5730  -34.5380   -9.1670 C.3    26  C26         0.1773
    546  O4'       -2.7550  -33.5260   -8.1170 O.3    26  C26        -0.3307
    547  C3'       -3.2900  -35.8060   -8.6660 C.3    26  C26         0.1860
    548  O3'       -2.6590  -37.0260   -9.1100 O.3    26  C26        -0.3112
    549  C2'       -3.0990  -35.6900   -7.1620 C.3    26  C26         0.2309
    550  O2'       -1.7800  -35.9510   -6.7460 O.3    26  C26        -0.2156
    551  C1'       -3.2750  -34.1820   -6.9650 C.3    26  C26         0.2420
    552  N1        -4.6880  -33.8210   -6.5970 N.ar   26  C26        -0.2535
    553  C2        -5.0250  -34.0080   -5.2340 C.ar   26  C26         0.3532
    554  O2        -4.1370  -34.4360   -4.4770 O.2    26  C26        -0.2443
    555  N3        -6.2750  -33.6860   -4.8140 N.ar   26  C26        -0.1739
    556  C4        -7.1630  -33.2020   -5.6890 C.ar   26  C26         0.1759
    557  N4        -8.3900  -32.9150   -5.2520 N.pl3  26  C26        -0.1070
    558  C5        -6.8330  -33.0350   -7.0750 C.ar   26  C26         0.0566
    559  C6        -5.5990  -33.3400   -7.4920 C.ar   26  C26         0.0850
    560  OP1       -4.8030  -34.7680  -12.7870 O.2    26  C26        -0.5172
    561  OP2       -6.8550  -34.0420  -11.4990 O.co2  26  C26        -0.4373
    562  P         -3.5010  -38.3710   -9.3260 P.3    27  U27         0.2141
    563  C5'       -2.5280  -39.2970   -7.1130 C.3    27  U27         0.1812
    564  O5'       -3.6780  -39.1350   -7.9260 O.3    27  U27        -0.3114
    565  C4'       -2.9910  -39.6860   -5.7200 C.3    27  U27         0.1773
    566  O4'       -3.3720  -38.4610   -5.0260 O.3    27  U27        -0.3307
    567  C3'       -4.2240  -40.5710   -5.6970 C.3    27  U27         0.1860
    568  O3'       -3.9160  -42.0380   -5.9150 O.3    27  U27        -0.3112
    569  C2'       -4.7970  -40.2220   -4.3220 C.3    27  U27         0.2309
    570  O2'       -4.2300  -40.9170   -3.2470 O.3    27  U27        -0.2156
    571  C1'       -4.4220  -38.7690   -4.1310 C.3    27  U27         0.2420
    572  N1        -5.6110  -37.9460   -4.3590 N.ar   27  U27        -0.2534
    573  C2        -6.3950  -37.6810   -3.2630 C.ar   27  U27         0.3546
    574  O2        -6.1150  -38.0620   -2.1340 O.2    27  U27        -0.2443
    575  N3        -7.5030  -36.9170   -3.5300 N.ar   27  U27        -0.1530
    576  C4        -7.8630  -36.4350   -4.7590 C.ar   27  U27         0.2846
    577  O4        -8.8810  -35.7650   -4.8440 O.2    27  U27        -0.2650
    578  C5        -6.9950  -36.7870   -5.8650 C.ar   27  U27         0.0814
    579  C6        -5.9080  -37.5080   -5.6280 C.ar   27  U27         0.0870
    580  OP1       -2.6210  -39.3180  -10.0880 O.2    27  U27        -0.5172
    581  OP2       -4.8490  -38.0320   -9.7960 O.co2  27  U27        -0.4373
    582  P         -5.0980  -43.0110   -6.4030 P.3    28  G28         0.2141
    583  C5'       -5.9560  -43.7850   -4.0180 C.3    28  G28         0.1812
    584  O5'       -6.1560  -42.9740   -5.1920 O.3    28  G28        -0.3114
    585  C4'       -7.0360  -43.3900   -3.0170 C.3    28  G28         0.1773
    586  O4'       -7.2140  -41.9160   -2.9040 O.3    28  G28        -0.3307
    587  C3'       -8.4130  -43.8480   -3.4540 C.3    28  G28         0.1860
    588  O3'       -8.5710  -45.2810   -3.3040 O.3    28  G28        -0.3112
    589  C2'       -9.2880  -43.0400   -2.4960 C.3    28  G28         0.2309
    590  O2'       -9.2900  -43.7240   -1.2520 O.3    28  G28        -0.2156
    591  C1'       -8.5550  -41.6870   -2.4930 C.3    28  G28         0.2408
    592  N1       -11.9980  -37.9980   -3.4250 N.ar   28  G28        -0.1709
    593  C2       -11.7720  -38.6620   -2.2400 C.ar   28  G28         0.2606
    594  N2       -12.5480  -38.3440   -1.1920 N.pl3  28  G28        -0.0859
    595  N3       -10.8480  -39.5930   -2.1030 N.ar   28  G28        -0.1918
    596  C4       -10.1590  -39.8340   -3.2430 C.ar   28  G28         0.1723
    597  C5       -10.3090  -39.2350   -4.4580 C.ar   28  G28         0.1748
    598  C6       -11.2760  -38.2300   -4.6030 C.ar   28  G28         0.3023
    599  O6       -11.4960  -37.6090   -5.6410 O.2    28  G28        -0.2633
    600  N7        -9.4170  -39.7150   -5.4000 N.ar   28  G28        -0.2173
    601  C8        -8.7440  -40.5770   -4.7420 C.ar   28  G28         0.1817
    602  N9        -9.1360  -40.7320   -3.4360 N.ar   28  G28        -0.2693
    603  OP1       -4.6160  -44.4440   -6.3690 O.3    28  G28        -0.4373
    604  OP2       -5.7730  -42.5250   -7.6160 O.co2  28  G28        -0.5172
    605  P         -9.5610  -46.1020   -4.2790 P.3    29  A29         0.2141
    606  C5'      -12.0270  -45.7720   -4.9030 C.3    29  A29         0.1812
    607  O5'      -11.0070  -45.4980   -3.9840 O.3    29  A29        -0.3114
    608  C4'      -13.3600  -45.5900   -4.2290 C.3    29  A29         0.1773
    609  O4'      -13.3660  -46.3530   -3.0030 O.3    29  A29        -0.3307
    610  C3'      -13.5610  -44.1700   -3.7680 C.3    29  A29         0.1860
    611  O3'      -14.0340  -43.3750   -4.8210 O.3    29  A29        -0.3112
    612  C2'      -14.5970  -44.3360   -2.6710 C.3    29  A29         0.2309
    613  O2'      -15.9080  -44.4580   -3.1510 O.3    29  A29        -0.2156
    614  C1'      -14.1620  -45.6550   -2.0540 C.3    29  A29         0.2408
    615  N1       -14.0040  -44.1470    2.9790 N.ar   29  A29        -0.2040
    616  C2       -14.9030  -43.9240    2.0200 C.ar   29  A29         0.2016
    617  N3       -14.9030  -44.3190    0.7280 N.ar   29  A29        -0.2048
    618  C4       -13.8090  -45.0420    0.4350 C.ar   29  A29         0.1692
    619  C5       -12.8030  -45.3290    1.3340 C.ar   29  A29         0.1518
    620  C6       -12.9080  -44.8550    2.6700 C.ar   29  A29         0.1919
    621  N6       -11.9840  -45.1090    3.6240 N.pl3  29  A29        -0.1054
    622  N7       -11.8250  -46.0510    0.7020 N.ar   29  A29        -0.2193
    623  C8       -12.2500  -46.1980   -0.5360 C.ar   29  A29         0.1816
    624  N9       -13.4440  -45.6130   -0.7750 N.ar   29  A29        -0.2693
    625  OP1       -9.6290  -47.5100   -3.8580 O.3    29  A29        -0.4373
    626  OP2       -9.2800  -45.6540   -5.6720 O.co2  29  A29        -0.5172
    627  P        -13.3510  -41.9210   -5.0380 P.3    30  G30         0.2141
    628  C5'      -15.5200  -41.1390   -3.8260 C.3    30  G30         0.1812
    629  O5'      -14.1210  -41.0500   -3.9360 O.3    30  G30        -0.3114
    630  C4'      -15.9590  -40.5320   -2.5230 C.3    30  G30         0.1773
    631  O4'      -15.6960  -41.5040   -1.4720 O.3    30  G30        -0.3307
    632  C3'      -15.2470  -39.2000   -2.1510 C.3    30  G30         0.1860
    633  O3'      -15.9910  -38.1170   -2.6690 O.3    30  G30        -0.3112
    634  C2'      -15.3790  -39.2800   -0.6390 C.3    30  G30         0.2309
    635  O2'      -16.6910  -38.9670   -0.2670 O.3    30  G30        -0.2156
    636  C1'      -15.1960  -40.7850   -0.3500 C.3    30  G30         0.2408
    637  N1       -11.6080  -41.6920    3.1460 N.ar   30  G30        -0.1709
    638  C2       -12.8970  -41.2390    3.3000 C.ar   30  G30         0.2606
    639  N2       -13.3270  -40.9630    4.5450 N.pl3  30  G30        -0.0859
    640  N3       -13.7360  -41.0300    2.2840 N.ar   30  G30        -0.1918
    641  C4       -13.1940  -41.3220    1.0820 C.ar   30  G30         0.1723
    642  C5       -11.9330  -41.8030    0.8090 C.ar   30  G30         0.1748
    643  C6       -11.0540  -41.9980    1.8970 C.ar   30  G30         0.3023
    644  O6        -9.8920  -42.3560    1.8060 O.2    30  G30        -0.2633
    645  N7       -11.7360  -41.9420   -0.5520 N.ar   30  G30        -0.2173
    646  C8       -12.8820  -41.5990   -1.0670 C.ar   30  G30         0.1817
    647  N9       -13.8170  -41.2120   -0.1330 N.ar   30  G30        -0.2693
    648  OP1      -13.7260  -41.4730   -6.3920 O.2    30  G30        -0.5172
    649  OP2      -11.9090  -41.9700   -4.7140 O.co2  30  G30        -0.4373
    650  P        -15.3890  -36.7270   -3.2190 P.3    31  A31         0.2141
    651  C5'      -15.1460  -35.6720   -0.7960 C.3    31  A31         0.1812
    652  O5'      -14.5340  -36.1440   -1.9680 O.3    31  A31        -0.3114
    653  C4'      -14.1460  -34.7660   -0.1200 C.3    31  A31         0.1773
    654  O4'      -12.8840  -35.4810   -0.0560 O.3    31  A31        -0.3307
    655  C3'      -13.8820  -33.4890   -0.9030 C.3    31  A31         0.1860
    656  O3'      -14.2710  -32.4020   -0.0950 O.3    31  A31        -0.3112
    657  C2'      -12.3830  -33.5010   -1.1220 C.3    31  A31         0.2309
    658  O2'      -11.7680  -32.2280   -0.9930 O.3    31  A31        -0.2156
    659  C1'      -11.9610  -34.4470    0.0050 C.3    31  A31         0.2408
    660  N1        -7.7440  -36.1440    2.3980 N.ar   31  A31        -0.2040
    661  C2        -8.8900  -35.6300    2.8670 C.ar   31  A31         0.2016
    662  N3        -9.9630  -35.1950    2.1790 N.ar   31  A31        -0.2048
    663  C4        -9.7890  -35.3830    0.8470 C.ar   31  A31         0.1692
    664  C5        -8.6870  -35.9360    0.2120 C.ar   31  A31         0.1518
    665  C6        -7.6110  -36.3460    1.0470 C.ar   31  A31         0.1919
    666  N6        -6.4800  -36.8940    0.5540 N.pl3  31  A31        -0.1054
    667  N7        -8.8720  -35.9360   -1.1680 N.ar   31  A31        -0.2193
    668  C8       -10.0620  -35.4210   -1.3380 C.ar   31  A31         0.1816
    669  N9       -10.6600  -35.0640   -0.1670 N.ar   31  A31        -0.2693
    670  OP1      -16.6090  -35.8890   -3.4100 O.3    31  A31        -0.4373
    671  OP2      -14.4390  -36.8600   -4.3490 O.co2  31  A31        -0.5172
    672  P        -15.2690  -31.2810   -0.6650 P.3    32  A32         0.2141
    673  C5'      -16.7890  -32.1610    1.1590 C.3    32  A32         0.1812
    674  O5'      -16.6270  -32.0090   -0.2470 O.3    32  A32        -0.3114
    675  C4'      -18.2440  -32.3750    1.5430 C.3    32  A32         0.1773
    676  O4'      -18.3710  -32.6870    2.9560 O.3    32  A32        -0.3307
    677  C3'      -19.1410  -31.1510    1.3570 C.3    32  A32         0.1860
    678  O3'      -20.4000  -31.7150    1.1200 O.3    32  A32        -0.3112
    679  C2'      -19.1440  -30.5530    2.7580 C.3    32  A32         0.2309
    680  O2'      -20.2500  -29.7390    3.0640 O.3    32  A32        -0.2156
    681  C1'      -19.3950  -31.8610    3.4730 C.3    32  A32         0.2408
    682  N1       -16.3100  -30.8960    7.4480 N.ar   32  A32        -0.2040
    683  C2       -16.1220  -30.8310    6.1190 C.ar   32  A32         0.2016
    684  N3       -16.9720  -31.0940    5.1230 N.ar   32  A32        -0.2048
    685  C4       -18.1630  -31.4390    5.6250 C.ar   32  A32         0.1692
    686  C5       -18.5180  -31.5410    6.9510 C.ar   32  A32         0.1518
    687  C6       -17.5360  -31.2600    7.8950 C.ar   32  A32         0.1919
    688  N6       -17.7940  -31.3470    9.2080 N.pl3  32  A32        -0.1054
    689  N7       -19.8290  -31.9460    7.0970 N.ar   32  A32        -0.2193
    690  C8       -20.2470  -32.0860    5.8510 C.ar   32  A32         0.1816
    691  N9       -19.2830  -31.8000    4.9190 N.ar   32  A32        -0.2693
    692  OP1      -15.0970  -31.1860   -2.1480 O.2    32  A32        -0.5172
    693  OP2      -15.1490  -30.0450    0.1570 O.co2  32  A32        -0.4373
    694  P        -21.2260  -31.4450   -0.2220 P.3    33  A33         0.2141
    695  C5'      -20.1970  -33.0580   -2.0940 C.3    33  A33         0.1812
    696  O5'      -21.0580  -32.8900   -0.9600 O.3    33  A33        -0.3114
    697  C4'      -19.8520  -34.5040   -2.4500 C.3    33  A33         0.1773
    698  O4'      -18.7550  -34.9520   -1.6070 O.3    33  A33        -0.3307
    699  C3'      -20.9170  -35.6150   -2.3440 C.3    33  A33         0.1860
    700  O3'      -21.6310  -35.8920   -3.5610 O.3    33  A33        -0.3112
    701  C2'      -20.0760  -36.8600   -2.0380 C.3    33  A33         0.2309
    702  O2'      -19.4280  -37.3510   -3.1920 O.3    33  A33        -0.2156
    703  C1'      -18.9860  -36.3070   -1.1440 C.3    33  A33         0.2408
    704  N1       -22.5750  -35.4450    2.4460 N.ar   33  A33        -0.2040
    705  C2       -22.6570  -35.4930    1.1100 C.ar   33  A33         0.2016
    706  N3       -21.6920  -35.7380    0.2280 N.ar   33  A33        -0.2048
    707  C4       -20.5180  -35.9450    0.8440 C.ar   33  A33         0.1692
    708  C5       -20.2780  -35.9320    2.1990 C.ar   33  A33         0.1518
    709  C6       -21.3740  -35.6590    3.0400 C.ar   33  A33         0.1919
    710  N6       -21.2870  -35.6040    4.3750 N.pl3  33  A33        -0.1054
    711  N7       -18.9530  -36.1980    2.4580 N.ar   33  A33        -0.2193
    712  C8       -18.4130  -36.3530    1.2840 C.ar   33  A33         0.1816
    713  N9       -19.3060  -36.2280    0.2730 N.ar   33  A33        -0.2693
    714  OP1      -20.5910  -30.2870   -0.9300 O.2    33  A33        -0.5172
    715  OP2      -22.6420  -31.3090    0.1930 O.co2  33  A33        -0.4373
    716  P        -22.9810  -35.1280   -3.9490 P.3    34  G34         0.2141
    717  C5'      -23.9690  -37.3280   -3.1370 C.3    34  G34         0.1812
    718  O5'      -24.1030  -36.2590   -4.0030 O.3    34  G34        -0.3114
    719  C4'      -23.6960  -38.6150   -3.8780 C.3    34  G34         0.1773
    720  O4'      -22.2710  -38.8370   -4.0120 O.3    34  G34        -0.3307
    721  C3'      -24.2440  -39.7640   -3.0480 C.3    34  G34         0.1860
    722  O3'      -25.4930  -40.1970   -3.5720 O.3    34  G34        -0.3112
    723  C2'      -23.1860  -40.8630   -3.0980 C.3    34  G34         0.2309
    724  O2'      -23.4450  -41.8140   -4.0960 O.3    34  G34        -0.2156
    725  C1'      -21.9140  -40.1050   -3.4410 C.3    34  G34         0.2408
    726  N1       -21.7950  -39.4790    1.6780 N.ar   34  G34        -0.1709
    727  C2       -22.8890  -39.6680    0.8750 C.ar   34  G34         0.2606
    728  N2       -24.0700  -39.6910    1.5020 N.pl3  34  G34        -0.0859
    729  N3       -22.8160  -39.8230   -0.4480 N.ar   34  G34        -0.1918
    730  C4       -21.5330  -39.8000   -0.9170 C.ar   34  G34         0.1723
    731  C5       -20.3790  -39.6310   -0.1780 C.ar   34  G34         0.1748
    732  C6       -20.4800  -39.4540    1.2240 C.ar   34  G34         0.3023
    733  O6       -19.5610  -39.3230    2.0360 O.2    34  G34        -0.2633
    734  N7       -19.2470  -39.6540   -0.9960 N.ar   34  G34        -0.2173
    735  C8       -19.7290  -39.8310   -2.1960 C.ar   34  G34         0.1817
    736  N9       -21.1040  -39.9180   -2.2390 N.ar   34  G34        -0.2693
    737  OP1      -22.7180  -34.5990   -5.3110 O.2    34  G34        -0.5172
    738  OP2      -23.3380  -34.2340   -2.8090 O.co2  34  G34        -0.4373
    739  P        -26.7460  -40.3430   -2.5740 P.3    35  U35         0.2141
    740  C5'      -26.1830  -42.7460   -1.7090 C.3    35  U35         0.1812
    741  O5'      -26.2200  -41.3550   -1.4390 O.3    35  U35        -0.3114
    742  C4'      -25.5140  -43.5140   -0.5770 C.3    35  U35         0.1773
    743  O4'      -26.0710  -43.2240    0.7430 O.3    35  U35        -0.3307
    744  C3'      -25.5910  -45.0350   -0.7300 C.3    35  U35         0.1860
    745  O3'      -24.2840  -45.5900   -0.9150 O.3    35  U35        -0.3112
    746  C2'      -26.2080  -45.5290    0.5800 C.3    35  U35         0.2309
    747  O2'      -25.5360  -46.6720    1.0350 O.3    35  U35        -0.2156
    748  C1'      -25.8290  -44.4020    1.5100 C.3    35  U35         0.2420
    749  N1       -26.4290  -44.4170    2.9040 N.ar   35  U35        -0.2534
    750  C2       -27.6720  -43.8720    3.1940 C.ar   35  U35         0.3546
    751  O2       -28.3940  -43.3580    2.3620 O.2    35  U35        -0.2443
    752  N3       -28.0700  -43.9290    4.5130 N.ar   35  U35        -0.1530
    753  C4       -27.3660  -44.4680    5.5630 C.ar   35  U35         0.2846
    754  O4       -27.8560  -44.4550    6.6900 O.2    35  U35        -0.2650
    755  C5       -26.0810  -45.0140    5.1950 C.ar   35  U35         0.0814
    756  C6       -25.6700  -44.9630    3.9180 C.ar   35  U35         0.0870
    757  OP1      -27.8120  -41.0700   -3.3210 O.2    35  U35        -0.5172
    758  OP2      -26.9920  -38.9870   -1.9930 O.co2  35  U35        -0.4373
    759  P        -23.4430  -45.4070   -2.2820 P.3    36  C36         0.2141
    760  C5'      -20.9340  -44.7930   -2.7150 C.3    36  C36         0.1812
    761  O5'      -22.0770  -44.6800   -1.8710 O.3    36  C36        -0.3114
    762  C4'      -19.6720  -44.5280   -1.9140 C.3    36  C36         0.1773
    763  O4'      -19.6590  -43.1610   -1.3520 O.3    36  C36        -0.3307
    764  C3'      -19.4780  -45.4610   -0.7260 C.3    36  C36         0.1860
    765  O3'      -18.9240  -46.6660   -1.1850 O.3    36  C36        -0.3112
    766  C2'      -18.4350  -44.6360    0.0070 C.3    36  C36         0.2309
    767  O2'      -17.2350  -44.6110   -0.7450 O.3    36  C36        -0.2156
    768  C1'      -19.0600  -43.2440   -0.0670 C.3    36  C36         0.2420
    769  N1       -20.0600  -42.9100    1.0040 N.ar   36  C36        -0.2535
    770  C2       -19.6450  -42.7600    2.3440 C.ar   36  C36         0.3532
    771  O2       -18.4690  -42.9150    2.6480 O.2    36  C36        -0.2443
    772  N3       -20.5570  -42.4590    3.3030 N.ar   36  C36        -0.1739
    773  C4       -21.8370  -42.2780    2.9810 C.ar   36  C36         0.1759
    774  N4       -22.6850  -41.9750    3.9750 N.pl3  36  C36        -0.1070
    775  C5       -22.2810  -42.4280    1.6270 C.ar   36  C36         0.0566
    776  C6       -21.3730  -42.7280    0.6830 C.ar   36  C36         0.0850
    777  OP1      -24.0940  -44.3840   -3.1560 O.2    36  C36        -0.5172
    778  OP2      -23.0740  -46.7820   -2.7150 O.co2  36  C36        -0.4373
    779  P        -19.1200  -48.0860   -0.4420 P.3    37  C37         0.2141
    780  C5'      -16.8320  -48.0400    0.8720 C.3    37  C37         0.1812
    781  O5'      -18.2530  -48.0860    0.9100 O.3    37  C37        -0.3114
    782  C4'      -16.3120  -47.5440    2.2100 C.3    37  C37         0.1773
    783  O4'      -16.7220  -46.1590    2.4910 O.3    37  C37        -0.3307
    784  C3'      -16.8500  -48.3410    3.3780 C.3    37  C37         0.1860
    785  O3'      -16.1050  -49.5230    3.4760 O.3    37  C37        -0.3112
    786  C2'      -16.5090  -47.4030    4.5120 C.3    37  C37         0.2309
    787  O2'      -15.1320  -47.2730    4.6380 O.3    37  C37        -0.2156
    788  C1'      -16.9570  -46.0900    3.9040 C.3    37  C37         0.2420
    789  N1       -18.3640  -45.8100    4.2160 N.ar   37  C37        -0.2535
    790  C2       -18.6590  -45.4500    5.5240 C.ar   37  C37         0.3532
    791  O2       -17.7330  -45.4090    6.3410 O.2    37  C37        -0.2443
    792  N3       -19.9290  -45.1730    5.8660 N.ar   37  C37        -0.1739
    793  C4       -20.8800  -45.2440    4.9280 C.ar   37  C37         0.1759
    794  N4       -22.1370  -44.9620    5.2980 N.pl3  37  C37        -0.1070
    795  C5       -20.5990  -45.6140    3.5730 C.ar   37  C37         0.0566
    796  C6       -19.3330  -45.8900    3.2610 C.ar   37  C37         0.0850
    797  OP1      -18.4460  -49.0760   -1.3130 O.2    37  C37        -0.5172
    798  OP2      -20.5290  -48.2150    0.0150 O.co2  37  C37        -0.4373
    799  P        -16.6860  -50.8900    4.1190 P.3    38  C38         0.2141
    800  C5'      -15.5610  -50.5330    6.5390 C.3    38  C38         0.1812
    801  O5'      -16.7400  -50.6290    5.7080 O.3    38  C38        -0.3114
    802  C4'      -15.8460  -49.9560    7.9290 C.3    38  C38         0.1773
    803  O4'      -16.6220  -48.7510    7.7750 O.3    38  C38        -0.3307
    804  C3'      -16.7640  -50.7650    8.7850 C.3    38  C38         0.1860
    805  O3'      -15.9660  -51.6760    9.4030 O.3    38  C38        -0.3112
    806  C2'      -17.2510  -49.7480    9.8020 C.3    38  C38         0.2309
    807  O2'      -16.1780  -49.3820   10.6490 O.3    38  C38        -0.2156
    808  C1'      -17.5270  -48.6310    8.8630 C.3    38  C38         0.2420
    809  N1       -18.8510  -48.4660    8.3050 N.ar   38  C38        -0.2535
    810  C2       -19.8890  -48.0200    9.1230 C.ar   38  C38         0.3532
    811  O2       -19.6920  -47.8320   10.3410 O.2    38  C38        -0.2443
    812  N3       -21.0980  -47.8210    8.5500 N.ar   38  C38        -0.1739
    813  C4       -21.2790  -48.0300    7.2370 C.ar   38  C38         0.1759
    814  N4       -22.5110  -47.8160    6.7470 N.pl3  38  C38        -0.1070
    815  C5       -20.2200  -48.4710    6.3790 C.ar   38  C38         0.0566
    816  C6       -19.0250  -48.6610    6.9490 C.ar   38  C38         0.0850
    817  OP1      -15.6290  -51.8920    3.8080 O.3    38  C38        -0.4373
    818  OP2      -18.1100  -51.0540    3.7720 O.co2  38  C38        -0.5172
    819  P        -16.5110  -53.1600    9.5760 P.3    39  U39         0.2141
    820  C5'      -16.8570  -52.8950   12.0140 C.3    39  U39         0.1812
    821  O5'      -17.5210  -53.0310   10.7800 O.3    39  U39        -0.3114
    822  C4'      -17.8160  -52.3960   13.0790 C.3    39  U39         0.1773
    823  O4'      -18.6270  -51.2710   12.6260 O.3    39  U39        -0.3307
    824  C3'      -18.8540  -53.4530   13.4160 C.3    39  U39         0.1860
    825  O3'      -18.3100  -54.3620   14.3040 O.3    39  U39        -0.3112
    826  C2'      -19.9630  -52.6810   14.1060 C.3    39  U39         0.2309
    827  O2'      -19.6440  -52.4400   15.4510 O.3    39  U39        -0.2156
    828  C1'      -19.8910  -51.3900   13.3090 C.3    39  U39         0.2420
    829  N1       -20.9590  -51.2520   12.3140 N.ar   39  U39        -0.2534
    830  C2       -22.2220  -50.8790   12.7390 C.ar   39  U39         0.3546
    831  O2       -22.5260  -50.7050   13.9160 O.2    39  U39        -0.2443
    832  N3       -23.1210  -50.7330   11.7090 N.ar   39  U39        -0.1530
    833  C4       -22.8670  -50.9080   10.3600 C.ar   39  U39         0.2846
    834  O4       -23.7610  -50.7180    9.5410 O.2    39  U39        -0.2650
    835  C5       -21.5220  -51.2830   10.0230 C.ar   39  U39         0.0814
    836  C6       -20.6290  -51.4480   10.9920 C.ar   39  U39         0.0870
    837  OP1      -15.3590  -54.0050   10.0300 O.3    39  U39        -0.4373
    838  OP2      -17.1800  -53.4720    8.2680 O.co2  39  U39        -0.5172
    839  P        -18.7680  -55.9020   14.1880 P.3    40  U40         0.2141
    840  C5'      -16.6380  -56.8340   15.1360 C.3    40  U40         0.1812
    841  O5'      -17.9600  -56.4310   15.4790 O.3    40  U40        -0.3114
    842  C4'      -15.8070  -56.5230   16.3360 C.3    40  U40         0.1773
    843  O4'      -16.1490  -55.1680   16.7220 O.3    40  U40        -0.3307
    844  C3'      -16.2000  -57.3580   17.5430 C.3    40  U40         0.1860
    845  O3'      -15.0640  -57.7450   18.3140 O.3    40  U40        -0.3112
    846  C2'      -17.1580  -56.4520   18.2890 C.3    40  U40         0.2309
    847  O2'      -17.3180  -56.7480   19.6570 O.3    40  U40        -0.2156
    848  C1'      -16.3320  -55.1860   18.1210 C.3    40  U40         0.2420
    849  N1       -17.0260  -53.9920   18.5220 N.ar   40  U40        -0.2534
    850  C2       -16.7720  -53.5200   19.7830 C.ar   40  U40         0.3546
    851  O2       -16.0040  -54.0810   20.5490 O.2    40  U40        -0.2443
    852  N3       -17.4720  -52.4170   20.1180 N.ar   40  U40        -0.1530
    853  C4       -18.3640  -51.7200   19.3190 C.ar   40  U40         0.2846
    854  O4       -18.9040  -50.6810   19.7520 O.2    40  U40        -0.2650
    855  C5       -18.5720  -52.2660   18.0020 C.ar   40  U40         0.0814
    856  C6       -17.9010  -53.3680   17.6610 C.ar   40  U40         0.0870
    857  OP1      -18.0900  -56.5060   13.0230 O.2    40  U40        -0.5172
    858  OP2      -20.2480  -55.9790   14.2640 O.co2  40  U40        -0.4373
    859  P        -14.9030  -59.3320   18.5210 P.3    41  U41         0.2141
    860  C5'      -12.6300  -60.0500   17.3990 C.3    41  U41         0.1812
    861  O5'      -14.0350  -59.8350   17.2750 O.3    41  U41        -0.3114
    862  C4'      -11.9970  -60.1370   16.0170 C.3    41  U41         0.1773
    863  O4'      -12.2000  -61.4710   15.4730 O.3    41  U41        -0.3307
    864  C3'      -12.5730  -59.1510   14.9880 C.3    41  U41         0.1860
    865  O3'      -11.6380  -58.7650   13.9840 O.3    41  U41        -0.3112
    866  C2'      -13.6200  -60.0030   14.2960 C.3    41  U41         0.2309
    867  O2'      -13.8380  -59.5570   12.9760 O.3    41  U41        -0.2156
    868  C1'      -12.9060  -61.3510   14.2510 C.3    41  U41         0.2420
    869  N1       -13.9250  -62.4240   14.0670 N.ar   41  U41        -0.2534
    870  C2       -13.8980  -63.2320   12.9390 C.ar   41  U41         0.3546
    871  O2       -13.0460  -63.1730   12.0620 O.2    41  U41        -0.2443
    872  N3       -14.9220  -64.1480   12.8910 N.ar   41  U41        -0.1530
    873  C4       -15.9380  -64.3320   13.8200 C.ar   41  U41         0.2846
    874  O4       -16.7860  -65.2050   13.6380 O.2    41  U41        -0.2650
    875  C5       -15.9020  -63.4370   14.9520 C.ar   41  U41         0.0814
    876  C6       -14.9190  -62.5320   15.0260 C.ar   41  U41         0.0870
    877  OP1      -16.2320  -59.9720   18.3670 O.2    41  U41        -0.5172
    878  OP2      -14.1060  -59.4500   19.7550 O.co2  41  U41        -0.4373
    879  P        -10.8010  -57.3850   13.9880 P.3    42  G42         0.2141
    880  C5'      -12.6140  -55.8310   12.7920 C.3    42  G42         0.1812
    881  O5'      -11.9200  -56.2240   13.9860 O.3    42  G42        -0.3114
    882  C4'      -13.1920  -54.4500   13.0510 C.3    42  G42         0.1773
    883  O4'      -14.1060  -54.5070   14.1680 O.3    42  G42        -0.3307
    884  C3'      -12.2000  -53.3840   13.5230 C.3    42  G42         0.1860
    885  O3'      -11.4830  -52.9060   12.3840 O.3    42  G42        -0.3112
    886  C2'      -13.1720  -52.3640   14.1320 C.3    42  G42         0.2309
    887  O2'      -14.0740  -51.7660   13.2170 O.3    42  G42        -0.2156
    888  C1'      -14.0370  -53.3040   14.9360 C.3    42  G42         0.2408
    889  N1       -13.8380  -51.7210   19.7240 N.ar   42  G42        -0.1709
    890  C2       -14.4690  -51.1430   18.6460 C.ar   42  G42         0.2606
    891  N2       -15.1520  -49.9620   18.7810 N.pl3  42  G42        -0.0859
    892  N3       -14.4300  -51.6730   17.4340 N.ar   42  G42        -0.1918
    893  C4       -13.7350  -52.8230   17.3960 C.ar   42  G42         0.1723
    894  C5       -13.0710  -53.4560   18.4030 C.ar   42  G42         0.1748
    895  C6       -13.0990  -52.9190   19.6840 C.ar   42  G42         0.3023
    896  O6       -12.5380  -53.4310   20.6630 O.2    42  G42        -0.2633
    897  N7       -12.4620  -54.5810   17.9510 N.ar   42  G42        -0.2173
    898  C8       -12.7610  -54.6420   16.6860 C.ar   42  G42         0.1817
    899  N9       -13.5270  -53.5920   16.2750 N.ar   42  G42        -0.2693
    900  OP1      -10.0700  -57.3580   12.6930 O.2    42  G42        -0.5172
    901  OP2      -10.0170  -57.2820   15.2400 O.co2  42  G42        -0.4373
    902  P        -10.2180  -51.9720   12.5580 P.3    43  A43         0.2141
    903  C5'      -10.2690  -50.5620   10.4000 C.3    43  A43         0.1812
    904  O5'      -10.7370  -50.7300   11.7110 O.3    43  A43        -0.3114
    905  C4'       -9.0740  -49.6300   10.2050 C.3    43  A43         0.1773
    906  O4'       -8.2630  -49.5730   11.3790 O.3    43  A43        -0.3307
    907  C3'       -8.2230  -50.3010    9.1240 C.3    43  A43         0.1860
    908  O3'       -8.1140  -49.5190    7.9500 O.3    43  A43        -0.3112
    909  C2'       -6.8760  -50.5240    9.8010 C.3    43  A43         0.2309
    910  O2'       -5.7680  -50.2630    8.9430 O.3    43  A43        -0.2156
    911  C1'       -6.9470  -49.4810   10.9310 C.3    43  A43         0.2408
    912  N1        -3.7780  -48.1600   14.9410 N.ar   43  A43        -0.2040
    913  C2        -4.6650  -47.4240   14.2430 C.ar   43  A43         0.2016
    914  N3        -5.4700  -47.8290   13.2390 N.ar   43  A43        -0.2048
    915  C4        -5.2890  -49.1330   12.9180 C.ar   43  A43         0.1692
    916  C5        -4.4360  -50.0130   13.5670 C.ar   43  A43         0.1518
    917  C6        -3.6530  -49.4960   14.6360 C.ar   43  A43         0.1919
    918  N6        -2.7570  -50.2380   15.3490 N.pl3  43  A43        -0.1054
    919  N7        -4.5400  -51.2770   12.9830 N.ar   43  A43        -0.2193
    920  C8        -5.4380  -51.1670   12.0170 C.ar   43  A43         0.1816
    921  N9        -5.9600  -49.8890   11.9420 N.ar   43  A43        -0.2693
    922  OP1       -9.0180  -52.3540   11.8330 O.2    43  A43        -0.5172
    923  OP2      -10.2030  -51.3910   13.9310 O.co2  43  A43        -0.4373
    924  P         -9.3640  -49.3900    6.9260 P.3    44  A44         0.2141
    925  C5'      -10.6960  -47.3070    7.9890 C.3    44  A44         0.1812
    926  O5'      -10.5870  -48.6860    7.7570 O.3    44  A44        -0.3114
    927  C4'      -12.1180  -46.8690    7.6560 C.3    44  A44         0.1773
    928  O4'      -13.0340  -47.6630    8.4560 O.3    44  A44        -0.3307
    929  C3'      -12.4410  -45.4190    8.0230 C.3    44  A44         0.1860
    930  O3'      -12.2400  -44.5380    6.9730 O.3    44  A44        -0.3112
    931  C2'      -13.9410  -45.4440    8.2580 C.3    44  A44         0.2309
    932  O2'      -14.7410  -45.3190    7.0710 O.3    44  A44        -0.2156
    933  C1'      -14.0770  -46.7930    8.9350 C.3    44  A44         0.2408
    934  N1       -16.1790  -45.3680   13.4190 N.ar   44  A44        -0.2040
    935  C2       -16.6170  -45.1340   12.1720 C.ar   44  A44         0.2016
    936  N3       -16.0250  -45.5200   11.0490 N.ar   44  A44        -0.2048
    937  C4       -14.8580  -46.1990   11.2920 C.ar   44  A44         0.1692
    938  C5       -14.2980  -46.4830   12.5050 C.ar   44  A44         0.1518
    939  C6       -15.0010  -46.0070   13.6070 C.ar   44  A44         0.1919
    940  N6       -14.5040  -46.2090   14.8230 N.pl3  44  A44        -0.1054
    941  N7       -13.0940  -47.1530   12.4290 N.ar   44  A44        -0.2193
    942  C8       -12.9580  -47.2730   11.1500 C.ar   44  A44         0.1816
    943  N9       -13.9670  -46.7310   10.3970 N.ar   44  A44        -0.2693
    944  OP1       -9.8870  -50.7410    6.6570 O.3    44  A44        -0.4373
    945  OP2       -8.8600  -48.4780    5.8760 O.co2  44  A44        -0.5172
    946  P        -10.9480  -43.6300    6.8500 P.3    45  C45         0.2141
    947  C5'      -10.7010  -42.7240    9.1910 C.3    45  C45         0.1812
    948  O5'      -11.2230  -42.5200    7.9810 O.3    45  C45        -0.3114
    949  C4'      -11.6580  -42.1590   10.2130 C.3    45  C45         0.1773
    950  O4'      -12.4410  -43.2530   10.8010 O.3    45  C45        -0.3307
    951  C3'      -10.7530  -41.6720   11.3020 C.3    45  C45         0.1860
    952  O3'      -10.5240  -40.2920   10.9680 O.3    45  C45        -0.3112
    953  C2'      -11.6240  -41.9520   12.5010 C.3    45  C45         0.2309
    954  O2'      -12.6720  -41.0110   12.5290 O.3    45  C45        -0.2156
    955  C1'      -12.1410  -43.3810   12.1660 C.3    45  C45         0.2420
    956  N1       -11.1620  -44.4980   12.3970 N.ar   45  C45        -0.2535
    957  C2       -11.0870  -44.9360   13.7040 C.ar   45  C45         0.3532
    958  O2       -11.8350  -44.3760   14.4830 O.2    45  C45        -0.2443
    959  N3       -10.2320  -45.8980   14.0810 N.ar   45  C45        -0.1739
    960  C4        -9.4630  -46.4960   13.1480 C.ar   45  C45         0.1759
    961  N4        -8.6290  -47.4840   13.5690 N.pl3  45  C45        -0.1070
    962  C5        -9.4940  -46.0700   11.7840 C.ar   45  C45         0.0566
    963  C6       -10.3690  -45.0930   11.4650 C.ar   45  C45         0.0850
    964  OP1      -11.0850  -42.9120    5.5610 O.2    45  C45        -0.5172
    965  OP2       -9.7190  -44.3550    7.1790 O.co2  45  C45        -0.4373
    966  P         -9.1540  -39.6060   11.3610 P.3    46  C46         0.2141
    967  C5'      -10.4870  -38.8260   13.5350 C.3    46  C46         0.1812
    968  O5'       -9.3590  -39.4090   12.9360 O.3    46  C46        -0.3114
    969  C4'      -10.3140  -38.8200   15.0290 C.3    46  C46         0.1773
    970  O4'      -10.6060  -40.1290   15.5520 O.3    46  C46        -0.3307
    971  C3'       -8.9110  -38.5240   15.5610 C.3    46  C46         0.1860
    972  O3'       -8.6510  -37.1380   15.6520 O.3    46  C46        -0.3112
    973  C2'       -8.9120  -39.1790   16.9230 C.3    46  C46         0.2309
    974  O2'       -9.8510  -38.6280   17.8120 O.3    46  C46        -0.2156
    975  C1'       -9.6420  -40.4520   16.5430 C.3    46  C46         0.2420
    976  N1        -8.9050  -41.6220   16.1100 N.ar   46  C46        -0.2535
    977  C2        -8.3460  -42.3660   17.1280 C.ar   46  C46         0.3532
    978  O2        -8.4550  -41.8720   18.3080 O.2    46  C46        -0.2443
    979  N3        -7.6970  -43.5480   16.7570 N.ar   46  C46        -0.1739
    980  C4        -7.6320  -43.9350   15.4810 C.ar   46  C46         0.1759
    981  N4        -7.0150  -45.0910   15.1450 N.pl3  46  C46        -0.1070
    982  C5        -8.2320  -43.1360   14.4440 C.ar   46  C46         0.0566
    983  C6        -8.8610  -42.0040   14.8080 C.ar   46  C46         0.0850
    984  OP1       -9.1910  -38.2370   10.8110 O.2    46  C46        -0.5172
    985  OP2       -7.9730  -40.4830   11.2020 O.co2  46  C46        -0.4373
    986  P         -7.1300  -36.6600   15.6890 P.3    47  U47         0.2141
    987  C5'       -7.0200  -36.7370   18.4700 C.3    47  U47         0.1812
    988  O5'       -6.5440  -37.0050   17.1760 O.3    47  U47        -0.3114
    989  C4'       -6.1080  -37.4220   19.4840 C.3    47  U47         0.1773
    990  O4'       -6.3270  -38.8890   19.5180 O.3    47  U47        -0.3307
    991  C3'       -4.6140  -37.3260   19.2050 C.3    47  U47         0.1860
    992  O3'       -4.0270  -36.2230   19.8090 O.3    47  U47        -0.3112
    993  C2'       -4.0190  -38.5540   19.9110 C.3    47  U47         0.2309
    994  O2'       -3.9050  -38.4320   21.2970 O.3    47  U47        -0.2156
    995  C1'       -5.1040  -39.6010   19.7860 C.3    47  U47         0.2420
    996  N1        -4.8080  -40.6010   18.7430 N.ar   47  U47        -0.2534
    997  C2        -3.9900  -41.6600   19.0470 C.ar   47  U47         0.3546
    998  O2        -3.4900  -41.7940   20.1650 O.2    47  U47        -0.2443
    999  N3        -3.8480  -42.5960   18.0410 N.ar   47  U47        -0.1530
   1000  C4        -4.3990  -42.4610   16.8010 C.ar   47  U47         0.2846
   1001  O4        -4.1810  -43.2920   15.9690 O.2    47  U47        -0.2650
   1002  C5        -5.2130  -41.2880   16.5630 C.ar   47  U47         0.0814
   1003  C6        -5.3980  -40.4340   17.5340 C.ar   47  U47         0.0870
   1004  OP1       -7.1470  -35.2410   15.3990 O.3    47  U47        -0.4373
   1005  OP2       -6.1920  -37.5320   14.9400 O.co2  47  U47        -0.5172
   1006  P         -2.8060  -35.5010   19.0660 P.3    48  G48         0.2141
   1007  C5'       -1.0070  -36.6020   20.6590 C.3    48  G48         0.1812
   1008  O5'       -1.6130  -36.5370   19.3600 O.3    48  G48        -0.3114
   1009  C4'       -0.0200  -37.7700   20.7150 C.3    48  G48         0.1773
   1010  O4'       -0.7230  -39.0410   20.4070 O.3    48  G48        -0.3307
   1011  C3'        1.0550  -37.7330   19.6440 C.3    48  G48         0.1860
   1012  O3'        2.1870  -37.0170   20.1390 O.3    48  G48        -0.3112
   1013  C2'        1.4070  -39.2310   19.4200 C.3    48  G48         0.2309
   1014  O2'        2.1730  -39.8460   20.4420 O.3    48  G48        -0.2156
   1015  C1'        0.0740  -39.9190   19.5990 C.3    48  G48         0.2408
   1016  N1        -0.6400  -43.2520   15.7990 N.ar   48  G48        -0.1709
   1017  C2         0.0880  -43.4270   16.9530 C.ar   48  G48         0.2606
   1018  N2         0.7030  -44.6590   17.1510 N.pl3  48  G48        -0.0859
   1019  N3         0.1600  -42.4760   17.8800 N.ar   48  G48        -0.1918
   1020  C4        -0.4610  -41.3200   17.5450 C.ar   48  G48         0.1723
   1021  C5        -1.1800  -41.0250   16.4200 C.ar   48  G48         0.1748
   1022  C6        -1.3100  -42.0680   15.4540 C.ar   48  G48         0.3023
   1023  O6        -1.9310  -42.0270   14.4160 O.2    48  G48        -0.2633
   1024  N7        -1.7150  -39.7250   16.4690 N.ar   48  G48        -0.2173
   1025  C8        -1.2830  -39.2780   17.5710 C.ar   48  G48         0.1817
   1026  N9        -0.5320  -40.1570   18.2870 N.ar   48  G48        -0.2693
   1027  OP1       -2.4450  -34.2630   19.7540 O.3    48  G48        -0.4373
   1028  OP2       -3.1250  -35.3340   17.6680 O.co2  48  G48        -0.5172
   1029  P          2.4150  -35.4350   19.8820 P.3    49  A49         0.2141
   1030  C5'        2.2310  -33.8820   17.7750 C.3    49  A49         0.1812
   1031  O5'        2.1470  -35.1980   18.3050 O.3    49  A49        -0.3114
   1032  C4'        1.5440  -33.8220   16.4300 C.3    49  A49         0.1773
   1033  O4'        2.0690  -34.8990   15.5980 O.3    49  A49        -0.3307
   1034  C3'        0.0290  -34.0330   16.4660 C.3    49  A49         0.1860
   1035  O3'       -0.4990  -33.3590   15.3630 O.3    49  A49        -0.3112
   1036  C2'       -0.1150  -35.5330   16.2410 C.3    49  A49         0.2309
   1037  O2'       -1.3240  -35.9550   15.6260 O.3    49  A49        -0.2156
   1038  C1'        1.0190  -35.8190   15.2700 C.3    49  A49         0.2408
   1039  N1         0.8220  -40.7230   13.6030 N.ar   49  A49        -0.2040
   1040  C2         0.1610  -39.6330   13.2010 C.ar   49  A49         0.2016
   1041  N3         0.2450  -38.4070   13.7070 N.ar   49  A49        -0.2048
   1042  C4         1.1330  -38.3370   14.6970 C.ar   49  A49         0.1692
   1043  C5         1.9150  -39.3410   15.1480 C.ar   49  A49         0.1518
   1044  C6         1.7320  -40.6270   14.5960 C.ar   49  A49         0.1919
   1045  N6         2.4360  -41.6810   15.0330 N.pl3  49  A49        -0.1054
   1046  N7         2.7090  -38.9290   16.1750 N.ar   49  A49        -0.2193
   1047  C8         2.4410  -37.6420   16.2870 C.ar   49  A49         0.1816
   1048  N9         1.4990  -37.2120   15.4250 N.ar   49  A49        -0.2693
   1049  OP1        3.8540  -35.2010   20.0390 O.2    49  A49        -0.5172
   1050  OP2        1.4380  -34.6660   20.6350 O.co2  49  A49        -0.4373
   1051  P         -0.6270  -31.7360   15.3640 P.3    50  A50         0.2141
   1052  C5'        0.3760  -31.4670   12.8900 C.3    50  A50         0.1812
   1053  O5'        0.5090  -31.2410   14.3240 O.3    50  A50        -0.3114
   1054  C4'        1.7940  -31.3900   12.3330 C.3    50  A50         0.1773
   1055  O4'        2.1940  -29.9750   12.5460 O.3    50  A50        -0.3307
   1056  C3'        2.8920  -32.1720   13.0830 C.3    50  A50         0.1860
   1057  O3'        4.0650  -32.4420   12.3320 O.3    50  A50        -0.3112
   1058  C2'        3.3160  -31.1230   14.1130 C.3    50  A50         0.2309
   1059  O2'        4.6460  -31.3360   14.4640 O.3    50  A50        -0.2156
   1060  C1'        3.3250  -29.8230   13.3000 C.3    50  A50         0.2408
   1061  N1         5.1120  -25.1950   14.9980 N.ar   50  A50        -0.2040
   1062  C2         5.6530  -26.0630   14.1110 C.ar   50  A50         0.2016
   1063  N3         5.1350  -27.2830   13.7470 N.ar   50  A50        -0.2048
   1064  C4         3.9310  -27.5300   14.3020 C.ar   50  A50         0.1692
   1065  C5         3.2870  -26.7170   15.2200 C.ar   50  A50         0.1518
   1066  C6         3.9280  -25.4880   15.5720 C.ar   50  A50         0.1919
   1067  N6         3.3690  -24.6280   16.4520 N.pl3  50  A50        -0.1054
   1068  N7         2.0890  -27.2760   15.6440 N.ar   50  A50        -0.2193
   1069  C8         2.0210  -28.4260   14.9680 C.ar   50  A50         0.1816
   1070  N9         3.0990  -28.6450   14.1250 N.ar   50  A50        -0.2693
   1071  OP1       -0.3860  -31.2350   16.7240 O.3    50  A50        -0.4373
   1072  OP2       -1.9520  -31.5420   14.7860 O.co2  50  A50        -0.5172
   1073  P          4.4290  -33.8930   11.7880 P.3    51  C51         0.2141
   1074  C5'        5.2360  -34.5510   14.4030 C.3    51  C51         0.1812
   1075  O5'        4.4310  -34.7210   13.1830 O.3    51  C51        -0.3114
   1076  C4'        6.0700  -35.8170   14.6660 C.3    51  C51         0.1773
   1077  O4'        5.1780  -36.9100   15.0590 O.3    51  C51        -0.3307
   1078  C3'        6.8190  -36.3810   13.4420 C.3    51  C51         0.1860
   1079  O3'        8.1300  -35.7510   13.3400 O.3    51  C51        -0.3112
   1080  C2'        6.9940  -37.8240   13.8470 C.3    51  C51         0.2309
   1081  O2'        7.9760  -37.9280   14.8550 O.3    51  C51        -0.2156
   1082  C1'        5.6160  -38.1250   14.4420 C.3    51  C51         0.2420
   1083  N1         4.6930  -38.5200   13.3790 N.ar   51  C51        -0.2535
   1084  C2         4.8410  -39.8160   12.9020 C.ar   51  C51         0.3532
   1085  O2         5.7110  -40.5550   13.4190 O.2    51  C51        -0.2443
   1086  N3         4.0130  -40.2310   11.9130 N.ar   51  C51        -0.1739
   1087  C4         3.1130  -39.4060   11.3680 C.ar   51  C51         0.1759
   1088  N4         2.3040  -39.9210   10.4090 N.pl3  51  C51        -0.1070
   1089  C5         2.9610  -38.0690   11.8630 C.ar   51  C51         0.0566
   1090  C6         3.7660  -37.6620   12.8640 C.ar   51  C51         0.0850
   1091  OP1        5.7010  -33.8220   11.0640 O.3    51  C51        -0.4373
   1092  OP2        3.2810  -34.4810   11.0160 O.co2  51  C51        -0.5172
   1093  P          8.9590  -35.5320   11.9730 P.3    52  A52         0.2141
   1094  C5'       10.4530  -37.6060   12.7860 C.3    52  A52         0.1812
   1095  O5'        9.6900  -36.9570   11.7710 O.3    52  A52        -0.3114
   1096  C4'       10.8460  -39.0270   12.3600 C.3    52  A52         0.1773
   1097  O4'        9.7500  -39.9650   12.5620 O.3    52  A52        -0.3307
   1098  C3'       11.2370  -39.2270   10.8930 C.3    52  A52         0.1860
   1099  O3'       12.6110  -38.9460   10.7500 O.3    52  A52        -0.3112
   1100  C2'       10.9670  -40.7120   10.7030 C.3    52  A52         0.2309
   1101  O2'       11.8940  -41.5180   11.4400 O.3    52  A52        -0.2156
   1102  C1'        9.6260  -40.8380   11.4240 C.3    52  A52         0.2408
   1103  N1         6.1830  -42.5460    7.9420 N.ar   52  A52        -0.2040
   1104  C2         7.2760  -43.0490    8.4520 C.ar   52  A52         0.2016
   1105  N3         8.1010  -42.5250    9.3410 N.ar   52  A52        -0.2048
   1106  C4         7.7440  -41.3250    9.7570 C.ar   52  A52         0.1692
   1107  C5         6.6330  -40.6170    9.3220 C.ar   52  A52         0.1518
   1108  C6         5.8450  -41.2650    8.3570 C.ar   52  A52         0.1919
   1109  N6         4.7280  -40.7810    7.8540 N.pl3  52  A52        -0.1054
   1110  N7         6.6100  -39.4100    9.9900 N.ar   52  A52        -0.2193
   1111  C8         7.6620  -39.4000   10.7570 C.ar   52  A52         0.1816
   1112  N9         8.4150  -40.5350   10.6550 N.ar   52  A52        -0.2693
   1113  OP1        9.9950  -34.5900   12.4020 O.3    52  A52        -0.4373
   1114  OP2        8.1300  -35.2560   10.7490 O.co2  52  A52        -0.5172
   1115  P         13.2920  -38.4380    9.3800 P.3    53  G53         0.2141
   1116  C5'       14.0950  -40.8140    8.6260 C.3    53  G53         0.1812
   1117  O5'       13.1450  -39.7050    8.4730 O.3    53  G53        -0.3114
   1118  C4'       13.8330  -41.8000    7.5100 C.3    53  G53         0.1773
   1119  O4'       12.5850  -42.4770    7.7700 O.3    53  G53        -0.3307
   1120  C3'       13.5470  -41.2440    6.1430 C.3    53  G53         0.1860
   1121  O3'       14.7890  -40.8780    5.5780 O.3    53  G53        -0.3112
   1122  C2'       12.8720  -42.4480    5.4810 C.3    53  G53         0.2309
   1123  O2'       13.7470  -43.5420    5.2820 O.3    53  G53        -0.2156
   1124  C1'       11.8880  -42.8090    6.5840 C.3    53  G53         0.2408
   1125  N1         7.2970  -41.9640    4.7240 N.ar   53  G53        -0.1709
   1126  C2         8.1810  -42.9810    4.4490 C.ar   53  G53         0.2606
   1127  N2         7.7750  -43.8890    3.5440 N.pl3  53  G53        -0.0859
   1128  N3         9.3540  -43.0960    5.0120 N.ar   53  G53        -0.1918
   1129  C4         9.5800  -42.0840    5.8600 C.ar   53  G53         0.1723
   1130  C5         8.7840  -40.9900    6.2000 C.ar   53  G53         0.1748
   1131  C6         7.5140  -40.8850    5.5960 C.ar   53  G53         0.3023
   1132  O6         6.6400  -39.9980    5.7490 O.2    53  G53        -0.2633
   1133  N7         9.4140  -40.1820    7.1310 N.ar   53  G53        -0.2173
   1134  C8        10.5650  -40.7480    7.3250 C.ar   53  G53         0.1817
   1135  N9        10.7300  -41.9270    6.5950 N.ar   53  G53        -0.2693
   1136  OP1       14.7190  -38.2650    9.6990 O.3    53  G53        -0.4373
   1137  OP2       12.6170  -37.2260    8.8360 O.co2  53  G53        -0.5172
   1138  P         14.9640  -40.3530    4.0900 P.3    54  G54         0.2141
   1139  C5'       14.1880  -42.1270    2.3380 C.3    54  G54         0.1812
   1140  O5'       13.8690  -41.0270    3.1390 O.3    54  G54        -0.3114
   1141  C4'       13.0600  -42.4870    1.3770 C.3    54  G54         0.1773
   1142  O4'       11.8260  -42.8910    2.0740 O.3    54  G54        -0.3307
   1143  C3'       12.6570  -41.3780    0.3970 C.3    54  G54         0.1860
   1144  O3'       13.5420  -41.3270   -0.7330 O.3    54  G54        -0.3112
   1145  C2'       11.3170  -41.9580   -0.0330 C.3    54  G54         0.2309
   1146  O2'       11.4710  -43.1320   -0.7790 O.3    54  G54        -0.2156
   1147  C1'       10.7270  -42.3370    1.3180 C.3    54  G54         0.2408
   1148  N1         6.5010  -39.5460    1.5400 N.ar   54  G54        -0.1709
   1149  C2         6.8430  -40.5880    0.7360 C.ar   54  G54         0.2606
   1150  N2         5.9610  -41.0060   -0.1500 N.pl3  54  G54        -0.0859
   1151  N3         7.9780  -41.2010    0.7870 N.ar   54  G54        -0.1918
   1152  C4         8.7980  -40.7070    1.7230 C.ar   54  G54         0.1723
   1153  C5         8.5770  -39.6780    2.5730 C.ar   54  G54         0.1748
   1154  C6         7.3350  -39.0020    2.5180 C.ar   54  G54         0.3023
   1155  O6         6.9610  -38.0250    3.2050 O.2    54  G54        -0.2633
   1156  N7         9.6800  -39.4830    3.3950 N.ar   54  G54        -0.2173
   1157  C8        10.5320  -40.3980    3.0050 C.ar   54  G54         0.1817
   1158  N9        10.0550  -41.1900    1.9960 N.ar   54  G54        -0.2693
   1159  OP1       16.2840  -40.8180    3.6360 O.2    54  G54        -0.5172
   1160  OP2       14.6420  -38.9200    4.1930 O.co2  54  G54        -0.4373
   1161  P         13.8130  -40.0850   -1.7490 P.3    55  G55         0.2141
   1162  C5'       11.8280  -40.5720   -3.3130 C.3    55  G55         0.1812
   1163  O5'       12.4450  -39.6340   -2.4380 O.3    55  G55        -0.3114
   1164  C4'       10.3600  -40.2310   -3.4950 C.3    55  G55         0.1773
   1165  O4'        9.6720  -40.3340   -2.2060 O.3    55  G55        -0.3307
   1166  C3'       10.0480  -38.8110   -3.9730 C.3    55  G55         0.1860
   1167  O3'       10.0490  -38.7060   -5.3810 O.3    55  G55        -0.3112
   1168  C2'        8.5930  -38.6840   -3.5590 C.3    55  G55         0.2309
   1169  O2'        7.7090  -39.3690   -4.4540 O.3    55  G55        -0.2156
   1170  C1'        8.6380  -39.3530   -2.1870 C.3    55  G55         0.2408
   1171  N1         6.7820  -35.7590    0.8770 N.ar   55  G55        -0.1709
   1172  C2         6.1450  -36.3950   -0.1500 C.ar   55  G55         0.2606
   1173  N2         4.8700  -36.0530   -0.3630 N.pl3  55  G55        -0.0859
   1174  N3         6.7160  -37.3480   -0.8990 N.ar   55  G55        -0.1918
   1175  C4         8.0190  -37.5570   -0.5250 C.ar   55  G55         0.1723
   1176  C5         8.7400  -36.9360    0.4740 C.ar   55  G55         0.1748
   1177  C6         8.0970  -35.9560    1.2680 C.ar   55  G55         0.3023
   1178  O6         8.5940  -35.3290    2.2060 O.2    55  G55        -0.2633
   1179  N7        10.0490  -37.4140    0.5500 N.ar   55  G55        -0.2173
   1180  C8        10.0930  -38.3080   -0.3990 C.ar   55  G55         0.1817
   1181  N9         8.9070  -38.4460   -1.0870 N.ar   55  G55        -0.2693
   1182  OP1       14.5120  -40.8040   -2.8650 O.2    55  G55        -0.5172
   1183  OP2       14.4320  -38.9610   -1.0300 O.co2  55  G55        -0.4373
   1184  P         10.2460  -37.2560   -6.0380 P.3    56  U56         0.2141
   1185  C5'        7.6460  -37.0300   -6.5300 C.3    56  U56         0.1812
   1186  O5'        8.8420  -36.4990   -5.9510 O.3    56  U56        -0.3114
   1187  C4'        6.5810  -36.0470   -6.1040 C.3    56  U56         0.1773
   1188  O4'        6.3820  -36.1830   -4.6620 O.3    56  U56        -0.3307
   1189  C3'        6.9860  -34.5690   -6.2680 C.3    56  U56         0.1860
   1190  O3'        6.9100  -34.0940   -7.6770 O.3    56  U56        -0.3112
   1191  C2'        5.9550  -33.9440   -5.3300 C.3    56  U56         0.2309
   1192  O2'        4.6540  -34.0670   -5.8670 O.3    56  U56        -0.2156
   1193  C1'        5.9710  -34.9120   -4.1400 C.3    56  U56         0.2420
   1194  N1         6.7390  -34.3900   -2.9330 N.ar   56  U56        -0.2534
   1195  C2         6.0290  -33.6240   -2.0270 C.ar   56  U56         0.3546
   1196  O2         4.8430  -33.4300   -2.1710 O.2    56  U56        -0.2443
   1197  N3         6.7470  -33.1530   -0.9560 N.ar   56  U56        -0.1530
   1198  C4         8.1110  -33.3450   -0.7220 C.ar   56  U56         0.2846
   1199  O4         8.6660  -32.8720    0.2740 O.2    56  U56        -0.2650
   1200  C5         8.8000  -34.1370   -1.7260 C.ar   56  U56         0.0814
   1201  C6         8.0970  -34.6200   -2.7630 C.ar   56  U56         0.0870
   1202  OP1       10.4520  -37.4800   -7.4900 O.2    56  U56        -0.5172
   1203  OP2       11.2360  -36.5550   -5.1750 O.co2  56  U56        -0.4373
   1204  P          7.5390  -32.6690   -8.1820 P.3    57  A57         0.2141
   1205  C5'        7.2840  -30.1190   -7.7360 C.3    57  A57         0.1812
   1206  O5'        6.7190  -31.4310   -7.5550 O.3    57  A57        -0.3114
   1207  C4'        6.5810  -29.0600   -6.8960 C.3    57  A57         0.1773
   1208  O4'        5.3750  -28.6690   -7.5770 O.3    57  A57        -0.3307
   1209  C3'        6.0850  -29.5710   -5.5420 C.3    57  A57         0.1860
   1210  O3'        7.0920  -29.3200   -4.6140 O.3    57  A57        -0.3112
   1211  C2'        4.8890  -28.6820   -5.3150 C.3    57  A57         0.2309
   1212  O2'        5.2800  -27.3030   -5.3370 O.3    57  A57        -0.2156
   1213  C1'        4.2760  -28.7800   -6.6820 C.3    57  A57         0.2408
   1214  N1        -0.5410  -30.3100   -6.5740 N.ar   57  A57        -0.2040
   1215  C2         0.0940  -29.3490   -5.9510 C.ar   57  A57         0.2016
   1216  N3         1.3770  -29.0990   -6.0490 N.ar   57  A57        -0.2048
   1217  C4         2.0450  -29.8960   -6.8900 C.ar   57  A57         0.1692
   1218  C5         1.5410  -30.9370   -7.5920 C.ar   57  A57         0.1518
   1219  C6         0.1530  -31.1430   -7.3930 C.ar   57  A57         0.1919
   1220  N6        -0.5530  -32.1150   -7.9510 N.pl3  57  A57        -0.1054
   1221  N7         2.5770  -31.5580   -8.3230 N.ar   57  A57        -0.2193
   1222  C8         3.6690  -30.8340   -8.0630 C.ar   57  A57         0.1816
   1223  N9         3.3920  -29.8350   -7.1720 N.ar   57  A57        -0.2693
   1224  OP1        7.2360  -32.5520   -9.6380 O.2    57  A57        -0.5172
   1225  OP2        8.8970  -32.5080   -7.6290 O.co2  57  A57        -0.4373
   1226  P          7.2110  -30.1790   -3.2600 P.3    58  A58         0.2141
   1227  C5'        5.4070  -28.6450   -2.0120 C.3    58  A58         0.1812
   1228  O5'        5.7430  -29.9530   -2.6040 O.3    58  A58        -0.3114
   1229  C4'        4.0520  -28.7680   -1.3340 C.3    58  A58         0.1773
   1230  O4'        3.1390  -28.8980   -2.4300 O.3    58  A58        -0.3307
   1231  C3'        3.7530  -30.0430   -0.5070 C.3    58  A58         0.1860
   1232  O3'        4.0360  -29.8270    0.8220 O.3    58  A58        -0.3112
   1233  C2'        2.2530  -30.1490   -0.6210 C.3    58  A58         0.2309
   1234  O2'        1.6200  -29.0980    0.0980 O.3    58  A58        -0.2156
   1235  C1'        2.0880  -29.8000   -2.0910 C.3    58  A58         0.2408
   1236  N1        -0.5680  -33.3910   -4.7080 N.ar   58  A58        -0.2040
   1237  C2        -0.9590  -32.4770   -3.8080 C.ar   58  A58         0.2016
   1238  N3        -0.2060  -31.6020   -3.1540 N.ar   58  A58        -0.2048
   1239  C4         1.0770  -31.6460   -3.5110 C.ar   58  A58         0.1692
   1240  C5         1.6170  -32.5030   -4.4340 C.ar   58  A58         0.1518
   1241  C6         0.7450  -33.4140   -5.0390 C.ar   58  A58         0.1919
   1242  N6         1.1640  -34.3160   -5.9480 N.pl3  58  A58        -0.1054
   1243  N7         2.9760  -32.2960   -4.5410 N.ar   58  A58        -0.2193
   1244  C8         3.2420  -31.3230   -3.6890 C.ar   58  A58         0.1816
   1245  N9         2.1270  -30.8750   -3.0390 N.ar   58  A58        -0.2693
   1246  OP1        8.2480  -29.4510   -2.4640 O.3    58  A58        -0.4373
   1247  OP2        7.3690  -31.6460   -3.5800 O.co2  58  A58        -0.5172
   1248  P          4.5860  -31.0040    1.7740 P.3    59  U59         0.2141
   1249  C5'        2.1420  -30.9180    2.7470 C.3    59  U59         0.1812
   1250  O5'        3.2520  -31.7530    2.2760 O.3    59  U59        -0.3114
   1251  C4'        0.8440  -31.7100    2.6600 C.3    59  U59         0.1773
   1252  O4'        0.3420  -31.7500    1.3070 O.3    59  U59        -0.3307
   1253  C3'        0.9830  -33.1900    2.9960 C.3    59  U59         0.1860
   1254  O3'        0.9990  -33.4460    4.4050 O.3    59  U59        -0.3112
   1255  C2'       -0.3630  -33.6540    2.4960 C.3    59  U59         0.2309
   1256  O2'       -1.3680  -33.2000    3.3910 O.3    59  U59        -0.2156
   1257  C1'       -0.4540  -32.9220    1.1700 C.3    59  U59         0.2420
   1258  N1         0.0430  -33.7390    0.0300 N.ar   59  U59        -0.2534
   1259  C2        -0.9160  -34.3270   -0.6820 C.ar   59  U59         0.3546
   1260  O2        -2.0630  -34.1760   -0.3550 O.2    59  U59        -0.2443
   1261  N3        -0.5250  -35.0780   -1.7630 N.ar   59  U59        -0.1530
   1262  C4         0.7670  -35.2700   -2.1970 C.ar   59  U59         0.2846
   1263  O4         0.9680  -36.0090   -3.1800 O.2    59  U59        -0.2650
   1264  C5         1.7490  -34.5730   -1.3790 C.ar   59  U59         0.0814
   1265  C6         1.3600  -33.8560   -0.3130 C.ar   59  U59         0.0870
   1266  OP1        5.1990  -30.3270    2.9180 O.3    59  U59        -0.4373
   1267  OP2        5.3930  -31.9090    0.9430 O.co2  59  U59        -0.5172
   1268  P          1.8040  -34.7050    5.0970 P.3    60  G60         0.2141
   1269  C5'       -0.4110  -35.9840    4.7730 C.3    60  G60         0.1812
   1270  O5'        0.9700  -35.9350    4.5960 O.3    60  G60        -0.3114
   1271  C4'       -0.8190  -37.3930    5.1430 C.3    60  G60         0.1773
   1272  O4'       -0.9980  -37.3870    6.5760 O.3    60  G60        -0.3307
   1273  C3'       -2.1780  -37.7750    4.5890 C.3    60  G60         0.1860
   1274  O3'       -2.0440  -38.4350    3.3630 O.3    60  G60        -0.3112
   1275  C2'       -2.7320  -38.6830    5.6710 C.3    60  G60         0.2309
   1276  O2'       -2.1520  -39.9800    5.6410 O.3    60  G60        -0.2156
   1277  C1'       -2.2600  -37.9390    6.9180 C.3    60  G60         0.2408
   1278  N1        -4.0330  -33.0260    7.1670 N.ar   60  G60        -0.1709
   1279  C2        -3.0190  -33.5290    6.3780 C.ar   60  G60         0.2606
   1280  N2        -2.4180  -32.6300    5.5770 N.pl3  60  G60        -0.0859
   1281  N3        -2.6300  -34.8120    6.3760 N.ar   60  G60        -0.1918
   1282  C4        -3.3430  -35.5850    7.2450 C.ar   60  G60         0.1723
   1283  C5        -4.3710  -35.1630    8.0700 C.ar   60  G60         0.1748
   1284  C6        -4.7790  -33.7910    8.0640 C.ar   60  G60         0.3023
   1285  O6        -5.6720  -33.2310    8.7200 O.2    60  G60        -0.2633
   1286  N7        -4.8480  -36.2300    8.8170 N.ar   60  G60        -0.2173
   1287  C8        -4.1270  -37.2480    8.4460 C.ar   60  G60         0.1817
   1288  N9        -3.1930  -36.9490    7.4880 N.ar   60  G60        -0.2693
   1289  OP1        1.6320  -34.6540    6.5400 O.3    60  G60        -0.4373
   1290  OP2        3.1700  -34.8280    4.5880 O.co2  60  G60        -0.5172
   1291  P         -2.8940  -37.8400    2.1520 P.3    61  C61         0.2141
   1292  C5'       -2.6820  -38.7040   -0.3960 C.3    61  C61         0.1812
   1293  O5'       -2.0690  -38.2200    0.8340 O.3    61  C61        -0.3114
   1294  C4'       -1.5380  -39.2370   -1.2280 C.3    61  C61         0.1773
   1295  O4'       -0.4660  -38.2510   -1.3130 O.3    61  C61        -0.3307
   1296  C3'       -0.9060  -40.4230   -0.4960 C.3    61  C61         0.1860
   1297  O3'       -1.5890  -41.6710   -0.7380 O.3    61  C61        -0.3112
   1298  C2'        0.5110  -40.4270   -1.0430 C.3    61  C61         0.2309
   1299  O2'        0.6600  -41.1080   -2.2700 O.3    61  C61        -0.2156
   1300  C1'        0.7790  -38.9540   -1.2330 C.3    61  C61         0.2420
   1301  N1         1.6790  -38.4970   -0.1300 N.ar   61  C61        -0.2535
   1302  C2         2.9310  -39.1430    0.0020 C.ar   61  C61         0.3532
   1303  O2         3.1760  -40.0410   -0.8170 O.2    61  C61        -0.2443
   1304  N3         3.8010  -38.7600    0.9870 N.ar   61  C61        -0.1739
   1305  C4         3.4050  -37.7680    1.8350 C.ar   61  C61         0.1759
   1306  N4         4.2010  -37.3570    2.8260 N.pl3  61  C61        -0.1070
   1307  C5         2.1390  -37.1780    1.7270 C.ar   61  C61         0.0566
   1308  C6         1.3100  -37.5300    0.7380 C.ar   61  C61         0.0850
   1309  OP1       -2.7340  -36.4100    2.2600 O.3    61  C61        -0.4373
   1310  OP2       -4.2390  -38.4380    2.0820 O.co2  61  C61        -0.5172
   1311  P         -1.6000  -42.7590    0.4400 P.3    62  C62         0.2141
   1312  C5'        0.1060  -44.2840   -0.9100 C.3    62  C62         0.1812
   1313  O5'       -0.1520  -43.3950    0.2220 O.3    62  C62        -0.3114
   1314  C4'        1.4980  -44.8460   -0.7330 C.3    62  C62         0.1773
   1315  O4'        2.5200  -43.8140   -0.6940 O.3    62  C62        -0.3307
   1316  C3'        1.6460  -45.6100    0.5680 C.3    62  C62         0.1860
   1317  O3'        1.2360  -46.9250    0.3480 O.3    62  C62        -0.3112
   1318  C2'        3.1460  -45.6360    0.6870 C.3    62  C62         0.2309
   1319  O2'        3.5960  -46.5720   -0.2630 O.3    62  C62        -0.2156
   1320  C1'        3.5230  -44.2350    0.2250 C.3    62  C62         0.2420
   1321  N1         3.6880  -43.2320    1.3370 N.ar   62  C62        -0.2535
   1322  C2         4.9320  -43.1520    1.9620 C.ar   62  C62         0.3532
   1323  O2         5.8200  -43.9330    1.5760 O.2    62  C62        -0.2443
   1324  N3         5.1400  -42.2410    2.9560 N.ar   62  C62        -0.1739
   1325  C4         4.1530  -41.4480    3.3760 C.ar   62  C62         0.1759
   1326  N4         4.4420  -40.5950    4.3550 N.pl3  62  C62        -0.1070
   1327  C5         2.8690  -41.5230    2.7770 C.ar   62  C62         0.0566
   1328  C6         2.6760  -42.4130    1.7640 C.ar   62  C62         0.0850
   1329  OP1       -2.6750  -43.7430    0.2110 O.2    62  C62        -0.5172
   1330  OP2       -1.4960  -42.0930    1.7630 O.co2  62  C62        -0.4373
   1331  P          0.6980  -47.8400    1.5680 P.3    63  U63         0.2141
   1332  C5'        2.9720  -48.9850    1.9900 C.3    63  U63         0.1812
   1333  O5'        2.0670  -47.9750    2.3540 O.3    63  U63        -0.3114
   1334  C4'        4.1430  -48.7720    2.9170 C.3    63  U63         0.1773
   1335  O4'        4.5540  -47.3810    2.8640 O.3    63  U63        -0.3307
   1336  C3'        3.8010  -48.9480    4.3790 C.3    63  U63         0.1860
   1337  O3'        3.7840  -50.3490    4.7760 O.3    63  U63        -0.3112
   1338  C2'        5.0100  -48.2620    4.9940 C.3    63  U63         0.2309
   1339  O2'        6.0880  -49.1560    4.9590 O.3    63  U63        -0.2156
   1340  C1'        5.2370  -47.0630    4.0690 C.3    63  U63         0.2420
   1341  N1         4.5960  -45.8660    4.6950 N.ar   63  U63        -0.2534
   1342  C2         5.2960  -45.1510    5.6070 C.ar   63  U63         0.3546
   1343  O2         6.4340  -45.4610    5.9190 O.2    63  U63        -0.2443
   1344  N3         4.6220  -44.0800    6.1440 N.ar   63  U63        -0.1530
   1345  C4         3.3240  -43.6950    5.8170 C.ar   63  U63         0.2846
   1346  O4         2.8200  -42.7380    6.3490 O.2    63  U63        -0.2650
   1347  C5         2.6480  -44.5100    4.8440 C.ar   63  U63         0.0814
   1348  C6         3.3200  -45.5310    4.3450 C.ar   63  U63         0.0870
   1349  OP1        0.2610  -49.0770    0.9100 O.2    63  U63        -0.5172
   1350  OP2       -0.2810  -47.2330    2.5140 O.co2  63  U63        -0.4373
   1351  P          3.2920  -50.7650    6.2460 P.3    64  G64         0.2141
   1352  C5'        4.4580  -50.3410    8.5430 C.3    64  G64         0.1812
   1353  O5'        4.5350  -50.3470    7.1390 O.3    64  G64        -0.3114
   1354  C4'        5.7560  -49.7190    9.0190 C.3    64  G64         0.1773
   1355  O4'        5.9300  -48.4960    8.2730 O.3    64  G64        -0.3307
   1356  C3'        5.7380  -49.2980   10.4670 C.3    64  G64         0.1860
   1357  O3'        6.1830  -50.4050   11.2900 O.3    64  G64        -0.3112
   1358  C2'        6.6440  -48.0840   10.4160 C.3    64  G64         0.2309
   1359  O2'        7.9820  -48.3200   10.1170 O.3    64  G64        -0.2156
   1360  C1'        6.2210  -47.4210    9.1160 C.3    64  G64         0.2408
   1361  N1         4.3900  -43.0080   10.9930 N.ar   64  G64        -0.1709
   1362  C2         5.5380  -43.7210   11.2740 C.ar   64  G64         0.2606
   1363  N2         6.3430  -43.2330   12.1870 N.pl3  64  G64        -0.0859
   1364  N3         5.8900  -44.8800   10.7340 N.ar   64  G64        -0.1918
   1365  C4         4.9920  -45.3020    9.8520 C.ar   64  G64         0.1723
   1366  C5         3.8120  -44.6730    9.4710 C.ar   64  G64         0.1748
   1367  C6         3.4320  -43.4120   10.0620 C.ar   64  G64         0.3023
   1368  O6         2.3730  -42.7660    9.8470 O.2    64  G64        -0.2633
   1369  N7         3.1450  -45.4180    8.4880 N.ar   64  G64        -0.2173
   1370  C8         3.9790  -46.4180    8.3430 C.ar   64  G64         0.1817
   1371  N9         5.1080  -46.4150    9.1140 N.ar   64  G64        -0.2693
   1372  OP1        3.1460  -52.2720    6.3550 O.2    64  G64        -0.5172
   1373  OP2        2.1330  -49.8680    6.5000 O.co2  64  G64        -0.4373
   1374  P          5.1900  -50.9830   12.4380 P.3    65  C65         0.2141
   1375  C5'        6.2420  -49.0740   13.9840 C.3    65  C65         0.1812
   1376  O5'        5.0840  -49.7330   13.4740 O.3    65  C65        -0.3114
   1377  C4'        5.8300  -47.7420   14.6020 C.3    65  C65         0.1773
   1378  O4'        5.5680  -46.6970   13.5790 O.3    65  C65        -0.3307
   1379  C3'        4.5540  -47.7830   15.4600 C.3    65  C65         0.1860
   1380  O3'        4.9490  -48.1150   16.7740 O.3    65  C65        -0.3112
   1381  C2'        4.1090  -46.3050   15.3580 C.3    65  C65         0.2309
   1382  O2'        4.9250  -45.4220   16.1330 O.3    65  C65        -0.2156
   1383  C1'        4.3910  -45.9740   13.8900 C.3    65  C65         0.2420
   1384  N1         3.2630  -46.1950   12.8880 N.ar   65  C65        -0.2535
   1385  C2         2.3240  -45.1730   12.8300 C.ar   65  C65         0.3532
   1386  O2         2.4510  -44.1520   13.5780 O.2    65  C65        -0.2443
   1387  N3         1.2800  -45.3210   11.9900 N.ar   65  C65        -0.1739
   1388  C4         1.1220  -46.3380   11.1680 C.ar   65  C65         0.1759
   1389  N4         0.0180  -46.2800   10.3860 N.pl3  65  C65        -0.1070
   1390  C5         2.0420  -47.4570   11.2290 C.ar   65  C65         0.0566
   1391  C6         3.0800  -47.3060   12.0980 C.ar   65  C65         0.0850
   1392  OP1        5.9060  -51.9870   13.1920 O.3    65  C65        -0.4373
   1393  OP2        3.9080  -51.3070   11.8120 O.co2  65  C65        -0.5172
   1394  P          3.9710  -48.8360   17.7840 P.3    66  G66         0.2141
   1395  C5'        2.6320  -50.9670   17.6620 C.3    66  G66         0.1812
   1396  O5'        3.3680  -50.0090   16.9140 O.3    66  G66        -0.3114
   1397  C4'        1.7120  -51.5980   16.6790 C.3    66  G66         0.1773
   1398  O4'        0.6640  -50.6310   16.4030 O.3    66  G66        -0.3307
   1399  C3'        2.3320  -51.9880   15.3280 C.3    66  G66         0.1860
   1400  O3'        1.6140  -53.1580   14.8550 O.3    66  G66        -0.3112
   1401  C2'        1.9960  -50.7520   14.4390 C.3    66  G66         0.2309
   1402  O2'        1.7890  -51.0730   13.0780 O.3    66  G66        -0.2156
   1403  C1'        0.6440  -50.2850   14.9910 C.3    66  G66         0.2408
   1404  N1        -1.9250  -46.4950   12.5170 N.ar   66  G66        -0.1709
   1405  C2        -1.8680  -47.8720   12.2280 C.ar   66  G66         0.2606
   1406  N2        -2.5510  -48.4340   11.1580 N.pl3  66  G66        -0.0859
   1407  N3        -1.1470  -48.6640   12.9610 N.ar   66  G66        -0.1918
   1408  C4        -0.4810  -48.1700   14.0060 C.ar   66  G66         0.1723
   1409  C5        -0.4320  -46.8630   14.3630 C.ar   66  G66         0.1748
   1410  C6        -1.1830  -45.9290   13.5800 C.ar   66  G66         0.3023
   1411  O6        -1.2420  -44.7210   13.8530 O.2    66  G66        -0.2633
   1412  N7         0.4130  -46.6910   15.4820 N.ar   66  G66        -0.2173
   1413  C8         0.8190  -47.9070   15.7630 C.ar   66  G66         0.1817
   1414  N9         0.3240  -48.8550   14.9130 N.ar   66  G66        -0.2693
   1415  OP1        2.7480  -47.9870   18.0940 O.2    66  G66        -0.5172
   1416  OP2        4.7950  -49.4790   18.8180 O.co2  66  G66        -0.4373
   1417  P          2.2690  -54.6380   14.5950 P.3    67  C67         0.2141
   1418  C5'        2.6400  -54.8990   17.0590 C.3    67  C67         0.1812
   1419  O5'        1.9470  -55.3730   15.9390 O.3    67  C67        -0.3114
   1420  C4'        2.1880  -55.6560   18.3010 C.3    67  C67         0.1773
   1421  O4'        2.2670  -57.1560   18.2600 O.3    67  C67        -0.3307
   1422  C3'        3.1550  -55.1820   19.3200 C.3    67  C67         0.1860
   1423  O3'        2.3360  -54.8560   20.4330 O.3    67  C67        -0.3112
   1424  C2'        4.1050  -56.3710   19.4720 C.3    67  C67         0.2309
   1425  O2'        4.7010  -56.3490   20.7600 O.3    67  C67        -0.2156
   1426  C1'        3.2380  -57.6190   19.1910 C.3    67  C67         0.2420
   1427  N1         4.0390  -58.7220   18.5500 N.ar   67  C67        -0.2535
   1428  C2         3.9800  -60.0360   19.0400 C.ar   67  C67         0.3532
   1429  O2         3.2300  -60.3370   19.9800 O.2    67  C67        -0.2443
   1430  N3         4.7790  -60.9760   18.4650 N.ar   67  C67        -0.1739
   1431  C4         5.5750  -60.7290   17.4440 C.ar   67  C67         0.1759
   1432  N4         6.2270  -61.7930   16.9550 N.pl3  67  C67        -0.1070
   1433  C5         5.6860  -59.4030   16.8990 C.ar   67  C67         0.0566
   1434  C6         4.8920  -58.4480   17.4810 C.ar   67  C67         0.0850
   1435  OP1        3.7490  -54.4680   14.5520 O.3    67  C67        -0.4373
   1436  OP2        1.3000  -55.3830   13.6800 O.co2  67  C67        -0.5172
   1437  P          2.6970  -53.5300   21.2250 P.3    68  A68         0.2141
   1438  C5'        0.4220  -52.2180   21.0440 C.3    68  A68         0.1812
   1439  O5'        1.6620  -52.5740   20.4350 O.3    68  A68        -0.3114
   1440  C4'        0.5230  -50.8260   21.6350 C.3    68  A68         0.1773
   1441  O4'        0.9230  -49.7800   20.7050 O.3    68  A68        -0.3307
   1442  C3'       -0.7980  -50.3220   22.1710 C.3    68  A68         0.1860
   1443  O3'       -0.8250  -50.9330   23.4120 O.3    68  A68        -0.3112
   1444  C2'       -0.5280  -48.8170   22.3070 C.3    68  A68         0.2309
   1445  O2'        0.1740  -48.4800   23.4760 O.3    68  A68        -0.2156
   1446  C1'        0.3560  -48.5270   21.1190 C.3    68  A68         0.2408
   1447  N1        -2.2570  -44.8790   18.6140 N.ar   68  A68        -0.2040
   1448  C2        -1.5530  -44.8040   19.7290 C.ar   68  A68         0.2016
   1449  N3        -0.8790  -45.7560   20.3590 N.ar   68  A68        -0.2048
   1450  C4        -1.0190  -46.9270   19.7060 C.ar   68  A68         0.1692
   1451  C5        -1.6710  -47.1520   18.5070 C.ar   68  A68         0.1518
   1452  C6        -2.2900  -46.0180   17.9240 C.ar   68  A68         0.1919
   1453  N6        -2.9960  -46.0530   16.7990 N.pl3  68  A68        -0.1054
   1454  N7        -1.5820  -48.4920   18.0890 N.ar   68  A68        -0.2193
   1455  C8        -0.8470  -49.0110   19.0090 C.ar   68  A68         0.1816
   1456  N9        -0.4460  -48.1150   19.9830 N.ar   68  A68        -0.2693
   1457  OP1        4.0860  -53.0080   20.9090 O.2    68  A68        -0.5172
   1458  OP2        2.1760  -53.7830   22.5940 O.co2  68  A68        -0.4373
   1459  P         -2.2080  -51.2850   24.0880 P.3    69  G69         0.2141
   1460  C5'       -3.0050  -49.0550   25.2260 C.3    69  G69         0.1812
   1461  O5'       -3.0140  -49.8920   24.1060 O.3    69  G69        -0.3114
   1462  C4'       -3.5760  -47.6950   24.8370 C.3    69  G69         0.1773
   1463  O4'       -3.1720  -47.2260   23.5290 O.3    69  G69        -0.3307
   1464  C3'       -5.0760  -47.7430   24.6540 C.3    69  G69         0.1860
   1465  O3'       -5.6930  -47.8760   25.9130 O.3    69  G69        -0.3112
   1466  C2'       -5.3240  -46.3680   24.0890 C.3    69  G69         0.2309
   1467  O2'       -5.3370  -45.4510   25.1660 O.3    69  G69        -0.2156
   1468  C1'       -4.1110  -46.2000   23.1570 C.3    69  G69         0.2408
   1469  N1        -6.5520  -44.7180   18.8440 N.ar   69  G69        -0.1709
   1470  C2        -6.3680  -44.0000   20.0180 C.ar   69  G69         0.2606
   1471  N2        -6.9110  -42.7520   20.0920 N.pl3  69  G69        -0.0859
   1472  N3        -5.7160  -44.4920   21.0730 N.ar   69  G69        -0.1918
   1473  C4        -5.2480  -45.7150   20.9200 C.ar   69  G69         0.1723
   1474  C5        -5.3710  -46.4940   19.7990 C.ar   69  G69         0.1748
   1475  C6        -6.0280  -45.9980   18.6730 C.ar   69  G69         0.3023
   1476  O6        -6.2050  -46.6110   17.6300 O.2    69  G69        -0.2633
   1477  N7        -4.7470  -47.7040   19.9360 N.ar   69  G69        -0.2173
   1478  C8        -4.2710  -47.6540   21.1540 C.ar   69  G69         0.1817
   1479  N9        -4.5150  -46.4370   21.8000 N.ar   69  G69        -0.2693
   1480  OP1       -1.7870  -51.6120   25.4740 O.3    69  G69        -0.4373
   1481  OP2       -3.0620  -52.1790   23.3140 O.co2  69  G69        -0.5172
   1482  P         -7.1690  -48.4820   25.9940 P.3    70  G70         0.2141
   1483  C5'       -9.4180  -47.4510   24.7890 C.3    70  G70         0.1812
   1484  O5'       -8.0890  -47.3330   25.3960 O.3    70  G70        -0.3114
   1485  C4'       -9.7570  -46.0820   24.1350 C.3    70  G70         0.1773
   1486  O4'       -8.7300  -45.7930   23.1500 O.3    70  G70        -0.3307
   1487  C3'      -11.0100  -46.0880   23.2930 C.3    70  G70         0.1860
   1488  O3'      -12.1480  -45.8200   24.0280 O.3    70  G70        -0.3112
   1489  C2'      -10.7670  -45.0720   22.1790 C.3    70  G70         0.2309
   1490  O2'      -11.0260  -43.7000   22.3850 O.3    70  G70        -0.2156
   1491  C1'       -9.2800  -45.2570   21.9420 C.3    70  G70         0.2408
   1492  N1        -9.9850  -45.9550   16.9010 N.ar   70  G70        -0.1709
   1493  C2       -10.3710  -44.8850   17.6990 C.ar   70  G70         0.2606
   1494  N2       -11.0490  -43.9540   17.0200 N.pl3  70  G70        -0.0859
   1495  N3       -10.1530  -44.8080   19.0040 N.ar   70  G70        -0.1918
   1496  C4        -9.4640  -45.8930   19.4580 C.ar   70  G70         0.1723
   1497  C5        -9.0270  -46.9850   18.7230 C.ar   70  G70         0.1748
   1498  C6        -9.2680  -47.0420   17.3280 C.ar   70  G70         0.3023
   1499  O6        -8.9710  -47.9110   16.4690 O.2    70  G70        -0.2633
   1500  N7        -8.3710  -47.8680   19.5550 N.ar   70  G70        -0.2173
   1501  C8        -8.3990  -47.3310   20.7580 C.ar   70  G70         0.1817
   1502  N9        -9.0670  -46.1390   20.7780 N.ar   70  G70        -0.2693
   1503  OP1       -7.4880  -48.6760   27.4620 O.3    70  G70        -0.4373
   1504  OP2       -7.2070  -49.6340   25.0840 O.co2  70  G70        -0.5172
   1505  P        -13.4570  -46.7480   23.8560 P.3    71  G71         0.2141
   1506  C5'      -14.1100  -44.9430   21.9540 C.3    71  G71         0.1812
   1507  O5'      -14.2960  -46.2160   22.5890 O.3    71  G71        -0.3114
   1508  C4'      -14.5260  -45.0020   20.4840 C.3    71  G71         0.1773
   1509  O4'      -13.3110  -45.1740   19.6890 O.3    71  G71        -0.3307
   1510  C3'      -15.4580  -46.1500   20.0160 C.3    71  G71         0.1860
   1511  O3'      -16.8910  -45.8110   20.1100 O.3    71  G71        -0.3112
   1512  C2'      -15.0190  -46.3560   18.5500 C.3    71  G71         0.2309
   1513  O2'      -15.5880  -45.5200   17.5740 O.3    71  G71        -0.2156
   1514  C1'      -13.5520  -46.0130   18.5570 C.3    71  G71         0.2408
   1515  N1       -11.3750  -49.9010   16.1830 N.ar   71  G71        -0.1709
   1516  C2       -12.0600  -48.8800   15.5940 C.ar   71  G71         0.2606
   1517  N2       -12.1410  -48.9110   14.2270 N.pl3  71  G71        -0.0859
   1518  N3       -12.6010  -47.8770   16.3260 N.ar   71  G71        -0.1918
   1519  C4       -12.3850  -48.0500   17.6700 C.ar   71  G71         0.1723
   1520  C5       -11.7430  -49.0670   18.3090 C.ar   71  G71         0.1748
   1521  C6       -11.1840  -50.1180   17.5530 C.ar   71  G71         0.3023
   1522  O6       -10.5760  -51.1140   18.0010 O.2    71  G71        -0.2633
   1523  N7       -11.7630  -48.8940   19.6770 N.ar   71  G71        -0.2173
   1524  C8       -12.4230  -47.7990   19.8810 C.ar   71  G71         0.1817
   1525  N9       -12.7940  -47.2270   18.6990 N.ar   71  G71        -0.2693
   1526  OP1      -14.2920  -46.3640   25.0150 O.3    71  G71        -0.4373
   1527  OP2      -13.0450  -48.1570   23.5350 O.co2  71  G71        -0.5172
   1528  P        -17.9410  -46.4940   21.1580 P.3    72  A72         0.2141
   1529  C5'      -20.0090  -45.8390   19.8510 C.3    72  A72         0.1812
   1530  O5'      -19.1880  -46.9630   20.2770 O.3    72  A72        -0.3114
   1531  C4'      -20.9450  -46.2330   18.7330 C.3    72  A72         0.1773
   1532  O4'      -20.2770  -45.9440   17.4780 O.3    72  A72        -0.3307
   1533  C3'      -21.3060  -47.7140   18.7140 C.3    72  A72         0.1860
   1534  O3'      -22.5440  -47.9510   19.4520 O.3    72  A72        -0.3112
   1535  C2'      -21.4480  -47.9600   17.2060 C.3    72  A72         0.2309
   1536  O2'      -22.6640  -47.4500   16.6660 O.3    72  A72        -0.2156
   1537  C1'      -20.3200  -47.0970   16.6410 C.3    72  A72         0.2408
   1538  N1       -16.7000  -48.9230   13.4450 N.ar   72  A72        -0.2040
   1539  C2       -17.8610  -48.2820   13.2070 C.ar   72  A72         0.2016
   1540  N3       -18.7650  -47.8490   14.0990 N.ar   72  A72        -0.2048
   1541  C4       -18.3810  -48.1280   15.3740 C.ar   72  A72         0.1692
   1542  C5       -17.2330  -48.7530   15.7650 C.ar   72  A72         0.1518
   1543  C6       -16.3840  -49.1760   14.7160 C.ar   72  A72         0.1919
   1544  N6       -15.2280  -49.7880   14.9100 N.pl3  72  A72        -0.1054
   1545  N7       -17.1660  -48.8370   17.1690 N.ar   72  A72        -0.2193
   1546  C8       -18.2610  -48.2600   17.5920 C.ar   72  A72         0.1816
   1547  N9       -19.0260  -47.7900   16.5570 N.ar   72  A72        -0.2693
   1548  OP1      -18.4220  -45.2530   21.8290 O.2    72  A72        -0.5172
   1549  OP2      -17.3660  -47.6230   21.9180 O.co2  72  A72        -0.4373
   1550  P        -22.7020  -49.2600   20.4090 P.3    73  G73         0.2141
   1551  C5'      -23.1090  -51.0350   18.4410 C.3    73  G73         0.1812
   1552  O5'      -22.2920  -50.4870   19.4630 O.3    73  G73        -0.3114
   1553  C4'      -23.8310  -52.3130   18.8790 C.3    73  G73         0.1773
   1554  O4'      -24.7170  -52.6260   17.7740 O.3    73  G73        -0.3307
   1555  C3'      -23.0110  -53.5800   19.1950 C.3    73  G73         0.1860
   1556  O3'      -23.4270  -54.2860   20.4200 O.3    73  G73        -0.3112
   1557  C2'      -23.2530  -54.4780   17.9840 C.3    73  G73         0.2309
   1558  O2'      -23.4820  -55.8020   18.3960 O.3    73  G73        -0.2156
   1559  C1'      -24.5380  -53.9580   17.3450 C.3    73  G73         0.2408
   1560  N1       -27.1490  -53.0540   13.0740 N.ar   73  G73        -0.1709
   1561  C2       -27.5620  -52.9860   14.3800 C.ar   73  G73         0.2606
   1562  N2       -28.8260  -52.6080   14.5660 N.pl3  73  G73        -0.0859
   1563  N3       -26.7960  -53.2500   15.4240 N.ar   73  G73        -0.1918
   1564  C4       -25.5430  -53.5860   15.0560 C.ar   73  G73         0.1723
   1565  C5       -25.0260  -53.6930   13.7950 C.ar   73  G73         0.1748
   1566  C6       -25.8520  -53.4060   12.6840 C.ar   73  G73         0.3023
   1567  O6       -25.5320  -53.4440   11.4910 O.2    73  G73        -0.2633
   1568  N7       -23.6930  -54.0720   13.8250 N.ar   73  G73        -0.2173
   1569  C8       -23.4250  -54.1890   15.0940 C.ar   73  G73         0.1817
   1570  N9       -24.5050  -53.9160   15.8930 N.ar   73  G73        -0.2693
   1571  OP1      -24.1080  -49.3570   20.8630 O.2    73  G73        -0.5172
   1572  OP2      -21.6340  -49.2800   21.4330 O.co2  73  G73        -0.4373
   1573  P        -22.4390  -54.6050   21.6690 P.3    74  U74         0.2141
   1574  C5'      -24.1210  -56.6080   22.3460 C.3    74  U74         0.1812
   1575  O5'      -23.3260  -55.4600   22.6970 O.3    74  U74        -0.3114
   1576  C4'      -23.5230  -57.5430   21.2930 C.3    74  U74         0.1773
   1577  O4'      -22.0760  -57.6660   21.3830 O.3    74  U74        -0.3307
   1578  C3'      -23.9940  -58.9980   21.3740 C.3    74  U74         0.1860
   1579  O3'      -25.3870  -59.1740   20.9340 O.3    74  U74        -0.3112
   1580  C2'      -22.8830  -59.7920   20.6310 C.3    74  U74         0.2309
   1581  O2'      -23.1570  -60.2470   19.3090 O.3    74  U74        -0.2156
   1582  C1'      -21.7100  -58.7990   20.6000 C.3    74  U74         0.2420
   1583  N1       -20.4110  -59.3930   21.0820 N.ar   74  U74        -0.2534
   1584  C2       -19.4130  -59.6220   20.1590 C.ar   74  U74         0.3546
   1585  O2       -19.5530  -59.3640   18.9790 O.2    74  U74        -0.2443
   1586  N3       -18.2520  -60.1660   20.6610 N.ar   74  U74        -0.1530
   1587  C4       -17.9980  -60.5000   21.9760 C.ar   74  U74         0.2846
   1588  O4       -16.9130  -60.9850   22.2830 O.2    74  U74        -0.2650
   1589  C5       -19.0870  -60.2390   22.8850 C.ar   74  U74         0.0814
   1590  C6       -20.2290  -59.7090   22.4180 C.ar   74  U74         0.0870
   1591  OP1      -22.1830  -53.3180   22.3480 O.3    74  U74        -0.4373
   1592  OP2      -21.2590  -55.3780   21.1960 O.co2  74  U74        -0.5172
   1593  P        -25.9750  -58.9870   19.4370 P.3    75  G75         0.2141
   1594  C5'      -27.9190  -57.4740   20.3130 C.3    75  G75         0.1812
   1595  O5'      -26.7250  -57.5740   19.5260 O.3    75  G75        -0.3114
   1596  C4'      -29.1300  -57.2310   19.4260 C.3    75  G75         0.1773
   1597  O4'      -28.8340  -56.1470   18.5010 O.3    75  G75        -0.3307
   1598  C3'      -29.5530  -58.3520   18.4940 C.3    75  G75         0.1860
   1599  O3'      -30.2560  -59.3610   19.2290 O.3    75  G75        -0.3112
   1600  C2'      -30.4720  -57.5140   17.6040 C.3    75  G75         0.2309
   1601  O2'      -31.6230  -57.0940   18.3060 O.3    75  G75        -0.2156
   1602  C1'      -29.5980  -56.2940   17.3190 C.3    75  G75         0.2408
   1603  N1       -29.0500  -56.1240   12.2370 N.ar   75  G75        -0.1709
   1604  C2       -30.1810  -55.8970   13.0000 C.ar   75  G75         0.2606
   1605  N2       -31.3140  -55.5880   12.3500 N.pl3  75  G75        -0.0859
   1606  N3       -30.2030  -55.9560   14.3270 N.ar   75  G75        -0.1918
   1607  C4       -28.9830  -56.2880   14.8400 C.ar   75  G75         0.1723
   1608  C5       -27.7990  -56.5420   14.1620 C.ar   75  G75         0.1748
   1609  C6       -27.7850  -56.4620   12.7450 C.ar   75  G75         0.3023
   1610  O6       -26.8170  -56.6550   11.9870 O.2    75  G75        -0.2633
   1611  N7       -26.7640  -56.8370   15.0560 N.ar   75  G75        -0.2173
   1612  C8       -27.3370  -56.7670   16.2300 C.ar   75  G75         0.1817
   1613  N9       -28.6800  -56.4420   16.1840 N.ar   75  G75        -0.2693
   1614  OP1      -27.0370  -60.0160   19.2480 O.3    75  G75        -0.4373
   1615  OP2      -24.8470  -58.8810   18.4770 O.co2  75  G75        -0.5172
   1616  P        -30.4990  -60.8680   18.6870 P.3    76  U76         0.2141
   1617  C5'      -32.7010  -60.0380   17.4040 C.3    76  U76         0.1812
   1618  O5'      -31.4260  -60.7000   17.3810 O.3    76  U76        -0.3114
   1619  C4'      -33.2310  -59.8690   15.9850 C.3    76  U76         0.1773
   1620  O4'      -32.6250  -58.7440   15.2500 O.3    76  U76        -0.3307
   1621  C3'      -32.9480  -61.0680   15.0890 C.3    76  U76         0.1860
   1622  O3'      -33.7460  -62.2420   15.4540 O.3    76  U76        -0.3112
   1623  C2'      -33.2440  -60.4260   13.7220 C.3    76  U76         0.2309
   1624  O2'      -34.6160  -60.2050   13.4300 O.3    76  U76        -0.2156
   1625  C1'      -32.5000  -59.0930   13.8670 C.3    76  U76         0.2420
   1626  N1       -31.0680  -59.3100   13.4260 N.ar   76  U76        -0.2534
   1627  C2       -30.7230  -59.2540   12.0760 C.ar   76  U76         0.3546
   1628  O2       -31.5110  -58.9950   11.1710 O.2    76  U76        -0.2443
   1629  N3       -29.3880  -59.5070   11.8160 N.ar   76  U76        -0.1530
   1630  C4       -28.3800  -59.8110   12.7270 C.ar   76  U76         0.2846
   1631  O4       -27.2200  -60.0150   12.3560 O.2    76  U76        -0.2650
   1632  C5       -28.8220  -59.8630   14.0920 C.ar   76  U76         0.0814
   1633  C6       -30.1120  -59.6230   14.3740 C.ar   76  U76         0.0870
   1634  OP1      -31.2980  -61.5740   19.7180 O.3    76  U76        -0.4373
   1635  OP2      -29.1860  -61.4200   18.2740 O.co2  76  U76        -0.5172
   1636  P        -33.1250  -63.7370   15.4490 P.3    77  C77         0.2141
   1637  C5'      -35.0040  -64.3690   13.7640 C.3    77  C77         0.1813
   1638  O5'      -33.6130  -64.3010   14.0370 O.3    77  C77        -0.3114
   1639  C4'      -35.2570  -63.8870   12.3470 C.3    77  C77         0.1801
   1640  O4'      -34.3570  -62.7780   12.0940 O.3    77  C77        -0.3306
   1641  C3'      -34.9210  -64.8220   11.1870 C.3    77  C77         0.2161
   1642  O3'      -35.9190  -65.8300   10.9760 O.3    77  C77        -0.2175
   1643  C2'      -34.9130  -63.7910   10.0610 C.3    77  C77         0.2338
   1644  O2'      -36.1970  -63.2190    9.8450 O.3    77  C77        -0.2155
   1645  C1'      -34.0600  -62.7040   10.7050 C.3    77  C77         0.2421
   1646  N1       -32.5480  -62.6650   10.5450 N.ar   77  C77        -0.2535
   1647  C2       -31.8890  -62.5820    9.3000 C.ar   77  C77         0.3532
   1648  O2       -32.5310  -62.5880    8.2450 O.2    77  C77        -0.2443
   1649  N3       -30.5320  -62.5120    9.2710 N.ar   77  C77        -0.1739
   1650  C4       -29.8340  -62.5060   10.4120 C.ar   77  C77         0.1759
   1651  N4       -28.4980  -62.4350   10.3490 N.pl3  77  C77        -0.1070
   1652  C5       -30.4860  -62.5730   11.6770 C.ar   77  C77         0.0566
   1653  C6       -31.8180  -62.6430   11.6980 C.ar   77  C77         0.0850
   1654  OP1      -33.7980  -64.5660   16.4840 O.3    77  C77        -0.4373
   1655  OP2      -31.6450  -63.6210   15.4520 O.co2  77  C77        -0.5172
@<TRIPOS>BOND
     1   540   519    2
     2   504   503    1
     3   502   519    1
     4   502   501    1
     5   520   522    1
     6   520   521    1
     7   517   496    2
     8   497   499    1
     9   497   498    1
    10   482   481    1
    11   499   501    1
    12   499   500    1
    13   560   542    2
    14   519   521    1
    15   519   541    1
    16   522   523    1
    17   522   524    1
    18   501   503    1
    19   480   496    1
    20   480   479    1
    21   525   542    1
    22   525   524    1
    23   503   505    1
    24   500   505    1
    25   496   498    1
    26   496   518    1
    27   357   356    1
    28   523   528    1
    29   542   561    1
    30   542   544    1
    31   481   479    1
    32   481   483    1
    33   505   516    1
    34   524   526    1
    35   477   479    1
    36   477   475    1
    37   477   478    1
    38   527   526    1
    39   391   372    2
    40   483   478    1
    41   483   493    1
    42   475   476    1
    43   526   528    1
    44   353   352    1
    45   353   358    1
    46   528   539    1
    47   352   350    1
    48   352   354    1
    49   543   544    1
    50   543   545    1
    51   356   358    1
    52   356   354    1
    53   387   386    2
    54   355   372    1
    55   355   354    1
    56   358   369    1
    57   390   372    1
    58   337   336    1
    59   580   562    2
    60   516   510   ar
    61   516   515   ar
    62   372   374    1
    63   486   485   ar
    64   486   487   ar
    65   388   386   ar
    66   388   389   ar
    67   350   351    1
    68   581   562    1
    69   509   510   ar
    70   509   507   ar
    71   462   461    1
    72  1224  1204    2
    73   386   385   ar
    74   538   539   ar
    75   538   537   ar
    76   539   533   ar
    77   476   474    1
    78   493   487   ar
    79   493   492   ar
    80   494   474    2
    81   485   484   ar
    82   510   511   ar
    83   562   548    1
    84   562   564    1
    85   361   360    1
    86   362   360   ar
    87   362   363   ar
    88   515   514   ar
    89   545   547    1
    90   545   546    1
    91   487   488   ar
    92   548   547    1
    93   341   340    2
    94   389   382   ar
    95   508   507    1
    96   336   338    1
    97   336   334    1
    98   369   363   ar
    99   369   368   ar
   100   507   506   ar
   101   547   549    1
   102   360   359   ar
   103   466   465    2
   104   338   333    1
   105   338   339    1
   106   474   460    1
   107   474   495    1
   108   351   349    1
   109   363   364   ar
   110   461   459    1
   111   461   463    1
   112   374   373    1
   113   537   534   ar
   114   460   459    1
   115   442   443   ar
   116   442   447   ar
   117  1221  1222   ar
   118  1221  1218   ar
   119   335   334    1
   120   335   349    1
   121   448   447    1
   122   492   491   ar
   123   385   383   ar
   124   333   332    1
   125   533   532   ar
   126   533   534   ar
   127  1204  1190    1
   128  1204  1225    1
   129  1204  1206    1
   130   546   551    1
   131   484   489   ar
   132  1222  1223   ar
   133   511   514   ar
   134   511   512   ar
   135   332   334    1
   136   332   330    1
   137  1220  1219    1
   138   564   563    1
   139   340   339   ar
   140   340   342   ar
   141   368   367   ar
   142   370   349    2
   143   488   491   ar
   144   488   489   ar
   145   373   375    1
   146   443   444   ar
   147  1205  1206    1
   148  1205  1207    1
   149   382   383   ar
   150   382   381    1
   151   349   371    1
   152   532   530   ar
   153  1190  1189    1
   154   447   446   ar
   155   459   457    1
   156   604   582    2
   157  1218  1219   ar
   158  1218  1217   ar
   159   463   464    1
   160   463   458    1
   161  1208  1207    1
   162  1208  1213    1
   163   534   535   ar
   164   339   346   ar
   165   559   558   ar
   166   559   552   ar
   167  1202  1184    2
   168   506   512   ar
   169   465   464   ar
   170   465   467   ar
   171  1219  1214   ar
   172   359   365   ar
   173   489   490    1
   174   383   384    2
   175   364   367   ar
   176   364   365   ar
   177  1223  1217   ar
   178  1223  1213    1
   179   549   551    1
   180   549   550    1
   181   407   406    2
   182   563   565    1
   183   376   381    1
   184   376   375    1
   185   558   556   ar
   186   512   513    2
   187   551   552    1
   188   342   343   ar
   189  1207  1209    1
   190  1217  1216   ar
   191   457   458    1
   192   457   455    1
   193   330   331    1
   194   464   471   ar
   195   467   468   ar
   196  1213  1211    1
   197   381   379    1
   198   375   377    1
   199   552   553   ar
   200  1214  1215   ar
   201  1185  1187    1
   202  1185  1186    1
   203   365   366    2
   204   444   445   ar
   205   582   603    1
   206   582   568    1
   207   582   584    1
   208   648   627    2
   209   530   531    1
   210   530   529   ar
   211   446   445   ar
   212   446   449   ar
   213  1189  1187    1
   214  1189  1191    1
   215   379   377    1
   216   379   380    1
   217   535   529   ar
   218   535   536    2
   219   346   345   ar
   220  1187  1188    1
   221   406   408   ar
   222   406   405   ar
   223  1216  1215   ar
   224  1184  1186    1
   225  1184  1167    1
   226  1184  1203    1
   227   317   316    1
   228  1242  1241    1
   229   568   567    1
   230  1192  1191    1
   231   578   579   ar
   232   578   576   ar
   233   408   409   ar
   234   321   320    2
   235   445   451   ar
   236   565   567    1
   237   565   566    1
   238   567   569    1
   239   556   557    1
   240   556   555   ar
   241   626   605    2
   242   377   378    1
   243   599   598    2
   244   579   572   ar
   245   331   329    1
   246   343   345   ar
   247   343   344    2
   248  1209  1211    1
   249  1209  1210    1
   250   455   456    1
   251   471   470   ar
   252   468   470   ar
   253   468   469    1
   254   600   601   ar
   255   600   597   ar
   256  1167  1166    1
   257  1212  1211    1
   258  1191  1193    1
   259   427   426    1
   260   737   716    2
   261   449   450   ar
   262   553   555   ar
   263   553   554    2
   264   584   583    1
   265  1241  1236   ar
   266  1241  1240   ar
   267   627   611    1
   268   627   649    1
   269   627   629    1
   270   566   571    1
   271   405   403   ar
   272   606   608    1
   273   606   607    1
   274   577   576    2
   275   611   610    1
   276   316   318    1
   277   316   314    1
   278   576   575   ar
   279   601   602   ar
   280  1236  1237   ar
   281  1188  1193    1
   282  1210  1226    1
   283   598   597   ar
   284   598   592   ar
   285   320   322   ar
   286   320   319   ar
   287   409   402   ar
   288   456   454    1
   289  1243  1240   ar
   290  1243  1244   ar
   291   597   596   ar
   292  1169  1168    1
   293  1240  1239   ar
   294   451   450   ar
   295   451   441    1
   296   572   571    1
   297   572   573   ar
   298   671   650    2
   299   318   319    1
   300   318   313    1
   301   569   571    1
   302   569   570    1
   303   378   392    1
   304   605   607    1
   305   605   625    1
   306   605   588    1
   307   608   610    1
   308   608   609    1
   309  1193  1194    1
   310   426   425   ar
   311   426   428   ar
   312   724   723    1
   313   329   315    1
   314   329   347    2
   315   329   348    1
   316   411   392    2
   317   583   585    1
   318   720   719    1
   319   720   725    1
   320   315   314    1
   321   322   323   ar
   322   718   716    1
   323   718   717    1
   324  1166  1168    1
   325  1166  1164    1
   326   716   700    1
   327   716   738    1
   328   425   423   ar
   329   629   628    1
   330   719   717    1
   331   719   721    1
   332   628   630    1
   333   439   440    1
   334   439   441    1
   335   439   437    1
   336  1237  1238   ar
   337   610   612    1
   338   319   326   ar
   339   403   402   ar
   340   403   404    2
   341  1244  1245   ar
   342  1247  1226    2
   343   722   721    1
   344   722   739    1
   345   314   312    1
   346   700   699    1
   347  1168  1170    1
   348   402   401    1
   349   575   573   ar
   350  1239  1238   ar
   351  1239  1245   ar
   352  1164  1162    1
   353  1164  1165    1
   354   587   588    1
   355   587   585    1
   356   587   589    1
   357   441   436    1
   358   725   723    1
   359   725   736    1
   360   602   596   ar
   361   602   591    1
   362   592   593   ar
   363   670   650    1
   364   757   739    2
   365  1162  1163    1
   366   313   312    1
   367   392   394    1
   368   392   410    1
   369   573   574    2
   370  1226  1228    1
   371  1226  1246    1
   372   596   595   ar
   373   650   633    1
   374   650   652    1
   375   702   701    1
   376  1263  1262    2
   377   777   759    2
   378   613   612    1
   379   428   429   ar
   380   723   721    1
   381   312   310    1
   382  1245  1235    1
   383   585   586    1
   384   609   614    1
   385   454   472    2
   386   454   438    1
   387   454   473    1
   388  1194  1201   ar
   389  1194  1195   ar
   390   586   591    1
   391  1182  1161    2
   392   301   300    2
   393   437   438    1
   394   437   435    1
   395  1201  1200   ar
   396   302   300   ar
   397   302   303   ar
   398   423   424    2
   399   423   422   ar
   400   760   762    1
   401   760   761    1
   402   778   759    1
   403   394   393    1
   404   612   614    1
   405   323   324    2
   406   323   325   ar
   407   633   632    1
   408  1228  1227    1
   409   739   758    1
   410   739   741    1
   411   630   632    1
   412   630   631    1
   413   304   303    1
   414   589   591    1
   415   589   590    1
   416   697   699    1
   417   697   695    1
   418   697   698    1
   419  1163  1161    1
   420  1230  1235    1
   421  1230  1229    1
   422   283   282    2
   423   699   701    1
   424   326   325   ar
   425   759   761    1
   426   759   745    1
   427  1299  1298    1
   428   593   595   ar
   429   593   594    1
   430   736   735   ar
   431   736   730   ar
   432  1165  1170    1
   433  1262  1261   ar
   434  1262  1264   ar
   435   735   734   ar
   436   300   299   ar
   437  1170  1181    1
   438   436   435    1
   439   401   399    1
   440   401   396    1
   441  1196  1195    2
   442   632   634    1
   443   692   672    2
   444   695   696    1
   445  1235  1233    1
   446   614   624    1
   447   701   703    1
   448   400   399    1
   449  1195  1197   ar
   450  1227  1229    1
   451   399   397    1
   452   652   651    1
   453   303   305   ar
   454   429   422   ar
   455   762   763    1
   456   762   764    1
   457   276   282   ar
   458   276   277   ar
   459  1261  1259   ar
   460  1161  1183    1
   461  1161  1144    1
   462  1200  1198   ar
   463   422   421    1
   464   740   741    1
   465   740   742    1
   466   698   703    1
   467   396   395    1
   468   435   433    1
   469   310   311    1
   470   282   281   ar
   471   278   277    1
   472   631   636    1
   473   393   395    1
   474  1264  1265   ar
   475   763   768    1
   476   668   667   ar
   477   668   669   ar
   478  1229  1231    1
   479  1295  1300    1
   480  1295  1294    1
   481   797   779    2
   482  1300  1298    1
   483  1300  1301    1
   484  1294  1296    1
   485  1294  1292    1
   486   765   764    1
   487   765   779    1
   488   667   664   ar
   489   703   713    1
   490   657   658    1
   491   657   655    1
   492   657   659    1
   493  1181  1175   ar
   494  1181  1180   ar
   495   646   645   ar
   496   646   647   ar
   497   434   433    1
   498   434   432    1
   499  1298  1296    1
   500   277   279   ar
   501   734   731   ar
   502   696   694    1
   503  1197  1198   ar
   504   714   694    2
   505   730   729   ar
   506   730   731   ar
   507   745   744    1
   508  1312  1314    1
   509  1312  1313    1
   510   453   432    2
   511   655   653    1
   512   655   656    1
   513  1174  1175   ar
   514  1174  1172   ar
   515  1303  1302    2
   516   299   298    1
   517   299   306   ar
   518   297   296    1
   519   651   653    1
   520   311   309    1
   521  1146  1145    1
   522   624   623   ar
   523   624   618   ar
   524   395   397    1
   525   767   766    1
   526  1297  1296    1
   527  1297  1311    1
   528  1144  1143    1
   529  1314  1315    1
   530  1314  1316    1
   531   744   742    1
   532   744   746    1
   533   764   766    1
   534  1198  1199    2
   535  1315  1320    1
   536  1259  1260    2
   537  1259  1258   ar
   538   672   674    1
   539   672   656    1
   540   672   693    1
   541   634   636    1
   542   634   635    1
   543  1233  1231    1
   544  1233  1234    1
   545   296   298    1
   546   296   294    1
   547   742   743    1
   548   645   642   ar
   549   397   398    1
   550   305   306   ar
   551   623   622   ar
   552  1175  1176   ar
   553  1231  1232    1
   554   729   727   ar
   555   779   798    1
   556   779   781    1
   557  1180  1179   ar
   558  1292  1293    1
   559   421   419    1
   560   421   416    1
   561   419   417    1
   562   419   420    1
   563  1173  1172    1
   564   636   647    1
   565  1265  1258   ar
   566  1319  1318    1
   567   674   673    1
   568   298   293    1
   569   694   715    1
   570   694   678    1
   571   731   732   ar
   572   669   659    1
   573   669   663   ar
   574   281   284   ar
   575   281   280   ar
   576  1172  1171   ar
   577  1150  1149    1
   578   647   641   ar
   579  1301  1302   ar
   580  1301  1308   ar
   581   653   654    1
   582   432   418    1
   583   432   452    1
   584   768   766    1
   585   768   769    1
   586   654   659    1
   587   417   418    1
   588   417   415    1
   589  1145  1143    1
   590  1145  1147    1
   591  1302  1304   ar
   592  1258  1257    1
   593  1329  1311    2
   594   664   663   ar
   595   664   665   ar
   596  1313  1311    1
   597  1320  1318    1
   598  1320  1321    1
   599   706   707   ar
   600   706   705   ar
   601   713   707   ar
   602   713   712   ar
   603   279   280   ar
   604   398   412    1
   605   416   415    1
   606    90    70    2
   607  1317  1316    1
   608  1317  1331    1
   609  1143  1141    1
   610   618   617   ar
   611   618   619   ar
   612  1311  1330    1
   613  1176  1179   ar
   614  1176  1177   ar
   615   666   665    1
   616  1316  1318    1
   617   746   747    1
   618   746   748    1
   619   284   285   ar
   620   280   286   ar
   621   294   295    1
   622   294   292    1
   623   776   769   ar
   624   776   775   ar
   625   622   619   ar
   626   617   616   ar
   627  1149  1151   ar
   628  1149  1148   ar
   629  1308  1307   ar
   630   743   748    1
   631   309   295    1
   632   309   328    2
   633   309   327    1
   634   413   415    1
   635   413   414    1
   636  1151  1152   ar
   637   642   641   ar
   638   642   643   ar
   639  1232  1248    1
   640  1293  1291    1
   641   707   708   ar
   642   663   662   ar
   643   780   781    1
   644   780   782    1
   645   727   728    1
   646   727   726   ar
   647  1171  1177   ar
   648  1349  1331    2
   649    53    70    1
   650    53    52    1
   651  1267  1248    2
   652  1304  1305   ar
   653   769   770   ar
   654   665   660   ar
   655   641   640   ar
   656   705   704   ar
   657    71    73    1
   658    71    72    1
   659   678   677    1
   660   673   675    1
   661  1257  1252    1
   662  1257  1255    1
   663   293   292    1
   664   732   726   ar
   665   732   733    2
   666  1177  1178    2
   667   712   711   ar
   668  1252  1251    1
   669    50    48    1
   670    50    52    1
   671    50    51    1
   672  1147  1158    1
   673  1147  1142    1
   674   619   620   ar
   675  1321  1328   ar
   676  1321  1322   ar
   677    48    49    1
   678   677   675    1
   679   677   679    1
   680  1141  1142    1
   681  1141  1139    1
   682    70    72    1
   683    70    91    1
   684   414   412    1
   685   748   749    1
   686  1148  1154   ar
   687   675   676    1
   688  1331  1333    1
   689  1331  1350    1
   690  1323  1322    2
   691    32    31    1
   692   775   773   ar
   693  1152  1158   ar
   694  1152  1153   ar
   695  1307  1305   ar
   696  1328  1327   ar
   697  1248  1250    1
   698  1248  1266    1
   699   292   290    1
   700   412   430    2
   701   412   431    1
   702   644   643    2
   703   285   286   ar
   704  1305  1306    1
   705    73    74    1
   706    73    75    1
   707   643   637   ar
   708    52    54    1
   709   286   275    1
   710   110    92    2
   711  1322  1324   ar
   712  1332  1333    1
   713  1332  1334    1
   714  1158  1157   ar
   715   616   615   ar
   716    68    47    2
   717    55    54    1
   718    51    56    1
   719    76    75    1
   720    76    92    1
   721  1310  1291    2
   722  1291  1309    1
   723  1291  1274    1
   724   662   661   ar
   725   708   711   ar
   726   708   709   ar
   727   782   783    1
   728   782   784    1
   729  1250  1249    1
   730   640   638   ar
   731  1139  1140    1
   732   770   771    2
   733   770   772   ar
   734   751   750    2
   735   660   661   ar
   736   704   709   ar
   737   783   788    1
   738  1255  1253    1
   739  1255  1256    1
   740  1154  1153   ar
   741  1154  1155    2
   742  1153  1156   ar
   743    54    56    1
   744    56    67    1
   745   258   257    2
   746  1251  1249    1
   747  1251  1253    1
   748   620   615   ar
   749   620   621    1
   750    74    79    1
   751   254   253    1
   752    49    47    1
   753   679   680    1
   754   679   681    1
   755    75    77    1
   756  1327  1325   ar
   757    92   111    1
   758    92    94    1
   759  1335  1334    1
   760  1335  1340    1
   761   235   234    1
   762   291   290    1
   763   291   289    1
   764   749   750   ar
   765   749   756   ar
   766  1334  1336    1
   767   676   681    1
   768  1324  1325   ar
   769    31    33    1
   770    31    29    1
   771   773   772   ar
   772   773   774    1
   773    30    47    1
   774    30    29    1
   775  1253  1254    1
   776  1157  1156   ar
   777   709   710    1
   778    47    69    1
   779   275   273    1
   780   275   270    1
   781  1140  1138    1
   782   637   638   ar
   783   750   752   ar
   784    36    35    1
   785   796   795   ar
   786   796   789   ar
   787   638   639    1
   788   273   274    1
   789   273   271    1
   790  1274  1273    1
   791  1325  1326    1
   792   784   785    1
   793   784   786    1
   794   681   691    1
   795   785   799    1
   796  1127  1126    1
   797   308   289    2
   798   795   793   ar
   799   288   266    2
   800  1159  1138    2
   801    33    28    1
   802    33    44    1
   803    29    27    1
   804    37    35   ar
   805    37    38   ar
   806    78    77    1
   807   818   799    2
   808   257   259   ar
   809   257   256   ar
   810    27    28    1
   811    27    25    1
   812   817   799    1
   813    79    77    1
   814    79    89    1
   815    93    94    1
   816    93    95    1
   817   788   789    1
   818   788   786    1
   819   756   755   ar
   820   253   255    1
   821   253   251    1
   822    13    12    1
   823   255   256    1
   824   255   250    1
   825    67    66   ar
   826    67    61   ar
   827  1340  1341    1
   828  1340  1338    1
   829  1138  1160    1
   830  1138  1121    1
   831    35    34   ar
   832   234   233   ar
   833   234   236   ar
   834   799   801    1
   835   271   272    1
   836   271   269    1
   837   289   272    1
   838   289   307    1
   839   789   790   ar
   840   270   269    1
   841   252   266    1
   842   252   251    1
   843  1348  1341   ar
   844  1348  1347   ar
   845  1336  1337    1
   846  1336  1338    1
   847   259   260   ar
   848  1254  1268    1
   849  1126  1125   ar
   850  1126  1128   ar
   851   233   239   ar
   852   786   787    1
   853   752   753   ar
   854   256   263   ar
   855  1290  1268    2
   856  1273  1271    1
   857  1273  1275    1
   858  1270  1269    1
   859  1270  1268    1
   860    66    65   ar
   861  1341  1342   ar
   862   266   268    1
   863   266   287    1
   864  1125  1131   ar
   865   250   249    1
   866  1269  1271    1
   867  1337  1351    1
   868   268   267    1
   869    88    89   ar
   870    88    87   ar
   871    38    44   ar
   872    38    39   ar
   873    44    43   ar
   874    60    61   ar
   875    60    58   ar
   876    25    26    1
   877  1347  1345   ar
   878   236   237   ar
   879   691   685   ar
   880   691   690   ar
   881   793   794    1
   882   793   792   ar
   883    89    83   ar
   884   251   249    1
   885  1339  1338    1
   886   249   247    1
   887    61    62   ar
   888  1128  1129   ar
   889  1268  1289    1
   890   212   211    1
   891   684   685   ar
   892   684   683   ar
   893   269   267    1
   894  1271  1272    1
   895   755   753   ar
   896   130   112    2
   897    12    11   ar
   898    12    14   ar
   899    95    96    1
   900    95    97    1
   901  1123  1122    1
   902    34    40   ar
   903  1122  1120    1
   904  1122  1124    1
   905   790   792   ar
   906   790   791    2
   907    98   112    1
   908    98    97    1
   909   964   946    2
   910   753   754    2
   911  1280  1279    1
   912  1121  1120    1
   913  1131  1132    2
   914  1131  1130   ar
   915  1342  1343    2
   916  1342  1344   ar
   917   685   686   ar
   918  1276  1275    1
   919   260   261    2
   920   260   262   ar
   921  1275  1277    1
   922    11    17   ar
   923   801   800    1
   924   239   240    2
   925   239   238   ar
   926   131   112    1
   927   210   211   ar
   928   210   216   ar
   929  1345  1344   ar
   930  1345  1346    2
   931    26    24    1
   932   690   689   ar
   933  1129  1130   ar
   934  1129  1135   ar
   935   263   262   ar
   936   945   924    2
   937    65    62   ar
   938    87    84   ar
   939   112   114    1
   940    58    59    1
   941    58    57   ar
   942    14    15   ar
   943    96   101    1
   944    97    99    1
   945   211   213   ar
   946   683   682   ar
   947   237   238   ar
   948   237   243   ar
   949    43    42   ar
   950    39    40   ar
   951    39    42   ar
   952  1120  1118    1
   953    62    63   ar
   954  1130  1133   ar
   955  1351  1372    2
   956  1351  1373    1
   957  1351  1353    1
   958    83    82   ar
   959    83    84   ar
   960   247   248    1
   961   217   216    2
   962  1281  1279   ar
   963  1281  1282   ar
   964  1279  1278   ar
   965   815   816   ar
   966   815   813   ar
   967   231   230    1
   968     9     8    1
   969    40    41    2
   970   800   802    1
   971  1272  1277    1
   972  1124  1135    1
   973  1124  1119    1
   974  1135  1134   ar
   975   238   241   ar
   976   944   924    1
   977   109   108   ar
   978   109   102   ar
   979   216   215   ar
   980   814   813    1
   981    45    24    2
   982   946   930    1
   983   946   965    1
   984   946   948    1
   985    82    81   ar
   986    84    85   ar
   987  1277  1288    1
   988   924   926    1
   989   924   908    1
   990   816   809   ar
   991   686   689   ar
   992   686   687   ar
   993   108   106   ar
   994   930   929    1
   995   230   232    1
   996   230   228    1
   997    17    18    2
   998    17    16   ar
   999   932   931    1
  1000   243   232    1
  1001   243   242   ar
  1002  1133  1134   ar
  1003  1353  1352    1
  1004   232   227    1
  1005  1278  1284   ar
  1006    24     7    1
  1007    24    46    1
  1008    57    63   ar
  1009   813   812   ar
  1010  1282  1288   ar
  1011  1282  1283   ar
  1012     8     6    1
  1013     8    10    1
  1014   248   246    1
  1015   100    99    1
  1016    15    16   ar
  1017    15    21   ar
  1018   213   214   ar
  1019    63    64    2
  1020   101    99    1
  1021   101   102    1
  1022   682   687   ar
  1023  1288  1287   ar
  1024  1118  1119    1
  1025  1118  1116    1
  1026   114   113    1
  1027     7     6    1
  1028   927   925    1
  1029   927   929    1
  1030   927   928    1
  1031   102   103   ar
  1032   926   925    1
  1033   803   802    1
  1034   803   808    1
  1035  1109  1108    1
  1036    16    19   ar
  1037   687   688    1
  1038   241   242   ar
  1039   194   193    2
  1040   802   804    1
  1041  1103  1108   ar
  1042  1103  1104   ar
  1043   908   907    1
  1044   948   947    1
  1045   929   931    1
  1046   215   214   ar
  1047   215   218   ar
  1048  1284  1283   ar
  1049  1284  1285    2
  1050  1283  1286   ar
  1051     6     4    1
  1052    81    80   ar
  1053  1648  1647    2
  1054   931   933    1
  1055   214   220   ar
  1056   838   819    2
  1057    10    21    1
  1058    10     5    1
  1059  1355  1354    1
  1060  1355  1360    1
  1061   106   107    1
  1062   106   105   ar
  1063   809   808    1
  1064   809   810   ar
  1065    85    80   ar
  1066    85    86    1
  1067  1370  1369   ar
  1068  1370  1371   ar
  1069  1108  1107   ar
  1070    21    20   ar
  1071   228   229    1
  1072   228   226    1
  1073  1287  1286   ar
  1074  1104  1105   ar
  1075   928   933    1
  1076   187   193   ar
  1077   187   188   ar
  1078   227   226    1
  1079  1117  1116    1
  1080  1117  1115    1
  1081  1369  1366   ar
  1082   113   115    1
  1083  1352  1354    1
  1084   812   810   ar
  1085   229   246    1
  1086   246   264    2
  1087   246   265    1
  1088   804   805    1
  1089   804   806    1
  1090   193   192   ar
  1091  1137  1115    2
  1092   808   806    1
  1093   189   188    1
  1094   933   943    1
  1095   910   909    1
  1096   103   105   ar
  1097   103   104    2
  1098  1354  1356    1
  1099   171   170    2
  1100  1371  1360    1
  1101  1371  1365   ar
  1102  1360  1358    1
  1103   810   811    2
  1104   907   909    1
  1105   907   905    1
  1106   226   224    1
  1107   947   949    1
  1108    19    20   ar
  1109   218   219   ar
  1110  1649  1647   ar
  1111  1649  1650   ar
  1112   128   129   ar
  1113   128   126   ar
  1114  1647  1646   ar
  1115  1107  1106   ar
  1116  1107  1110   ar
  1117  1105  1106   ar
  1118  1115  1136    1
  1119  1115  1099    1
  1120   188   190   ar
  1121   805   819    1
  1122  1366  1365   ar
  1123  1366  1367   ar
  1124     4     5    1
  1125     4     2    1
  1126   834   833    2
  1127   129   122   ar
  1128   819   837    1
  1129   819   821    1
  1130   220   219   ar
  1131   220   209    1
  1132   153   132    2
  1133   148   147    1
  1134  1106  1112   ar
  1135   909   911    1
  1136   806   807    1
  1137  1644  1643    1
  1138  1368  1367    2
  1139  1365  1364   ar
  1140   115   116    1
  1141   115   117    1
  1142   116   121    1
  1143  1110  1111   ar
  1144   835   833   ar
  1145   835   836   ar
  1146   208   207    1
  1147  1643  1645    1
  1148  1643  1641    1
  1149  1367  1361   ar
  1150   127   126    1
  1151  1359  1358    1
  1152   905   903    1
  1153   905   906    1
  1154   192   195   ar
  1155   192   191   ar
  1156   949   950    1
  1157   949   951    1
  1158   170   164   ar
  1159   170   169   ar
  1160   207   209    1
  1161   207   205    1
  1162   209   204    1
  1163   126   125   ar
  1164  1651  1650    1
  1165   833   832   ar
  1166  1389  1388    1
  1167   943   942   ar
  1168   943   937   ar
  1169   903   904    1
  1170  1088  1087    1
  1171  1650  1652   ar
  1172  1358  1356    1
  1173  1356  1357    1
  1174  1646  1645    1
  1175  1646  1653   ar
  1176  1112  1111   ar
  1177  1112  1102    1
  1178   164   165   ar
  1179   152   132    1
  1180   224   225    1
  1181   149   146   ar
  1182   149   150   ar
  1183  1100  1098    1
  1184  1100  1102    1
  1185  1100  1101    1
  1186  1645  1640    1
  1187     2     3    1
  1188   190   191   ar
  1189  1364  1362   ar
  1190  1114  1093    2
  1191  1099  1098    1
  1192   821   820    1
  1193   950   955    1
  1194   984   966    2
  1195   132   118    1
  1196   132   134    1
  1197   122   121    1
  1198   122   123   ar
  1199  1098  1096    1
  1200   911   906    1
  1201   911   921    1
  1202   195   196   ar
  1203   117   118    1
  1204   117   119    1
  1205   147   146   ar
  1206   147   142   ar
  1207   952   951    1
  1208   952   966    1
  1209  1642  1641    1
  1210   836   829   ar
  1211  1361  1362   ar
  1212   225   223    1
  1213  1092  1073    2
  1214   936   937   ar
  1215   936   935   ar
  1216   191   197   ar
  1217  1091  1073    1
  1218   942   941   ar
  1219  1406  1405    1
  1220  1388  1390   ar
  1221  1388  1387   ar
  1222  1628  1627    2
  1223   121   119    1
  1224  1641  1639    1
  1225   985   966    1
  1226  1390  1391   ar
  1227  1362  1363    1
  1228  1357  1374    1
  1229   937   938   ar
  1230   951   953    1
  1231   172   169   ar
  1232   172   173   ar
  1233   169   168   ar
  1234   966   968    1
  1235  1087  1089   ar
  1236  1087  1086   ar
  1237   146   145   ar
  1238  1102  1097    1
  1239   963   962   ar
  1240   963   956   ar
  1241  1567  1566    2
  1242     3     1    1
  1243   125   123   ar
  1244   150   151   ar
  1245  1652  1653   ar
  1246   204   203    1
  1247   832   830   ar
  1248   904   902    1
  1249   205   206    1
  1250   205   203    1
  1251  1095  1093    1
  1252  1095  1094    1
  1253   962   960   ar
  1254  1073  1057    1
  1255  1073  1075    1
  1256  1393  1374    2
  1257  1629  1627   ar
  1258  1629  1630   ar
  1259   922   902    2
  1260   245   223    2
  1261   123   124    2
  1262  1089  1090   ar
  1263   142   143   ar
  1264  1086  1084   ar
  1265   921   920   ar
  1266   921   915   ar
  1267   165   166    1
  1268   165   167   ar
  1269  1093  1113    1
  1270  1093  1079    1
  1271  1610  1609    2
  1272  1387  1385   ar
  1273   820   822    1
  1274   920   919   ar
  1275   119   120    1
  1276   871   870    2
  1277  1627  1626   ar
  1278  1640  1639    1
  1279  1391  1384   ar
  1280   134   133    1
  1281   955   956    1
  1282   955   953    1
  1283   935   934   ar
  1284   196   197   ar
  1285   206   223    1
  1286  1405  1404   ar
  1287  1405  1407   ar
  1288   223   244    1
  1289  1603  1609   ar
  1290  1603  1604   ar
  1291     1    23    1
  1292     1    22    1
  1293   829   830   ar
  1294   829   828    1
  1295   197   186    1
  1296  1057  1056    1
  1297  1054  1055    1
  1298  1054  1052    1
  1299  1054  1056    1
  1300  1639  1637    1
  1301  1605  1604    1
  1302  1631  1630    2
  1303  1096  1097    1
  1304  1096  1094    1
  1305   885   902    1
  1306   885   884    1
  1307   956   957   ar
  1308   941   938   ar
  1309  1374  1392    1
  1310  1374  1376    1
  1311   953   954    1
  1312   938   939   ar
  1313  1404  1410   ar
  1314   203   201    1
  1315  1055  1060    1
  1316   902   923    1
  1317   173   174   ar
  1318   168   167   ar
  1319   168   174   ar
  1320   823   822    1
  1321   823   828    1
  1322  1566  1560   ar
  1323  1566  1565   ar
  1324   900   879    2
  1325  1630  1632   ar
  1326   145   151   ar
  1327   145   144   ar
  1328   830   831    2
  1329  1609  1608   ar
  1330   880   882    1
  1331   880   881    1
  1332  1385  1384   ar
  1333  1385  1386    2
  1334  1090  1083   ar
  1335  1384  1383    1
  1336  1052  1053    1
  1337   151   141    1
  1338   872   870   ar
  1339   872   873   ar
  1340  1084  1083   ar
  1341  1084  1085    2
  1342   915   914   ar
  1343   915   916   ar
  1344   968   967    1
  1345   870   869   ar
  1346  1407  1408   ar
  1347   867   866    1
  1348   919   916   ar
  1349  1604  1606   ar
  1350   857   839    2
  1351   882   884    1
  1352   882   883    1
  1353   176   154    2
  1354  1560  1561   ar
  1355  1402  1401    1
  1356   822   824    1
  1357  1056  1058    1
  1358   960   961    1
  1359   960   959   ar
  1360   143   144   ar
  1361  1075  1074    1
  1362  1040  1039   ar
  1363  1040  1041   ar
  1364  1539  1538   ar
  1365  1539  1540   ar
  1366   887   886    1
  1367   914   913   ar
  1368  1060  1058    1
  1369  1060  1070    1
  1370   828   826    1
  1371  1079  1078    1
  1372   174   163    1
  1373  1083  1082    1
  1374   133   135    1
  1375   824   826    1
  1376   824   825    1
  1377   934   939   ar
  1378  1626  1625    1
  1379  1626  1633   ar
  1380  1624  1623    1
  1381  1078  1080    1
  1382  1078  1076    1
  1383  1538  1543   ar
  1384  1376  1375    1
  1385   884   886    1
  1386   967   969    1
  1387   916   917   ar
  1388  1378  1383    1
  1389  1378  1377    1
  1390  1410  1411    2
  1391  1410  1409   ar
  1392   186   184    1
  1393   186   181    1
  1394  1039  1044   ar
  1395   939   940    1
  1396   874   873    2
  1397  1436  1417    2
  1398   957   959   ar
  1399   957   958    2
  1400  1041  1042   ar
  1401  1623  1625    1
  1402  1623  1621    1
  1403  1063  1062   ar
  1404  1063  1064   ar
  1405  1637  1638    1
  1406  1565  1568   ar
  1407  1565  1564   ar
  1408   202   201    1
  1409   202   200    1
  1410   873   875   ar
  1411  1568  1569   ar
  1412   136   141    1
  1413   136   135    1
  1414  1080  1082    1
  1415  1080  1081    1
  1416  1625  1620    1
  1417  1383  1381    1
  1418  1375  1377    1
  1419   865   879    1
  1420   865   864    1
  1421   881   879    1
  1422   879   901    1
  1423  1408  1409   ar
  1424  1408  1414   ar
  1425   184   185    1
  1426   184   182    1
  1427  1638  1636    1
  1428   869   868    1
  1429   869   876   ar
  1430  1632  1633   ar
  1431  1540  1541   ar
  1432   826   827    1
  1433  1062  1061   ar
  1434  1058  1059    1
  1435  1070  1064   ar
  1436  1070  1069   ar
  1437   886   888    1
  1438   141   139    1
  1439  1608  1607   ar
  1440  1608  1611   ar
  1441   883   888    1
  1442   839   858    1
  1443   839   825    1
  1444   839   841    1
  1445  1517  1516    1
  1446   913   912   ar
  1447   868   866    1
  1448   868   863    1
  1449   137   135    1
  1450   137   139    1
  1451   137   138    1
  1452   866   864    1
  1453  1064  1065   ar
  1454  1053  1051    1
  1455  1606  1607   ar
  1456  1409  1412   ar
  1457  1561  1562    1
  1458  1561  1563   ar
  1459  1074  1076    1
  1460  1023  1022    2
  1461  1401  1403    1
  1462  1401  1399    1
  1463  1082  1077    1
  1464   982   983   ar
  1465   982   980   ar
  1466   222   200    2
  1467   154   156    1
  1468   154   138    1
  1469   154   175    1
  1470  1435  1417    1
  1471   199   177    2
  1472  1417  1400    1
  1473  1417  1419    1
  1474  1044  1045    1
  1475  1044  1043   ar
  1476  1377  1379    1
  1477   181   180    1
  1478   917   912   ar
  1479   917   918    1
  1480   156   155    1
  1481  1076  1077    1
  1482  1042  1043   ar
  1483  1042  1048   ar
  1484  1543  1544    1
  1485  1543  1542   ar
  1486  1072  1051    2
  1487   983   976   ar
  1488   163   161    1
  1489   163   158    1
  1490  1607  1613   ar
  1491  1400  1399    1
  1492   182   183    1
  1493   182   180    1
  1494   139   140    1
  1495  1414  1403    1
  1496  1414  1413   ar
  1497   888   899    1
  1498  1005   986    2
  1499   875   876   ar
  1500  1069  1068   ar
  1501   864   862    1
  1502  1403  1398    1
  1503  1061  1066   ar
  1504   969   970    1
  1505   969   971    1
  1506  1564  1563   ar
  1507  1564  1570   ar
  1508  1611  1612   ar
  1509  1621  1622    1
  1510  1621  1619    1
  1511  1569  1570   ar
  1512   200   183    1
  1513   200   221    1
  1514   840   841    1
  1515   840   842    1
  1516   981   980    1
  1517  1043  1046   ar
  1518  1065  1066   ar
  1519  1065  1068   ar
  1520  1620  1619    1
  1521  1038  1048    1
  1522  1038  1033    1
  1523  1038  1036    1
  1524  1399  1397    1
  1525   159   161    1
  1526   159   157    1
  1527   159   160    1
  1528   161   162    1
  1529  1381  1379    1
  1530  1381  1382    1
  1531  1035  1051    1
  1532  1035  1034    1
  1533  1051  1071    1
  1534  1541  1542   ar
  1535  1541  1547   ar
  1536   158   157    1
  1537  1004   986    1
  1538   179   177    1
  1539   179   178    1
  1540  1048  1047   ar
  1541  1636  1655    2
  1542  1636  1622    1
  1543  1636  1654    1
  1544  1022  1016   ar
  1545  1022  1021   ar
  1546  1379  1380    1
  1547   863   862    1
  1548   980   979   ar
  1549  1412  1413   ar
  1550   970   975    1
  1551   971   972    1
  1552   971   973    1
  1553  1066  1067    1
  1554  1516  1515   ar
  1555  1516  1518   ar
  1556  1033  1032    1
  1557  1037  1036    1
  1558   972   986    1
  1559   180   178    1
  1560   986   988    1
  1561  1542  1545   ar
  1562   177   160    1
  1563   177   198    1
  1564  1016  1017   ar
  1565  1570  1559    1
  1566  1419  1418    1
  1567   155   157    1
  1568  1001  1000    2
  1569  1619  1617    1
  1570   862   860    1
  1571   976   975    1
  1572   976   977   ar
  1573  1046  1047   ar
  1574  1515  1521   ar
  1575  1613  1612   ar
  1576  1613  1602    1
  1577  1036  1034    1
  1578   899   898   ar
  1579   899   893   ar
  1580  1518  1519   ar
  1581   842   843    1
  1582   842   844    1
  1583  1398  1397    1
  1584  1021  1024   ar
  1585  1021  1020   ar
  1586  1032  1034    1
  1587  1032  1030    1
  1588  1024  1025   ar
  1589  1499  1498    2
  1590   975   973    1
  1591  1547  1537    1
  1592  1547  1546   ar
  1593  1002  1000   ar
  1594  1002  1003   ar
  1595  1537  1535    1
  1596  1537  1532    1
  1597  1536  1535    1
  1598  1397  1395    1
  1599   898   897   ar
  1600   843   848    1
  1601   979   977   ar
  1602  1380  1394    1
  1603  1453  1452    1
  1604  1000   999   ar
  1605  1433  1431   ar
  1606  1433  1434   ar
  1607  1492  1498   ar
  1608  1492  1493   ar
  1609  1396  1395    1
  1610  1396  1394    1
  1611   973   974    1
  1612  1017  1018    1
  1613  1017  1019   ar
  1614  1432  1431    1
  1615  1494  1493    1
  1616  1418  1420    1
  1617   977   978    2
  1618  1545  1546   ar
  1619   988   987    1
  1620  1535  1533    1
  1621   861   860    1
  1622   861   859    1
  1623  1602  1600    1
  1624  1602  1597    1
  1625  1498  1497   ar
  1626  1559  1554    1
  1627  1559  1557    1
  1628  1618  1617    1
  1629  1618  1616    1
  1630   893   892   ar
  1631   893   894   ar
  1632   892   890   ar
  1633  1431  1430   ar
  1634  1532  1531    1
  1635  1434  1427   ar
  1636  1003   996   ar
  1637   844   846    1
  1638   844   845    1
  1639  1020  1019   ar
  1640  1020  1026   ar
  1641  1521  1522    2
  1642  1521  1520   ar
  1643  1025  1026   ar
  1644  1513  1512    1
  1645  1600  1601    1
  1646  1600  1598    1
  1647  1476  1475    2
  1648   856   855   ar
  1649   856   849   ar
  1650  1028  1006    2
  1651  1519  1520   ar
  1652  1519  1525   ar
  1653  1493  1495   ar
  1654  1554  1553    1
  1655  1030  1031    1
  1656  1394  1415    2
  1657  1394  1416    1
  1658  1452  1451   ar
  1659  1452  1447   ar
  1660   897   894   ar
  1661  1557  1558    1
  1662  1557  1555    1
  1663   855   853   ar
  1664   999   997   ar
  1665  1454  1451   ar
  1666  1454  1455   ar
  1667   848   846    1
  1668   848   849    1
  1669  1421  1420    1
  1670  1421  1426    1
  1671  1635  1616    2
  1672  1026  1015    1
  1673   846   847    1
  1674  1420  1422    1
  1675  1031  1029    1
  1676  1520  1523   ar
  1677   845   859    1
  1678   877   859    2
  1679   894   895   ar
  1680  1551  1553    1
  1681  1551  1552    1
  1682  1430  1428   ar
  1683   987   989    1
  1684  1615  1593    2
  1685  1598  1599    1
  1686  1598  1596    1
  1687  1597  1596    1
  1688  1451  1450   ar
  1689   859   878    1
  1690   849   850   ar
  1691  1512  1514    1
  1692  1512  1510    1
  1693  1427  1428   ar
  1694  1427  1426    1
  1695  1514  1525    1
  1696  1514  1509    1
  1697  1447  1448   ar
  1698   890   891    1
  1699   890   889   ar
  1700  1475  1469   ar
  1701  1475  1474   ar
  1702  1616  1599    1
  1703  1616  1634    1
  1704  1525  1524   ar
  1705  1533  1531    1
  1706  1533  1534    1
  1707  1497  1496   ar
  1708  1497  1500   ar
  1709  1531  1529    1
  1710   996   997   ar
  1711   996   995    1
  1712  1469  1470   ar
  1713  1553  1555    1
  1714  1585  1584    2
  1715  1495  1496   ar
  1716  1455  1456   ar
  1717  1428  1429    2
  1718   997   998    2
  1719  1006  1008    1
  1720  1006  1027    1
  1721  1006   992    1
  1722  1426  1424    1
  1723  1555  1556    1
  1724   991   989    1
  1725   991   992    1
  1726   991   993    1
  1727  1614  1593    1
  1728  1581  1580    1
  1729   853   854    2
  1730   853   852   ar
  1731  1422  1424    1
  1732  1422  1423    1
  1733  1008  1007    1
  1734  1013  1015    1
  1735  1013  1011    1
  1736  1013  1014    1
  1737  1596  1594    1
  1738  1593  1595    1
  1739  1593  1579    1
  1740  1534  1550    1
  1741  1496  1502   ar
  1742  1552  1550    1
  1743  1424  1425    1
  1744   989   990    1
  1745   990   995    1
  1746  1595  1594    1
  1747  1500  1501   ar
  1748  1015  1010    1
  1749  1011  1012    1
  1750  1011  1009    1
  1751  1523  1524   ar
  1752   895   889   ar
  1753   895   896    2
  1754  1509  1508    1
  1755  1450  1456   ar
  1756  1450  1449   ar
  1757  1448  1449   ar
  1758   850   852   ar
  1759   850   851    2
  1760   995   993    1
  1761  1474  1477   ar
  1762  1474  1473   ar
  1763  1529  1530    1
  1764  1029  1049    2
  1765  1029  1012    1
  1766  1029  1050    1
  1767   993   994    1
  1768  1477  1478   ar
  1769  1456  1446    1
  1770  1510  1511    1
  1771  1510  1508    1
  1772  1470  1471    1
  1773  1470  1472   ar
  1774  1511  1528    1
  1775  1584  1586   ar
  1776  1584  1583   ar
  1777  1530  1528    1
  1778  1010  1009    1
  1779  1550  1571    2
  1780  1550  1572    1
  1781  1556  1573    1
  1782  1423  1437    1
  1783  1439  1438    1
  1784  1439  1437    1
  1785  1508  1506    1
  1786  1582  1580    1
  1787  1582  1583    1
  1788  1582  1577    1
  1789  1580  1578    1
  1790  1007  1009    1
  1791  1586  1587   ar
  1792  1441  1446    1
  1793  1441  1440    1
  1794  1501  1502   ar
  1795  1502  1491    1
  1796  1457  1437    2
  1797  1473  1472   ar
  1798  1473  1479   ar
  1799  1579  1578    1
  1800  1438  1440    1
  1801  1583  1590   ar
  1802  1446  1444    1
  1803  1478  1479   ar
  1804  1528  1548    2
  1805  1528  1549    1
  1806  1592  1573    2
  1807  1437  1458    1
  1808  1576  1578    1
  1809  1576  1577    1
  1810  1576  1574    1
  1811  1440  1442    1
  1812  1573  1591    1
  1813  1573  1575    1
  1814  1479  1468    1
  1815  1491  1489    1
  1816  1491  1486    1
  1817  1506  1507    1
  1818  1587  1588    2
  1819  1587  1589   ar
  1820  1442  1444    1
  1821  1442  1443    1
  1822  1489  1490    1
  1823  1489  1487    1
  1824  1444  1445    1
  1825  1574  1575    1
  1826  1590  1589   ar
  1827  1507  1505    1
  1828  1486  1485    1
  1829  1468  1463    1
  1830  1468  1466    1
  1831  1487  1488    1
  1832  1487  1485    1
  1833  1481  1459    2
  1834  1443  1459    1
  1835  1463  1462    1
  1836  1527  1505    2
  1837  1505  1488    1
  1838  1505  1526    1
  1839  1459  1461    1
  1840  1459  1480    1
  1841  1466  1464    1
  1842  1466  1467    1
  1843  1461  1460    1
  1844  1485  1483    1
  1845  1464  1462    1
  1846  1464  1465    1
  1847  1483  1484    1
  1848  1462  1460    1
  1849  1504  1482    2
  1850  1484  1482    1
  1851  1465  1482    1
  1852  1482  1503    1
