ligand
  PyMOL2.2          3D                             0

 27 29  0  0  0  0  0  0  0  0999 V2000
   48.9360   57.9960   28.8960 N   0  0  0  0  0  0  0  0  0  0  0  0
   48.3650   57.1830   27.8290 C   0  0  0  0  0  0  0  0  0  0  0  0
   46.9450   57.6270   27.5190 C   0  0  0  0  0  0  0  0  0  0  0  0
   46.1610   56.8600   26.9650 O   0  0  0  0  0  0  0  0  0  0  0  0
   48.3930   55.6940   28.1710 C   0  0  0  0  0  0  0  0  0  0  0  0
   48.5700   55.3810   29.6520 C   0  0  0  0  0  0  0  0  0  0  0  0
   48.4530   53.6190   30.0680 S   0  0  0  0  0  0  0  0  0  0  0  0
   47.3130   53.0320   28.7910 C   0  0  0  0  0  0  0  0  0  0  0  0
   47.3400   53.6960   31.4960 C   0  0  0  0  0  0  0  0  0  0  0  0
   48.1040   54.1860   32.7170 C   0  0  0  0  0  0  0  0  0  0  0  0
   48.7410   55.3950   32.3810 O   0  0  0  0  0  0  0  0  0  0  0  0
   47.2340   54.5200   33.9120 C   0  0  0  0  0  0  0  0  0  0  0  0
   47.2060   53.4400   34.8130 O   0  0  0  0  0  0  0  0  0  0  0  0
   47.9250   55.7210   34.5320 C   0  0  0  0  0  0  0  0  0  0  0  0
   48.6070   55.3150   35.6950 O   0  0  0  0  0  0  0  0  0  0  0  0
   48.9210   56.2290   33.4970 C   0  0  0  0  0  0  0  0  0  0  0  0
   46.5570   58.7560   27.8210 O   0  0  0  0  0  0  0  0  0  0  0  0
   45.2070   59.3890   31.5210 N   0  0  0  0  0  0  0  0  0  0  0  0
   45.1460   58.0270   31.7360 C   0  0  0  0  0  0  0  0  0  0  0  0
   46.2300   57.3530   32.2680 N   0  0  0  0  0  0  0  0  0  0  0  0
   47.3660   58.0160   32.5770 C   0  0  0  0  0  0  0  0  0  0  0  0
   47.4470   59.3860   32.3760 C   0  0  0  0  0  0  0  0  0  0  0  0
   46.3610   60.0730   31.8400 C   0  0  0  0  0  0  0  0  0  0  0  0
   46.4230   61.3860   31.6340 N   0  0  0  0  0  0  0  0  0  0  0  0
   48.6740   59.7870   32.7770 N   0  0  0  0  0  0  0  0  0  0  0  0
   49.3570   58.7120   33.2360 C   0  0  0  0  0  0  0  0  0  0  0  0
   48.5580   57.6050   33.1180 N   0  0  0  0  0  0  0  0  0  0  0  0
  1  2  1  0  0  0  0
  2  3  1  0  0  0  0
  2  5  1  0  0  0  0
  3  4  4  0  0  0  0
  3 17  4  0  0  0  0
  5  6  1  0  0  0  0
  6  7  1  0  0  0  0
  7  8  1  0  0  0  0
  7  9  1  0  0  0  0
  9 10  1  0  0  0  0
 10 11  1  0  0  0  0
 10 12  1  0  0  0  0
 11 16  1  0  0  0  0
 12 13  1  0  0  0  0
 12 14  1  0  0  0  0
 14 15  1  0  0  0  0
 14 16  1  0  0  0  0
 16 27  1  0  0  0  0
 18 19  4  0  0  0  0
 19 20  4  0  0  0  0
 20 21  4  0  0  0  0
 21 22  4  0  0  0  0
 22 23  4  0  0  0  0
 18 23  4  0  0  0  0
 23 24  1  0  0  0  0
 22 25  4  0  0  0  0
 25 26  4  0  0  0  0
 21 27  4  0  0  0  0
 26 27  4  0  0  0  0
M  END
$$$$
