ligand
 OpenBabel11021811483D
libRbt.so/2013.1/901 2013/11/27
 27 29  0  0  0  0  0  0  0  0999 V2000
   48.7072   57.9002   28.4390 N   0  0  0  0  0  0  0  0  0  0  0  0
   47.7811   57.0129   27.7459 C   0  0  2  0  0  0  0  0  0  0  0  0
   46.3526   57.5108   27.8909 C   0  0  0  0  0  0  0  0  0  0  0  0
   45.4090   56.7979   27.5573 O   0  0  0  0  0  0  0  0  0  0  0  0
   47.8941   55.5722   28.2424 C   0  0  0  0  0  0  0  0  0  0  0  0
   47.5762   55.3780   29.7201 C   0  0  0  0  0  0  0  0  0  0  0  0
   47.7614   53.6730   30.3120 S   0  0  2  0  0  0  0  0  0  0  0  0
   46.4601   52.8333   29.3759 C   0  0  0  0  0  0  0  0  0  0  0  0
   46.9686   53.8055   31.9362 C   0  0  0  0  0  0  0  0  0  0  0  0
   47.9861   54.2682   32.9683 C   0  0  1  0  0  0  0  0  0  0  0  0
   48.5616   55.4682   32.5110 O   0  0  0  0  0  0  0  0  0  0  0  0
   47.3989   54.6064   34.3238 C   0  0  1  0  0  0  0  0  0  0  0  0
   47.5416   53.5180   35.2034 O   0  0  0  0  0  0  0  0  0  0  0  0
   48.2314   55.7876   34.7887 C   0  0  1  0  0  0  0  0  0  0  0  0
   49.1376   55.3567   35.7764 O   0  0  0  0  0  0  0  0  0  0  0  0
   48.9934   56.2871   33.5676 C   0  0  2  0  0  0  0  0  0  0  0  0
   46.1181   58.6301   28.3476 O   0  0  0  0  0  0  0  0  0  0  0  0
   45.2342   59.4443   31.6746 N   0  0  0  0  0  0  0  0  0  0  0  0
   45.2246   58.0679   31.7763 C   0  0  0  0  0  0  0  0  0  0  0  0
   46.3127   57.3973   32.3042 N   0  0  0  0  0  0  0  0  0  0  0  0
   47.4029   58.0786   32.7200 C   0  0  0  0  0  0  0  0  0  0  0  0
   47.4314   59.4627   32.6339 C   0  0  0  0  0  0  0  0  0  0  0  0
   46.3409   60.1464   32.1029 C   0  0  0  0  0  0  0  0  0  0  0  0
   46.3533   61.4734   32.0063 N   0  0  0  0  0  0  0  0  0  0  0  0
   48.6200   59.8792   33.1247 N   0  0  0  0  0  0  0  0  0  0  0  0
   49.3292   58.7989   33.5283 C   0  0  0  0  0  0  0  0  0  0  0  0
   48.5866   57.6736   33.2833 N   0  0  0  0  0  0  0  0  0  0  0  0
  2  1  1  1  0  0  0
  2  3  1  0  0  0  0
  2  5  1  0  0  0  0
  3  4  1  0  0  0  0
  3 17  1  0  0  0  0
  5  6  1  0  0  0  0
  7  6  1  6  0  0  0
  7  8  1  0  0  0  0
  7  9  1  0  0  0  0
 10  9  1  6  0  0  0
 10 11  1  0  0  0  0
 10 12  1  0  0  0  0
 11 16  1  0  0  0  0
 12 13  1  1  0  0  0
 12 14  1  0  0  0  0
 14 15  1  1  0  0  0
 14 16  1  0  0  0  0
 16 27  1  6  0  0  0
 18 19  2  0  0  0  0
 18 23  1  0  0  0  0
 19 20  1  0  0  0  0
 20 21  2  0  0  0  0
 21 22  1  0  0  0  0
 21 27  1  0  0  0  0
 22 23  2  0  0  0  0
 22 25  1  0  0  0  0
 23 24  1  0  0  0  0
 25 26  2  0  0  0  0
 26 27  1  0  0  0  0
M  END
>  <CHROM.1>
-168.73934349,61.09049054,-178.24487039,-65.31153365,-86.49416732,54.96369298
39.01072385,47.41329069,56.62482063,31.54614495,-3.07492713,-1.30803649,0.48854796

>  <Name>
ligand

>  <RI>
0

>  <Rbt.Current_Directory>
/home/itssahil/PROJECTS/Mol_Feturizer/New_Systems/rnas/3GX7

>  <Rbt.Executable>
rbdock ($Id: //depot/dev/client3/rdock/2013.1/src/exe/rbdock.cxx#4 $)

>  <Rbt.Library>
libRbt.so (2013.1, Build901 2013/11/27)

>  <Rbt.Parameter_File>
/export/apps/rDock/src/rDock_2013.1_src/data/scripts/dock_solv.prm

>  <Rbt.Receptor>
prm/pocket_docking_2.prm

>  <SCORE>
-16.7306

>  <SCORE.INTER>
-9.73636

>  <SCORE.INTER.CONST>
1

>  <SCORE.INTER.POLAR>
0

>  <SCORE.INTER.ROT>
7

>  <SCORE.INTER.SOLV>
20.8774

>  <SCORE.INTER.VDW>
-21.7167

>  <SCORE.INTER.norm>
-0.360606

>  <SCORE.INTRA>
-6.99428

>  <SCORE.INTRA.DIHEDRAL>
-7.0457

>  <SCORE.INTRA.DIHEDRAL.0>
11.2699

>  <SCORE.INTRA.POLAR>
0

>  <SCORE.INTRA.POLAR.0>
0

>  <SCORE.INTRA.REPUL>
0

>  <SCORE.INTRA.REPUL.0>
0

>  <SCORE.INTRA.SOLV>
-0.316654

>  <SCORE.INTRA.SOLV.lig_0>
-48.6447

>  <SCORE.INTRA.VDW>
-3.3131

>  <SCORE.INTRA.VDW.0>
-0.0211724

>  <SCORE.INTRA.norm>
-0.259047

>  <SCORE.RESTR>
0

>  <SCORE.RESTR.CAVITY>
0

>  <SCORE.RESTR.norm>
0

>  <SCORE.SYSTEM>
0

>  <SCORE.SYSTEM.CONST>
0

>  <SCORE.SYSTEM.DIHEDRAL>
0

>  <SCORE.SYSTEM.SOLV>
0

>  <SCORE.SYSTEM.norm>
0

>  <SCORE.heavy>
27

>  <SCORE.norm>
-0.619653

>  <RMSD>
0.528

$$$$
ligand
 OpenBabel11021811483D
libRbt.so/2013.1/901 2013/11/27
 27 29  0  0  0  0  0  0  0  0999 V2000
   49.1493   57.2573   28.1635 N   0  0  0  0  0  0  0  0  0  0  0  0
   48.0538   56.3010   28.2686 C   0  0  2  0  0  0  0  0  0  0  0  0
   46.7212   56.9822   28.0042 C   0  0  0  0  0  0  0  0  0  0  0  0
   45.8261   56.3866   27.4093 O   0  0  0  0  0  0  0  0  0  0  0  0
   48.0339   55.6057   29.6292 C   0  0  0  0  0  0  0  0  0  0  0  0
   49.1951   54.6500   29.8762 C   0  0  0  0  0  0  0  0  0  0  0  0
   48.7349   53.1070   30.7122 S   0  0  2  0  0  0  0  0  0  0  0  0
   47.5532   52.4082   29.5332 C   0  0  0  0  0  0  0  0  0  0  0  0
   47.6040   53.7471   31.9752 C   0  0  0  0  0  0  0  0  0  0  0  0
   48.4022   54.3083   33.1426 C   0  0  1  0  0  0  0  0  0  0  0  0
   48.9626   55.5355   32.7423 O   0  0  0  0  0  0  0  0  0  0  0  0
   47.5765   54.6360   34.3703 C   0  0  1  0  0  0  0  0  0  0  0  0
   47.6450   53.5829   35.3005 O   0  0  0  0  0  0  0  0  0  0  0  0
   48.2379   55.8860   34.9220 C   0  0  1  0  0  0  0  0  0  0  0  0
   48.9948   55.5470   36.0598 O   0  0  0  0  0  0  0  0  0  0  0  0
   49.1563   56.4096   33.8249 C   0  0  2  0  0  0  0  0  0  0  0  0
   46.5159   58.1353   28.3842 O   0  0  0  0  0  0  0  0  0  0  0  0
   45.1556   59.3598   32.1002 N   0  0  0  0  0  0  0  0  0  0  0  0
   45.1647   58.0075   32.3763 C   0  0  0  0  0  0  0  0  0  0  0  0
   46.3191   57.3924   32.8249 N   0  0  0  0  0  0  0  0  0  0  0  0
   47.4556   58.1039   32.9915 C   0  0  0  0  0  0  0  0  0  0  0  0
   47.4674   59.4655   32.7270 C   0  0  0  0  0  0  0  0  0  0  0  0
   46.3102   60.0934   32.2741 C   0  0  0  0  0  0  0  0  0  0  0  0
   46.3047   61.3972   32.0089 N   0  0  0  0  0  0  0  0  0  0  0  0
   48.7128   59.9224   32.9868 N   0  0  0  0  0  0  0  0  0  0  0  0
   49.4755   58.8910   33.4194 C   0  0  0  0  0  0  0  0  0  0  0  0
   48.7089   57.7552   33.4275 N   0  0  0  0  0  0  0  0  0  0  0  0
  2  1  1  1  0  0  0
  2  3  1  0  0  0  0
  2  5  1  0  0  0  0
  3  4  1  0  0  0  0
  3 17  1  0  0  0  0
  5  6  1  0  0  0  0
  7  6  1  6  0  0  0
  7  8  1  0  0  0  0
  7  9  1  0  0  0  0
 10  9  1  6  0  0  0
 10 11  1  0  0  0  0
 10 12  1  0  0  0  0
 11 16  1  0  0  0  0
 12 13  1  1  0  0  0
 12 14  1  0  0  0  0
 14 15  1  1  0  0  0
 14 16  1  0  0  0  0
 16 27  1  6  0  0  0
 18 19  2  0  0  0  0
 18 23  1  0  0  0  0
 19 20  1  0  0  0  0
 20 21  2  0  0  0  0
 21 22  1  0  0  0  0
 21 27  1  0  0  0  0
 22 23  2  0  0  0  0
 22 25  1  0  0  0  0
 23 24  1  0  0  0  0
 25 26  2  0  0  0  0
 26 27  1  0  0  0  0
M  END
>  <CHROM.1>
143.88901055,-68.71219558,-139.33580018,60.36306905,-80.44692552,74.14949408
58.09443375,47.73913649,56.45635833,31.75970001,0.80049358,1.27451683,-2.10818881

>  <Name>
ligand

>  <RI>
0

>  <Rbt.Current_Directory>
/home/itssahil/PROJECTS/Mol_Feturizer/New_Systems/rnas/3GX7

>  <Rbt.Executable>
rbdock ($Id: //depot/dev/client3/rdock/2013.1/src/exe/rbdock.cxx#4 $)

>  <Rbt.Library>
libRbt.so (2013.1, Build901 2013/11/27)

>  <Rbt.Parameter_File>
/export/apps/rDock/src/rDock_2013.1_src/data/scripts/dock_solv.prm

>  <Rbt.Receptor>
prm/pocket_docking_2.prm

>  <SCORE>
-16.5779

>  <SCORE.INTER>
-12.515

>  <SCORE.INTER.CONST>
1

>  <SCORE.INTER.POLAR>
0

>  <SCORE.INTER.ROT>
7

>  <SCORE.INTER.SOLV>
20.8769

>  <SCORE.INTER.VDW>
-23.569

>  <SCORE.INTER.norm>
-0.463519

>  <SCORE.INTRA>
-4.09809

>  <SCORE.INTRA.DIHEDRAL>
-2.22959

>  <SCORE.INTRA.DIHEDRAL.0>
11.2699

>  <SCORE.INTRA.POLAR>
0

>  <SCORE.INTRA.POLAR.0>
0

>  <SCORE.INTRA.REPUL>
0

>  <SCORE.INTRA.REPUL.0>
0

>  <SCORE.INTRA.SOLV>
-0.322994

>  <SCORE.INTRA.SOLV.lig_0>
-48.6447

>  <SCORE.INTRA.VDW>
-2.8218

>  <SCORE.INTRA.VDW.0>
-0.0211724

>  <SCORE.INTRA.norm>
-0.151781

>  <SCORE.RESTR>
0.0352371

>  <SCORE.RESTR.CAVITY>
0.0352371

>  <SCORE.RESTR.norm>
0.00130508

>  <SCORE.SYSTEM>
0

>  <SCORE.SYSTEM.CONST>
0

>  <SCORE.SYSTEM.DIHEDRAL>
0

>  <SCORE.SYSTEM.SOLV>
0

>  <SCORE.SYSTEM.norm>
0

>  <SCORE.heavy>
27

>  <SCORE.norm>
-0.613995

>  <RMSD>
0.708

$$$$
ligand
 OpenBabel11021811483D
libRbt.so/2013.1/901 2013/11/27
 27 29  0  0  0  0  0  0  0  0999 V2000
   48.7697   57.7021   28.8463 N   0  0  0  0  0  0  0  0  0  0  0  0
   48.1878   56.3895   28.5933 C   0  0  2  0  0  0  0  0  0  0  0  0
   46.8482   56.5245   27.8885 C   0  0  0  0  0  0  0  0  0  0  0  0
   46.4027   57.6347   27.6078 O   0  0  0  0  0  0  0  0  0  0  0  0
   48.0320   55.5787   29.8790 C   0  0  0  0  0  0  0  0  0  0  0  0
   48.9029   54.3305   29.9577 C   0  0  0  0  0  0  0  0  0  0  0  0
   48.0915   52.8929   30.7101 S   0  0  2  0  0  0  0  0  0  0  0  0
   46.7468   52.5947   29.5363 C   0  0  0  0  0  0  0  0  0  0  0  0
   47.1843   53.6997   32.0555 C   0  0  0  0  0  0  0  0  0  0  0  0
   48.1634   54.2054   33.1044 C   0  0  1  0  0  0  0  0  0  0  0  0
   48.7270   55.4070   32.6366 O   0  0  0  0  0  0  0  0  0  0  0  0
   47.5323   54.5603   34.4357 C   0  0  1  0  0  0  0  0  0  0  0  0
   47.6727   53.4941   35.3426 O   0  0  0  0  0  0  0  0  0  0  0  0
   48.3277   55.7682   34.8969 C   0  0  1  0  0  0  0  0  0  0  0  0
   49.2149   55.3774   35.9181 O   0  0  0  0  0  0  0  0  0  0  0  0
   49.1130   56.2571   33.6863 C   0  0  2  0  0  0  0  0  0  0  0  0
   46.1923   55.5277   27.5841 O   0  0  0  0  0  0  0  0  0  0  0  0
   45.3726   59.2895   31.5654 N   0  0  0  0  0  0  0  0  0  0  0  0
   45.3920   57.9149   31.6886 C   0  0  0  0  0  0  0  0  0  0  0  0
   46.4696   57.2801   32.2786 N   0  0  0  0  0  0  0  0  0  0  0  0
   47.5214   57.9949   32.7350 C   0  0  0  0  0  0  0  0  0  0  0  0
   47.5200   59.3778   32.6282 C   0  0  0  0  0  0  0  0  0  0  0  0
   46.4398   60.0257   32.0348 C   0  0  0  0  0  0  0  0  0  0  0  0
   46.4242   61.3509   31.9176 N   0  0  0  0  0  0  0  0  0  0  0  0
   48.6730   59.8316   33.1684 N   0  0  0  0  0  0  0  0  0  0  0  0
   49.3882   58.7757   33.6227 C   0  0  0  0  0  0  0  0  0  0  0  0
   48.6863   57.6284   33.3606 N   0  0  0  0  0  0  0  0  0  0  0  0
  2  1  1  1  0  0  0
  2  3  1  0  0  0  0
  2  5  1  0  0  0  0
  3  4  1  0  0  0  0
  3 17  1  0  0  0  0
  5  6  1  0  0  0  0
  7  6  1  6  0  0  0
  7  8  1  0  0  0  0
  7  9  1  0  0  0  0
 10  9  1  6  0  0  0
 10 11  1  0  0  0  0
 10 12  1  0  0  0  0
 11 16  1  0  0  0  0
 12 13  1  1  0  0  0
 12 14  1  0  0  0  0
 14 15  1  1  0  0  0
 14 16  1  0  0  0  0
 16 27  1  6  0  0  0
 18 19  2  0  0  0  0
 18 23  1  0  0  0  0
 19 20  1  0  0  0  0
 20 21  2  0  0  0  0
 21 22  1  0  0  0  0
 21 27  1  0  0  0  0
 22 23  2  0  0  0  0
 22 25  1  0  0  0  0
 23 24  1  0  0  0  0
 25 26  2  0  0  0  0
 26 27  1  0  0  0  0
M  END
>  <CHROM.1>
0.24396029,-114.10557306,-140.90645632,63.12081544,-69.40519169,78.86801565
37.74881317,47.65451330,56.31953756,31.69743796,1.44171047,1.30953933,-2.57235725

>  <Name>
ligand

>  <RI>
0

>  <Rbt.Current_Directory>
/home/itssahil/PROJECTS/Mol_Feturizer/New_Systems/rnas/3GX7

>  <Rbt.Executable>
rbdock ($Id: //depot/dev/client3/rdock/2013.1/src/exe/rbdock.cxx#4 $)

>  <Rbt.Library>
libRbt.so (2013.1, Build901 2013/11/27)

>  <Rbt.Parameter_File>
/export/apps/rDock/src/rDock_2013.1_src/data/scripts/dock_solv.prm

>  <Rbt.Receptor>
prm/pocket_docking_2.prm

>  <SCORE>
-11.7278

>  <SCORE.INTER>
-10.257

>  <SCORE.INTER.CONST>
1

>  <SCORE.INTER.POLAR>
0

>  <SCORE.INTER.ROT>
7

>  <SCORE.INTER.SOLV>
20.171

>  <SCORE.INTER.VDW>
-21.8284

>  <SCORE.INTER.norm>
-0.37989

>  <SCORE.INTRA>
-1.49354

>  <SCORE.INTRA.DIHEDRAL>
3.18407

>  <SCORE.INTRA.DIHEDRAL.0>
11.2699

>  <SCORE.INTRA.POLAR>
0

>  <SCORE.INTRA.POLAR.0>
0

>  <SCORE.INTRA.REPUL>
0

>  <SCORE.INTRA.REPUL.0>
0

>  <SCORE.INTRA.SOLV>
-0.600297

>  <SCORE.INTRA.SOLV.lig_0>
-48.6447

>  <SCORE.INTRA.VDW>
-2.78542

>  <SCORE.INTRA.VDW.0>
-0.0211724

>  <SCORE.INTRA.norm>
-0.0553161

>  <SCORE.RESTR>
0.022749

>  <SCORE.RESTR.CAVITY>
0.022749

>  <SCORE.RESTR.norm>
0.000842557

>  <SCORE.SYSTEM>
0

>  <SCORE.SYSTEM.CONST>
0

>  <SCORE.SYSTEM.DIHEDRAL>
0

>  <SCORE.SYSTEM.SOLV>
0

>  <SCORE.SYSTEM.norm>
0

>  <SCORE.heavy>
27

>  <SCORE.norm>
-0.434363

>  <RMSD>
0.764

$$$$
ligand
 OpenBabel11021811483D
libRbt.so/2013.1/901 2013/11/27
 27 29  0  0  0  0  0  0  0  0999 V2000
   48.3436   58.3481   28.4878 N   0  0  0  0  0  0  0  0  0  0  0  0
   48.5051   57.2096   27.5917 C   0  0  2  0  0  0  0  0  0  0  0  0
   47.1621   56.7792   27.0253 C   0  0  0  0  0  0  0  0  0  0  0  0
   46.1295   56.9654   27.6648 O   0  0  0  0  0  0  0  0  0  0  0  0
   49.1908   56.0328   28.2845 C   0  0  0  0  0  0  0  0  0  0  0  0
   48.5557   55.6085   29.6033 C   0  0  0  0  0  0  0  0  0  0  0  0
   49.1156   53.9986   30.2246 S   0  0  2  0  0  0  0  0  0  0  0  0
   48.3390   52.8750   29.0375 C   0  0  0  0  0  0  0  0  0  0  0  0
   48.0090   53.7964   31.6453 C   0  0  0  0  0  0  0  0  0  0  0  0
   48.6471   54.4063   32.8845 C   0  0  1  0  0  0  0  0  0  0  0  0
   49.1384   55.6803   32.5442 O   0  0  0  0  0  0  0  0  0  0  0  0
   47.6876   54.6496   34.0320 C   0  0  1  0  0  0  0  0  0  0  0  0
   47.7572   53.5939   34.9592 O   0  0  0  0  0  0  0  0  0  0  0  0
   48.1897   55.9424   34.6490 C   0  0  1  0  0  0  0  0  0  0  0  0
   48.8642   55.6522   35.8504 O   0  0  0  0  0  0  0  0  0  0  0  0
   49.1587   56.5535   33.6445 C   0  0  2  0  0  0  0  0  0  0  0  0
   47.0865   56.2437   25.9190 O   0  0  0  0  0  0  0  0  0  0  0  0
   44.9012   59.3702   32.3702 N   0  0  0  0  0  0  0  0  0  0  0  0
   44.9676   58.0465   32.7556 C   0  0  0  0  0  0  0  0  0  0  0  0
   46.1859   57.4648   33.0549 N   0  0  0  0  0  0  0  0  0  0  0  0
   47.3284   58.1808   32.9666 C   0  0  0  0  0  0  0  0  0  0  0  0
   47.2845   59.5145   32.5883 C   0  0  0  0  0  0  0  0  0  0  0  0
   46.0625   60.1086   32.2841 C   0  0  0  0  0  0  0  0  0  0  0  0
   46.0019   61.3848   31.9129 N   0  0  0  0  0  0  0  0  0  0  0  0
   48.5520   59.9841   32.5950 N   0  0  0  0  0  0  0  0  0  0  0  0
   49.3850   58.9888   32.9801 C   0  0  0  0  0  0  0  0  0  0  0  0
   48.6399   57.8628   33.2141 N   0  0  0  0  0  0  0  0  0  0  0  0
  2  1  1  1  0  0  0
  2  3  1  0  0  0  0
  2  5  1  0  0  0  0
  3  4  1  0  0  0  0
  3 17  1  0  0  0  0
  5  6  1  0  0  0  0
  7  6  1  6  0  0  0
  7  8  1  0  0  0  0
  7  9  1  0  0  0  0
 10  9  1  6  0  0  0
 10 11  1  0  0  0  0
 10 12  1  0  0  0  0
 11 16  1  0  0  0  0
 12 13  1  1  0  0  0
 12 14  1  0  0  0  0
 14 15  1  1  0  0  0
 14 16  1  0  0  0  0
 16 27  1  6  0  0  0
 18 19  2  0  0  0  0
 18 23  1  0  0  0  0
 19 20  1  0  0  0  0
 20 21  2  0  0  0  0
 21 22  1  0  0  0  0
 21 27  1  0  0  0  0
 22 23  2  0  0  0  0
 22 25  1  0  0  0  0
 23 24  1  0  0  0  0
 25 26  2  0  0  0  0
 26 27  1  0  0  0  0
M  END
>  <CHROM.1>
-28.50261957,52.14058087,166.49482002,-70.60856278,-89.51868871,47.04459789
74.71435954,47.82712400,56.64675750,31.41947670,1.50488423,1.21862772,-1.69363528

>  <Name>
ligand

>  <RI>
0

>  <Rbt.Current_Directory>
/home/itssahil/PROJECTS/Mol_Feturizer/New_Systems/rnas/3GX7

>  <Rbt.Executable>
rbdock ($Id: //depot/dev/client3/rdock/2013.1/src/exe/rbdock.cxx#4 $)

>  <Rbt.Library>
libRbt.so (2013.1, Build901 2013/11/27)

>  <Rbt.Parameter_File>
/export/apps/rDock/src/rDock_2013.1_src/data/scripts/dock_solv.prm

>  <Rbt.Receptor>
prm/pocket_docking_2.prm

>  <SCORE>
-20.3817

>  <SCORE.INTER>
-14.9199

>  <SCORE.INTER.CONST>
1

>  <SCORE.INTER.POLAR>
0

>  <SCORE.INTER.ROT>
7

>  <SCORE.INTER.SOLV>
21.2519

>  <SCORE.INTER.VDW>
-25.2973

>  <SCORE.INTER.norm>
-0.55259

>  <SCORE.INTRA>
-5.46864

>  <SCORE.INTRA.DIHEDRAL>
-5.39456

>  <SCORE.INTRA.DIHEDRAL.0>
11.2699

>  <SCORE.INTRA.POLAR>
0

>  <SCORE.INTRA.POLAR.0>
0

>  <SCORE.INTRA.REPUL>
0

>  <SCORE.INTRA.REPUL.0>
0

>  <SCORE.INTRA.SOLV>
-0.241713

>  <SCORE.INTRA.SOLV.lig_0>
-48.6447

>  <SCORE.INTRA.VDW>
-2.6505

>  <SCORE.INTRA.VDW.0>
-0.0211724

>  <SCORE.INTRA.norm>
-0.202542

>  <SCORE.RESTR>
0.00685479

>  <SCORE.RESTR.CAVITY>
0.00685479

>  <SCORE.RESTR.norm>
0.000253881

>  <SCORE.SYSTEM>
0

>  <SCORE.SYSTEM.CONST>
0

>  <SCORE.SYSTEM.DIHEDRAL>
0

>  <SCORE.SYSTEM.SOLV>
0

>  <SCORE.SYSTEM.norm>
0

>  <SCORE.heavy>
27

>  <SCORE.norm>
-0.754879

>  <RMSD>
0.767

$$$$
ligand
 OpenBabel11021811483D
libRbt.so/2013.1/901 2013/11/27
 27 29  0  0  0  0  0  0  0  0999 V2000
   48.2470   57.9722   29.7762 N   0  0  0  0  0  0  0  0  0  0  0  0
   48.4315   57.0437   28.6674 C   0  0  2  0  0  0  0  0  0  0  0  0
   47.4011   57.2974   27.5795 C   0  0  0  0  0  0  0  0  0  0  0  0
   46.2994   56.7554   27.6284 O   0  0  0  0  0  0  0  0  0  0  0  0
   48.3701   55.5880   29.1279 C   0  0  0  0  0  0  0  0  0  0  0  0
   49.6366   55.0771   29.8044 C   0  0  0  0  0  0  0  0  0  0  0  0
   49.4425   53.4925   30.6662 S   0  0  2  0  0  0  0  0  0  0  0  0
   48.5105   52.5394   29.4423 C   0  0  0  0  0  0  0  0  0  0  0  0
   48.1215   53.9168   31.8319 C   0  0  0  0  0  0  0  0  0  0  0  0
   48.7211   54.5438   33.0817 C   0  0  1  0  0  0  0  0  0  0  0  0
   49.1663   55.8379   32.7541 O   0  0  0  0  0  0  0  0  0  0  0  0
   47.7397   54.7429   34.2192 C   0  0  1  0  0  0  0  0  0  0  0  0
   47.8396   53.6853   35.1414 O   0  0  0  0  0  0  0  0  0  0  0  0
   48.1839   56.0506   34.8490 C   0  0  1  0  0  0  0  0  0  0  0  0
   48.8553   55.7798   36.0567 O   0  0  0  0  0  0  0  0  0  0  0  0
   49.1398   56.7047   33.8592 C   0  0  2  0  0  0  0  0  0  0  0  0
   47.6503   58.0508   26.6379 O   0  0  0  0  0  0  0  0  0  0  0  0
   44.8563   59.2766   32.2097 N   0  0  0  0  0  0  0  0  0  0  0  0
   44.9792   57.9419   32.5391 C   0  0  0  0  0  0  0  0  0  0  0  0
   46.1953   57.4329   32.9567 N   0  0  0  0  0  0  0  0  0  0  0  0
   47.2814   58.2323   33.0403 C   0  0  0  0  0  0  0  0  0  0  0  0
   47.1792   59.5782   32.7212 C   0  0  0  0  0  0  0  0  0  0  0  0
   45.9591   60.0994   32.2989 C   0  0  0  0  0  0  0  0  0  0  0  0
   45.8440   61.3866   31.9821 N   0  0  0  0  0  0  0  0  0  0  0  0
   48.3971   60.1358   32.9029 N   0  0  0  0  0  0  0  0  0  0  0  0
   49.2536   59.1828   33.3398 C   0  0  0  0  0  0  0  0  0  0  0  0
   48.5755   57.9954   33.4299 N   0  0  0  0  0  0  0  0  0  0  0  0
  2  1  1  1  0  0  0
  2  3  1  0  0  0  0
  2  5  1  0  0  0  0
  3  4  1  0  0  0  0
  3 17  1  0  0  0  0
  5  6  1  0  0  0  0
  7  6  1  6  0  0  0
  7  8  1  0  0  0  0
  7  9  1  0  0  0  0
 10  9  1  6  0  0  0
 10 11  1  0  0  0  0
 10 12  1  0  0  0  0
 11 16  1  0  0  0  0
 12 13  1  1  0  0  0
 12 14  1  0  0  0  0
 14 15  1  1  0  0  0
 14 16  1  0  0  0  0
 16 27  1  6  0  0  0
 18 19  2  0  0  0  0
 18 23  1  0  0  0  0
 19 20  1  0  0  0  0
 20 21  2  0  0  0  0
 21 22  1  0  0  0  0
 21 27  1  0  0  0  0
 22 23  2  0  0  0  0
 22 25  1  0  0  0  0
 23 24  1  0  0  0  0
 25 26  2  0  0  0  0
 26 27  1  0  0  0  0
M  END
>  <CHROM.1>
-87.08911121,-77.99115215,167.22570602,44.92699953,-85.52361030,72.38756545
67.70953719,47.88664363,56.66745808,31.71708233,0.61827568,1.19207355,-1.66846129

>  <Name>
ligand

>  <RI>
0

>  <Rbt.Current_Directory>
/home/itssahil/PROJECTS/Mol_Feturizer/New_Systems/rnas/3GX7

>  <Rbt.Executable>
rbdock ($Id: //depot/dev/client3/rdock/2013.1/src/exe/rbdock.cxx#4 $)

>  <Rbt.Library>
libRbt.so (2013.1, Build901 2013/11/27)

>  <Rbt.Parameter_File>
/export/apps/rDock/src/rDock_2013.1_src/data/scripts/dock_solv.prm

>  <Rbt.Receptor>
prm/pocket_docking_2.prm

>  <SCORE>
-19.9895

>  <SCORE.INTER>
-16.0394

>  <SCORE.INTER.CONST>
1

>  <SCORE.INTER.POLAR>
0

>  <SCORE.INTER.ROT>
7

>  <SCORE.INTER.SOLV>
19.3799

>  <SCORE.INTER.VDW>
-25.4195

>  <SCORE.INTER.norm>
-0.594051

>  <SCORE.INTRA>
-4.18799

>  <SCORE.INTRA.DIHEDRAL>
-4.80516

>  <SCORE.INTRA.DIHEDRAL.0>
11.2699

>  <SCORE.INTRA.POLAR>
0

>  <SCORE.INTRA.POLAR.0>
0

>  <SCORE.INTRA.REPUL>
0

>  <SCORE.INTRA.REPUL.0>
0

>  <SCORE.INTRA.SOLV>
1.2226

>  <SCORE.INTRA.SOLV.lig_0>
-48.6447

>  <SCORE.INTRA.VDW>
-2.39671

>  <SCORE.INTRA.VDW.0>
-0.0211724

>  <SCORE.INTRA.norm>
-0.155111

>  <SCORE.RESTR>
0.237857

>  <SCORE.RESTR.CAVITY>
0.237857

>  <SCORE.RESTR.norm>
0.00880952

>  <SCORE.SYSTEM>
0

>  <SCORE.SYSTEM.CONST>
0

>  <SCORE.SYSTEM.DIHEDRAL>
0

>  <SCORE.SYSTEM.SOLV>
0

>  <SCORE.SYSTEM.norm>
0

>  <SCORE.heavy>
27

>  <SCORE.norm>
-0.740352

>  <RMSD>
0.845

$$$$
ligand
 OpenBabel11021811483D
libRbt.so/2013.1/901 2013/11/27
 27 29  0  0  0  0  0  0  0  0999 V2000
   48.5437   58.0975   29.6586 N   0  0  0  0  0  0  0  0  0  0  0  0
   48.7494   57.1528   28.5674 C   0  0  2  0  0  0  0  0  0  0  0  0
   47.6897   57.3360   27.4936 C   0  0  0  0  0  0  0  0  0  0  0  0
   47.5888   56.5258   26.5753 O   0  0  0  0  0  0  0  0  0  0  0  0
   48.7606   55.7067   29.0610 C   0  0  0  0  0  0  0  0  0  0  0  0
   49.9289   55.3510   29.9727 C   0  0  0  0  0  0  0  0  0  0  0  0
   49.9189   53.6399   30.5758 S   0  0  2  0  0  0  0  0  0  0  0  0
   49.2818   52.7613   29.1277 C   0  0  0  0  0  0  0  0  0  0  0  0
   48.4391   53.6730   31.6211 C   0  0  0  0  0  0  0  0  0  0  0  0
   48.8019   54.1786   33.0094 C   0  0  1  0  0  0  0  0  0  0  0  0
   49.3346   55.4747   32.8799 O   0  0  0  0  0  0  0  0  0  0  0  0
   47.6249   54.3307   33.9518 C   0  0  1  0  0  0  0  0  0  0  0  0
   47.5183   53.2031   34.7862 O   0  0  0  0  0  0  0  0  0  0  0  0
   47.9722   55.5679   34.7599 C   0  0  1  0  0  0  0  0  0  0  0  0
   48.3910   55.1793   36.0468 O   0  0  0  0  0  0  0  0  0  0  0  0
   49.1174   56.2557   34.0272 C   0  0  2  0  0  0  0  0  0  0  0  0
   46.9150   58.2926   27.5286 O   0  0  0  0  0  0  0  0  0  0  0  0
   45.1629   59.1834   32.1631 N   0  0  0  0  0  0  0  0  0  0  0  0
   45.1664   57.8335   32.4507 C   0  0  0  0  0  0  0  0  0  0  0  0
   46.3085   57.2244   32.9376 N   0  0  0  0  0  0  0  0  0  0  0  0
   47.4384   57.9396   33.1309 C   0  0  0  0  0  0  0  0  0  0  0  0
   47.4555   59.2989   32.8555 C   0  0  0  0  0  0  0  0  0  0  0  0
   46.3106   59.9207   32.3640 C   0  0  0  0  0  0  0  0  0  0  0  0
   46.3105   61.2222   32.0879 N   0  0  0  0  0  0  0  0  0  0  0  0
   48.6920   59.7605   33.1472 N   0  0  0  0  0  0  0  0  0  0  0  0
   49.4438   58.7343   33.6103 C   0  0  0  0  0  0  0  0  0  0  0  0
   48.6792   57.5971   33.6058 N   0  0  0  0  0  0  0  0  0  0  0  0
  2  1  1  1  0  0  0
  2  3  1  0  0  0  0
  2  5  1  0  0  0  0
  3  4  1  0  0  0  0
  3 17  1  0  0  0  0
  5  6  1  0  0  0  0
  7  6  1  6  0  0  0
  7  8  1  0  0  0  0
  7  9  1  0  0  0  0
 10  9  1  6  0  0  0
 10 11  1  0  0  0  0
 10 12  1  0  0  0  0
 11 16  1  0  0  0  0
 12 13  1  1  0  0  0
 12 14  1  0  0  0  0
 14 15  1  1  0  0  0
 14 16  1  0  0  0  0
 16 27  1  6  0  0  0
 18 19  2  0  0  0  0
 18 23  1  0  0  0  0
 19 20  1  0  0  0  0
 20 21  2  0  0  0  0
 21 22  1  0  0  0  0
 21 27  1  0  0  0  0
 22 23  2  0  0  0  0
 22 25  1  0  0  0  0
 23 24  1  0  0  0  0
 25 26  2  0  0  0  0
 26 27  1  0  0  0  0
M  END
>  <CHROM.1>
-170.73534747,-65.85046697,179.04136300,36.70733006,-85.54856426,59.71773316
75.25731605,48.09187476,56.50230174,31.68929455,1.47150173,1.18446681,-1.41786699

>  <Name>
ligand

>  <RI>
0

>  <Rbt.Current_Directory>
/home/itssahil/PROJECTS/Mol_Feturizer/New_Systems/rnas/3GX7

>  <Rbt.Executable>
rbdock ($Id: //depot/dev/client3/rdock/2013.1/src/exe/rbdock.cxx#4 $)

>  <Rbt.Library>
libRbt.so (2013.1, Build901 2013/11/27)

>  <Rbt.Parameter_File>
/export/apps/rDock/src/rDock_2013.1_src/data/scripts/dock_solv.prm

>  <Rbt.Receptor>
prm/pocket_docking_3.prm

>  <SCORE>
-21.8758

>  <SCORE.INTER>
-17.2879

>  <SCORE.INTER.CONST>
1

>  <SCORE.INTER.POLAR>
0

>  <SCORE.INTER.ROT>
7

>  <SCORE.INTER.SOLV>
20.6006

>  <SCORE.INTER.VDW>
-26.6588

>  <SCORE.INTER.norm>
-0.640291

>  <SCORE.INTRA>
-4.58792

>  <SCORE.INTRA.DIHEDRAL>
-6.51249

>  <SCORE.INTRA.DIHEDRAL.0>
11.2699

>  <SCORE.INTRA.POLAR>
0

>  <SCORE.INTRA.POLAR.0>
0

>  <SCORE.INTRA.REPUL>
0

>  <SCORE.INTRA.REPUL.0>
0

>  <SCORE.INTRA.SOLV>
0.28778

>  <SCORE.INTRA.SOLV.lig_0>
-48.6447

>  <SCORE.INTRA.VDW>
-1.47557

>  <SCORE.INTRA.VDW.0>
-0.0211724

>  <SCORE.INTRA.norm>
-0.169923

>  <SCORE.RESTR>
0

>  <SCORE.RESTR.CAVITY>
0

>  <SCORE.RESTR.norm>
0

>  <SCORE.SYSTEM>
0

>  <SCORE.SYSTEM.CONST>
0

>  <SCORE.SYSTEM.DIHEDRAL>
0

>  <SCORE.SYSTEM.SOLV>
0

>  <SCORE.SYSTEM.norm>
0

>  <SCORE.heavy>
27

>  <SCORE.norm>
-0.810214

>  <RMSD>
0.874

$$$$
ligand
 OpenBabel11021811483D
libRbt.so/2013.1/901 2013/11/27
 27 29  0  0  0  0  0  0  0  0999 V2000
   48.5342   57.9581   29.9169 N   0  0  0  0  0  0  0  0  0  0  0  0
   48.4371   56.9613   28.8574 C   0  0  2  0  0  0  0  0  0  0  0  0
   47.1960   57.1971   28.0125 C   0  0  0  0  0  0  0  0  0  0  0  0
   46.8441   58.3402   27.7305 O   0  0  0  0  0  0  0  0  0  0  0  0
   48.4384   55.5380   29.4132 C   0  0  0  0  0  0  0  0  0  0  0  0
   49.7491   55.1046   30.0589 C   0  0  0  0  0  0  0  0  0  0  0  0
   49.7238   53.4336   30.7649 S   0  0  2  0  0  0  0  0  0  0  0  0
   48.9955   52.4888   29.4041 C   0  0  0  0  0  0  0  0  0  0  0  0
   48.2972   53.5714   31.8737 C   0  0  0  0  0  0  0  0  0  0  0  0
   48.7430   54.1273   33.2179 C   0  0  1  0  0  0  0  0  0  0  0  0
   49.3021   55.4007   33.0034 O   0  0  0  0  0  0  0  0  0  0  0  0
   47.6196   54.3541   34.2094 C   0  0  1  0  0  0  0  0  0  0  0  0
   47.5260   53.2679   35.0985 O   0  0  0  0  0  0  0  0  0  0  0  0
   48.0397   55.6154   34.9422 C   0  0  1  0  0  0  0  0  0  0  0  0
   48.5128   55.2723   36.2232 O   0  0  0  0  0  0  0  0  0  0  0  0
   49.1638   56.2375   34.1233 C   0  0  2  0  0  0  0  0  0  0  0  0
   46.5284   56.2506   27.5945 O   0  0  0  0  0  0  0  0  0  0  0  0
   45.2014   59.1876   32.3123 N   0  0  0  0  0  0  0  0  0  0  0  0
   45.1847   57.8516   32.6585 C   0  0  0  0  0  0  0  0  0  0  0  0
   46.3325   57.2336   33.1198 N   0  0  0  0  0  0  0  0  0  0  0  0
   47.4876   57.9259   33.2303 C   0  0  0  0  0  0  0  0  0  0  0  0
   47.5256   59.2712   32.8949 C   0  0  0  0  0  0  0  0  0  0  0  0
   46.3751   59.9018   32.4287 C   0  0  0  0  0  0  0  0  0  0  0  0
   46.3945   61.1898   32.0958 N   0  0  0  0  0  0  0  0  0  0  0  0
   48.7854   59.7115   33.1100 N   0  0  0  0  0  0  0  0  0  0  0  0
   49.5320   58.6862   33.5835 C   0  0  0  0  0  0  0  0  0  0  0  0
   48.7401   57.5708   33.6634 N   0  0  0  0  0  0  0  0  0  0  0  0
  2  1  1  1  0  0  0
  2  3  1  0  0  0  0
  2  5  1  0  0  0  0
  3  4  1  0  0  0  0
  3 17  1  0  0  0  0
  5  6  1  0  0  0  0
  7  6  1  6  0  0  0
  7  8  1  0  0  0  0
  7  9  1  0  0  0  0
 10  9  1  6  0  0  0
 10 11  1  0  0  0  0
 10 12  1  0  0  0  0
 11 16  1  0  0  0  0
 12 13  1  1  0  0  0
 12 14  1  0  0  0  0
 14 15  1  1  0  0  0
 14 16  1  0  0  0  0
 16 27  1  6  0  0  0
 18 19  2  0  0  0  0
 18 23  1  0  0  0  0
 19 20  1  0  0  0  0
 20 21  2  0  0  0  0
 21 22  1  0  0  0  0
 21 27  1  0  0  0  0
 22 23  2  0  0  0  0
 22 25  1  0  0  0  0
 23 24  1  0  0  0  0
 25 26  2  0  0  0  0
 26 27  1  0  0  0  0
M  END
>  <CHROM.1>
38.90311315,-67.15097356,178.06375755,48.05390388,-86.45477530,60.31944275
74.97628955,47.99473940,56.42862661,31.89990327,-2.96140506,-1.21555952,1.49447531

>  <Name>
ligand

>  <RI>
0

>  <Rbt.Current_Directory>
/home/itssahil/PROJECTS/Mol_Feturizer/New_Systems/rnas/3GX7

>  <Rbt.Executable>
rbdock ($Id: //depot/dev/client3/rdock/2013.1/src/exe/rbdock.cxx#4 $)

>  <Rbt.Library>
libRbt.so (2013.1, Build901 2013/11/27)

>  <Rbt.Parameter_File>
/export/apps/rDock/src/rDock_2013.1_src/data/scripts/dock_solv.prm

>  <Rbt.Receptor>
prm/pocket_docking_3.prm

>  <SCORE>
-21.7331

>  <SCORE.INTER>
-16.8536

>  <SCORE.INTER.CONST>
1

>  <SCORE.INTER.POLAR>
0

>  <SCORE.INTER.ROT>
7

>  <SCORE.INTER.SOLV>
19.9809

>  <SCORE.INTER.VDW>
-26.1627

>  <SCORE.INTER.norm>
-0.624207

>  <SCORE.INTRA>
-4.87953

>  <SCORE.INTRA.DIHEDRAL>
-6.94706

>  <SCORE.INTRA.DIHEDRAL.0>
11.2699

>  <SCORE.INTRA.POLAR>
0

>  <SCORE.INTRA.POLAR.0>
0

>  <SCORE.INTRA.REPUL>
0

>  <SCORE.INTRA.REPUL.0>
0

>  <SCORE.INTRA.SOLV>
0.977402

>  <SCORE.INTRA.SOLV.lig_0>
-48.6447

>  <SCORE.INTRA.VDW>
-1.8947

>  <SCORE.INTRA.VDW.0>
-0.0211724

>  <SCORE.INTRA.norm>
-0.180723

>  <SCORE.RESTR>
0

>  <SCORE.RESTR.CAVITY>
0

>  <SCORE.RESTR.norm>
0

>  <SCORE.SYSTEM>
0

>  <SCORE.SYSTEM.CONST>
0

>  <SCORE.SYSTEM.DIHEDRAL>
0

>  <SCORE.SYSTEM.SOLV>
0

>  <SCORE.SYSTEM.norm>
0

>  <SCORE.heavy>
27

>  <SCORE.norm>
-0.80493

>  <RMSD>
0.881

$$$$
ligand
 OpenBabel11021811483D
libRbt.so/2013.1/901 2013/11/27
 27 29  0  0  0  0  0  0  0  0999 V2000
   48.2398   58.6645   29.1308 N   0  0  0  0  0  0  0  0  0  0  0  0
   48.5453   57.3654   28.5437 C   0  0  2  0  0  0  0  0  0  0  0  0
   47.4782   56.9685   27.5371 C   0  0  0  0  0  0  0  0  0  0  0  0
   47.7938   56.4500   26.4687 O   0  0  0  0  0  0  0  0  0  0  0  0
   48.6993   56.2813   29.6095 C   0  0  0  0  0  0  0  0  0  0  0  0
   48.8473   54.8655   29.0652 C   0  0  0  0  0  0  0  0  0  0  0  0
   49.4191   53.6474   30.2820 S   0  0  2  0  0  0  0  0  0  0  0  0
   48.9320   52.0984   29.4832 C   0  0  0  0  0  0  0  0  0  0  0  0
   48.1155   53.8003   31.5314 C   0  0  0  0  0  0  0  0  0  0  0  0
   48.7126   54.3005   32.8383 C   0  0  1  0  0  0  0  0  0  0  0  0
   49.2877   55.5633   32.6040 O   0  0  0  0  0  0  0  0  0  0  0  0
   47.7031   54.5286   33.9453 C   0  0  1  0  0  0  0  0  0  0  0  0
   47.6651   53.4181   34.8081 O   0  0  0  0  0  0  0  0  0  0  0  0
   48.2354   55.7535   34.6668 C   0  0  1  0  0  0  0  0  0  0  0  0
   48.8244   55.3567   35.8826 O   0  0  0  0  0  0  0  0  0  0  0  0
   49.2903   56.3681   33.7554 C   0  0  2  0  0  0  0  0  0  0  0  0
   46.2847   57.1547   27.7765 O   0  0  0  0  0  0  0  0  0  0  0  0
   45.2883   59.4535   32.2898 N   0  0  0  0  0  0  0  0  0  0  0  0
   45.2677   58.1034   32.5756 C   0  0  0  0  0  0  0  0  0  0  0  0
   46.4276   57.4488   32.9477 N   0  0  0  0  0  0  0  0  0  0  0  0
   47.5979   58.1190   33.0288 C   0  0  0  0  0  0  0  0  0  0  0  0
   47.6406   59.4777   32.7530 C   0  0  0  0  0  0  0  0  0  0  0  0
   46.4780   60.1451   32.3767 C   0  0  0  0  0  0  0  0  0  0  0  0
   46.5012   61.4467   32.1019 N   0  0  0  0  0  0  0  0  0  0  0  0
   48.9168   59.8900   32.9216 N   0  0  0  0  0  0  0  0  0  0  0  0
   49.6701   58.8337   33.3084 C   0  0  0  0  0  0  0  0  0  0  0  0
   48.8652   57.7270   33.3792 N   0  0  0  0  0  0  0  0  0  0  0  0
  2  1  1  1  0  0  0
  2  3  1  0  0  0  0
  2  5  1  0  0  0  0
  3  4  1  0  0  0  0
  3 17  1  0  0  0  0
  5  6  1  0  0  0  0
  7  6  1  6  0  0  0
  7  8  1  0  0  0  0
  7  9  1  0  0  0  0
 10  9  1  6  0  0  0
 10 11  1  0  0  0  0
 10 12  1  0  0  0  0
 11 16  1  0  0  0  0
 12 13  1  1  0  0  0
 12 14  1  0  0  0  0
 14 15  1  1  0  0  0
 14 16  1  0  0  0  0
 16 27  1  6  0  0  0
 18 19  2  0  0  0  0
 18 23  1  0  0  0  0
 19 20  1  0  0  0  0
 20 21  2  0  0  0  0
 21 22  1  0  0  0  0
 21 27  1  0  0  0  0
 22 23  2  0  0  0  0
 22 25  1  0  0  0  0
 23 24  1  0  0  0  0
 25 26  2  0  0  0  0
 26 27  1  0  0  0  0
M  END
>  <CHROM.1>
138.18785643,172.74320056,166.13743513,161.45569414,-116.87694587,60.62895795
71.85965814,48.03522853,56.55626130,31.59272593,0.85376844,1.26897070,-1.69490008

>  <Name>
ligand

>  <RI>
0

>  <Rbt.Current_Directory>
/home/itssahil/PROJECTS/Mol_Feturizer/New_Systems/rnas/3GX7

>  <Rbt.Executable>
rbdock ($Id: //depot/dev/client3/rdock/2013.1/src/exe/rbdock.cxx#4 $)

>  <Rbt.Library>
libRbt.so (2013.1, Build901 2013/11/27)

>  <Rbt.Parameter_File>
/export/apps/rDock/src/rDock_2013.1_src/data/scripts/dock_solv.prm

>  <Rbt.Receptor>
prm/pocket_docking_3.prm

>  <SCORE>
-19.8752

>  <SCORE.INTER>
-14.6789

>  <SCORE.INTER.CONST>
1

>  <SCORE.INTER.POLAR>
0

>  <SCORE.INTER.ROT>
7

>  <SCORE.INTER.SOLV>
22.8307

>  <SCORE.INTER.VDW>
-25.6629

>  <SCORE.INTER.norm>
-0.543664

>  <SCORE.INTRA>
-5.19623

>  <SCORE.INTRA.DIHEDRAL>
-2.92956

>  <SCORE.INTRA.DIHEDRAL.0>
11.2699

>  <SCORE.INTRA.POLAR>
0

>  <SCORE.INTRA.POLAR.0>
0

>  <SCORE.INTRA.REPUL>
0

>  <SCORE.INTRA.REPUL.0>
0

>  <SCORE.INTRA.SOLV>
-0.787266

>  <SCORE.INTRA.SOLV.lig_0>
-48.6447

>  <SCORE.INTRA.VDW>
-3.33782

>  <SCORE.INTRA.VDW.0>
-0.0211724

>  <SCORE.INTRA.norm>
-0.192453

>  <SCORE.RESTR>
0

>  <SCORE.RESTR.CAVITY>
0

>  <SCORE.RESTR.norm>
0

>  <SCORE.SYSTEM>
0

>  <SCORE.SYSTEM.CONST>
0

>  <SCORE.SYSTEM.DIHEDRAL>
0

>  <SCORE.SYSTEM.SOLV>
0

>  <SCORE.SYSTEM.norm>
0

>  <SCORE.heavy>
27

>  <SCORE.norm>
-0.736117

>  <RMSD>
0.895

$$$$
ligand
 OpenBabel11021811483D
libRbt.so/2013.1/901 2013/11/27
 27 29  0  0  0  0  0  0  0  0999 V2000
   48.5107   57.9229   29.4833 N   0  0  0  0  0  0  0  0  0  0  0  0
   47.9497   56.7396   28.8425 C   0  0  2  0  0  0  0  0  0  0  0  0
   46.5414   57.0178   28.3435 C   0  0  0  0  0  0  0  0  0  0  0  0
   45.8470   56.1053   27.9019 O   0  0  0  0  0  0  0  0  0  0  0  0
   47.9527   55.5308   29.7773 C   0  0  0  0  0  0  0  0  0  0  0  0
   49.3320   55.1008   30.2624 C   0  0  0  0  0  0  0  0  0  0  0  0
   49.4143   53.3980   30.8830 S   0  0  2  0  0  0  0  0  0  0  0  0
   48.5892   52.4976   29.5476 C   0  0  0  0  0  0  0  0  0  0  0  0
   48.0918   53.4397   32.1212 C   0  0  0  0  0  0  0  0  0  0  0  0
   48.6120   54.0633   33.4078 C   0  0  1  0  0  0  0  0  0  0  0  0
   49.1492   55.3266   33.0981 O   0  0  0  0  0  0  0  0  0  0  0  0
   47.5472   54.3351   34.4513 C   0  0  1  0  0  0  0  0  0  0  0  0
   47.5130   53.2941   35.3969 O   0  0  0  0  0  0  0  0  0  0  0  0
   48.0013   55.6327   35.0949 C   0  0  1  0  0  0  0  0  0  0  0  0
   48.5509   55.3554   36.3612 O   0  0  0  0  0  0  0  0  0  0  0  0
   49.0713   56.2174   34.1815 C   0  0  2  0  0  0  0  0  0  0  0  0
   46.0734   58.1562   28.3781 O   0  0  0  0  0  0  0  0  0  0  0  0
   45.0016   59.0434   32.4108 N   0  0  0  0  0  0  0  0  0  0  0  0
   45.0156   57.7238   32.8152 C   0  0  0  0  0  0  0  0  0  0  0  0
   46.1891   57.1387   33.2547 N   0  0  0  0  0  0  0  0  0  0  0  0
   47.3391   57.8472   33.2866 C   0  0  0  0  0  0  0  0  0  0  0  0
   47.3467   59.1768   32.8916 C   0  0  0  0  0  0  0  0  0  0  0  0
   46.1703   59.7742   32.4469 C   0  0  0  0  0  0  0  0  0  0  0  0
   46.1602   61.0465   32.0577 N   0  0  0  0  0  0  0  0  0  0  0  0
   48.6088   59.6393   33.0346 N   0  0  0  0  0  0  0  0  0  0  0  0
   49.3869   58.6438   33.5206 C   0  0  0  0  0  0  0  0  0  0  0  0
   48.6127   57.5247   33.6821 N   0  0  0  0  0  0  0  0  0  0  0  0
  2  1  1  1  0  0  0
  2  3  1  0  0  0  0
  2  5  1  0  0  0  0
  3  4  1  0  0  0  0
  3 17  1  0  0  0  0
  5  6  1  0  0  0  0
  7  6  1  6  0  0  0
  7  8  1  0  0  0  0
  7  9  1  0  0  0  0
 10  9  1  6  0  0  0
 10 11  1  0  0  0  0
 10 12  1  0  0  0  0
 11 16  1  0  0  0  0
 12 13  1  1  0  0  0
 12 14  1  0  0  0  0
 14 15  1  1  0  0  0
 14 16  1  0  0  0  0
 16 27  1  6  0  0  0
 18 19  2  0  0  0  0
 18 23  1  0  0  0  0
 19 20  1  0  0  0  0
 20 21  2  0  0  0  0
 21 22  1  0  0  0  0
 21 27  1  0  0  0  0
 22 23  2  0  0  0  0
 22 25  1  0  0  0  0
 23 24  1  0  0  0  0
 25 26  2  0  0  0  0
 26 27  1  0  0  0  0
M  END
>  <CHROM.1>
-172.24000685,-60.44839282,-160.33647196,48.83654010,-81.28138746,54.92721434
73.87202542,47.74303418,56.35939016,32.03094004,-2.93547034,-1.19506351,1.27419360

>  <Name>
ligand

>  <RI>
0

>  <Rbt.Current_Directory>
/home/itssahil/PROJECTS/Mol_Feturizer/New_Systems/rnas/3GX7

>  <Rbt.Executable>
rbdock ($Id: //depot/dev/client3/rdock/2013.1/src/exe/rbdock.cxx#4 $)

>  <Rbt.Library>
libRbt.so (2013.1, Build901 2013/11/27)

>  <Rbt.Parameter_File>
/export/apps/rDock/src/rDock_2013.1_src/data/scripts/dock_solv.prm

>  <Rbt.Receptor>
prm/pocket_docking_2.prm

>  <SCORE>
-20.8755

>  <SCORE.INTER>
-15.7818

>  <SCORE.INTER.CONST>
1

>  <SCORE.INTER.POLAR>
0

>  <SCORE.INTER.ROT>
7

>  <SCORE.INTER.SOLV>
19.3836

>  <SCORE.INTER.VDW>
-25.2491

>  <SCORE.INTER.norm>
-0.584511

>  <SCORE.INTRA>
-5.18361

>  <SCORE.INTRA.DIHEDRAL>
-6.18082

>  <SCORE.INTRA.DIHEDRAL.0>
11.2699

>  <SCORE.INTRA.POLAR>
0

>  <SCORE.INTRA.POLAR.0>
0

>  <SCORE.INTRA.REPUL>
0

>  <SCORE.INTRA.REPUL.0>
0

>  <SCORE.INTRA.SOLV>
-0.0848634

>  <SCORE.INTRA.SOLV.lig_0>
-48.6447

>  <SCORE.INTRA.VDW>
-2.05077

>  <SCORE.INTRA.VDW.0>
-0.0211724

>  <SCORE.INTRA.norm>
-0.191986

>  <SCORE.RESTR>
0.0898849

>  <SCORE.RESTR.CAVITY>
0.0898849

>  <SCORE.RESTR.norm>
0.00332907

>  <SCORE.SYSTEM>
0

>  <SCORE.SYSTEM.CONST>
0

>  <SCORE.SYSTEM.DIHEDRAL>
0

>  <SCORE.SYSTEM.SOLV>
0

>  <SCORE.SYSTEM.norm>
0

>  <SCORE.heavy>
27

>  <SCORE.norm>
-0.773168

>  <RMSD>
0.935

$$$$
ligand
 OpenBabel11021811483D
libRbt.so/2013.1/901 2013/11/27
 27 29  0  0  0  0  0  0  0  0999 V2000
   49.5176   55.9841   28.0256 N   0  0  0  0  0  0  0  0  0  0  0  0
   48.2836   56.1405   27.2651 C   0  0  2  0  0  0  0  0  0  0  0  0
   47.7091   57.5343   27.4574 C   0  0  0  0  0  0  0  0  0  0  0  0
   47.1064   58.0898   26.5420 O   0  0  0  0  0  0  0  0  0  0  0  0
   47.2466   55.0825   27.6392 C   0  0  0  0  0  0  0  0  0  0  0  0
   46.9450   54.9812   29.1297 C   0  0  0  0  0  0  0  0  0  0  0  0
   48.2538   54.1960   30.1106 S   0  0  2  0  0  0  0  0  0  0  0  0
   48.2248   52.5116   29.4498 C   0  0  0  0  0  0  0  0  0  0  0  0
   47.3809   53.9517   31.6797 C   0  0  0  0  0  0  0  0  0  0  0  0
   48.2167   54.5049   32.8242 C   0  0  1  0  0  0  0  0  0  0  0  0
   48.7663   55.7335   32.4133 O   0  0  0  0  0  0  0  0  0  0  0  0
   47.4311   54.8270   34.0794 C   0  0  1  0  0  0  0  0  0  0  0  0
   47.5274   53.7685   35.0010 O   0  0  0  0  0  0  0  0  0  0  0  0
   48.1120   56.0727   34.6168 C   0  0  1  0  0  0  0  0  0  0  0  0
   48.9042   55.7260   35.7281 O   0  0  0  0  0  0  0  0  0  0  0  0
   48.9959   56.6011   33.4940 C   0  0  2  0  0  0  0  0  0  0  0  0
   47.8333   58.1252   28.5307 O   0  0  0  0  0  0  0  0  0  0  0  0
   44.8784   59.6514   32.3002 N   0  0  0  0  0  0  0  0  0  0  0  0
   44.8839   58.3099   32.6245 C   0  0  0  0  0  0  0  0  0  0  0  0
   46.0725   57.6639   32.9113 N   0  0  0  0  0  0  0  0  0  0  0  0
   47.2450   58.3340   32.8703 C   0  0  0  0  0  0  0  0  0  0  0  0
   47.2623   59.6844   32.5538 C   0  0  0  0  0  0  0  0  0  0  0  0
   46.0707   60.3431   32.2627 C   0  0  0  0  0  0  0  0  0  0  0  0
   46.0687   61.6364   31.9505 N   0  0  0  0  0  0  0  0  0  0  0  0
   48.5481   60.0990   32.5978 N   0  0  0  0  0  0  0  0  0  0  0  0
   49.3332   59.0526   32.9463 C   0  0  0  0  0  0  0  0  0  0  0  0
   48.5385   57.9497   33.1187 N   0  0  0  0  0  0  0  0  0  0  0  0
  2  1  1  1  0  0  0
  2  3  1  0  0  0  0
  2  5  1  0  0  0  0
  3  4  1  0  0  0  0
  3 17  1  0  0  0  0
  5  6  1  0  0  0  0
  7  6  1  6  0  0  0
  7  8  1  0  0  0  0
  7  9  1  0  0  0  0
 10  9  1  6  0  0  0
 10 11  1  0  0  0  0
 10 12  1  0  0  0  0
 11 16  1  0  0  0  0
 12 13  1  1  0  0  0
 12 14  1  0  0  0  0
 14 15  1  1  0  0  0
 14 16  1  0  0  0  0
 16 27  1  6  0  0  0
 18 19  2  0  0  0  0
 18 23  1  0  0  0  0
 19 20  1  0  0  0  0
 20 21  2  0  0  0  0
 21 22  1  0  0  0  0
 21 27  1  0  0  0  0
 22 23  2  0  0  0  0
 22 25  1  0  0  0  0
 23 24  1  0  0  0  0
 25 26  2  0  0  0  0
 26 27  1  0  0  0  0
M  END
>  <CHROM.1>
146.60551389,53.06626891,-73.71061452,-65.33801728,-129.19441595,42.02935939
65.96590443,47.65646364,56.71204570,31.39927599,1.21552603,1.32538634,-1.62523195

>  <Name>
ligand

>  <RI>
0

>  <Rbt.Current_Directory>
/home/itssahil/PROJECTS/Mol_Feturizer/New_Systems/rnas/3GX7

>  <Rbt.Executable>
rbdock ($Id: //depot/dev/client3/rdock/2013.1/src/exe/rbdock.cxx#4 $)

>  <Rbt.Library>
libRbt.so (2013.1, Build901 2013/11/27)

>  <Rbt.Parameter_File>
/export/apps/rDock/src/rDock_2013.1_src/data/scripts/dock_solv.prm

>  <Rbt.Receptor>
prm/pocket_docking_2.prm

>  <SCORE>
-16.149

>  <SCORE.INTER>
-13.223

>  <SCORE.INTER.CONST>
1

>  <SCORE.INTER.POLAR>
0

>  <SCORE.INTER.ROT>
7

>  <SCORE.INTER.SOLV>
17.8022

>  <SCORE.INTER.VDW>
-23.0161

>  <SCORE.INTER.norm>
-0.489741

>  <SCORE.INTRA>
-2.92603

>  <SCORE.INTRA.DIHEDRAL>
-1.79913

>  <SCORE.INTRA.DIHEDRAL.0>
11.2699

>  <SCORE.INTRA.POLAR>
0

>  <SCORE.INTRA.POLAR.0>
0

>  <SCORE.INTRA.REPUL>
0

>  <SCORE.INTRA.REPUL.0>
0

>  <SCORE.INTRA.SOLV>
1.45012

>  <SCORE.INTRA.SOLV.lig_0>
-48.6447

>  <SCORE.INTRA.VDW>
-2.75152

>  <SCORE.INTRA.VDW.0>
-0.0211724

>  <SCORE.INTRA.norm>
-0.108371

>  <SCORE.RESTR>
0

>  <SCORE.RESTR.CAVITY>
0

>  <SCORE.RESTR.norm>
0

>  <SCORE.SYSTEM>
0

>  <SCORE.SYSTEM.CONST>
0

>  <SCORE.SYSTEM.DIHEDRAL>
0

>  <SCORE.SYSTEM.SOLV>
0

>  <SCORE.SYSTEM.norm>
0

>  <SCORE.heavy>
27

>  <SCORE.norm>
-0.598113

>  <RMSD>
0.948

$$$$
ligand
 OpenBabel11021811483D
libRbt.so/2013.1/901 2013/11/27
 27 29  0  0  0  0  0  0  0  0999 V2000
   48.5153   57.9954   29.3762 N   0  0  0  0  0  0  0  0  0  0  0  0
   48.9507   57.0640   28.3426 C   0  0  2  0  0  0  0  0  0  0  0  0
   47.8096   56.7507   27.3890 C   0  0  0  0  0  0  0  0  0  0  0  0
   47.9410   56.9338   26.1811 O   0  0  0  0  0  0  0  0  0  0  0  0
   49.5136   55.7747   28.9389 C   0  0  0  0  0  0  0  0  0  0  0  0
   48.6679   55.1602   30.0479 C   0  0  0  0  0  0  0  0  0  0  0  0
   49.3405   53.6263   30.7451 S   0  0  2  0  0  0  0  0  0  0  0  0
   48.7820   52.4120   29.5251 C   0  0  0  0  0  0  0  0  0  0  0  0
   48.1509   53.3273   32.0791 C   0  0  0  0  0  0  0  0  0  0  0  0
   48.6619   53.9465   33.3714 C   0  0  1  0  0  0  0  0  0  0  0  0
   49.1874   55.2172   33.0724 O   0  0  0  0  0  0  0  0  0  0  0  0
   47.5921   54.1999   34.4143 C   0  0  1  0  0  0  0  0  0  0  0  0
   47.5659   53.1517   35.3521 O   0  0  0  0  0  0  0  0  0  0  0  0
   48.0317   55.4972   35.0686 C   0  0  1  0  0  0  0  0  0  0  0  0
   48.5811   55.2159   36.3342 O   0  0  0  0  0  0  0  0  0  0  0  0
   49.0981   56.0992   34.1622 C   0  0  2  0  0  0  0  0  0  0  0  0
   46.7409   56.3055   27.8088 O   0  0  0  0  0  0  0  0  0  0  0  0
   45.0017   58.9019   32.4162 N   0  0  0  0  0  0  0  0  0  0  0  0
   45.0274   57.5802   32.8129 C   0  0  0  0  0  0  0  0  0  0  0  0
   46.2065   57.0022   33.2465 N   0  0  0  0  0  0  0  0  0  0  0  0
   47.3507   57.7199   33.2803 C   0  0  0  0  0  0  0  0  0  0  0  0
   47.3467   59.0518   32.8931 C   0  0  0  0  0  0  0  0  0  0  0  0
   46.1645   59.6421   32.4542 C   0  0  0  0  0  0  0  0  0  0  0  0
   46.1431   60.9165   32.0724 N   0  0  0  0  0  0  0  0  0  0  0  0
   48.6052   59.5238   33.0362 N   0  0  0  0  0  0  0  0  0  0  0  0
   49.3924   58.5319   33.5149 C   0  0  0  0  0  0  0  0  0  0  0  0
   48.6277   57.4056   33.6713 N   0  0  0  0  0  0  0  0  0  0  0  0
  2  1  1  1  0  0  0
  2  3  1  0  0  0  0
  2  5  1  0  0  0  0
  3  4  1  0  0  0  0
  3 17  1  0  0  0  0
  5  6  1  0  0  0  0
  7  6  1  6  0  0  0
  7  8  1  0  0  0  0
  7  9  1  0  0  0  0
 10  9  1  6  0  0  0
 10 11  1  0  0  0  0
 10 12  1  0  0  0  0
 11 16  1  0  0  0  0
 12 13  1  1  0  0  0
 12 14  1  0  0  0  0
 14 15  1  1  0  0  0
 14 16  1  0  0  0  0
 16 27  1  6  0  0  0
 18 19  2  0  0  0  0
 18 23  1  0  0  0  0
 19 20  1  0  0  0  0
 20 21  2  0  0  0  0
 21 22  1  0  0  0  0
 21 27  1  0  0  0  0
 22 23  2  0  0  0  0
 22 25  1  0  0  0  0
 23 24  1  0  0  0  0
 25 26  2  0  0  0  0
 26 27  1  0  0  0  0
M  END
>  <CHROM.1>
124.34584144,46.44615123,179.76482557,-81.67814664,-92.87462218,42.80577047
74.15812005,47.97566424,56.26934545,31.82762875,1.43355683,1.22480683,-1.38680704

>  <Name>
ligand

>  <RI>
0

>  <Rbt.Current_Directory>
/home/itssahil/PROJECTS/Mol_Feturizer/New_Systems/rnas/3GX7

>  <Rbt.Executable>
rbdock ($Id: //depot/dev/client3/rdock/2013.1/src/exe/rbdock.cxx#4 $)

>  <Rbt.Library>
libRbt.so (2013.1, Build901 2013/11/27)

>  <Rbt.Parameter_File>
/export/apps/rDock/src/rDock_2013.1_src/data/scripts/dock_solv.prm

>  <Rbt.Receptor>
prm/pocket_docking_3.prm

>  <SCORE>
-22.5638

>  <SCORE.INTER>
-17.3842

>  <SCORE.INTER.CONST>
1

>  <SCORE.INTER.POLAR>
0

>  <SCORE.INTER.ROT>
7

>  <SCORE.INTER.SOLV>
19.5648

>  <SCORE.INTER.VDW>
-26.3777

>  <SCORE.INTER.norm>
-0.643859

>  <SCORE.INTRA>
-5.17957

>  <SCORE.INTRA.DIHEDRAL>
-4.35231

>  <SCORE.INTRA.DIHEDRAL.0>
11.2699

>  <SCORE.INTRA.POLAR>
0

>  <SCORE.INTRA.POLAR.0>
0

>  <SCORE.INTRA.REPUL>
0

>  <SCORE.INTRA.REPUL.0>
0

>  <SCORE.INTRA.SOLV>
-0.107199

>  <SCORE.INTRA.SOLV.lig_0>
-48.6447

>  <SCORE.INTRA.VDW>
-2.94981

>  <SCORE.INTRA.VDW.0>
-0.0211724

>  <SCORE.INTRA.norm>
-0.191836

>  <SCORE.RESTR>
0

>  <SCORE.RESTR.CAVITY>
0

>  <SCORE.RESTR.norm>
0

>  <SCORE.SYSTEM>
0

>  <SCORE.SYSTEM.CONST>
0

>  <SCORE.SYSTEM.DIHEDRAL>
0

>  <SCORE.SYSTEM.SOLV>
0

>  <SCORE.SYSTEM.norm>
0

>  <SCORE.heavy>
27

>  <SCORE.norm>
-0.835695

>  <RMSD>
1.042

$$$$
ligand
 OpenBabel11021811483D
libRbt.so/2013.1/901 2013/11/27
 27 29  0  0  0  0  0  0  0  0999 V2000
   49.5667   56.9785   27.9859 N   0  0  0  0  0  0  0  0  0  0  0  0
   48.4422   56.6764   27.1086 C   0  0  2  0  0  0  0  0  0  0  0  0
   47.2662   57.5900   27.4116 C   0  0  0  0  0  0  0  0  0  0  0  0
   46.7791   58.2902   26.5271 O   0  0  0  0  0  0  0  0  0  0  0  0
   48.0173   55.2122   27.2117 C   0  0  0  0  0  0  0  0  0  0  0  0
   47.5941   54.7656   28.6060 C   0  0  0  0  0  0  0  0  0  0  0  0
   48.8789   54.9410   29.8748 S   0  0  2  0  0  0  0  0  0  0  0  0
   49.9584   53.5442   29.4763 C   0  0  0  0  0  0  0  0  0  0  0  0
   48.0025   54.2816   31.3173 C   0  0  0  0  0  0  0  0  0  0  0  0
   48.6243   54.8321   32.5921 C   0  0  1  0  0  0  0  0  0  0  0  0
   49.0492   56.1498   32.3404 O   0  0  0  0  0  0  0  0  0  0  0  0
   47.6672   54.9453   33.7616 C   0  0  1  0  0  0  0  0  0  0  0  0
   47.7985   53.8308   34.6099 O   0  0  0  0  0  0  0  0  0  0  0  0
   48.1129   56.2140   34.4660 C   0  0  1  0  0  0  0  0  0  0  0  0
   48.8143   55.8722   35.6381 O   0  0  0  0  0  0  0  0  0  0  0  0
   49.0395   56.9422   33.5004 C   0  0  2  0  0  0  0  0  0  0  0  0
   46.7811   57.6398   28.5424 O   0  0  0  0  0  0  0  0  0  0  0  0
   44.6586   59.5983   32.3018 N   0  0  0  0  0  0  0  0  0  0  0  0
   44.7968   58.2508   32.5667 C   0  0  0  0  0  0  0  0  0  0  0  0
   46.0383   57.7198   32.8653 N   0  0  0  0  0  0  0  0  0  0  0  0
   47.1338   58.5101   32.8940 C   0  0  0  0  0  0  0  0  0  0  0  0
   47.0171   59.8683   32.6381 C   0  0  0  0  0  0  0  0  0  0  0  0
   45.7714   60.4118   32.3356 C   0  0  0  0  0  0  0  0  0  0  0  0
   45.6415   61.7112   32.0808 N   0  0  0  0  0  0  0  0  0  0  0  0
   48.2499   60.4125   32.7443 N   0  0  0  0  0  0  0  0  0  0  0  0
   49.1309   59.4387   33.0730 C   0  0  0  0  0  0  0  0  0  0  0  0
   48.4529   58.2518   33.1693 N   0  0  0  0  0  0  0  0  0  0  0  0
  2  1  1  1  0  0  0
  2  3  1  0  0  0  0
  2  5  1  0  0  0  0
  3  4  1  0  0  0  0
  3 17  1  0  0  0  0
  5  6  1  0  0  0  0
  7  6  1  6  0  0  0
  7  8  1  0  0  0  0
  7  9  1  0  0  0  0
 10  9  1  6  0  0  0
 10 11  1  0  0  0  0
 10 12  1  0  0  0  0
 11 16  1  0  0  0  0
 12 13  1  1  0  0  0
 12 14  1  0  0  0  0
 14 15  1  1  0  0  0
 14 16  1  0  0  0  0
 16 27  1  6  0  0  0
 18 19  2  0  0  0  0
 18 23  1  0  0  0  0
 19 20  1  0  0  0  0
 20 21  2  0  0  0  0
 21 22  1  0  0  0  0
 21 27  1  0  0  0  0
 22 23  2  0  0  0  0
 22 25  1  0  0  0  0
 23 24  1  0  0  0  0
 25 26  2  0  0  0  0
 26 27  1  0  0  0  0
M  END
>  <CHROM.1>
123.24655481,59.15581579,-59.71713201,-75.64468667,-156.60798835,34.75710898
71.41826427,47.75948855,56.97002300,31.29753871,1.15027643,1.13818202,-1.59923635

>  <Name>
ligand

>  <RI>
0

>  <Rbt.Current_Directory>
/home/itssahil/PROJECTS/Mol_Feturizer/New_Systems/rnas/3GX7

>  <Rbt.Executable>
rbdock ($Id: //depot/dev/client3/rdock/2013.1/src/exe/rbdock.cxx#4 $)

>  <Rbt.Library>
libRbt.so (2013.1, Build901 2013/11/27)

>  <Rbt.Parameter_File>
/export/apps/rDock/src/rDock_2013.1_src/data/scripts/dock_solv.prm

>  <Rbt.Receptor>
prm/pocket_docking_2.prm

>  <SCORE>
-13.8876

>  <SCORE.INTER>
-11.4836

>  <SCORE.INTER.CONST>
1

>  <SCORE.INTER.POLAR>
0

>  <SCORE.INTER.ROT>
7

>  <SCORE.INTER.SOLV>
20.7263

>  <SCORE.INTER.VDW>
-22.8312

>  <SCORE.INTER.norm>
-0.425318

>  <SCORE.INTRA>
-2.98069

>  <SCORE.INTRA.DIHEDRAL>
-3.65173

>  <SCORE.INTRA.DIHEDRAL.0>
11.2699

>  <SCORE.INTRA.POLAR>
0

>  <SCORE.INTRA.POLAR.0>
0

>  <SCORE.INTRA.REPUL>
0

>  <SCORE.INTRA.REPUL.0>
0

>  <SCORE.INTRA.SOLV>
1.78148

>  <SCORE.INTRA.SOLV.lig_0>
-48.6447

>  <SCORE.INTRA.VDW>
-2.04556

>  <SCORE.INTRA.VDW.0>
-0.0211724

>  <SCORE.INTRA.norm>
-0.110396

>  <SCORE.RESTR>
0.576647

>  <SCORE.RESTR.CAVITY>
0.576647

>  <SCORE.RESTR.norm>
0.0213573

>  <SCORE.SYSTEM>
0

>  <SCORE.SYSTEM.CONST>
0

>  <SCORE.SYSTEM.DIHEDRAL>
0

>  <SCORE.SYSTEM.SOLV>
0

>  <SCORE.SYSTEM.norm>
0

>  <SCORE.heavy>
27

>  <SCORE.norm>
-0.514356

>  <RMSD>
1.084

$$$$
ligand
 OpenBabel11021811483D
libRbt.so/2013.1/901 2013/11/27
 27 29  0  0  0  0  0  0  0  0999 V2000
   48.6875   58.5761   28.5189 N   0  0  0  0  0  0  0  0  0  0  0  0
   48.6028   57.1277   28.6620 C   0  0  2  0  0  0  0  0  0  0  0  0
   48.1776   56.4843   27.3525 C   0  0  0  0  0  0  0  0  0  0  0  0
   48.7073   55.4434   26.9707 O   0  0  0  0  0  0  0  0  0  0  0  0
   47.6515   56.7217   29.7867 C   0  0  0  0  0  0  0  0  0  0  0  0
   47.3068   55.2377   29.8285 C   0  0  0  0  0  0  0  0  0  0  0  0
   48.6499   54.1695   30.4169 S   0  0  2  0  0  0  0  0  0  0  0  0
   48.4676   52.7409   29.3211 C   0  0  0  0  0  0  0  0  0  0  0  0
   47.9056   53.5194   31.9359 C   0  0  0  0  0  0  0  0  0  0  0  0
   48.6005   54.1226   33.1474 C   0  0  1  0  0  0  0  0  0  0  0  0
   49.1227   55.3755   32.7762 O   0  0  0  0  0  0  0  0  0  0  0  0
   47.6847   54.4111   34.3198 C   0  0  1  0  0  0  0  0  0  0  0  0
   47.7478   53.3649   35.2581 O   0  0  0  0  0  0  0  0  0  0  0  0
   48.2472   55.6939   34.9048 C   0  0  1  0  0  0  0  0  0  0  0  0
   48.9479   55.3959   36.0892 O   0  0  0  0  0  0  0  0  0  0  0  0
   49.2047   56.2606   33.8640 C   0  0  2  0  0  0  0  0  0  0  0  0
   47.2956   56.9906   26.6581 O   0  0  0  0  0  0  0  0  0  0  0  0
   45.0444   59.1132   32.3677 N   0  0  0  0  0  0  0  0  0  0  0  0
   45.0849   57.7799   32.7223 C   0  0  0  0  0  0  0  0  0  0  0  0
   46.2798   57.1896   33.0912 N   0  0  0  0  0  0  0  0  0  0  0  0
   47.4249   57.9066   33.1019 C   0  0  0  0  0  0  0  0  0  0  0  0
   47.4065   59.2497   32.7561 C   0  0  0  0  0  0  0  0  0  0  0  0
   46.2083   59.8526   32.3825 C   0  0  0  0  0  0  0  0  0  0  0  0
   46.1726   61.1381   32.0412 N   0  0  0  0  0  0  0  0  0  0  0  0
   48.6699   59.7179   32.8640 N   0  0  0  0  0  0  0  0  0  0  0  0
   49.4748   58.7122   33.2805 C   0  0  0  0  0  0  0  0  0  0  0  0
   48.7162   57.5812   33.4324 N   0  0  0  0  0  0  0  0  0  0  0  0
  2  1  1  6  0  0  0
  2  3  1  0  0  0  0
  2  5  1  0  0  0  0
  3  4  1  0  0  0  0
  3 17  1  0  0  0  0
  5  6  1  0  0  0  0
  7  6  1  6  0  0  0
  7  8  1  0  0  0  0
  7  9  1  0  0  0  0
 10  9  1  6  0  0  0
 10 11  1  0  0  0  0
 10 12  1  0  0  0  0
 11 16  1  0  0  0  0
 12 13  1  1  0  0  0
 12 14  1  0  0  0  0
 14 15  1  1  0  0  0
 14 16  1  0  0  0  0
 16 27  1  6  0  0  0
 18 19  2  0  0  0  0
 18 23  1  0  0  0  0
 19 20  1  0  0  0  0
 20 21  2  0  0  0  0
 21 22  1  0  0  0  0
 21 27  1  0  0  0  0
 22 23  2  0  0  0  0
 22 25  1  0  0  0  0
 23 24  1  0  0  0  0
 25 26  2  0  0  0  0
 26 27  1  0  0  0  0
M  END
>  <CHROM.1>
138.84191918,168.99519459,73.11677726,-141.07393152,-109.06814603,26.75401240
68.27866377,47.89437232,56.46507914,31.67704803,1.45252928,1.29956172,-1.50884621

>  <Name>
ligand

>  <RI>
0

>  <Rbt.Current_Directory>
/home/itssahil/PROJECTS/Mol_Feturizer/New_Systems/rnas/3GX7

>  <Rbt.Executable>
rbdock ($Id: //depot/dev/client3/rdock/2013.1/src/exe/rbdock.cxx#4 $)

>  <Rbt.Library>
libRbt.so (2013.1, Build901 2013/11/27)

>  <Rbt.Parameter_File>
/export/apps/rDock/src/rDock_2013.1_src/data/scripts/dock_solv.prm

>  <Rbt.Receptor>
prm/pocket_docking_2.prm

>  <SCORE>
-14.5793

>  <SCORE.INTER>
-12.0939

>  <SCORE.INTER.CONST>
1

>  <SCORE.INTER.POLAR>
0

>  <SCORE.INTER.ROT>
7

>  <SCORE.INTER.SOLV>
22.265

>  <SCORE.INTER.VDW>
-23.751

>  <SCORE.INTER.norm>
-0.447924

>  <SCORE.INTRA>
-2.49661

>  <SCORE.INTRA.DIHEDRAL>
3.25508

>  <SCORE.INTRA.DIHEDRAL.0>
11.2699

>  <SCORE.INTRA.POLAR>
0

>  <SCORE.INTRA.POLAR.0>
0

>  <SCORE.INTRA.REPUL>
0

>  <SCORE.INTRA.REPUL.0>
0

>  <SCORE.INTRA.SOLV>
-0.822414

>  <SCORE.INTRA.SOLV.lig_0>
-48.6447

>  <SCORE.INTRA.VDW>
-3.71294

>  <SCORE.INTRA.VDW.0>
-0.0211724

>  <SCORE.INTRA.norm>
-0.0924671

>  <SCORE.RESTR>
0.0112272

>  <SCORE.RESTR.CAVITY>
0.0112272

>  <SCORE.RESTR.norm>
0.000415823

>  <SCORE.SYSTEM>
0

>  <SCORE.SYSTEM.CONST>
0

>  <SCORE.SYSTEM.DIHEDRAL>
0

>  <SCORE.SYSTEM.SOLV>
0

>  <SCORE.SYSTEM.norm>
0

>  <SCORE.heavy>
27

>  <SCORE.norm>
-0.539975

>  <RMSD>
1.096

$$$$
ligand
 OpenBabel11021811483D
libRbt.so/2013.1/901 2013/11/27
 27 29  0  0  0  0  0  0  0  0999 V2000
   48.6019   58.6038   28.4079 N   0  0  0  0  0  0  0  0  0  0  0  0
   47.8024   57.4228   28.7104 C   0  0  2  0  0  0  0  0  0  0  0  0
   46.4126   57.8224   29.1779 C   0  0  0  0  0  0  0  0  0  0  0  0
   46.1114   57.7474   30.3668 O   0  0  0  0  0  0  0  0  0  0  0  0
   48.4767   56.5305   29.7515 C   0  0  0  0  0  0  0  0  0  0  0  0
   47.7769   55.2003   30.0036 C   0  0  0  0  0  0  0  0  0  0  0  0
   48.8694   53.8734   30.5843 S   0  0  2  0  0  0  0  0  0  0  0  0
   48.4641   52.5499   29.4186 C   0  0  0  0  0  0  0  0  0  0  0  0
   47.9557   53.3179   32.0473 C   0  0  0  0  0  0  0  0  0  0  0  0
   48.5494   53.9533   33.2957 C   0  0  1  0  0  0  0  0  0  0  0  0
   49.0792   55.2079   32.9410 O   0  0  0  0  0  0  0  0  0  0  0  0
   47.5446   54.2475   34.3913 C   0  0  1  0  0  0  0  0  0  0  0  0
   47.5531   53.2190   35.3510 O   0  0  0  0  0  0  0  0  0  0  0  0
   48.0428   55.5493   34.9924 C   0  0  1  0  0  0  0  0  0  0  0  0
   48.6577   55.2834   36.2309 O   0  0  0  0  0  0  0  0  0  0  0  0
   49.0668   56.1131   34.0152 C   0  0  2  0  0  0  0  0  0  0  0  0
   45.5709   58.2307   28.3772 O   0  0  0  0  0  0  0  0  0  0  0  0
   44.9161   58.9812   32.5220 N   0  0  0  0  0  0  0  0  0  0  0  0
   44.9394   57.6712   32.9561 C   0  0  0  0  0  0  0  0  0  0  0  0
   46.1345   57.0722   33.3102 N   0  0  0  0  0  0  0  0  0  0  0  0
   47.2961   57.7574   33.2285 C   0  0  0  0  0  0  0  0  0  0  0  0
   47.2954   59.0772   32.8018 C   0  0  0  0  0  0  0  0  0  0  0  0
   46.0971   59.6884   32.4424 C   0  0  0  0  0  0  0  0  0  0  0  0
   46.0780   60.9514   32.0244 N   0  0  0  0  0  0  0  0  0  0  0  0
   48.5734   59.5167   32.8274 N   0  0  0  0  0  0  0  0  0  0  0  0
   49.3709   58.5166   33.2710 C   0  0  0  0  0  0  0  0  0  0  0  0
   48.5922   57.4178   33.5239 N   0  0  0  0  0  0  0  0  0  0  0  0
  2  1  1  1  0  0  0
  2  3  1  0  0  0  0
  2  5  1  0  0  0  0
  3  4  1  0  0  0  0
  3 17  1  0  0  0  0
  5  6  1  0  0  0  0
  7  6  1  6  0  0  0
  7  8  1  0  0  0  0
  7  9  1  0  0  0  0
 10  9  1  6  0  0  0
 10 11  1  0  0  0  0
 10 12  1  0  0  0  0
 11 16  1  0  0  0  0
 12 13  1  1  0  0  0
 12 14  1  0  0  0  0
 14 15  1  1  0  0  0
 14 16  1  0  0  0  0
 16 27  1  6  0  0  0
 18 19  2  0  0  0  0
 18 23  1  0  0  0  0
 19 20  1  0  0  0  0
 20 21  2  0  0  0  0
 21 22  1  0  0  0  0
 21 27  1  0  0  0  0
 22 23  2  0  0  0  0
 22 25  1  0  0  0  0
 23 24  1  0  0  0  0
 25 26  2  0  0  0  0
 26 27  1  0  0  0  0
M  END
>  <CHROM.1>
-104.81309090,-173.44841038,153.14790833,-128.37866329,-98.17588310,30.28746405
75.81659920,47.62040941,56.52387355,32.02750197,-2.69880451,-1.22640263,1.47703987

>  <Name>
ligand

>  <RI>
0

>  <Rbt.Current_Directory>
/home/itssahil/PROJECTS/Mol_Feturizer/New_Systems/rnas/3GX7

>  <Rbt.Executable>
rbdock ($Id: //depot/dev/client3/rdock/2013.1/src/exe/rbdock.cxx#4 $)

>  <Rbt.Library>
libRbt.so (2013.1, Build901 2013/11/27)

>  <Rbt.Parameter_File>
/export/apps/rDock/src/rDock_2013.1_src/data/scripts/dock_solv.prm

>  <Rbt.Receptor>
prm/pocket_docking_2.prm

>  <SCORE>
-14.9069

>  <SCORE.INTER>
-13.2386

>  <SCORE.INTER.CONST>
1

>  <SCORE.INTER.POLAR>
0

>  <SCORE.INTER.ROT>
7

>  <SCORE.INTER.SOLV>
22.0574

>  <SCORE.INTER.VDW>
-24.4448

>  <SCORE.INTER.norm>
-0.490317

>  <SCORE.INTRA>
-2.06601

>  <SCORE.INTRA.DIHEDRAL>
3.39882

>  <SCORE.INTRA.DIHEDRAL.0>
11.2699

>  <SCORE.INTRA.POLAR>
0

>  <SCORE.INTRA.POLAR.0>
0

>  <SCORE.INTRA.REPUL>
0

>  <SCORE.INTRA.REPUL.0>
0

>  <SCORE.INTRA.SOLV>
-0.537209

>  <SCORE.INTRA.SOLV.lig_0>
-48.6447

>  <SCORE.INTRA.VDW>
-3.49681

>  <SCORE.INTRA.VDW.0>
-0.0211724

>  <SCORE.INTRA.norm>
-0.0765189

>  <SCORE.RESTR>
0.397703

>  <SCORE.RESTR.CAVITY>
0.397703

>  <SCORE.RESTR.norm>
0.0147298

>  <SCORE.SYSTEM>
0

>  <SCORE.SYSTEM.CONST>
0

>  <SCORE.SYSTEM.DIHEDRAL>
0

>  <SCORE.SYSTEM.SOLV>
0

>  <SCORE.SYSTEM.norm>
0

>  <SCORE.heavy>
27

>  <SCORE.norm>
-0.552106

>  <RMSD>
1.108

$$$$
ligand
 OpenBabel11021811483D
libRbt.so/2013.1/901 2013/11/27
 27 29  0  0  0  0  0  0  0  0999 V2000
   48.3292   56.1881   26.2869 N   0  0  0  0  0  0  0  0  0  0  0  0
   47.7516   56.6354   27.5486 C   0  0  2  0  0  0  0  0  0  0  0  0
   47.8397   58.1476   27.6715 C   0  0  0  0  0  0  0  0  0  0  0  0
   47.0915   58.8691   27.0161 O   0  0  0  0  0  0  0  0  0  0  0  0
   48.4184   55.9654   28.7491 C   0  0  0  0  0  0  0  0  0  0  0  0
   48.3740   54.4420   28.7377 C   0  0  0  0  0  0  0  0  0  0  0  0
   49.0831   53.6575   30.2119 S   0  0  2  0  0  0  0  0  0  0  0  0
   48.6392   51.9251   29.9352 C   0  0  0  0  0  0  0  0  0  0  0  0
   47.8470   54.1223   31.4530 C   0  0  0  0  0  0  0  0  0  0  0  0
   48.5437   54.6179   32.7114 C   0  0  1  0  0  0  0  0  0  0  0  0
   49.0579   55.9020   32.4525 O   0  0  0  0  0  0  0  0  0  0  0  0
   47.6311   54.7948   33.9082 C   0  0  1  0  0  0  0  0  0  0  0  0
   47.7034   53.6688   34.7484 O   0  0  0  0  0  0  0  0  0  0  0  0
   48.1894   56.0230   34.6042 C   0  0  1  0  0  0  0  0  0  0  0  0
   48.8964   55.6235   35.7545 O   0  0  0  0  0  0  0  0  0  0  0  0
   49.1397   56.6862   33.6151 C   0  0  2  0  0  0  0  0  0  0  0  0
   48.6553   58.6723   28.4303 O   0  0  0  0  0  0  0  0  0  0  0  0
   45.1346   59.5622   31.7790 N   0  0  0  0  0  0  0  0  0  0  0  0
   45.2088   58.1914   31.9221 C   0  0  0  0  0  0  0  0  0  0  0  0
   46.3532   57.6011   32.4263 N   0  0  0  0  0  0  0  0  0  0  0  0
   47.4169   58.3562   32.7781 C   0  0  0  0  0  0  0  0  0  0  0  0
   47.3618   59.7362   32.6495 C   0  0  0  0  0  0  0  0  0  0  0  0
   46.2142   60.3394   32.1419 C   0  0  0  0  0  0  0  0  0  0  0  0
   46.1458   61.6611   32.0053 N   0  0  0  0  0  0  0  0  0  0  0  0
   48.5420   60.2351   33.0801 N   0  0  0  0  0  0  0  0  0  0  0  0
   49.3274   59.2104   33.4875 C   0  0  0  0  0  0  0  0  0  0  0  0
   48.6426   58.0374   33.3058 N   0  0  0  0  0  0  0  0  0  0  0  0
  2  1  1  6  0  0  0
  2  3  1  0  0  0  0
  2  5  1  0  0  0  0
  3  4  1  0  0  0  0
  3 17  1  0  0  0  0
  5  6  1  0  0  0  0
  7  6  1  6  0  0  0
  7  8  1  0  0  0  0
  7  9  1  0  0  0  0
 10  9  1  6  0  0  0
 10 11  1  0  0  0  0
 10 12  1  0  0  0  0
 11 16  1  0  0  0  0
 12 13  1  1  0  0  0
 12 14  1  0  0  0  0
 14 15  1  1  0  0  0
 14 16  1  0  0  0  0
 16 27  1  6  0  0  0
 18 19  2  0  0  0  0
 18 23  1  0  0  0  0
 19 20  1  0  0  0  0
 20 21  2  0  0  0  0
 21 22  1  0  0  0  0
 21 27  1  0  0  0  0
 22 23  2  0  0  0  0
 22 25  1  0  0  0  0
 23 24  1  0  0  0  0
 25 26  2  0  0  0  0
 26 27  1  0  0  0  0
M  END
>  <CHROM.1>
74.30459648,-57.07176535,-176.65545287,172.37465598,-134.55873212,73.98326077
55.57305287,47.91937293,56.77010877,31.38072297,0.71267003,1.30274443,-1.59676294

>  <Name>
ligand

>  <RI>
0

>  <Rbt.Current_Directory>
/home/itssahil/PROJECTS/Mol_Feturizer/New_Systems/rnas/3GX7

>  <Rbt.Executable>
rbdock ($Id: //depot/dev/client3/rdock/2013.1/src/exe/rbdock.cxx#4 $)

>  <Rbt.Library>
libRbt.so (2013.1, Build901 2013/11/27)

>  <Rbt.Parameter_File>
/export/apps/rDock/src/rDock_2013.1_src/data/scripts/dock_solv.prm

>  <Rbt.Receptor>
prm/pocket_docking_6.prm

>  <SCORE>
-19.1018

>  <SCORE.INTER>
-14.8198

>  <SCORE.INTER.CONST>
1

>  <SCORE.INTER.POLAR>
0

>  <SCORE.INTER.ROT>
7

>  <SCORE.INTER.SOLV>
20.4307

>  <SCORE.INTER.VDW>
-24.9567

>  <SCORE.INTER.norm>
-0.54888

>  <SCORE.INTRA>
-4.28207

>  <SCORE.INTRA.DIHEDRAL>
-3.10554

>  <SCORE.INTRA.DIHEDRAL.0>
11.2699

>  <SCORE.INTRA.POLAR>
0

>  <SCORE.INTRA.POLAR.0>
0

>  <SCORE.INTRA.REPUL>
0

>  <SCORE.INTRA.REPUL.0>
0

>  <SCORE.INTRA.SOLV>
-0.383197

>  <SCORE.INTRA.SOLV.lig_0>
-48.6447

>  <SCORE.INTRA.VDW>
-2.5377

>  <SCORE.INTRA.VDW.0>
-0.0211724

>  <SCORE.INTRA.norm>
-0.158595

>  <SCORE.RESTR>
0

>  <SCORE.RESTR.CAVITY>
0

>  <SCORE.RESTR.norm>
0

>  <SCORE.SYSTEM>
0

>  <SCORE.SYSTEM.CONST>
0

>  <SCORE.SYSTEM.DIHEDRAL>
0

>  <SCORE.SYSTEM.SOLV>
0

>  <SCORE.SYSTEM.norm>
0

>  <SCORE.heavy>
27

>  <SCORE.norm>
-0.707475

>  <RMSD>
1.108

$$$$
ligand
 OpenBabel11021811483D
libRbt.so/2013.1/901 2013/11/27
 27 29  0  0  0  0  0  0  0  0999 V2000
   45.8026   57.3587   29.2769 N   0  0  0  0  0  0  0  0  0  0  0  0
   47.1657   57.0274   28.8795 C   0  0  2  0  0  0  0  0  0  0  0  0
   47.7161   58.0770   27.9282 C   0  0  0  0  0  0  0  0  0  0  0  0
   48.6875   58.7579   28.2487 O   0  0  0  0  0  0  0  0  0  0  0  0
   47.2524   55.6394   28.2465 C   0  0  0  0  0  0  0  0  0  0  0  0
   46.9991   54.4821   29.2051 C   0  0  0  0  0  0  0  0  0  0  0  0
   48.4053   54.0693   30.2746 S   0  0  2  0  0  0  0  0  0  0  0  0
   48.8059   52.4010   29.6990 C   0  0  0  0  0  0  0  0  0  0  0  0
   47.5373   53.6876   31.8189 C   0  0  0  0  0  0  0  0  0  0  0  0
   48.3028   54.2721   32.9965 C   0  0  1  0  0  0  0  0  0  0  0  0
   48.8473   55.5069   32.5976 O   0  0  0  0  0  0  0  0  0  0  0  0
   47.4484   54.5927   34.2064 C   0  0  1  0  0  0  0  0  0  0  0  0
   47.5195   53.5477   35.1455 O   0  0  0  0  0  0  0  0  0  0  0  0
   48.0758   55.8589   34.7609 C   0  0  1  0  0  0  0  0  0  0  0  0
   48.8177   55.5424   35.9150 O   0  0  0  0  0  0  0  0  0  0  0  0
   49.0043   56.3921   33.6771 C   0  0  2  0  0  0  0  0  0  0  0  0
   47.2030   58.2583   26.8236 O   0  0  0  0  0  0  0  0  0  0  0  0
   44.8711   59.3766   32.3757 N   0  0  0  0  0  0  0  0  0  0  0  0
   44.8848   58.0447   32.7375 C   0  0  0  0  0  0  0  0  0  0  0  0
   46.0765   57.4160   33.0488 N   0  0  0  0  0  0  0  0  0  0  0  0
   47.2442   58.0936   32.9954 C   0  0  0  0  0  0  0  0  0  0  0  0
   47.2533   59.4346   32.6412 C   0  0  0  0  0  0  0  0  0  0  0  0
   46.0584   60.0759   32.3252 C   0  0  0  0  0  0  0  0  0  0  0  0
   46.0487   61.3599   31.9768 N   0  0  0  0  0  0  0  0  0  0  0  0
   48.5357   59.8600   32.6806 N   0  0  0  0  0  0  0  0  0  0  0  0
   49.3266   58.8297   33.0626 C   0  0  0  0  0  0  0  0  0  0  0  0
   48.5390   57.7261   33.2615 N   0  0  0  0  0  0  0  0  0  0  0  0
  2  1  1  6  0  0  0
  2  3  1  0  0  0  0
  2  5  1  0  0  0  0
  3  4  1  0  0  0  0
  3 17  1  0  0  0  0
  5  6  1  0  0  0  0
  7  6  1  6  0  0  0
  7  8  1  0  0  0  0
  7  9  1  0  0  0  0
 10  9  1  6  0  0  0
 10 11  1  0  0  0  0
 10 12  1  0  0  0  0
 11 16  1  0  0  0  0
 12 13  1  1  0  0  0
 12 14  1  0  0  0  0
 14 15  1  1  0  0  0
 14 16  1  0  0  0  0
 16 27  1  6  0  0  0
 18 19  2  0  0  0  0
 18 23  1  0  0  0  0
 19 20  1  0  0  0  0
 20 21  2  0  0  0  0
 21 22  1  0  0  0  0
 21 27  1  0  0  0  0
 22 23  2  0  0  0  0
 22 25  1  0  0  0  0
 23 24  1  0  0  0  0
 25 26  2  0  0  0  0
 26 27  1  0  0  0  0
M  END
>  <CHROM.1>
116.79249464,-68.36125877,-78.28884579,-115.38884519,-138.95695563,36.66802460
68.78736539,47.56752622,56.67926002,31.63931401,-2.47894810,-1.31821893,1.40014159

>  <Name>
ligand

>  <RI>
0

>  <Rbt.Current_Directory>
/home/itssahil/PROJECTS/Mol_Feturizer/New_Systems/rnas/3GX7

>  <Rbt.Executable>
rbdock ($Id: //depot/dev/client3/rdock/2013.1/src/exe/rbdock.cxx#4 $)

>  <Rbt.Library>
libRbt.so (2013.1, Build901 2013/11/27)

>  <Rbt.Parameter_File>
/export/apps/rDock/src/rDock_2013.1_src/data/scripts/dock_solv.prm

>  <Rbt.Receptor>
prm/pocket_docking_3.prm

>  <SCORE>
-17.1323

>  <SCORE.INTER>
-15.3149

>  <SCORE.INTER.CONST>
1

>  <SCORE.INTER.POLAR>
0

>  <SCORE.INTER.ROT>
7

>  <SCORE.INTER.SOLV>
16.4128

>  <SCORE.INTER.VDW>
-23.9475

>  <SCORE.INTER.norm>
-0.567218

>  <SCORE.INTRA>
-1.8174

>  <SCORE.INTRA.DIHEDRAL>
2.91377

>  <SCORE.INTRA.DIHEDRAL.0>
11.2699

>  <SCORE.INTRA.POLAR>
0

>  <SCORE.INTRA.POLAR.0>
0

>  <SCORE.INTRA.REPUL>
0

>  <SCORE.INTRA.REPUL.0>
0

>  <SCORE.INTRA.SOLV>
0.279872

>  <SCORE.INTRA.SOLV.lig_0>
-48.6447

>  <SCORE.INTRA.VDW>
-3.41423

>  <SCORE.INTRA.VDW.0>
-0.0211724

>  <SCORE.INTRA.norm>
-0.0673113

>  <SCORE.RESTR>
0

>  <SCORE.RESTR.CAVITY>
0

>  <SCORE.RESTR.norm>
0

>  <SCORE.SYSTEM>
0

>  <SCORE.SYSTEM.CONST>
0

>  <SCORE.SYSTEM.DIHEDRAL>
0

>  <SCORE.SYSTEM.SOLV>
0

>  <SCORE.SYSTEM.norm>
0

>  <SCORE.heavy>
27

>  <SCORE.norm>
-0.634529

>  <RMSD>
1.134

$$$$
ligand
 OpenBabel11021811483D
libRbt.so/2013.1/901 2013/11/27
 27 29  0  0  0  0  0  0  0  0999 V2000
   46.5226   57.9430   29.0382 N   0  0  0  0  0  0  0  0  0  0  0  0
   47.8119   57.5174   28.5072 C   0  0  2  0  0  0  0  0  0  0  0  0
   47.6225   56.6342   27.2851 C   0  0  0  0  0  0  0  0  0  0  0  0
   46.5637   56.0361   27.1086 O   0  0  0  0  0  0  0  0  0  0  0  0
   48.6503   56.7941   29.5602 C   0  0  0  0  0  0  0  0  0  0  0  0
   47.9517   55.6226   30.2400 C   0  0  0  0  0  0  0  0  0  0  0  0
   49.0122   54.1794   30.5299 S   0  0  2  0  0  0  0  0  0  0  0  0
   48.4825   53.0807   29.1931 C   0  0  0  0  0  0  0  0  0  0  0  0
   48.1560   53.4253   31.9378 C   0  0  0  0  0  0  0  0  0  0  0  0
   48.6789   54.0213   33.2363 C   0  0  1  0  0  0  0  0  0  0  0  0
   49.2168   55.2902   32.9523 O   0  0  0  0  0  0  0  0  0  0  0  0
   47.6160   54.2721   34.2870 C   0  0  1  0  0  0  0  0  0  0  0  0
   47.5822   53.2115   35.2106 O   0  0  0  0  0  0  0  0  0  0  0  0
   48.0723   55.5555   34.9570 C   0  0  1  0  0  0  0  0  0  0  0  0
   48.6236   55.2512   36.2163 O   0  0  0  0  0  0  0  0  0  0  0  0
   49.1415   56.1582   34.0543 C   0  0  2  0  0  0  0  0  0  0  0  0
   48.5212   56.5079   26.4527 O   0  0  0  0  0  0  0  0  0  0  0  0
   45.0599   59.0406   32.4061 N   0  0  0  0  0  0  0  0  0  0  0  0
   45.0715   57.7152   32.7910 C   0  0  0  0  0  0  0  0  0  0  0  0
   46.2488   57.1148   33.1985 N   0  0  0  0  0  0  0  0  0  0  0  0
   47.4047   57.8141   33.2178 C   0  0  0  0  0  0  0  0  0  0  0  0
   47.4150   59.1492   32.8421 C   0  0  0  0  0  0  0  0  0  0  0  0
   46.2348   59.7619   32.4295 C   0  0  0  0  0  0  0  0  0  0  0  0
   46.2269   61.0398   32.0591 N   0  0  0  0  0  0  0  0  0  0  0  0
   48.6833   59.6000   32.9666 N   0  0  0  0  0  0  0  0  0  0  0  0
   49.4630   58.5915   33.4226 C   0  0  0  0  0  0  0  0  0  0  0  0
   48.6833   57.4761   33.5831 N   0  0  0  0  0  0  0  0  0  0  0  0
  2  1  1  1  0  0  0
  2  3  1  0  0  0  0
  2  5  1  0  0  0  0
  3  4  1  0  0  0  0
  3 17  1  0  0  0  0
  5  6  1  0  0  0  0
  7  6  1  6  0  0  0
  7  8  1  0  0  0  0
  7  9  1  0  0  0  0
 10  9  1  6  0  0  0
 10 11  1  0  0  0  0
 10 12  1  0  0  0  0
 11 16  1  0  0  0  0
 12 13  1  1  0  0  0
 12 14  1  0  0  0  0
 14 15  1  1  0  0  0
 14 16  1  0  0  0  0
 16 27  1  6  0  0  0
 18 19  2  0  0  0  0
 18 23  1  0  0  0  0
 19 20  1  0  0  0  0
 20 21  2  0  0  0  0
 21 22  1  0  0  0  0
 21 27  1  0  0  0  0
 22 23  2  0  0  0  0
 22 25  1  0  0  0  0
 23 24  1  0  0  0  0
 25 26  2  0  0  0  0
 26 27  1  0  0  0  0
M  END
>  <CHROM.1>
-22.51308902,53.60569854,140.06724991,-102.35349125,-87.84608256,23.79136162
75.04697309,47.81053352,56.42842974,31.74631182,1.73538319,1.24457771,-1.65075558

>  <Name>
ligand

>  <RI>
0

>  <Rbt.Current_Directory>
/home/itssahil/PROJECTS/Mol_Feturizer/New_Systems/rnas/3GX7

>  <Rbt.Executable>
rbdock ($Id: //depot/dev/client3/rdock/2013.1/src/exe/rbdock.cxx#4 $)

>  <Rbt.Library>
libRbt.so (2013.1, Build901 2013/11/27)

>  <Rbt.Parameter_File>
/export/apps/rDock/src/rDock_2013.1_src/data/scripts/dock_solv.prm

>  <Rbt.Receptor>
prm/pocket_docking_2.prm

>  <SCORE>
-17.2665

>  <SCORE.INTER>
-15.5626

>  <SCORE.INTER.CONST>
1

>  <SCORE.INTER.POLAR>
0

>  <SCORE.INTER.ROT>
7

>  <SCORE.INTER.SOLV>
16.8725

>  <SCORE.INTER.VDW>
-24.2659

>  <SCORE.INTER.norm>
-0.576392

>  <SCORE.INTRA>
-1.7126

>  <SCORE.INTRA.DIHEDRAL>
3.27636

>  <SCORE.INTRA.DIHEDRAL.0>
11.2699

>  <SCORE.INTRA.POLAR>
0

>  <SCORE.INTRA.POLAR.0>
0

>  <SCORE.INTRA.REPUL>
0

>  <SCORE.INTRA.REPUL.0>
0

>  <SCORE.INTRA.SOLV>
0.137067

>  <SCORE.INTRA.SOLV.lig_0>
-48.6447

>  <SCORE.INTRA.VDW>
-3.41932

>  <SCORE.INTRA.VDW.0>
-0.0211724

>  <SCORE.INTRA.norm>
-0.0634297

>  <SCORE.RESTR>
0.00867147

>  <SCORE.RESTR.CAVITY>
0.00867147

>  <SCORE.RESTR.norm>
0.000321165

>  <SCORE.SYSTEM>
0

>  <SCORE.SYSTEM.CONST>
0

>  <SCORE.SYSTEM.DIHEDRAL>
0

>  <SCORE.SYSTEM.SOLV>
0

>  <SCORE.SYSTEM.norm>
0

>  <SCORE.heavy>
27

>  <SCORE.norm>
-0.639501

>  <RMSD>
1.137

$$$$
ligand
 OpenBabel11021811483D
libRbt.so/2013.1/901 2013/11/27
 27 29  0  0  0  0  0  0  0  0999 V2000
   48.6312   58.7235   30.1788 N   0  0  0  0  0  0  0  0  0  0  0  0
   48.3955   57.4549   29.5002 C   0  0  2  0  0  0  0  0  0  0  0  0
   46.9172   57.2770   29.1960 C   0  0  0  0  0  0  0  0  0  0  0  0
   46.0677   57.6487   30.0022 O   0  0  0  0  0  0  0  0  0  0  0  0
   48.9169   56.2699   30.3119 C   0  0  0  0  0  0  0  0  0  0  0  0
   48.7367   54.9104   29.6471 C   0  0  0  0  0  0  0  0  0  0  0  0
   49.3406   53.5078   30.6266 S   0  0  2  0  0  0  0  0  0  0  0  0
   48.8295   52.1126   29.5935 C   0  0  0  0  0  0  0  0  0  0  0  0
   48.0723   53.4450   31.9194 C   0  0  0  0  0  0  0  0  0  0  0  0
   48.6325   54.0092   33.2165 C   0  0  1  0  0  0  0  0  0  0  0  0
   49.1964   55.2688   32.9407 O   0  0  0  0  0  0  0  0  0  0  0  0
   47.5950   54.2705   34.2897 C   0  0  1  0  0  0  0  0  0  0  0  0
   47.5515   53.1978   35.1987 O   0  0  0  0  0  0  0  0  0  0  0  0
   48.0944   55.5326   34.9693 C   0  0  1  0  0  0  0  0  0  0  0  0
   48.6604   55.1968   36.2140 O   0  0  0  0  0  0  0  0  0  0  0  0
   49.1619   56.1222   34.0560 C   0  0  2  0  0  0  0  0  0  0  0  0
   46.5480   56.7642   28.1390 O   0  0  0  0  0  0  0  0  0  0  0  0
   45.1314   59.1149   32.4802 N   0  0  0  0  0  0  0  0  0  0  0  0
   45.1184   57.7824   32.8400 C   0  0  0  0  0  0  0  0  0  0  0  0
   46.2853   57.1515   33.2309 N   0  0  0  0  0  0  0  0  0  0  0  0
   47.4548   57.8274   33.2585 C   0  0  0  0  0  0  0  0  0  0  0  0
   47.4899   59.1690   32.9080 C   0  0  0  0  0  0  0  0  0  0  0  0
   46.3204   59.8125   32.5122 C   0  0  0  0  0  0  0  0  0  0  0  0
   46.3362   61.0971   32.1660 N   0  0  0  0  0  0  0  0  0  0  0  0
   48.7673   59.5923   33.0355 N   0  0  0  0  0  0  0  0  0  0  0  0
   49.5288   58.5603   33.4690 C   0  0  0  0  0  0  0  0  0  0  0  0
   48.7280   57.4576   33.6118 N   0  0  0  0  0  0  0  0  0  0  0  0
  2  1  1  1  0  0  0
  2  3  1  0  0  0  0
  2  5  1  0  0  0  0
  3  4  1  0  0  0  0
  3 17  1  0  0  0  0
  5  6  1  0  0  0  0
  7  6  1  6  0  0  0
  7  8  1  0  0  0  0
  7  9  1  0  0  0  0
 10  9  1  6  0  0  0
 10 11  1  0  0  0  0
 10 12  1  0  0  0  0
 11 16  1  0  0  0  0
 12 13  1  1  0  0  0
 12 14  1  0  0  0  0
 14 15  1  1  0  0  0
 14 16  1  0  0  0  0
 16 27  1  6  0  0  0
 18 19  2  0  0  0  0
 18 23  1  0  0  0  0
 19 20  1  0  0  0  0
 20 21  2  0  0  0  0
 21 22  1  0  0  0  0
 21 27  1  0  0  0  0
 22 23  2  0  0  0  0
 22 25  1  0  0  0  0
 23 24  1  0  0  0  0
 25 26  2  0  0  0  0
 26 27  1  0  0  0  0
M  END
>  <CHROM.1>
-38.13291772,-178.51617771,-179.30174631,175.35521181,-104.74521291,51.49268200
74.17138899,47.87880786,56.41725326,32.11400902,3.08435449,-1.24629912,1.45913042

>  <Name>
ligand

>  <RI>
0

>  <Rbt.Current_Directory>
/home/itssahil/PROJECTS/Mol_Feturizer/New_Systems/rnas/3GX7

>  <Rbt.Executable>
rbdock ($Id: //depot/dev/client3/rdock/2013.1/src/exe/rbdock.cxx#4 $)

>  <Rbt.Library>
libRbt.so (2013.1, Build901 2013/11/27)

>  <Rbt.Parameter_File>
/export/apps/rDock/src/rDock_2013.1_src/data/scripts/dock_solv.prm

>  <Rbt.Receptor>
prm/pocket_docking_3.prm

>  <SCORE>
-21.3993

>  <SCORE.INTER>
-14.8261

>  <SCORE.INTER.CONST>
1

>  <SCORE.INTER.POLAR>
0

>  <SCORE.INTER.ROT>
7

>  <SCORE.INTER.SOLV>
20.8179

>  <SCORE.INTER.VDW>
-25.09

>  <SCORE.INTER.norm>
-0.549114

>  <SCORE.INTRA>
-6.57321

>  <SCORE.INTRA.DIHEDRAL>
-4.90415

>  <SCORE.INTRA.DIHEDRAL.0>
11.2699

>  <SCORE.INTRA.POLAR>
0

>  <SCORE.INTRA.POLAR.0>
0

>  <SCORE.INTRA.REPUL>
0

>  <SCORE.INTRA.REPUL.0>
0

>  <SCORE.INTRA.SOLV>
2.3565

>  <SCORE.INTRA.SOLV.lig_0>
-48.6447

>  <SCORE.INTRA.VDW>
-5.29939

>  <SCORE.INTRA.VDW.0>
-0.0211724

>  <SCORE.INTRA.norm>
-0.243452

>  <SCORE.RESTR>
0

>  <SCORE.RESTR.CAVITY>
0

>  <SCORE.RESTR.norm>
0

>  <SCORE.SYSTEM>
0

>  <SCORE.SYSTEM.CONST>
0

>  <SCORE.SYSTEM.DIHEDRAL>
0

>  <SCORE.SYSTEM.SOLV>
0

>  <SCORE.SYSTEM.norm>
0

>  <SCORE.heavy>
27

>  <SCORE.norm>
-0.792566

>  <RMSD>
1.141

$$$$
ligand
 OpenBabel11021811483D
libRbt.so/2013.1/901 2013/11/27
 27 29  0  0  0  0  0  0  0  0999 V2000
   49.6830   56.3173   29.1865 N   0  0  0  0  0  0  0  0  0  0  0  0
   48.8160   56.8483   28.1415 C   0  0  2  0  0  0  0  0  0  0  0  0
   48.2672   58.2081   28.5408 C   0  0  0  0  0  0  0  0  0  0  0  0
   47.8152   58.9702   27.6895 O   0  0  0  0  0  0  0  0  0  0  0  0
   47.6724   55.8907   27.8097 C   0  0  0  0  0  0  0  0  0  0  0  0
   46.8887   55.3878   29.0161 C   0  0  0  0  0  0  0  0  0  0  0  0
   47.6631   54.0002   29.8914 S   0  0  2  0  0  0  0  0  0  0  0  0
   46.7609   52.5964   29.1910 C   0  0  0  0  0  0  0  0  0  0  0  0
   46.8530   54.1425   31.5061 C   0  0  0  0  0  0  0  0  0  0  0  0
   47.8518   54.6412   32.5398 C   0  0  1  0  0  0  0  0  0  0  0  0
   48.3915   55.8564   32.0790 O   0  0  0  0  0  0  0  0  0  0  0  0
   47.2493   54.9670   33.8916 C   0  0  1  0  0  0  0  0  0  0  0  0
   47.4226   53.8875   34.7767 O   0  0  0  0  0  0  0  0  0  0  0  0
   48.0430   56.1755   34.3541 C   0  0  1  0  0  0  0  0  0  0  0  0
   48.9586   55.7774   35.3469 O   0  0  0  0  0  0  0  0  0  0  0  0
   48.7937   56.6930   33.1334 C   0  0  2  0  0  0  0  0  0  0  0  0
   48.2619   58.5648   29.7194 O   0  0  0  0  0  0  0  0  0  0  0  0
   44.6810   59.8759   32.3343 N   0  0  0  0  0  0  0  0  0  0  0  0
   44.6756   58.5227   32.6059 C   0  0  0  0  0  0  0  0  0  0  0  0
   45.8647   57.8405   32.7879 N   0  0  0  0  0  0  0  0  0  0  0  0
   47.0477   58.4865   32.6946 C   0  0  0  0  0  0  0  0  0  0  0  0
   47.0766   59.8477   32.4296 C   0  0  0  0  0  0  0  0  0  0  0  0
   45.8845   60.5428   32.2440 C   0  0  0  0  0  0  0  0  0  0  0  0
   45.8931   61.8473   31.9824 N   0  0  0  0  0  0  0  0  0  0  0  0
   48.3721   60.2326   32.4037 N   0  0  0  0  0  0  0  0  0  0  0  0
   49.1530   59.1566   32.6588 C   0  0  0  0  0  0  0  0  0  0  0  0
   48.3451   58.0649   32.8413 N   0  0  0  0  0  0  0  0  0  0  0  0
  2  1  1  1  0  0  0
  2  3  1  0  0  0  0
  2  5  1  0  0  0  0
  3  4  1  0  0  0  0
  3 17  1  0  0  0  0
  5  6  1  0  0  0  0
  7  6  1  6  0  0  0
  7  8  1  0  0  0  0
  7  9  1  0  0  0  0
 10  9  1  6  0  0  0
 10 11  1  0  0  0  0
 10 12  1  0  0  0  0
 11 16  1  0  0  0  0
 12 13  1  1  0  0  0
 12 14  1  0  0  0  0
 14 15  1  1  0  0  0
 14 16  1  0  0  0  0
 16 27  1  6  0  0  0
 18 19  2  0  0  0  0
 18 23  1  0  0  0  0
 19 20  1  0  0  0  0
 20 21  2  0  0  0  0
 21 22  1  0  0  0  0
 21 27  1  0  0  0  0
 22 23  2  0  0  0  0
 22 25  1  0  0  0  0
 23 24  1  0  0  0  0
 25 26  2  0  0  0  0
 26 27  1  0  0  0  0
M  END
>  <CHROM.1>
160.92556555,50.29484732,-81.71649440,-98.08490625,-108.69315796,55.93593455
61.96826614,47.52508901,56.94434468,31.45383202,-0.10743619,1.40601842,-1.12381327

>  <Name>
ligand

>  <RI>
0

>  <Rbt.Current_Directory>
/home/itssahil/PROJECTS/Mol_Feturizer/New_Systems/rnas/3GX7

>  <Rbt.Executable>
rbdock ($Id: //depot/dev/client3/rdock/2013.1/src/exe/rbdock.cxx#4 $)

>  <Rbt.Library>
libRbt.so (2013.1, Build901 2013/11/27)

>  <Rbt.Parameter_File>
/export/apps/rDock/src/rDock_2013.1_src/data/scripts/dock_solv.prm

>  <Rbt.Receptor>
prm/pocket_docking_2.prm

>  <SCORE>
-15.2169

>  <SCORE.INTER>
-11.5416

>  <SCORE.INTER.CONST>
1

>  <SCORE.INTER.POLAR>
0

>  <SCORE.INTER.ROT>
7

>  <SCORE.INTER.SOLV>
18.0641

>  <SCORE.INTER.VDW>
-21.9824

>  <SCORE.INTER.norm>
-0.427466

>  <SCORE.INTRA>
-3.88861

>  <SCORE.INTRA.DIHEDRAL>
-0.646964

>  <SCORE.INTRA.DIHEDRAL.0>
11.2699

>  <SCORE.INTRA.POLAR>
0

>  <SCORE.INTRA.POLAR.0>
0

>  <SCORE.INTRA.REPUL>
0

>  <SCORE.INTRA.REPUL.0>
0

>  <SCORE.INTRA.SOLV>
2.51015

>  <SCORE.INTRA.SOLV.lig_0>
-48.6447

>  <SCORE.INTRA.VDW>
-4.8202

>  <SCORE.INTRA.VDW.0>
-0.0211724

>  <SCORE.INTRA.norm>
-0.144023

>  <SCORE.RESTR>
0.213332

>  <SCORE.RESTR.CAVITY>
0.213332

>  <SCORE.RESTR.norm>
0.00790118

>  <SCORE.SYSTEM>
0

>  <SCORE.SYSTEM.CONST>
0

>  <SCORE.SYSTEM.DIHEDRAL>
0

>  <SCORE.SYSTEM.SOLV>
0

>  <SCORE.SYSTEM.norm>
0

>  <SCORE.heavy>
27

>  <SCORE.norm>
-0.563588

>  <RMSD>
1.149

$$$$
ligand
 OpenBabel11021811483D
libRbt.so/2013.1/901 2013/11/27
 27 29  0  0  0  0  0  0  0  0999 V2000
   48.6167   57.8422   28.9939 N   0  0  0  0  0  0  0  0  0  0  0  0
   49.1112   56.7876   28.1171 C   0  0  2  0  0  0  0  0  0  0  0  0
   48.0038   56.2870   27.2045 C   0  0  0  0  0  0  0  0  0  0  0  0
   48.1423   56.3189   25.9839 O   0  0  0  0  0  0  0  0  0  0  0  0
   49.7137   55.6266   28.9070 C   0  0  0  0  0  0  0  0  0  0  0  0
   48.8395   55.1016   30.0396 C   0  0  0  0  0  0  0  0  0  0  0  0
   49.4155   53.5469   30.7761 S   0  0  2  0  0  0  0  0  0  0  0  0
   48.8011   52.3408   29.5750 C   0  0  0  0  0  0  0  0  0  0  0  0
   48.1968   53.3448   32.1019 C   0  0  0  0  0  0  0  0  0  0  0  0
   48.7181   53.9834   33.3806 C   0  0  1  0  0  0  0  0  0  0  0  0
   49.2391   55.2504   33.0586 O   0  0  0  0  0  0  0  0  0  0  0  0
   47.6571   54.2505   34.4291 C   0  0  1  0  0  0  0  0  0  0  0  0
   47.6406   53.2159   35.3822 O   0  0  0  0  0  0  0  0  0  0  0  0
   48.1005   55.5578   35.0606 C   0  0  1  0  0  0  0  0  0  0  0  0
   48.6613   55.2957   36.3253 O   0  0  0  0  0  0  0  0  0  0  0  0
   49.1580   56.1480   34.1362 C   0  0  2  0  0  0  0  0  0  0  0  0
   46.9562   55.8386   27.6712 O   0  0  0  0  0  0  0  0  0  0  0  0
   45.0268   58.9436   32.4624 N   0  0  0  0  0  0  0  0  0  0  0  0
   45.0557   57.6313   32.8892 C   0  0  0  0  0  0  0  0  0  0  0  0
   46.2442   57.0537   33.2967 N   0  0  0  0  0  0  0  0  0  0  0  0
   47.3944   57.7623   33.2752 C   0  0  0  0  0  0  0  0  0  0  0  0
   47.3875   59.0848   32.8569 C   0  0  0  0  0  0  0  0  0  0  0  0
   46.1958   59.6746   32.4439 C   0  0  0  0  0  0  0  0  0  0  0  0
   46.1713   60.9399   32.0331 N   0  0  0  0  0  0  0  0  0  0  0  0
   48.6537   59.5494   32.9467 N   0  0  0  0  0  0  0  0  0  0  0  0
   49.4490   58.5623   33.4220 C   0  0  0  0  0  0  0  0  0  0  0  0
   48.6814   57.4464   33.6306 N   0  0  0  0  0  0  0  0  0  0  0  0
  2  1  1  1  0  0  0
  2  3  1  0  0  0  0
  2  5  1  0  0  0  0
  3  4  1  0  0  0  0
  3 17  1  0  0  0  0
  5  6  1  0  0  0  0
  7  6  1  6  0  0  0
  7  8  1  0  0  0  0
  7  9  1  0  0  0  0
 10  9  1  6  0  0  0
 10 11  1  0  0  0  0
 10 12  1  0  0  0  0
 11 16  1  0  0  0  0
 12 13  1  1  0  0  0
 12 14  1  0  0  0  0
 14 15  1  1  0  0  0
 14 16  1  0  0  0  0
 16 27  1  6  0  0  0
 18 19  2  0  0  0  0
 18 23  1  0  0  0  0
 19 20  1  0  0  0  0
 20 21  2  0  0  0  0
 21 22  1  0  0  0  0
 21 27  1  0  0  0  0
 22 23  2  0  0  0  0
 22 25  1  0  0  0  0
 23 24  1  0  0  0  0
 25 26  2  0  0  0  0
 26 27  1  0  0  0  0
M  END
>  <CHROM.1>
122.90602450,49.36349549,169.50529832,-80.37337686,-91.84978501,45.90130540
75.76640202,48.05952796,56.20619062,31.78608134,1.20830983,1.22260099,-1.39055202

>  <Name>
ligand

>  <RI>
0

>  <Rbt.Current_Directory>
/home/itssahil/PROJECTS/Mol_Feturizer/New_Systems/rnas/3GX7

>  <Rbt.Executable>
rbdock ($Id: //depot/dev/client3/rdock/2013.1/src/exe/rbdock.cxx#4 $)

>  <Rbt.Library>
libRbt.so (2013.1, Build901 2013/11/27)

>  <Rbt.Parameter_File>
/export/apps/rDock/src/rDock_2013.1_src/data/scripts/dock_solv.prm

>  <Rbt.Receptor>
prm/pocket_docking_5.prm

>  <SCORE>
-22.5748

>  <SCORE.INTER>
-17.3325

>  <SCORE.INTER.CONST>
1

>  <SCORE.INTER.POLAR>
0

>  <SCORE.INTER.ROT>
7

>  <SCORE.INTER.SOLV>
19.9479

>  <SCORE.INTER.VDW>
-26.471

>  <SCORE.INTER.norm>
-0.641945

>  <SCORE.INTRA>
-5.24227

>  <SCORE.INTRA.DIHEDRAL>
-4.72125

>  <SCORE.INTRA.DIHEDRAL.0>
11.2699

>  <SCORE.INTRA.POLAR>
0

>  <SCORE.INTRA.POLAR.0>
0

>  <SCORE.INTRA.REPUL>
0

>  <SCORE.INTRA.REPUL.0>
0

>  <SCORE.INTRA.SOLV>
-0.238025

>  <SCORE.INTRA.SOLV.lig_0>
-48.6447

>  <SCORE.INTRA.VDW>
-2.76264

>  <SCORE.INTRA.VDW.0>
-0.0211724

>  <SCORE.INTRA.norm>
-0.194158

>  <SCORE.RESTR>
0

>  <SCORE.RESTR.CAVITY>
0

>  <SCORE.RESTR.norm>
0

>  <SCORE.SYSTEM>
0

>  <SCORE.SYSTEM.CONST>
0

>  <SCORE.SYSTEM.DIHEDRAL>
0

>  <SCORE.SYSTEM.SOLV>
0

>  <SCORE.SYSTEM.norm>
0

>  <SCORE.heavy>
27

>  <SCORE.norm>
-0.836103

>  <RMSD>
1.160

$$$$
ligand
 OpenBabel11021811483D
libRbt.so/2013.1/901 2013/11/27
 27 29  0  0  0  0  0  0  0  0999 V2000
   47.2971   56.1579   26.2423 N   0  0  0  0  0  0  0  0  0  0  0  0
   46.7218   56.5468   27.5242 C   0  0  2  0  0  0  0  0  0  0  0  0
   46.5820   58.0575   27.6121 C   0  0  0  0  0  0  0  0  0  0  0  0
   47.2176   58.7857   26.8534 O   0  0  0  0  0  0  0  0  0  0  0  0
   47.5436   56.0203   28.6999 C   0  0  0  0  0  0  0  0  0  0  0  0
   47.6964   54.5046   28.7458 C   0  0  0  0  0  0  0  0  0  0  0  0
   48.7269   53.8931   30.1080 S   0  0  2  0  0  0  0  0  0  0  0  0
   48.5985   52.1039   29.8691 C   0  0  0  0  0  0  0  0  0  0  0  0
   47.5923   54.1237   31.5020 C   0  0  0  0  0  0  0  0  0  0  0  0
   48.3525   54.6801   32.6966 C   0  0  1  0  0  0  0  0  0  0  0  0
   48.8572   55.9460   32.3457 O   0  0  0  0  0  0  0  0  0  0  0  0
   47.5015   54.9243   33.9265 C   0  0  1  0  0  0  0  0  0  0  0  0
   47.6121   53.8431   34.8197 O   0  0  0  0  0  0  0  0  0  0  0  0
   48.0977   56.1837   34.5287 C   0  0  1  0  0  0  0  0  0  0  0  0
   48.8600   55.8406   35.6617 O   0  0  0  0  0  0  0  0  0  0  0  0
   48.9995   56.7891   33.4603 C   0  0  2  0  0  0  0  0  0  0  0  0
   45.8290   58.5743   28.4382 O   0  0  0  0  0  0  0  0  0  0  0  0
   44.7698   59.7029   32.3190 N   0  0  0  0  0  0  0  0  0  0  0  0
   44.8255   58.3578   32.6231 C   0  0  0  0  0  0  0  0  0  0  0  0
   46.0377   57.7519   32.8983 N   0  0  0  0  0  0  0  0  0  0  0  0
   47.1846   58.4654   32.8655 C   0  0  0  0  0  0  0  0  0  0  0  0
   47.1514   59.8200   32.5692 C   0  0  0  0  0  0  0  0  0  0  0  0
   45.9357   60.4385   32.2899 C   0  0  0  0  0  0  0  0  0  0  0  0
   45.8854   61.7354   31.9971 N   0  0  0  0  0  0  0  0  0  0  0  0
   48.4212   60.2810   32.6174 N   0  0  0  0  0  0  0  0  0  0  0  0
   49.2451   59.2592   32.9489 C   0  0  0  0  0  0  0  0  0  0  0  0
   48.4919   58.1253   33.1060 N   0  0  0  0  0  0  0  0  0  0  0  0
  2  1  1  6  0  0  0
  2  3  1  0  0  0  0
  2  5  1  0  0  0  0
  3  4  1  0  0  0  0
  3 17  1  0  0  0  0
  5  6  1  0  0  0  0
  7  6  1  6  0  0  0
  7  8  1  0  0  0  0
  7  9  1  0  0  0  0
 10  9  1  6  0  0  0
 10 11  1  0  0  0  0
 10 12  1  0  0  0  0
 11 16  1  0  0  0  0
 12 13  1  1  0  0  0
 12 14  1  0  0  0  0
 14 15  1  1  0  0  0
 14 16  1  0  0  0  0
 16 27  1  6  0  0  0
 18 19  2  0  0  0  0
 18 23  1  0  0  0  0
 19 20  1  0  0  0  0
 20 21  2  0  0  0  0
 21 22  1  0  0  0  0
 21 27  1  0  0  0  0
 22 23  2  0  0  0  0
 22 25  1  0  0  0  0
 23 24  1  0  0  0  0
 25 26  2  0  0  0  0
 26 27  1  0  0  0  0
M  END
>  <CHROM.1>
-18.15302090,-58.93341682,177.74198952,177.45185702,-138.13690356,62.89762793
68.69519931,47.49096914,56.85292046,31.36853478,1.44318641,1.23450400,-1.94710954

>  <Name>
ligand

>  <RI>
0

>  <Rbt.Current_Directory>
/home/itssahil/PROJECTS/Mol_Feturizer/New_Systems/rnas/3GX7

>  <Rbt.Executable>
rbdock ($Id: //depot/dev/client3/rdock/2013.1/src/exe/rbdock.cxx#4 $)

>  <Rbt.Library>
libRbt.so (2013.1, Build901 2013/11/27)

>  <Rbt.Parameter_File>
/export/apps/rDock/src/rDock_2013.1_src/data/scripts/dock_solv.prm

>  <Rbt.Receptor>
prm/pocket_docking_2.prm

>  <SCORE>
-18.2781

>  <SCORE.INTER>
-13.4963

>  <SCORE.INTER.CONST>
1

>  <SCORE.INTER.POLAR>
0

>  <SCORE.INTER.ROT>
7

>  <SCORE.INTER.SOLV>
19.9704

>  <SCORE.INTER.VDW>
-23.921

>  <SCORE.INTER.norm>
-0.499863

>  <SCORE.INTRA>
-5.13101

>  <SCORE.INTRA.DIHEDRAL>
-3.87743

>  <SCORE.INTRA.DIHEDRAL.0>
11.2699

>  <SCORE.INTRA.POLAR>
0

>  <SCORE.INTRA.POLAR.0>
0

>  <SCORE.INTRA.REPUL>
0

>  <SCORE.INTRA.REPUL.0>
0

>  <SCORE.INTRA.SOLV>
-0.362314

>  <SCORE.INTRA.SOLV.lig_0>
-48.6447

>  <SCORE.INTRA.VDW>
-3.01114

>  <SCORE.INTRA.VDW.0>
-0.0211724

>  <SCORE.INTRA.norm>
-0.190038

>  <SCORE.RESTR>
0.349235

>  <SCORE.RESTR.CAVITY>
0.349235

>  <SCORE.RESTR.norm>
0.0129346

>  <SCORE.SYSTEM>
0

>  <SCORE.SYSTEM.CONST>
0

>  <SCORE.SYSTEM.DIHEDRAL>
0

>  <SCORE.SYSTEM.SOLV>
0

>  <SCORE.SYSTEM.norm>
0

>  <SCORE.heavy>
27

>  <SCORE.norm>
-0.676966

>  <RMSD>
1.175

$$$$
ligand
 OpenBabel11021811483D
libRbt.so/2013.1/901 2013/11/27
 27 29  0  0  0  0  0  0  0  0999 V2000
   46.4535   57.2306   29.3193 N   0  0  0  0  0  0  0  0  0  0  0  0
   47.8708   57.2796   28.9814 C   0  0  2  0  0  0  0  0  0  0  0  0
   48.0724   57.0820   27.4881 C   0  0  0  0  0  0  0  0  0  0  0  0
   49.1236   56.6115   27.0598 O   0  0  0  0  0  0  0  0  0  0  0  0
   48.6792   56.2482   29.7673 C   0  0  0  0  0  0  0  0  0  0  0  0
   48.3419   54.7958   29.4519 C   0  0  0  0  0  0  0  0  0  0  0  0
   49.1367   53.5845   30.5439 S   0  0  2  0  0  0  0  0  0  0  0  0
   48.6842   52.0312   29.7331 C   0  0  0  0  0  0  0  0  0  0  0  0
   47.9718   53.5856   31.9320 C   0  0  0  0  0  0  0  0  0  0  0  0
   48.6371   54.1877   33.1606 C   0  0  1  0  0  0  0  0  0  0  0  0
   49.1874   55.4310   32.7977 O   0  0  0  0  0  0  0  0  0  0  0  0
   47.6896   54.4964   34.3022 C   0  0  1  0  0  0  0  0  0  0  0  0
   47.7095   53.4558   35.2487 O   0  0  0  0  0  0  0  0  0  0  0  0
   48.2511   55.7756   34.8961 C   0  0  1  0  0  0  0  0  0  0  0  0
   48.9108   55.4764   36.1035 O   0  0  0  0  0  0  0  0  0  0  0  0
   49.2478   56.3223   33.8818 C   0  0  2  0  0  0  0  0  0  0  0  0
   47.1877   57.3843   26.6867 O   0  0  0  0  0  0  0  0  0  0  0  0
   45.1358   59.2851   32.4682 N   0  0  0  0  0  0  0  0  0  0  0  0
   45.1418   57.9634   32.8659 C   0  0  0  0  0  0  0  0  0  0  0  0
   46.3287   57.3392   33.2033 N   0  0  0  0  0  0  0  0  0  0  0  0
   47.4993   58.0110   33.1408 C   0  0  0  0  0  0  0  0  0  0  0  0
   47.5161   59.3420   32.7508 C   0  0  0  0  0  0  0  0  0  0  0  0
   46.3261   59.9786   32.4083 C   0  0  0  0  0  0  0  0  0  0  0  0
   46.3238   61.2528   32.0255 N   0  0  0  0  0  0  0  0  0  0  0  0
   48.7998   59.7637   32.7887 N   0  0  0  0  0  0  0  0  0  0  0  0
   49.5838   58.7414   33.2045 C   0  0  0  0  0  0  0  0  0  0  0  0
   48.7907   57.6463   33.4269 N   0  0  0  0  0  0  0  0  0  0  0  0
  2  1  1  6  0  0  0
  2  3  1  0  0  0  0
  2  5  1  0  0  0  0
  3  4  1  0  0  0  0
  3 17  1  0  0  0  0
  5  6  1  0  0  0  0
  7  6  1  6  0  0  0
  7  8  1  0  0  0  0
  7  9  1  0  0  0  0
 10  9  1  6  0  0  0
 10 11  1  0  0  0  0
 10 12  1  0  0  0  0
 11 16  1  0  0  0  0
 12 13  1  1  0  0  0
 12 14  1  0  0  0  0
 14 15  1  1  0  0  0
 14 16  1  0  0  0  0
 16 27  1  6  0  0  0
 18 19  2  0  0  0  0
 18 23  1  0  0  0  0
 19 20  1  0  0  0  0
 20 21  2  0  0  0  0
 21 22  1  0  0  0  0
 21 27  1  0  0  0  0
 22 23  2  0  0  0  0
 22 25  1  0  0  0  0
 23 24  1  0  0  0  0
 25 26  2  0  0  0  0
 26 27  1  0  0  0  0
M  END
>  <CHROM.1>
-153.32479194,65.03511707,-172.02846404,-172.80801234,-112.40302399,51.72433418
73.01081814,47.95871970,56.45358269,31.74667454,1.40786250,1.26194364,-1.54407466

>  <Name>
ligand

>  <RI>
0

>  <Rbt.Current_Directory>
/home/itssahil/PROJECTS/Mol_Feturizer/New_Systems/rnas/3GX7

>  <Rbt.Executable>
rbdock ($Id: //depot/dev/client3/rdock/2013.1/src/exe/rbdock.cxx#4 $)

>  <Rbt.Library>
libRbt.so (2013.1, Build901 2013/11/27)

>  <Rbt.Parameter_File>
/export/apps/rDock/src/rDock_2013.1_src/data/scripts/dock_solv.prm

>  <Rbt.Receptor>
prm/pocket_docking_3.prm

>  <SCORE>
-21.6418

>  <SCORE.INTER>
-16.7686

>  <SCORE.INTER.CONST>
1

>  <SCORE.INTER.POLAR>
0

>  <SCORE.INTER.ROT>
7

>  <SCORE.INTER.SOLV>
16.8849

>  <SCORE.INTER.VDW>
-25.074

>  <SCORE.INTER.norm>
-0.621058

>  <SCORE.INTRA>
-4.87329

>  <SCORE.INTRA.DIHEDRAL>
-3.20518

>  <SCORE.INTRA.DIHEDRAL.0>
11.2699

>  <SCORE.INTRA.POLAR>
0

>  <SCORE.INTRA.POLAR.0>
0

>  <SCORE.INTRA.REPUL>
0

>  <SCORE.INTRA.REPUL.0>
0

>  <SCORE.INTRA.SOLV>
-0.144267

>  <SCORE.INTRA.SOLV.lig_0>
-48.6447

>  <SCORE.INTRA.VDW>
-3.19856

>  <SCORE.INTRA.VDW.0>
-0.0211724

>  <SCORE.INTRA.norm>
-0.180492

>  <SCORE.RESTR>
0

>  <SCORE.RESTR.CAVITY>
0

>  <SCORE.RESTR.norm>
0

>  <SCORE.SYSTEM>
0

>  <SCORE.SYSTEM.CONST>
0

>  <SCORE.SYSTEM.DIHEDRAL>
0

>  <SCORE.SYSTEM.SOLV>
0

>  <SCORE.SYSTEM.norm>
0

>  <SCORE.heavy>
27

>  <SCORE.norm>
-0.80155

>  <RMSD>
1.181

$$$$
ligand
 OpenBabel11021811483D
libRbt.so/2013.1/901 2013/11/27
 27 29  0  0  0  0  0  0  0  0999 V2000
   47.4050   58.0214   29.7783 N   0  0  0  0  0  0  0  0  0  0  0  0
   48.4208   57.0409   29.4144 C   0  0  2  0  0  0  0  0  0  0  0  0
   48.5203   56.9085   27.9037 C   0  0  0  0  0  0  0  0  0  0  0  0
   49.1103   55.9551   27.4010 O   0  0  0  0  0  0  0  0  0  0  0  0
   48.1498   55.6781   30.0501 C   0  0  0  0  0  0  0  0  0  0  0  0
   49.3764   54.7857   30.1976 C   0  0  0  0  0  0  0  0  0  0  0  0
   49.0310   53.1370   30.8713 S   0  0  2  0  0  0  0  0  0  0  0  0
   47.9605   52.4494   29.5845 C   0  0  0  0  0  0  0  0  0  0  0  0
   47.8026   53.5544   32.1364 C   0  0  0  0  0  0  0  0  0  0  0  0
   48.4980   54.1520   33.3505 C   0  0  1  0  0  0  0  0  0  0  0  0
   49.0633   55.3837   32.9713 O   0  0  0  0  0  0  0  0  0  0  0  0
   47.5747   54.4833   34.5055 C   0  0  1  0  0  0  0  0  0  0  0  0
   47.5924   53.4479   35.4577 O   0  0  0  0  0  0  0  0  0  0  0  0
   48.1674   55.7560   35.0826 C   0  0  1  0  0  0  0  0  0  0  0  0
   48.8417   55.4524   36.2808 O   0  0  0  0  0  0  0  0  0  0  0  0
   49.1566   56.2800   34.0490 C   0  0  2  0  0  0  0  0  0  0  0  0
   48.0095   57.7482   27.1619 O   0  0  0  0  0  0  0  0  0  0  0  0
   45.1083   59.2351   32.4482 N   0  0  0  0  0  0  0  0  0  0  0  0
   45.1033   57.9056   32.8190 C   0  0  0  0  0  0  0  0  0  0  0  0
   46.2739   57.2850   33.2152 N   0  0  0  0  0  0  0  0  0  0  0  0
   47.4393   57.9682   33.2373 C   0  0  0  0  0  0  0  0  0  0  0  0
   47.4664   59.3069   32.8757 C   0  0  0  0  0  0  0  0  0  0  0  0
   46.2931   59.9401   32.4745 C   0  0  0  0  0  0  0  0  0  0  0  0
   46.3012   61.2219   32.1177 N   0  0  0  0  0  0  0  0  0  0  0  0
   48.7412   59.7391   32.9998 N   0  0  0  0  0  0  0  0  0  0  0  0
   49.5088   58.7153   33.4419 C   0  0  0  0  0  0  0  0  0  0  0  0
   48.7146   57.6089   33.5937 N   0  0  0  0  0  0  0  0  0  0  0  0
  2  1  1  6  0  0  0
  2  3  1  0  0  0  0
  2  5  1  0  0  0  0
  3  4  1  0  0  0  0
  3 17  1  0  0  0  0
  5  6  1  0  0  0  0
  7  6  1  6  0  0  0
  7  8  1  0  0  0  0
  7  9  1  0  0  0  0
 10  9  1  6  0  0  0
 10 11  1  0  0  0  0
 10 12  1  0  0  0  0
 11 16  1  0  0  0  0
 12 13  1  1  0  0  0
 12 14  1  0  0  0  0
 14 15  1  1  0  0  0
 14 16  1  0  0  0  0
 16 27  1  6  0  0  0
 18 19  2  0  0  0  0
 18 23  1  0  0  0  0
 19 20  1  0  0  0  0
 20 21  2  0  0  0  0
 21 22  1  0  0  0  0
 21 27  1  0  0  0  0
 22 23  2  0  0  0  0
 22 25  1  0  0  0  0
 23 24  1  0  0  0  0
 25 26  2  0  0  0  0
 26 27  1  0  0  0  0
M  END
>  <CHROM.1>
-165.11431592,-156.77542241,-176.89835044,63.17623541,-77.01484579,65.95589117
68.11928357,47.99014090,56.39388794,31.96843574,0.49827757,1.28908723,-1.30274753

>  <Name>
ligand

>  <RI>
0

>  <Rbt.Current_Directory>
/home/itssahil/PROJECTS/Mol_Feturizer/New_Systems/rnas/3GX7

>  <Rbt.Executable>
rbdock ($Id: //depot/dev/client3/rdock/2013.1/src/exe/rbdock.cxx#4 $)

>  <Rbt.Library>
libRbt.so (2013.1, Build901 2013/11/27)

>  <Rbt.Parameter_File>
/export/apps/rDock/src/rDock_2013.1_src/data/scripts/dock_solv.prm

>  <Rbt.Receptor>
prm/pocket_docking_2.prm

>  <SCORE>
-21.3847

>  <SCORE.INTER>
-16.6968

>  <SCORE.INTER.CONST>
1

>  <SCORE.INTER.POLAR>
0

>  <SCORE.INTER.ROT>
7

>  <SCORE.INTER.SOLV>
17.8838

>  <SCORE.INTER.VDW>
-25.3591

>  <SCORE.INTER.norm>
-0.6184

>  <SCORE.INTRA>
-4.75154

>  <SCORE.INTRA.DIHEDRAL>
-5.46253

>  <SCORE.INTRA.DIHEDRAL.0>
11.2699

>  <SCORE.INTRA.POLAR>
0

>  <SCORE.INTRA.POLAR.0>
0

>  <SCORE.INTRA.REPUL>
0

>  <SCORE.INTRA.REPUL.0>
0

>  <SCORE.INTRA.SOLV>
1.1818

>  <SCORE.INTRA.SOLV.lig_0>
-48.6447

>  <SCORE.INTRA.VDW>
-2.61117

>  <SCORE.INTRA.VDW.0>
-0.0211724

>  <SCORE.INTRA.norm>
-0.175983

>  <SCORE.RESTR>
0.0636241

>  <SCORE.RESTR.CAVITY>
0.0636241

>  <SCORE.RESTR.norm>
0.00235645

>  <SCORE.SYSTEM>
0

>  <SCORE.SYSTEM.CONST>
0

>  <SCORE.SYSTEM.DIHEDRAL>
0

>  <SCORE.SYSTEM.SOLV>
0

>  <SCORE.SYSTEM.norm>
0

>  <SCORE.heavy>
27

>  <SCORE.norm>
-0.792027

>  <RMSD>
1.189

$$$$
ligand
 OpenBabel11021811483D
libRbt.so/2013.1/901 2013/11/27
 27 29  0  0  0  0  0  0  0  0999 V2000
   48.3748   56.2500   26.3268 N   0  0  0  0  0  0  0  0  0  0  0  0
   47.9086   56.1389   27.7037 C   0  0  2  0  0  0  0  0  0  0  0  0
   47.8230   57.5106   28.3523 C   0  0  0  0  0  0  0  0  0  0  0  0
   48.7373   58.3203   28.2168 O   0  0  0  0  0  0  0  0  0  0  0  0
   48.7984   55.2141   28.5329 C   0  0  0  0  0  0  0  0  0  0  0  0
   48.2956   54.9395   29.9452 C   0  0  0  0  0  0  0  0  0  0  0  0
   49.1055   53.5439   30.7743 S   0  0  2  0  0  0  0  0  0  0  0  0
   48.5600   52.1594   29.7445 C   0  0  0  0  0  0  0  0  0  0  0  0
   48.0152   53.3408   32.2074 C   0  0  0  0  0  0  0  0  0  0  0  0
   48.6518   53.9808   33.4321 C   0  0  1  0  0  0  0  0  0  0  0  0
   49.1989   55.2188   33.0469 O   0  0  0  0  0  0  0  0  0  0  0  0
   47.6799   54.3114   34.5468 C   0  0  1  0  0  0  0  0  0  0  0  0
   47.6900   53.2964   35.5208 O   0  0  0  0  0  0  0  0  0  0  0  0
   48.2195   55.6106   35.1172 C   0  0  1  0  0  0  0  0  0  0  0  0
   48.8582   55.3490   36.3444 O   0  0  0  0  0  0  0  0  0  0  0  0
   49.2312   56.1389   34.1079 C   0  0  2  0  0  0  0  0  0  0  0  0
   46.8382   57.8336   29.0173 O   0  0  0  0  0  0  0  0  0  0  0  0
   45.1270   59.0209   32.5163 N   0  0  0  0  0  0  0  0  0  0  0  0
   45.1363   57.7093   32.9457 C   0  0  0  0  0  0  0  0  0  0  0  0
   46.3205   57.1066   33.3290 N   0  0  0  0  0  0  0  0  0  0  0  0
   47.4852   57.7898   33.2809 C   0  0  0  0  0  0  0  0  0  0  0  0
   47.4982   59.1111   32.8595 C   0  0  0  0  0  0  0  0  0  0  0  0
   46.3110   59.7261   32.4707 C   0  0  0  0  0  0  0  0  0  0  0  0
   46.3054   60.9907   32.0573 N   0  0  0  0  0  0  0  0  0  0  0  0
   48.7759   59.5480   32.9207 N   0  0  0  0  0  0  0  0  0  0  0  0
   49.5594   58.5447   33.3814 C   0  0  0  0  0  0  0  0  0  0  0  0
   48.7723   57.4464   33.6093 N   0  0  0  0  0  0  0  0  0  0  0  0
  2  1  1  6  0  0  0
  2  3  1  0  0  0  0
  2  5  1  0  0  0  0
  3  4  1  0  0  0  0
  3 17  1  0  0  0  0
  5  6  1  0  0  0  0
  7  6  1  6  0  0  0
  7  8  1  0  0  0  0
  7  9  1  0  0  0  0
 10  9  1  6  0  0  0
 10 11  1  0  0  0  0
 10 12  1  0  0  0  0
 11 16  1  0  0  0  0
 12 13  1  1  0  0  0
 12 14  1  0  0  0  0
 14 15  1  1  0  0  0
 14 16  1  0  0  0  0
 16 27  1  6  0  0  0
 18 19  2  0  0  0  0
 18 23  1  0  0  0  0
 19 20  1  0  0  0  0
 20 21  2  0  0  0  0
 21 22  1  0  0  0  0
 21 27  1  0  0  0  0
 22 23  2  0  0  0  0
 22 25  1  0  0  0  0
 23 24  1  0  0  0  0
 25 26  2  0  0  0  0
 26 27  1  0  0  0  0
M  END
>  <CHROM.1>
-45.03790111,-174.21896897,165.49015953,-65.48038131,-100.61864469,42.94815156
72.55820651,47.97883793,56.31998898,31.86834449,-1.56752980,-1.27882181,1.70414735

>  <Name>
ligand

>  <RI>
0

>  <Rbt.Current_Directory>
/home/itssahil/PROJECTS/Mol_Feturizer/New_Systems/rnas/3GX7

>  <Rbt.Executable>
rbdock ($Id: //depot/dev/client3/rdock/2013.1/src/exe/rbdock.cxx#4 $)

>  <Rbt.Library>
libRbt.so (2013.1, Build901 2013/11/27)

>  <Rbt.Parameter_File>
/export/apps/rDock/src/rDock_2013.1_src/data/scripts/dock_solv.prm

>  <Rbt.Receptor>
prm/pocket_docking_3.prm

>  <SCORE>
-21.2693

>  <SCORE.INTER>
-16.1486

>  <SCORE.INTER.CONST>
1

>  <SCORE.INTER.POLAR>
0

>  <SCORE.INTER.ROT>
7

>  <SCORE.INTER.SOLV>
19.5628

>  <SCORE.INTER.VDW>
-25.5533

>  <SCORE.INTER.norm>
-0.598096

>  <SCORE.INTRA>
-5.12076

>  <SCORE.INTRA.DIHEDRAL>
-3.79499

>  <SCORE.INTRA.DIHEDRAL.0>
11.2699

>  <SCORE.INTRA.POLAR>
0

>  <SCORE.INTRA.POLAR.0>
0

>  <SCORE.INTRA.REPUL>
0

>  <SCORE.INTRA.REPUL.0>
0

>  <SCORE.INTRA.SOLV>
-0.985676

>  <SCORE.INTRA.SOLV.lig_0>
-48.6447

>  <SCORE.INTRA.VDW>
-2.73043

>  <SCORE.INTRA.VDW.0>
-0.0211724

>  <SCORE.INTRA.norm>
-0.189658

>  <SCORE.RESTR>
0

>  <SCORE.RESTR.CAVITY>
0

>  <SCORE.RESTR.norm>
0

>  <SCORE.SYSTEM>
0

>  <SCORE.SYSTEM.CONST>
0

>  <SCORE.SYSTEM.DIHEDRAL>
0

>  <SCORE.SYSTEM.SOLV>
0

>  <SCORE.SYSTEM.norm>
0

>  <SCORE.heavy>
27

>  <SCORE.norm>
-0.787753

>  <RMSD>
1.218

$$$$
ligand
 OpenBabel11021811483D
libRbt.so/2013.1/901 2013/11/27
 27 29  0  0  0  0  0  0  0  0999 V2000
   48.3677   55.6410   27.3594 N   0  0  0  0  0  0  0  0  0  0  0  0
   47.6209   56.5779   28.1900 C   0  0  2  0  0  0  0  0  0  0  0  0
   47.9260   58.0113   27.7873 C   0  0  0  0  0  0  0  0  0  0  0  0
   47.1863   58.6090   27.0092 O   0  0  0  0  0  0  0  0  0  0  0  0
   47.9057   56.3722   29.6771 C   0  0  0  0  0  0  0  0  0  0  0  0
   47.3771   55.0647   30.2548 C   0  0  0  0  0  0  0  0  0  0  0  0
   48.6640   53.9096   30.8034 S   0  0  2  0  0  0  0  0  0  0  0  0
   48.3653   52.5037   29.7038 C   0  0  0  0  0  0  0  0  0  0  0  0
   47.9171   53.2960   32.3363 C   0  0  0  0  0  0  0  0  0  0  0  0
   48.5721   53.9702   33.5326 C   0  0  1  0  0  0  0  0  0  0  0  0
   49.0953   55.2060   33.1088 O   0  0  0  0  0  0  0  0  0  0  0  0
   47.6205   54.3134   34.6610 C   0  0  1  0  0  0  0  0  0  0  0  0
   47.6644   53.3201   35.6561 O   0  0  0  0  0  0  0  0  0  0  0  0
   48.1561   55.6311   35.1911 C   0  0  1  0  0  0  0  0  0  0  0  0
   48.8245   55.4041   36.4095 O   0  0  0  0  0  0  0  0  0  0  0  0
   49.1390   56.1493   34.1487 C   0  0  2  0  0  0  0  0  0  0  0  0
   48.9123   58.5962   28.2360 O   0  0  0  0  0  0  0  0  0  0  0  0
   44.9935   58.8922   32.4239 N   0  0  0  0  0  0  0  0  0  0  0  0
   45.0325   57.5825   32.8577 C   0  0  0  0  0  0  0  0  0  0  0  0
   46.2234   57.0197   33.2787 N   0  0  0  0  0  0  0  0  0  0  0  0
   47.3661   57.7404   33.2638 C   0  0  0  0  0  0  0  0  0  0  0  0
   47.3490   59.0606   32.8387 C   0  0  0  0  0  0  0  0  0  0  0  0
   46.1548   59.6356   32.4121 C   0  0  0  0  0  0  0  0  0  0  0  0
   46.1206   60.8984   31.9946 N   0  0  0  0  0  0  0  0  0  0  0  0
   48.6093   59.5391   32.9373 N   0  0  0  0  0  0  0  0  0  0  0  0
   49.4107   58.5630   33.4248 C   0  0  0  0  0  0  0  0  0  0  0  0
   48.6532   57.4401   33.6323 N   0  0  0  0  0  0  0  0  0  0  0  0
  2  1  1  6  0  0  0
  2  3  1  0  0  0  0
  2  5  1  0  0  0  0
  3  4  1  0  0  0  0
  3 17  1  0  0  0  0
  5  6  1  0  0  0  0
  7  6  1  6  0  0  0
  7  8  1  0  0  0  0
  7  9  1  0  0  0  0
 10  9  1  6  0  0  0
 10 11  1  0  0  0  0
 10 12  1  0  0  0  0
 11 16  1  0  0  0  0
 12 13  1  1  0  0  0
 12 14  1  0  0  0  0
 14 15  1  1  0  0  0
 14 16  1  0  0  0  0
 16 27  1  6  0  0  0
 18 19  2  0  0  0  0
 18 23  1  0  0  0  0
 19 20  1  0  0  0  0
 20 21  2  0  0  0  0
 21 22  1  0  0  0  0
 21 27  1  0  0  0  0
 22 23  2  0  0  0  0
 22 25  1  0  0  0  0
 23 24  1  0  0  0  0
 25 26  2  0  0  0  0
 26 27  1  0  0  0  0
M  END
>  <CHROM.1>
95.82743378,-68.11172746,114.16856691,-117.55784324,-102.50474051,24.94351866
69.16748384,47.81874375,56.44171878,31.89184061,-1.90026710,-1.30986877,1.69132861

>  <Name>
ligand

>  <RI>
0

>  <Rbt.Current_Directory>
/home/itssahil/PROJECTS/Mol_Feturizer/New_Systems/rnas/3GX7

>  <Rbt.Executable>
rbdock ($Id: //depot/dev/client3/rdock/2013.1/src/exe/rbdock.cxx#4 $)

>  <Rbt.Library>
libRbt.so (2013.1, Build901 2013/11/27)

>  <Rbt.Parameter_File>
/export/apps/rDock/src/rDock_2013.1_src/data/scripts/dock_solv.prm

>  <Rbt.Receptor>
prm/pocket_docking_2.prm

>  <SCORE>
-14.9504

>  <SCORE.INTER>
-16.1838

>  <SCORE.INTER.CONST>
1

>  <SCORE.INTER.POLAR>
0

>  <SCORE.INTER.ROT>
7

>  <SCORE.INTER.SOLV>
16.2093

>  <SCORE.INTER.VDW>
-24.459

>  <SCORE.INTER.norm>
-0.599401

>  <SCORE.INTRA>
1.23339

>  <SCORE.INTRA.DIHEDRAL>
7.48673

>  <SCORE.INTRA.DIHEDRAL.0>
11.2699

>  <SCORE.INTRA.POLAR>
0

>  <SCORE.INTRA.POLAR.0>
0

>  <SCORE.INTRA.REPUL>
0

>  <SCORE.INTRA.REPUL.0>
0

>  <SCORE.INTRA.SOLV>
0.859194

>  <SCORE.INTRA.SOLV.lig_0>
-48.6447

>  <SCORE.INTRA.VDW>
-2.93957

>  <SCORE.INTRA.VDW.0>
-0.0211724

>  <SCORE.INTRA.norm>
0.0456813

>  <SCORE.RESTR>
0

>  <SCORE.RESTR.CAVITY>
0

>  <SCORE.RESTR.norm>
0

>  <SCORE.SYSTEM>
0

>  <SCORE.SYSTEM.CONST>
0

>  <SCORE.SYSTEM.DIHEDRAL>
0

>  <SCORE.SYSTEM.SOLV>
0

>  <SCORE.SYSTEM.norm>
0

>  <SCORE.heavy>
27

>  <SCORE.norm>
-0.55372

>  <RMSD>
1.220

$$$$
ligand
 OpenBabel11021811483D
libRbt.so/2013.1/901 2013/11/27
 27 29  0  0  0  0  0  0  0  0999 V2000
   48.0600   55.7473   26.9058 N   0  0  0  0  0  0  0  0  0  0  0  0
   47.3626   56.1223   28.1299 C   0  0  2  0  0  0  0  0  0  0  0  0
   47.7662   57.5200   28.5694 C   0  0  0  0  0  0  0  0  0  0  0  0
   47.0600   58.1544   29.3496 O   0  0  0  0  0  0  0  0  0  0  0  0
   47.6102   55.1195   29.2560 C   0  0  0  0  0  0  0  0  0  0  0  0
   49.0411   55.0858   29.7795 C   0  0  0  0  0  0  0  0  0  0  0  0
   49.4753   53.5757   30.6863 S   0  0  2  0  0  0  0  0  0  0  0  0
   48.8470   52.3009   29.5661 C   0  0  0  0  0  0  0  0  0  0  0  0
   48.1785   53.5732   31.9521 C   0  0  0  0  0  0  0  0  0  0  0  0
   48.7339   54.1226   33.2577 C   0  0  1  0  0  0  0  0  0  0  0  0
   49.3095   55.3798   32.9961 O   0  0  0  0  0  0  0  0  0  0  0  0
   47.6907   54.3834   34.3255 C   0  0  1  0  0  0  0  0  0  0  0  0
   47.6325   53.3038   35.2255 O   0  0  0  0  0  0  0  0  0  0  0  0
   48.1951   55.6360   35.0188 C   0  0  1  0  0  0  0  0  0  0  0  0
   48.7496   55.2858   36.2648 O   0  0  0  0  0  0  0  0  0  0  0  0
   49.2737   56.2246   34.1179 C   0  0  2  0  0  0  0  0  0  0  0  0
   48.8054   58.0356   28.1564 O   0  0  0  0  0  0  0  0  0  0  0  0
   45.4079   59.1515   32.0753 N   0  0  0  0  0  0  0  0  0  0  0  0
   45.4008   57.8003   32.3566 C   0  0  0  0  0  0  0  0  0  0  0  0
   46.5192   57.1917   32.8962 N   0  0  0  0  0  0  0  0  0  0  0  0
   47.6364   57.9086   33.1479 C   0  0  0  0  0  0  0  0  0  0  0  0
   47.6635   59.2692   32.8797 C   0  0  0  0  0  0  0  0  0  0  0  0
   46.5425   59.8905   32.3355 C   0  0  0  0  0  0  0  0  0  0  0  0
   46.5526   61.1933   32.0654 N   0  0  0  0  0  0  0  0  0  0  0  0
   48.8830   59.7323   33.2338 N   0  0  0  0  0  0  0  0  0  0  0  0
   49.6138   58.7057   33.7286 C   0  0  0  0  0  0  0  0  0  0  0  0
   48.8533   57.5668   33.6815 N   0  0  0  0  0  0  0  0  0  0  0  0
  2  1  1  6  0  0  0
  2  3  1  0  0  0  0
  2  5  1  0  0  0  0
  3  4  1  0  0  0  0
  3 17  1  0  0  0  0
  5  6  1  0  0  0  0
  7  6  1  6  0  0  0
  7  8  1  0  0  0  0
  7  9  1  0  0  0  0
 10  9  1  6  0  0  0
 10 11  1  0  0  0  0
 10 12  1  0  0  0  0
 11 16  1  0  0  0  0
 12 13  1  1  0  0  0
 12 14  1  0  0  0  0
 14 15  1  1  0  0  0
 14 16  1  0  0  0  0
 16 27  1  6  0  0  0
 18 19  2  0  0  0  0
 18 23  1  0  0  0  0
 19 20  1  0  0  0  0
 20 21  2  0  0  0  0
 21 22  1  0  0  0  0
 21 27  1  0  0  0  0
 22 23  2  0  0  0  0
 22 25  1  0  0  0  0
 23 24  1  0  0  0  0
 25 26  2  0  0  0  0
 26 27  1  0  0  0  0
M  END
>  <CHROM.1>
160.84895664,67.47121196,-160.66595562,47.46551474,-99.65365686,53.70780411
64.48887577,48.05177387,56.38384933,31.85200882,1.15275499,1.29189174,-1.66354093

>  <Name>
ligand

>  <RI>
0

>  <Rbt.Current_Directory>
/home/itssahil/PROJECTS/Mol_Feturizer/New_Systems/rnas/3GX7

>  <Rbt.Executable>
rbdock ($Id: //depot/dev/client3/rdock/2013.1/src/exe/rbdock.cxx#4 $)

>  <Rbt.Library>
libRbt.so (2013.1, Build901 2013/11/27)

>  <Rbt.Parameter_File>
/export/apps/rDock/src/rDock_2013.1_src/data/scripts/dock_solv.prm

>  <Rbt.Receptor>
prm/pocket_docking_3.prm

>  <SCORE>
-20.8656

>  <SCORE.INTER>
-16.2252

>  <SCORE.INTER.CONST>
1

>  <SCORE.INTER.POLAR>
0

>  <SCORE.INTER.ROT>
7

>  <SCORE.INTER.SOLV>
17.8595

>  <SCORE.INTER.VDW>
-25.0367

>  <SCORE.INTER.norm>
-0.600935

>  <SCORE.INTRA>
-4.64035

>  <SCORE.INTRA.DIHEDRAL>
-4.09523

>  <SCORE.INTRA.DIHEDRAL.0>
11.2699

>  <SCORE.INTRA.POLAR>
0

>  <SCORE.INTRA.POLAR.0>
0

>  <SCORE.INTRA.REPUL>
0

>  <SCORE.INTRA.REPUL.0>
0

>  <SCORE.INTRA.SOLV>
-0.0966149

>  <SCORE.INTRA.SOLV.lig_0>
-48.6447

>  <SCORE.INTRA.VDW>
-2.54443

>  <SCORE.INTRA.VDW.0>
-0.0211724

>  <SCORE.INTRA.norm>
-0.171865

>  <SCORE.RESTR>
0

>  <SCORE.RESTR.CAVITY>
0

>  <SCORE.RESTR.norm>
0

>  <SCORE.SYSTEM>
0

>  <SCORE.SYSTEM.CONST>
0

>  <SCORE.SYSTEM.DIHEDRAL>
0

>  <SCORE.SYSTEM.SOLV>
0

>  <SCORE.SYSTEM.norm>
0

>  <SCORE.heavy>
27

>  <SCORE.norm>
-0.7728

>  <RMSD>
1.245

$$$$
ligand
 OpenBabel11021811483D
libRbt.so/2013.1/901 2013/11/27
 27 29  0  0  0  0  0  0  0  0999 V2000
   47.3898   57.8645   29.4143 N   0  0  0  0  0  0  0  0  0  0  0  0
   48.4395   56.8702   29.2272 C   0  0  2  0  0  0  0  0  0  0  0  0
   48.5886   56.5194   27.7560 C   0  0  0  0  0  0  0  0  0  0  0  0
   49.0534   55.4326   27.4203 O   0  0  0  0  0  0  0  0  0  0  0  0
   48.1818   55.6089   30.0503 C   0  0  0  0  0  0  0  0  0  0  0  0
   49.3957   54.7061   30.2346 C   0  0  0  0  0  0  0  0  0  0  0  0
   49.0202   53.0721   30.9276 S   0  0  2  0  0  0  0  0  0  0  0  0
   47.9399   52.3878   29.6470 C   0  0  0  0  0  0  0  0  0  0  0  0
   47.7970   53.5264   32.1851 C   0  0  0  0  0  0  0  0  0  0  0  0
   48.5006   54.1281   33.3924 C   0  0  1  0  0  0  0  0  0  0  0  0
   49.0697   55.3548   33.0033 O   0  0  0  0  0  0  0  0  0  0  0  0
   47.5839   54.4704   34.5496 C   0  0  1  0  0  0  0  0  0  0  0  0
   47.6012   53.4407   35.5078 O   0  0  0  0  0  0  0  0  0  0  0  0
   48.1850   55.7439   35.1164 C   0  0  1  0  0  0  0  0  0  0  0  0
   48.8632   55.4444   36.3134 O   0  0  0  0  0  0  0  0  0  0  0  0
   49.1719   56.2571   34.0752 C   0  0  2  0  0  0  0  0  0  0  0  0
   48.2431   57.3130   26.8801 O   0  0  0  0  0  0  0  0  0  0  0  0
   45.1422   59.2036   32.4126 N   0  0  0  0  0  0  0  0  0  0  0  0
   45.1346   57.8738   32.7823 C   0  0  0  0  0  0  0  0  0  0  0  0
   46.3003   57.2557   33.1966 N   0  0  0  0  0  0  0  0  0  0  0  0
   47.4636   57.9417   33.2376 C   0  0  0  0  0  0  0  0  0  0  0  0
   47.4931   59.2808   32.8774 C   0  0  0  0  0  0  0  0  0  0  0  0
   46.3247   59.9114   32.4581 C   0  0  0  0  0  0  0  0  0  0  0  0
   46.3353   61.1934   32.1024 N   0  0  0  0  0  0  0  0  0  0  0  0
   48.7646   59.7160   33.0220 N   0  0  0  0  0  0  0  0  0  0  0  0
   49.5277   58.6937   33.4754 C   0  0  0  0  0  0  0  0  0  0  0  0
   48.7339   57.5854   33.6139 N   0  0  0  0  0  0  0  0  0  0  0  0
  2  1  1  6  0  0  0
  2  3  1  0  0  0  0
  2  5  1  0  0  0  0
  3  4  1  0  0  0  0
  3 17  1  0  0  0  0
  5  6  1  0  0  0  0
  7  6  1  6  0  0  0
  7  8  1  0  0  0  0
  7  9  1  0  0  0  0
 10  9  1  6  0  0  0
 10 11  1  0  0  0  0
 10 12  1  0  0  0  0
 11 16  1  0  0  0  0
 12 13  1  1  0  0  0
 12 14  1  0  0  0  0
 14 15  1  1  0  0  0
 14 16  1  0  0  0  0
 16 27  1  6  0  0  0
 18 19  2  0  0  0  0
 18 23  1  0  0  0  0
 19 20  1  0  0  0  0
 20 21  2  0  0  0  0
 21 22  1  0  0  0  0
 21 27  1  0  0  0  0
 22 23  2  0  0  0  0
 22 25  1  0  0  0  0
 23 24  1  0  0  0  0
 25 26  2  0  0  0  0
 26 27  1  0  0  0  0
M  END
>  <CHROM.1>
-155.11870509,-163.02839237,-168.76552061,62.11884146,-76.94031916,66.83099198
66.83145850,48.01152432,56.30406056,31.95199374,0.76341188,1.29491507,-1.34338021

>  <Name>
ligand

>  <RI>
0

>  <Rbt.Current_Directory>
/home/itssahil/PROJECTS/Mol_Feturizer/New_Systems/rnas/3GX7

>  <Rbt.Executable>
rbdock ($Id: //depot/dev/client3/rdock/2013.1/src/exe/rbdock.cxx#4 $)

>  <Rbt.Library>
libRbt.so (2013.1, Build901 2013/11/27)

>  <Rbt.Parameter_File>
/export/apps/rDock/src/rDock_2013.1_src/data/scripts/dock_solv.prm

>  <Rbt.Receptor>
prm/pocket_docking_2.prm

>  <SCORE>
-21.2928

>  <SCORE.INTER>
-16.0941

>  <SCORE.INTER.CONST>
1

>  <SCORE.INTER.POLAR>
0

>  <SCORE.INTER.ROT>
7

>  <SCORE.INTER.SOLV>
18.0005

>  <SCORE.INTER.VDW>
-24.9962

>  <SCORE.INTER.norm>
-0.596076

>  <SCORE.INTRA>
-5.2038

>  <SCORE.INTRA.DIHEDRAL>
-5.87731

>  <SCORE.INTRA.DIHEDRAL.0>
11.2699

>  <SCORE.INTRA.POLAR>
0

>  <SCORE.INTRA.POLAR.0>
0

>  <SCORE.INTRA.REPUL>
0

>  <SCORE.INTRA.REPUL.0>
0

>  <SCORE.INTRA.SOLV>
-0.441125

>  <SCORE.INTRA.SOLV.lig_0>
-48.6447

>  <SCORE.INTRA.VDW>
-2.04458

>  <SCORE.INTRA.VDW.0>
-0.0211724

>  <SCORE.INTRA.norm>
-0.192733

>  <SCORE.RESTR>
0.00505627

>  <SCORE.RESTR.CAVITY>
0.00505627

>  <SCORE.RESTR.norm>
0.000187269

>  <SCORE.SYSTEM>
0

>  <SCORE.SYSTEM.CONST>
0

>  <SCORE.SYSTEM.DIHEDRAL>
0

>  <SCORE.SYSTEM.SOLV>
0

>  <SCORE.SYSTEM.norm>
0

>  <SCORE.heavy>
27

>  <SCORE.norm>
-0.788623

>  <RMSD>
1.248

$$$$
ligand
 OpenBabel11021811483D
libRbt.so/2013.1/901 2013/11/27
 27 29  0  0  0  0  0  0  0  0999 V2000
   48.0040   57.2718   27.3957 N   0  0  0  0  0  0  0  0  0  0  0  0
   47.2010   57.1011   28.6005 C   0  0  2  0  0  0  0  0  0  0  0  0
   47.4513   58.2387   29.5766 C   0  0  0  0  0  0  0  0  0  0  0  0
   46.5084   58.8187   30.1100 O   0  0  0  0  0  0  0  0  0  0  0  0
   47.4651   55.7554   29.2745 C   0  0  0  0  0  0  0  0  0  0  0  0
   48.9169   55.5115   29.6689 C   0  0  0  0  0  0  0  0  0  0  0  0
   49.2438   53.8641   30.3548 S   0  0  2  0  0  0  0  0  0  0  0  0
   48.4157   52.8080   29.1408 C   0  0  0  0  0  0  0  0  0  0  0  0
   48.0349   53.8288   31.7043 C   0  0  0  0  0  0  0  0  0  0  0  0
   48.6539   54.4156   32.9641 C   0  0  1  0  0  0  0  0  0  0  0  0
   49.1841   55.6797   32.6457 O   0  0  0  0  0  0  0  0  0  0  0  0
   47.6702   54.6745   34.0874 C   0  0  1  0  0  0  0  0  0  0  0  0
   47.6901   53.6118   35.0089 O   0  0  0  0  0  0  0  0  0  0  0  0
   48.1861   55.9512   34.7263 C   0  0  1  0  0  0  0  0  0  0  0  0
   48.8212   55.6376   35.9432 O   0  0  0  0  0  0  0  0  0  0  0  0
   49.1956   56.5453   33.7520 C   0  0  2  0  0  0  0  0  0  0  0  0
   48.5981   58.5932   29.8514 O   0  0  0  0  0  0  0  0  0  0  0  0
   45.0344   59.4862   32.4406 N   0  0  0  0  0  0  0  0  0  0  0  0
   45.0583   58.1613   32.8268 C   0  0  0  0  0  0  0  0  0  0  0  0
   46.2563   57.5440   33.1367 N   0  0  0  0  0  0  0  0  0  0  0  0
   47.4201   58.2258   33.0582 C   0  0  0  0  0  0  0  0  0  0  0  0
   47.4190   59.5601   32.6793 C   0  0  0  0  0  0  0  0  0  0  0  0
   46.2178   60.1899   32.3645 C   0  0  0  0  0  0  0  0  0  0  0  0
   46.1981   61.4672   31.9926 N   0  0  0  0  0  0  0  0  0  0  0  0
   48.6997   59.9920   32.6969 N   0  0  0  0  0  0  0  0  0  0  0  0
   49.4996   58.9726   33.0893 C   0  0  0  0  0  0  0  0  0  0  0  0
   48.7195   57.8693   33.3170 N   0  0  0  0  0  0  0  0  0  0  0  0
  2  1  1  6  0  0  0
  2  3  1  0  0  0  0
  2  5  1  0  0  0  0
  3  4  1  0  0  0  0
  3 17  1  0  0  0  0
  5  6  1  0  0  0  0
  7  6  1  6  0  0  0
  7  8  1  0  0  0  0
  7  9  1  0  0  0  0
 10  9  1  6  0  0  0
 10 11  1  0  0  0  0
 10 12  1  0  0  0  0
 11 16  1  0  0  0  0
 12 13  1  1  0  0  0
 12 14  1  0  0  0  0
 14 15  1  1  0  0  0
 14 16  1  0  0  0  0
 16 27  1  6  0  0  0
 18 19  2  0  0  0  0
 18 23  1  0  0  0  0
 19 20  1  0  0  0  0
 20 21  2  0  0  0  0
 21 22  1  0  0  0  0
 21 27  1  0  0  0  0
 22 23  2  0  0  0  0
 22 25  1  0  0  0  0
 23 24  1  0  0  0  0
 25 26  2  0  0  0  0
 26 27  1  0  0  0  0
M  END
>  <CHROM.1>
132.74080842,57.83298650,-175.65648137,48.06691688,-88.49561350,52.62210474
75.86474337,47.86189016,56.81582702,31.85851995,3.06903713,-1.25460901,1.54598171

>  <Name>
ligand

>  <RI>
0

>  <Rbt.Current_Directory>
/home/itssahil/PROJECTS/Mol_Feturizer/New_Systems/rnas/3GX7

>  <Rbt.Executable>
rbdock ($Id: //depot/dev/client3/rdock/2013.1/src/exe/rbdock.cxx#4 $)

>  <Rbt.Library>
libRbt.so (2013.1, Build901 2013/11/27)

>  <Rbt.Parameter_File>
/export/apps/rDock/src/rDock_2013.1_src/data/scripts/dock_solv.prm

>  <Rbt.Receptor>
prm/pocket_docking_2.prm

>  <SCORE>
-20.8162

>  <SCORE.INTER>
-14.4988

>  <SCORE.INTER.CONST>
1

>  <SCORE.INTER.POLAR>
0

>  <SCORE.INTER.ROT>
7

>  <SCORE.INTER.SOLV>
18.8539

>  <SCORE.INTER.VDW>
-24.2171

>  <SCORE.INTER.norm>
-0.536991

>  <SCORE.INTRA>
-6.74465

>  <SCORE.INTRA.DIHEDRAL>
-6.6973

>  <SCORE.INTRA.DIHEDRAL.0>
11.2699

>  <SCORE.INTRA.POLAR>
0

>  <SCORE.INTRA.POLAR.0>
0

>  <SCORE.INTRA.REPUL>
0

>  <SCORE.INTRA.REPUL.0>
0

>  <SCORE.INTRA.SOLV>
0.394868

>  <SCORE.INTRA.SOLV.lig_0>
-48.6447

>  <SCORE.INTRA.VDW>
-3.59344

>  <SCORE.INTRA.VDW.0>
-0.0211724

>  <SCORE.INTRA.norm>
-0.249802

>  <SCORE.RESTR>
0.427195

>  <SCORE.RESTR.CAVITY>
0.427195

>  <SCORE.RESTR.norm>
0.015822

>  <SCORE.SYSTEM>
0

>  <SCORE.SYSTEM.CONST>
0

>  <SCORE.SYSTEM.DIHEDRAL>
0

>  <SCORE.SYSTEM.SOLV>
0

>  <SCORE.SYSTEM.norm>
0

>  <SCORE.heavy>
27

>  <SCORE.norm>
-0.770971

>  <RMSD>
1.270

$$$$
ligand
 OpenBabel11021811483D
libRbt.so/2013.1/901 2013/11/27
 27 29  0  0  0  0  0  0  0  0999 V2000
   45.9241   56.6163   28.1184 N   0  0  0  0  0  0  0  0  0  0  0  0
   47.1806   56.5168   28.8511 C   0  0  2  0  0  0  0  0  0  0  0  0
   47.8383   57.8813   28.9740 C   0  0  0  0  0  0  0  0  0  0  0  0
   47.6338   58.7482   28.1275 O   0  0  0  0  0  0  0  0  0  0  0  0
   48.1408   55.5211   28.2017 C   0  0  0  0  0  0  0  0  0  0  0  0
   49.3365   55.1311   29.0624 C   0  0  0  0  0  0  0  0  0  0  0  0
   49.1163   53.5972   30.0057 S   0  0  2  0  0  0  0  0  0  0  0  0
   48.0892   52.6318   28.8708 C   0  0  0  0  0  0  0  0  0  0  0  0
   47.8699   54.1316   31.2077 C   0  0  0  0  0  0  0  0  0  0  0  0
   48.5561   54.6777   32.4510 C   0  0  1  0  0  0  0  0  0  0  0  0
   49.0377   55.9668   32.1569 O   0  0  0  0  0  0  0  0  0  0  0  0
   47.6414   54.8637   33.6448 C   0  0  1  0  0  0  0  0  0  0  0  0
   47.7430   53.7625   34.5143 O   0  0  0  0  0  0  0  0  0  0  0  0
   48.1700   56.1233   34.3066 C   0  0  1  0  0  0  0  0  0  0  0  0
   48.8886   55.7724   35.4655 O   0  0  0  0  0  0  0  0  0  0  0  0
   49.1019   56.7834   33.2981 C   0  0  2  0  0  0  0  0  0  0  0  0
   48.5796   58.1411   29.9223 O   0  0  0  0  0  0  0  0  0  0  0  0
   44.8078   59.6621   32.3197 N   0  0  0  0  0  0  0  0  0  0  0  0
   44.8852   58.3204   32.6338 C   0  0  0  0  0  0  0  0  0  0  0  0
   46.1122   57.7240   32.8601 N   0  0  0  0  0  0  0  0  0  0  0  0
   47.2521   58.4436   32.7692 C   0  0  0  0  0  0  0  0  0  0  0  0
   47.1975   59.7950   32.4619 C   0  0  0  0  0  0  0  0  0  0  0  0
   45.9668   60.4040   32.2314 C   0  0  0  0  0  0  0  0  0  0  0  0
   45.8956   61.6977   31.9289 N   0  0  0  0  0  0  0  0  0  0  0  0
   48.4653   60.2637   32.4488 N   0  0  0  0  0  0  0  0  0  0  0  0
   49.3094   59.2498   32.7528 C   0  0  0  0  0  0  0  0  0  0  0  0
   48.5709   58.1132   32.9541 N   0  0  0  0  0  0  0  0  0  0  0  0
  2  1  1  6  0  0  0
  2  3  1  0  0  0  0
  2  5  1  0  0  0  0
  3  4  1  0  0  0  0
  3 17  1  0  0  0  0
  5  6  1  0  0  0  0
  7  6  1  6  0  0  0
  7  8  1  0  0  0  0
  7  9  1  0  0  0  0
 10  9  1  6  0  0  0
 10 11  1  0  0  0  0
 10 12  1  0  0  0  0
 11 16  1  0  0  0  0
 12 13  1  1  0  0  0
 12 14  1  0  0  0  0
 14 15  1  1  0  0  0
 14 16  1  0  0  0  0
 16 27  1  6  0  0  0
 18 19  2  0  0  0  0
 18 23  1  0  0  0  0
 19 20  1  0  0  0  0
 20 21  2  0  0  0  0
 21 22  1  0  0  0  0
 21 27  1  0  0  0  0
 22 23  2  0  0  0  0
 22 25  1  0  0  0  0
 23 24  1  0  0  0  0
 25 26  2  0  0  0  0
 26 27  1  0  0  0  0
M  END
>  <CHROM.1>
-27.52741980,-167.11985846,95.52634147,33.61859055,-90.38505955,76.45945533
74.51744047,47.77649423,56.82617345,31.48333790,0.49283245,1.24059179,-1.73482867

>  <Name>
ligand

>  <RI>
0

>  <Rbt.Current_Directory>
/home/itssahil/PROJECTS/Mol_Feturizer/New_Systems/rnas/3GX7

>  <Rbt.Executable>
rbdock ($Id: //depot/dev/client3/rdock/2013.1/src/exe/rbdock.cxx#4 $)

>  <Rbt.Library>
libRbt.so (2013.1, Build901 2013/11/27)

>  <Rbt.Parameter_File>
/export/apps/rDock/src/rDock_2013.1_src/data/scripts/dock_solv.prm

>  <Rbt.Receptor>
prm/pocket_docking_2.prm

>  <SCORE>
-17.1245

>  <SCORE.INTER>
-13.1634

>  <SCORE.INTER.CONST>
1

>  <SCORE.INTER.POLAR>
0

>  <SCORE.INTER.ROT>
7

>  <SCORE.INTER.SOLV>
17.6234

>  <SCORE.INTER.VDW>
-22.9167

>  <SCORE.INTER.norm>
-0.487533

>  <SCORE.INTRA>
-3.97392

>  <SCORE.INTRA.DIHEDRAL>
-0.828255

>  <SCORE.INTRA.DIHEDRAL.0>
11.2699

>  <SCORE.INTRA.POLAR>
0

>  <SCORE.INTRA.POLAR.0>
0

>  <SCORE.INTRA.REPUL>
0

>  <SCORE.INTRA.REPUL.0>
0

>  <SCORE.INTRA.SOLV>
-0.463558

>  <SCORE.INTRA.SOLV.lig_0>
-48.6447

>  <SCORE.INTRA.VDW>
-3.32801

>  <SCORE.INTRA.VDW.0>
-0.0211724

>  <SCORE.INTRA.norm>
-0.147182

>  <SCORE.RESTR>
0.0128092

>  <SCORE.RESTR.CAVITY>
0.0128092

>  <SCORE.RESTR.norm>
0.000474413

>  <SCORE.SYSTEM>
0

>  <SCORE.SYSTEM.CONST>
0

>  <SCORE.SYSTEM.DIHEDRAL>
0

>  <SCORE.SYSTEM.SOLV>
0

>  <SCORE.SYSTEM.norm>
0

>  <SCORE.heavy>
27

>  <SCORE.norm>
-0.634241

>  <RMSD>
1.276

$$$$
ligand
 OpenBabel11021811483D
libRbt.so/2013.1/901 2013/11/27
 27 29  0  0  0  0  0  0  0  0999 V2000
   46.1779   56.8508   29.4756 N   0  0  0  0  0  0  0  0  0  0  0  0
   47.5458   57.3143   29.6744 C   0  0  2  0  0  0  0  0  0  0  0  0
   48.1706   57.7224   28.3506 C   0  0  0  0  0  0  0  0  0  0  0  0
   48.0747   56.9925   27.3668 O   0  0  0  0  0  0  0  0  0  0  0  0
   48.4090   56.2601   30.3663 C   0  0  0  0  0  0  0  0  0  0  0  0
   48.3595   54.8755   29.7313 C   0  0  0  0  0  0  0  0  0  0  0  0
   49.1911   53.5783   30.6889 S   0  0  2  0  0  0  0  0  0  0  0  0
   48.7788   52.1073   29.7189 C   0  0  0  0  0  0  0  0  0  0  0  0
   48.0314   53.4006   32.0700 C   0  0  0  0  0  0  0  0  0  0  0  0
   48.6332   54.0092   33.3278 C   0  0  1  0  0  0  0  0  0  0  0  0
   49.1990   55.2520   32.9875 O   0  0  0  0  0  0  0  0  0  0  0  0
   47.6291   54.3211   34.4190 C   0  0  1  0  0  0  0  0  0  0  0  0
   47.6031   53.2846   35.3699 O   0  0  0  0  0  0  0  0  0  0  0  0
   48.1580   55.6039   35.0347 C   0  0  1  0  0  0  0  0  0  0  0  0
   48.7567   55.3110   36.2750 O   0  0  0  0  0  0  0  0  0  0  0  0
   49.2035   56.1481   34.0693 C   0  0  2  0  0  0  0  0  0  0  0  0
   48.7764   58.7890   28.2412 O   0  0  0  0  0  0  0  0  0  0  0  0
   45.1592   59.1039   32.4597 N   0  0  0  0  0  0  0  0  0  0  0  0
   45.1467   57.7849   32.8661 C   0  0  0  0  0  0  0  0  0  0  0  0
   46.3174   57.1622   33.2586 N   0  0  0  0  0  0  0  0  0  0  0  0
   47.4902   57.8328   33.2422 C   0  0  0  0  0  0  0  0  0  0  0  0
   47.5251   59.1611   32.8444 C   0  0  0  0  0  0  0  0  0  0  0  0
   46.3516   59.7962   32.4466 C   0  0  0  0  0  0  0  0  0  0  0  0
   46.3670   61.0678   32.0554 N   0  0  0  0  0  0  0  0  0  0  0  0
   48.8063   59.5823   32.9349 N   0  0  0  0  0  0  0  0  0  0  0  0
   49.5707   58.5623   33.3910 C   0  0  0  0  0  0  0  0  0  0  0  0
   48.7677   57.4692   33.5862 N   0  0  0  0  0  0  0  0  0  0  0  0
  2  1  1  6  0  0  0
  2  3  1  0  0  0  0
  2  5  1  0  0  0  0
  3  4  1  0  0  0  0
  3 17  1  0  0  0  0
  5  6  1  0  0  0  0
  7  6  1  6  0  0  0
  7  8  1  0  0  0  0
  7  9  1  0  0  0  0
 10  9  1  6  0  0  0
 10 11  1  0  0  0  0
 10 12  1  0  0  0  0
 11 16  1  0  0  0  0
 12 13  1  1  0  0  0
 12 14  1  0  0  0  0
 14 15  1  1  0  0  0
 14 16  1  0  0  0  0
 16 27  1  6  0  0  0
 18 19  2  0  0  0  0
 18 23  1  0  0  0  0
 19 20  1  0  0  0  0
 20 21  2  0  0  0  0
 21 22  1  0  0  0  0
 21 27  1  0  0  0  0
 22 23  2  0  0  0  0
 22 25  1  0  0  0  0
 23 24  1  0  0  0  0
 25 26  2  0  0  0  0
 26 27  1  0  0  0  0
M  END
>  <CHROM.1>
-47.10719821,50.79292988,-171.63500222,174.67979052,-107.02951145,44.86834621
73.46075334,47.94930333,56.42858309,31.99286147,-2.43585191,-1.28683864,1.75174615

>  <Name>
ligand

>  <RI>
0

>  <Rbt.Current_Directory>
/home/itssahil/PROJECTS/Mol_Feturizer/New_Systems/rnas/3GX7

>  <Rbt.Executable>
rbdock ($Id: //depot/dev/client3/rdock/2013.1/src/exe/rbdock.cxx#4 $)

>  <Rbt.Library>
libRbt.so (2013.1, Build901 2013/11/27)

>  <Rbt.Parameter_File>
/export/apps/rDock/src/rDock_2013.1_src/data/scripts/dock_solv.prm

>  <Rbt.Receptor>
prm/pocket_docking_3.prm

>  <SCORE>
-23.4464

>  <SCORE.INTER>
-17.3946

>  <SCORE.INTER.CONST>
1

>  <SCORE.INTER.POLAR>
0

>  <SCORE.INTER.ROT>
7

>  <SCORE.INTER.SOLV>
16.7553

>  <SCORE.INTER.VDW>
-25.4481

>  <SCORE.INTER.norm>
-0.644243

>  <SCORE.INTRA>
-6.05187

>  <SCORE.INTRA.DIHEDRAL>
-3.56426

>  <SCORE.INTRA.DIHEDRAL.0>
11.2699

>  <SCORE.INTRA.POLAR>
0

>  <SCORE.INTRA.POLAR.0>
0

>  <SCORE.INTRA.REPUL>
0

>  <SCORE.INTRA.REPUL.0>
0

>  <SCORE.INTRA.SOLV>
0.304511

>  <SCORE.INTRA.SOLV.lig_0>
-48.6447

>  <SCORE.INTRA.VDW>
-4.42199

>  <SCORE.INTRA.VDW.0>
-0.0211724

>  <SCORE.INTRA.norm>
-0.224143

>  <SCORE.RESTR>
0

>  <SCORE.RESTR.CAVITY>
0

>  <SCORE.RESTR.norm>
0

>  <SCORE.SYSTEM>
0

>  <SCORE.SYSTEM.CONST>
0

>  <SCORE.SYSTEM.DIHEDRAL>
0

>  <SCORE.SYSTEM.SOLV>
0

>  <SCORE.SYSTEM.norm>
0

>  <SCORE.heavy>
27

>  <SCORE.norm>
-0.868386

>  <RMSD>
1.280

$$$$
ligand
 OpenBabel11021811483D
libRbt.so/2013.1/901 2013/11/27
 27 29  0  0  0  0  0  0  0  0999 V2000
   45.9801   56.4223   28.0426 N   0  0  0  0  0  0  0  0  0  0  0  0
   47.2082   56.3435   28.8243 C   0  0  2  0  0  0  0  0  0  0  0  0
   47.7613   57.7331   29.0941 C   0  0  0  0  0  0  0  0  0  0  0  0
   47.5620   58.6469   28.2971 O   0  0  0  0  0  0  0  0  0  0  0  0
   48.2635   55.4756   28.1402 C   0  0  0  0  0  0  0  0  0  0  0  0
   49.4161   55.0427   29.0385 C   0  0  0  0  0  0  0  0  0  0  0  0
   49.0913   53.5454   30.0102 S   0  0  2  0  0  0  0  0  0  0  0  0
   48.0677   52.5954   28.8593 C   0  0  0  0  0  0  0  0  0  0  0  0
   47.8237   54.1652   31.1473 C   0  0  0  0  0  0  0  0  0  0  0  0
   48.4813   54.6772   32.4201 C   0  0  1  0  0  0  0  0  0  0  0  0
   48.9841   55.9670   32.1669 O   0  0  0  0  0  0  0  0  0  0  0  0
   47.5364   54.8478   33.5924 C   0  0  1  0  0  0  0  0  0  0  0  0
   47.6029   53.7274   34.4405 O   0  0  0  0  0  0  0  0  0  0  0  0
   48.0597   56.0873   34.2953 C   0  0  1  0  0  0  0  0  0  0  0  0
   48.7428   55.7040   35.4653 O   0  0  0  0  0  0  0  0  0  0  0  0
   49.0256   56.7585   33.3268 C   0  0  2  0  0  0  0  0  0  0  0  0
   48.4112   57.9664   30.1137 O   0  0  0  0  0  0  0  0  0  0  0  0
   44.7864   59.7111   32.3292 N   0  0  0  0  0  0  0  0  0  0  0  0
   44.8409   58.3633   32.6213 C   0  0  0  0  0  0  0  0  0  0  0  0
   46.0560   57.7466   32.8571 N   0  0  0  0  0  0  0  0  0  0  0  0
   47.2067   58.4522   32.7968 C   0  0  0  0  0  0  0  0  0  0  0  0
   47.1751   59.8093   32.5120 C   0  0  0  0  0  0  0  0  0  0  0  0
   45.9564   60.4386   32.2723 C   0  0  0  0  0  0  0  0  0  0  0  0
   45.9073   61.7381   31.9910 N   0  0  0  0  0  0  0  0  0  0  0  0
   48.4490   60.2609   32.5273 N   0  0  0  0  0  0  0  0  0  0  0  0
   49.2745   59.2307   32.8273 C   0  0  0  0  0  0  0  0  0  0  0  0
   48.5178   58.1010   32.9972 N   0  0  0  0  0  0  0  0  0  0  0  0
  2  1  1  6  0  0  0
  2  3  1  0  0  0  0
  2  5  1  0  0  0  0
  3  4  1  0  0  0  0
  3 17  1  0  0  0  0
  5  6  1  0  0  0  0
  7  6  1  6  0  0  0
  7  8  1  0  0  0  0
  7  9  1  0  0  0  0
 10  9  1  6  0  0  0
 10 11  1  0  0  0  0
 10 12  1  0  0  0  0
 11 16  1  0  0  0  0
 12 13  1  1  0  0  0
 12 14  1  0  0  0  0
 14 15  1  1  0  0  0
 14 16  1  0  0  0  0
 16 27  1  6  0  0  0
 18 19  2  0  0  0  0
 18 23  1  0  0  0  0
 19 20  1  0  0  0  0
 20 21  2  0  0  0  0
 21 22  1  0  0  0  0
 21 27  1  0  0  0  0
 22 23  2  0  0  0  0
 22 25  1  0  0  0  0
 23 24  1  0  0  0  0
 25 26  2  0  0  0  0
 26 27  1  0  0  0  0
M  END
>  <CHROM.1>
-29.48544012,-164.59528565,85.22268229,34.70326636,-92.01088477,80.02879082
75.21013553,47.73412053,56.78749178,31.50046282,0.52867579,1.24363947,-1.72469021

>  <Name>
ligand

>  <RI>
0

>  <Rbt.Current_Directory>
/home/itssahil/PROJECTS/Mol_Feturizer/New_Systems/rnas/3GX7

>  <Rbt.Executable>
rbdock ($Id: //depot/dev/client3/rdock/2013.1/src/exe/rbdock.cxx#4 $)

>  <Rbt.Library>
libRbt.so (2013.1, Build901 2013/11/27)

>  <Rbt.Parameter_File>
/export/apps/rDock/src/rDock_2013.1_src/data/scripts/dock_solv.prm

>  <Rbt.Receptor>
prm/pocket_docking_2.prm

>  <SCORE>
-16.6045

>  <SCORE.INTER>
-12.2746

>  <SCORE.INTER.CONST>
1

>  <SCORE.INTER.POLAR>
0

>  <SCORE.INTER.ROT>
7

>  <SCORE.INTER.SOLV>
17.4525

>  <SCORE.INTER.VDW>
-22.2672

>  <SCORE.INTER.norm>
-0.454615

>  <SCORE.INTRA>
-4.33734

>  <SCORE.INTRA.DIHEDRAL>
-1.56733

>  <SCORE.INTRA.DIHEDRAL.0>
11.2699

>  <SCORE.INTRA.POLAR>
0

>  <SCORE.INTRA.POLAR.0>
0

>  <SCORE.INTRA.REPUL>
0

>  <SCORE.INTRA.REPUL.0>
0

>  <SCORE.INTRA.SOLV>
-0.19943

>  <SCORE.INTRA.SOLV.lig_0>
-48.6447

>  <SCORE.INTRA.VDW>
-3.45396

>  <SCORE.INTRA.VDW.0>
-0.0211724

>  <SCORE.INTRA.norm>
-0.160642

>  <SCORE.RESTR>
0.00741358

>  <SCORE.RESTR.CAVITY>
0.00741358

>  <SCORE.RESTR.norm>
0.000274577

>  <SCORE.SYSTEM>
0

>  <SCORE.SYSTEM.CONST>
0

>  <SCORE.SYSTEM.DIHEDRAL>
0

>  <SCORE.SYSTEM.SOLV>
0

>  <SCORE.SYSTEM.norm>
0

>  <SCORE.heavy>
27

>  <SCORE.norm>
-0.614983

>  <RMSD>
1.288

$$$$
ligand
 OpenBabel11021811483D
libRbt.so/2013.1/901 2013/11/27
 27 29  0  0  0  0  0  0  0  0999 V2000
   48.4617   58.3515   29.9196 N   0  0  0  0  0  0  0  0  0  0  0  0
   48.6735   56.9710   29.5013 C   0  0  2  0  0  0  0  0  0  0  0  0
   49.0297   56.9074   28.0252 C   0  0  0  0  0  0  0  0  0  0  0  0
   49.9531   56.1948   27.6389 O   0  0  0  0  0  0  0  0  0  0  0  0
   47.4555   56.0952   29.7917 C   0  0  0  0  0  0  0  0  0  0  0  0
   47.6248   54.6241   29.4313 C   0  0  0  0  0  0  0  0  0  0  0  0
   48.7626   53.7111   30.5100 S   0  0  2  0  0  0  0  0  0  0  0  0
   48.6781   52.0544   29.7869 C   0  0  0  0  0  0  0  0  0  0  0  0
   47.7152   53.4886   31.9720 C   0  0  0  0  0  0  0  0  0  0  0  0
   48.4211   54.0456   33.1992 C   0  0  1  0  0  0  0  0  0  0  0  0
   48.9711   55.2958   32.8604 O   0  0  0  0  0  0  0  0  0  0  0  0
   47.5098   54.3244   34.3775 C   0  0  1  0  0  0  0  0  0  0  0  0
   47.5484   53.2536   35.2890 O   0  0  0  0  0  0  0  0  0  0  0  0
   48.0991   55.5794   34.9954 C   0  0  1  0  0  0  0  0  0  0  0  0
   48.7911   55.2364   36.1726 O   0  0  0  0  0  0  0  0  0  0  0  0
   49.0706   56.1512   33.9703 C   0  0  2  0  0  0  0  0  0  0  0  0
   48.3984   57.5624   27.1952 O   0  0  0  0  0  0  0  0  0  0  0  0
   45.0320   59.0751   32.2896 N   0  0  0  0  0  0  0  0  0  0  0  0
   45.0508   57.7245   32.5736 C   0  0  0  0  0  0  0  0  0  0  0  0
   46.2145   57.1167   33.0082 N   0  0  0  0  0  0  0  0  0  0  0  0
   47.3504   57.8337   33.1529 C   0  0  0  0  0  0  0  0  0  0  0  0
   47.3528   59.1936   32.8801 C   0  0  0  0  0  0  0  0  0  0  0  0
   46.1862   59.8142   32.4412 C   0  0  0  0  0  0  0  0  0  0  0  0
   46.1714   61.1163   32.1683 N   0  0  0  0  0  0  0  0  0  0  0  0
   48.6001   59.6570   33.1179 N   0  0  0  0  0  0  0  0  0  0  0  0
   49.3736   58.6312   33.5450 C   0  0  0  0  0  0  0  0  0  0  0  0
   48.6117   57.4926   33.5717 N   0  0  0  0  0  0  0  0  0  0  0  0
  2  1  1  6  0  0  0
  2  3  1  0  0  0  0
  2  5  1  0  0  0  0
  3  4  1  0  0  0  0
  3 17  1  0  0  0  0
  5  6  1  0  0  0  0
  7  6  1  6  0  0  0
  7  8  1  0  0  0  0
  7  9  1  0  0  0  0
 10  9  1  6  0  0  0
 10 11  1  0  0  0  0
 10 12  1  0  0  0  0
 11 16  1  0  0  0  0
 12 13  1  1  0  0  0
 12 14  1  0  0  0  0
 14 15  1  1  0  0  0
 14 16  1  0  0  0  0
 16 27  1  6  0  0  0
 18 19  2  0  0  0  0
 18 23  1  0  0  0  0
 19 20  1  0  0  0  0
 20 21  2  0  0  0  0
 21 22  1  0  0  0  0
 21 27  1  0  0  0  0
 22 23  2  0  0  0  0
 22 25  1  0  0  0  0
 23 24  1  0  0  0  0
 25 26  2  0  0  0  0
 26 27  1  0  0  0  0
M  END
>  <CHROM.1>
134.94517559,-177.67249438,70.73033323,179.41897563,-124.60024286,44.77430902
63.09040966,47.96609203,56.36252646,31.88017602,0.51200457,1.28445409,-1.04472969

>  <Name>
ligand

>  <RI>
0

>  <Rbt.Current_Directory>
/home/itssahil/PROJECTS/Mol_Feturizer/New_Systems/rnas/3GX7

>  <Rbt.Executable>
rbdock ($Id: //depot/dev/client3/rdock/2013.1/src/exe/rbdock.cxx#4 $)

>  <Rbt.Library>
libRbt.so (2013.1, Build901 2013/11/27)

>  <Rbt.Parameter_File>
/export/apps/rDock/src/rDock_2013.1_src/data/scripts/dock_solv.prm

>  <Rbt.Receptor>
prm/pocket_docking_3.prm

>  <SCORE>
-20.1202

>  <SCORE.INTER>
-14.4565

>  <SCORE.INTER.CONST>
1

>  <SCORE.INTER.POLAR>
0

>  <SCORE.INTER.ROT>
7

>  <SCORE.INTER.SOLV>
19.5129

>  <SCORE.INTER.VDW>
-24.4086

>  <SCORE.INTER.norm>
-0.535425

>  <SCORE.INTRA>
-5.66367

>  <SCORE.INTRA.DIHEDRAL>
-2.40272

>  <SCORE.INTRA.DIHEDRAL.0>
11.2699

>  <SCORE.INTRA.POLAR>
0

>  <SCORE.INTRA.POLAR.0>
0

>  <SCORE.INTRA.REPUL>
0

>  <SCORE.INTRA.REPUL.0>
0

>  <SCORE.INTRA.SOLV>
1.03035

>  <SCORE.INTRA.SOLV.lig_0>
-48.6447

>  <SCORE.INTRA.VDW>
-4.97749

>  <SCORE.INTRA.VDW.0>
-0.0211724

>  <SCORE.INTRA.norm>
-0.209766

>  <SCORE.RESTR>
0

>  <SCORE.RESTR.CAVITY>
0

>  <SCORE.RESTR.norm>
0

>  <SCORE.SYSTEM>
0

>  <SCORE.SYSTEM.CONST>
0

>  <SCORE.SYSTEM.DIHEDRAL>
0

>  <SCORE.SYSTEM.SOLV>
0

>  <SCORE.SYSTEM.norm>
0

>  <SCORE.heavy>
27

>  <SCORE.norm>
-0.745191

>  <RMSD>
1.304

$$$$
ligand
 OpenBabel11021811483D
libRbt.so/2013.1/901 2013/11/27
 27 29  0  0  0  0  0  0  0  0999 V2000
   48.4328   55.9231   26.8957 N   0  0  0  0  0  0  0  0  0  0  0  0
   48.3372   55.9693   28.3497 C   0  0  2  0  0  0  0  0  0  0  0  0
   48.1663   57.4010   28.8299 C   0  0  0  0  0  0  0  0  0  0  0  0
   47.6599   57.6329   29.9252 O   0  0  0  0  0  0  0  0  0  0  0  0
   49.5498   55.3255   29.0205 C   0  0  0  0  0  0  0  0  0  0  0  0
   49.3913   55.0641   30.5135 C   0  0  0  0  0  0  0  0  0  0  0  0
   49.2799   53.3099   30.9627 S   0  0  2  0  0  0  0  0  0  0  0  0
   48.3171   52.6536   29.5781 C   0  0  0  0  0  0  0  0  0  0  0  0
   48.0043   53.3844   32.2477 C   0  0  0  0  0  0  0  0  0  0  0  0
   48.5828   54.0051   33.5105 C   0  0  1  0  0  0  0  0  0  0  0  0
   49.1530   55.2455   33.1692 O   0  0  0  0  0  0  0  0  0  0  0  0
   47.5589   54.3253   34.5808 C   0  0  1  0  0  0  0  0  0  0  0  0
   47.5173   53.2974   35.5403 O   0  0  0  0  0  0  0  0  0  0  0  0
   48.0751   55.6143   35.1943 C   0  0  1  0  0  0  0  0  0  0  0  0
   48.6520   55.3334   36.4477 O   0  0  0  0  0  0  0  0  0  0  0  0
   49.1370   56.1513   34.2429 C   0  0  2  0  0  0  0  0  0  0  0  0
   48.5353   58.3479   28.1344 O   0  0  0  0  0  0  0  0  0  0  0  0
   45.1296   59.0695   32.4797 N   0  0  0  0  0  0  0  0  0  0  0  0
   45.1131   57.7516   32.8896 C   0  0  0  0  0  0  0  0  0  0  0  0
   46.2739   57.1395   33.3259 N   0  0  0  0  0  0  0  0  0  0  0  0
   47.4411   57.8196   33.3495 C   0  0  0  0  0  0  0  0  0  0  0  0
   47.4796   59.1470   32.9489 C   0  0  0  0  0  0  0  0  0  0  0  0
   46.3161   59.7714   32.5072 C   0  0  0  0  0  0  0  0  0  0  0  0
   46.3354   61.0420   32.1128 N   0  0  0  0  0  0  0  0  0  0  0  0
   48.7533   59.5789   33.0840 N   0  0  0  0  0  0  0  0  0  0  0  0
   49.5090   58.5664   33.5705 C   0  0  0  0  0  0  0  0  0  0  0  0
   48.7083   57.4674   33.7402 N   0  0  0  0  0  0  0  0  0  0  0  0
  2  1  1  6  0  0  0
  2  3  1  0  0  0  0
  2  5  1  0  0  0  0
  3  4  1  0  0  0  0
  3 17  1  0  0  0  0
  5  6  1  0  0  0  0
  7  6  1  6  0  0  0
  7  8  1  0  0  0  0
  7  9  1  0  0  0  0
 10  9  1  6  0  0  0
 10 11  1  0  0  0  0
 10 12  1  0  0  0  0
 11 16  1  0  0  0  0
 12 13  1  1  0  0  0
 12 14  1  0  0  0  0
 14 15  1  1  0  0  0
 14 16  1  0  0  0  0
 16 27  1  6  0  0  0
 18 19  2  0  0  0  0
 18 23  1  0  0  0  0
 19 20  1  0  0  0  0
 20 21  2  0  0  0  0
 21 22  1  0  0  0  0
 21 27  1  0  0  0  0
 22 23  2  0  0  0  0
 22 25  1  0  0  0  0
 23 24  1  0  0  0  0
 25 26  2  0  0  0  0
 26 27  1  0  0  0  0
M  END
>  <CHROM.1>
157.11749615,-167.42532412,110.79811813,-37.04714022,-72.87068859,53.93003738
72.30566606,48.06277637,56.31629875,32.04934062,0.97371446,1.25538302,-1.21680252

>  <Name>
ligand

>  <RI>
0

>  <Rbt.Current_Directory>
/home/itssahil/PROJECTS/Mol_Feturizer/New_Systems/rnas/3GX7

>  <Rbt.Executable>
rbdock ($Id: //depot/dev/client3/rdock/2013.1/src/exe/rbdock.cxx#4 $)

>  <Rbt.Library>
libRbt.so (2013.1, Build901 2013/11/27)

>  <Rbt.Parameter_File>
/export/apps/rDock/src/rDock_2013.1_src/data/scripts/dock_solv.prm

>  <Rbt.Receptor>
prm/pocket_docking_2.prm

>  <SCORE>
-18.8126

>  <SCORE.INTER>
-17.5454

>  <SCORE.INTER.CONST>
1

>  <SCORE.INTER.POLAR>
0

>  <SCORE.INTER.ROT>
7

>  <SCORE.INTER.SOLV>
18.1658

>  <SCORE.INTER.VDW>
-26.0188

>  <SCORE.INTER.norm>
-0.649828

>  <SCORE.INTRA>
-1.30631

>  <SCORE.INTRA.DIHEDRAL>
0.180145

>  <SCORE.INTRA.DIHEDRAL.0>
11.2699

>  <SCORE.INTRA.POLAR>
0

>  <SCORE.INTRA.POLAR.0>
0

>  <SCORE.INTRA.REPUL>
0

>  <SCORE.INTRA.REPUL.0>
0

>  <SCORE.INTRA.SOLV>
-0.44635

>  <SCORE.INTRA.SOLV.lig_0>
-48.6447

>  <SCORE.INTRA.VDW>
-1.1732

>  <SCORE.INTRA.VDW.0>
-0.0211724

>  <SCORE.INTRA.norm>
-0.0483817

>  <SCORE.RESTR>
0.039074

>  <SCORE.RESTR.CAVITY>
0.039074

>  <SCORE.RESTR.norm>
0.00144718

>  <SCORE.SYSTEM>
0

>  <SCORE.SYSTEM.CONST>
0

>  <SCORE.SYSTEM.DIHEDRAL>
0

>  <SCORE.SYSTEM.SOLV>
0

>  <SCORE.SYSTEM.norm>
0

>  <SCORE.heavy>
27

>  <SCORE.norm>
-0.696763

>  <RMSD>
1.338

$$$$
ligand
 OpenBabel11021811483D
libRbt.so/2013.1/901 2013/11/27
 27 29  0  0  0  0  0  0  0  0999 V2000
   48.0771   56.1992   27.0082 N   0  0  0  0  0  0  0  0  0  0  0  0
   48.1616   56.2021   28.4637 C   0  0  2  0  0  0  0  0  0  0  0  0
   48.0745   57.6205   29.0023 C   0  0  0  0  0  0  0  0  0  0  0  0
   47.4822   57.8507   30.0540 O   0  0  0  0  0  0  0  0  0  0  0  0
   49.4366   55.5225   28.9611 C   0  0  0  0  0  0  0  0  0  0  0  0
   49.4585   55.2181   30.4542 C   0  0  0  0  0  0  0  0  0  0  0  0
   49.5604   53.4529   30.8609 S   0  0  2  0  0  0  0  0  0  0  0  0
   48.6763   52.7192   29.4627 C   0  0  0  0  0  0  0  0  0  0  0  0
   48.2913   53.3432   32.1499 C   0  0  0  0  0  0  0  0  0  0  0  0
   48.8018   53.9884   33.4296 C   0  0  1  0  0  0  0  0  0  0  0  0
   49.3400   55.2470   33.1030 O   0  0  0  0  0  0  0  0  0  0  0  0
   47.7294   54.2761   34.4610 C   0  0  1  0  0  0  0  0  0  0  0  0
   47.6894   53.2508   35.4233 O   0  0  0  0  0  0  0  0  0  0  0  0
   48.1775   55.5847   35.0864 C   0  0  1  0  0  0  0  0  0  0  0  0
   48.7184   55.3288   36.3609 O   0  0  0  0  0  0  0  0  0  0  0  0
   49.2535   56.1554   34.1711 C   0  0  2  0  0  0  0  0  0  0  0  0
   48.5981   58.5576   28.3989 O   0  0  0  0  0  0  0  0  0  0  0  0
   45.1679   58.9880   32.4482 N   0  0  0  0  0  0  0  0  0  0  0  0
   45.1766   57.6812   32.8923 C   0  0  0  0  0  0  0  0  0  0  0  0
   46.3555   57.0919   33.3109 N   0  0  0  0  0  0  0  0  0  0  0  0
   47.5158   57.7836   33.2836 C   0  0  0  0  0  0  0  0  0  0  0  0
   47.5293   59.1003   32.8479 C   0  0  0  0  0  0  0  0  0  0  0  0
   46.3474   59.7018   32.4237 C   0  0  0  0  0  0  0  0  0  0  0  0
   46.3423   60.9617   31.9962 N   0  0  0  0  0  0  0  0  0  0  0  0
   48.8018   59.5478   32.9354 N   0  0  0  0  0  0  0  0  0  0  0  0
   49.5814   58.5557   33.4261 C   0  0  0  0  0  0  0  0  0  0  0  0
   48.7971   57.4539   33.6470 N   0  0  0  0  0  0  0  0  0  0  0  0
  2  1  1  6  0  0  0
  2  3  1  0  0  0  0
  2  5  1  0  0  0  0
  3  4  1  0  0  0  0
  3 17  1  0  0  0  0
  5  6  1  0  0  0  0
  7  6  1  6  0  0  0
  7  8  1  0  0  0  0
  7  9  1  0  0  0  0
 10  9  1  6  0  0  0
 10 11  1  0  0  0  0
 10 12  1  0  0  0  0
 11 16  1  0  0  0  0
 12 13  1  1  0  0  0
 12 14  1  0  0  0  0
 14 15  1  1  0  0  0
 14 16  1  0  0  0  0
 16 27  1  6  0  0  0
 18 19  2  0  0  0  0
 18 23  1  0  0  0  0
 19 20  1  0  0  0  0
 20 21  2  0  0  0  0
 21 22  1  0  0  0  0
 21 27  1  0  0  0  0
 22 23  2  0  0  0  0
 22 25  1  0  0  0  0
 23 24  1  0  0  0  0
 25 26  2  0  0  0  0
 26 27  1  0  0  0  0
M  END
>  <CHROM.1>
143.46292071,-167.44534176,117.26726951,-31.21550316,-73.32756931,48.49535431
76.46019872,48.13832736,56.36227402,32.00767892,-2.15704920,-1.22390724,1.85872729

>  <Name>
ligand

>  <RI>
0

>  <Rbt.Current_Directory>
/home/itssahil/PROJECTS/Mol_Feturizer/New_Systems/rnas/3GX7

>  <Rbt.Executable>
rbdock ($Id: //depot/dev/client3/rdock/2013.1/src/exe/rbdock.cxx#4 $)

>  <Rbt.Library>
libRbt.so (2013.1, Build901 2013/11/27)

>  <Rbt.Parameter_File>
/export/apps/rDock/src/rDock_2013.1_src/data/scripts/dock_solv.prm

>  <Rbt.Receptor>
prm/pocket_docking_3.prm

>  <SCORE>
-18.4984

>  <SCORE.INTER>
-18.0409

>  <SCORE.INTER.CONST>
1

>  <SCORE.INTER.POLAR>
0

>  <SCORE.INTER.ROT>
7

>  <SCORE.INTER.SOLV>
18.0001

>  <SCORE.INTER.VDW>
-26.294

>  <SCORE.INTER.norm>
-0.668181

>  <SCORE.INTRA>
-0.457517

>  <SCORE.INTRA.DIHEDRAL>
1.44195

>  <SCORE.INTRA.DIHEDRAL.0>
11.2699

>  <SCORE.INTRA.POLAR>
0

>  <SCORE.INTRA.POLAR.0>
0

>  <SCORE.INTRA.REPUL>
0

>  <SCORE.INTRA.REPUL.0>
0

>  <SCORE.INTRA.SOLV>
-0.351063

>  <SCORE.INTRA.SOLV.lig_0>
-48.6447

>  <SCORE.INTRA.VDW>
-1.00296

>  <SCORE.INTRA.VDW.0>
-0.0211724

>  <SCORE.INTRA.norm>
-0.0169451

>  <SCORE.RESTR>
0

>  <SCORE.RESTR.CAVITY>
0

>  <SCORE.RESTR.norm>
0

>  <SCORE.SYSTEM>
0

>  <SCORE.SYSTEM.CONST>
0

>  <SCORE.SYSTEM.DIHEDRAL>
0

>  <SCORE.SYSTEM.SOLV>
0

>  <SCORE.SYSTEM.norm>
0

>  <SCORE.heavy>
27

>  <SCORE.norm>
-0.685126

>  <RMSD>
1.343

$$$$
ligand
 OpenBabel11021811483D
libRbt.so/2013.1/901 2013/11/27
 27 29  0  0  0  0  0  0  0  0999 V2000
   48.1682   56.1740   27.2053 N   0  0  0  0  0  0  0  0  0  0  0  0
   47.6161   56.4444   28.5273 C   0  0  2  0  0  0  0  0  0  0  0  0
   48.2264   57.7063   29.1145 C   0  0  0  0  0  0  0  0  0  0  0  0
   48.1769   57.9156   30.3243 O   0  0  0  0  0  0  0  0  0  0  0  0
   47.8152   55.2657   29.4791 C   0  0  0  0  0  0  0  0  0  0  0  0
   49.2687   54.9503   29.8115 C   0  0  0  0  0  0  0  0  0  0  0  0
   49.5138   53.3974   30.7169 S   0  0  2  0  0  0  0  0  0  0  0  0
   48.7839   52.2034   29.5695 C   0  0  0  0  0  0  0  0  0  0  0  0
   48.1897   53.5268   31.9473 C   0  0  0  0  0  0  0  0  0  0  0  0
   48.7420   54.1170   33.2362 C   0  0  1  0  0  0  0  0  0  0  0  0
   49.2934   55.3778   32.9416 O   0  0  0  0  0  0  0  0  0  0  0  0
   47.7001   54.3845   34.3036 C   0  0  1  0  0  0  0  0  0  0  0  0
   47.6661   53.3257   35.2293 O   0  0  0  0  0  0  0  0  0  0  0  0
   48.1855   55.6621   34.9641 C   0  0  1  0  0  0  0  0  0  0  0  0
   48.7528   55.3516   36.2148 O   0  0  0  0  0  0  0  0  0  0  0  0
   49.2484   56.2482   34.0432 C   0  0  2  0  0  0  0  0  0  0  0  0
   48.7823   58.5336   28.3914 O   0  0  0  0  0  0  0  0  0  0  0  0
   45.1829   59.1857   32.4538 N   0  0  0  0  0  0  0  0  0  0  0  0
   45.1819   57.8606   32.8401 C   0  0  0  0  0  0  0  0  0  0  0  0
   46.3567   57.2443   33.2303 N   0  0  0  0  0  0  0  0  0  0  0  0
   47.5224   57.9273   33.2313 C   0  0  0  0  0  0  0  0  0  0  0  0
   47.5457   59.2618   32.8538 C   0  0  0  0  0  0  0  0  0  0  0  0
   46.3680   59.8906   32.4584 C   0  0  0  0  0  0  0  0  0  0  0  0
   46.3723   61.1681   32.0867 N   0  0  0  0  0  0  0  0  0  0  0  0
   48.8218   59.6950   32.9585 N   0  0  0  0  0  0  0  0  0  0  0  0
   49.5942   58.6762   33.4037 C   0  0  0  0  0  0  0  0  0  0  0  0
   48.8016   57.5719   33.5775 N   0  0  0  0  0  0  0  0  0  0  0  0
  2  1  1  6  0  0  0
  2  3  1  0  0  0  0
  2  5  1  0  0  0  0
  3  4  1  0  0  0  0
  3 17  1  0  0  0  0
  5  6  1  0  0  0  0
  7  6  1  6  0  0  0
  7  8  1  0  0  0  0
  7  9  1  0  0  0  0
 10  9  1  6  0  0  0
 10 11  1  0  0  0  0
 10 12  1  0  0  0  0
 11 16  1  0  0  0  0
 12 13  1  1  0  0  0
 12 14  1  0  0  0  0
 14 15  1  1  0  0  0
 14 16  1  0  0  0  0
 16 27  1  6  0  0  0
 18 19  2  0  0  0  0
 18 23  1  0  0  0  0
 19 20  1  0  0  0  0
 20 21  2  0  0  0  0
 21 22  1  0  0  0  0
 21 27  1  0  0  0  0
 22 23  2  0  0  0  0
 22 25  1  0  0  0  0
 23 24  1  0  0  0  0
 25 26  2  0  0  0  0
 26 27  1  0  0  0  0
M  END
>  <CHROM.1>
-160.57595298,64.84231326,-170.53571417,58.46816486,-94.91451156,58.29092285
74.98227627,48.09579520,56.41395495,31.96725629,-0.03209034,1.27702605,-1.33706973

>  <Name>
ligand

>  <RI>
0

>  <Rbt.Current_Directory>
/home/itssahil/PROJECTS/Mol_Feturizer/New_Systems/rnas/3GX7

>  <Rbt.Executable>
rbdock ($Id: //depot/dev/client3/rdock/2013.1/src/exe/rbdock.cxx#4 $)

>  <Rbt.Library>
libRbt.so (2013.1, Build901 2013/11/27)

>  <Rbt.Parameter_File>
/export/apps/rDock/src/rDock_2013.1_src/data/scripts/dock_solv.prm

>  <Rbt.Receptor>
prm/pocket_docking_3.prm

>  <SCORE>
-22.9798

>  <SCORE.INTER>
-17.3617

>  <SCORE.INTER.CONST>
1

>  <SCORE.INTER.POLAR>
0

>  <SCORE.INTER.ROT>
7

>  <SCORE.INTER.SOLV>
18.1305

>  <SCORE.INTER.VDW>
-25.8846

>  <SCORE.INTER.norm>
-0.643025

>  <SCORE.INTRA>
-5.61814

>  <SCORE.INTRA.DIHEDRAL>
-5.74232

>  <SCORE.INTRA.DIHEDRAL.0>
11.2699

>  <SCORE.INTRA.POLAR>
0

>  <SCORE.INTRA.POLAR.0>
0

>  <SCORE.INTRA.REPUL>
0

>  <SCORE.INTRA.REPUL.0>
0

>  <SCORE.INTRA.SOLV>
-0.240432

>  <SCORE.INTRA.SOLV.lig_0>
-48.6447

>  <SCORE.INTRA.VDW>
-2.62677

>  <SCORE.INTRA.VDW.0>
-0.0211724

>  <SCORE.INTRA.norm>
-0.208079

>  <SCORE.RESTR>
0

>  <SCORE.RESTR.CAVITY>
0

>  <SCORE.RESTR.norm>
0

>  <SCORE.SYSTEM>
0

>  <SCORE.SYSTEM.CONST>
0

>  <SCORE.SYSTEM.DIHEDRAL>
0

>  <SCORE.SYSTEM.SOLV>
0

>  <SCORE.SYSTEM.norm>
0

>  <SCORE.heavy>
27

>  <SCORE.norm>
-0.851105

>  <RMSD>
1.371

$$$$
ligand
 OpenBabel11021811483D
libRbt.so/2013.1/901 2013/11/27
 27 29  0  0  0  0  0  0  0  0999 V2000
   46.5184   58.0074   27.6293 N   0  0  0  0  0  0  0  0  0  0  0  0
   46.9881   56.9448   28.5100 C   0  0  2  0  0  0  0  0  0  0  0  0
   48.4291   57.1913   28.9252 C   0  0  0  0  0  0  0  0  0  0  0  0
   48.7259   57.2859   30.1139 O   0  0  0  0  0  0  0  0  0  0  0  0
   46.8502   55.5672   27.8635 C   0  0  0  0  0  0  0  0  0  0  0  0
   46.6967   54.4120   28.8456 C   0  0  0  0  0  0  0  0  0  0  0  0
   48.1187   54.1648   29.9448 S   0  0  2  0  0  0  0  0  0  0  0  0
   48.5253   52.4337   29.6084 C   0  0  0  0  0  0  0  0  0  0  0  0
   47.2723   54.0027   31.5389 C   0  0  0  0  0  0  0  0  0  0  0  0
   48.1968   54.4541   32.6597 C   0  0  1  0  0  0  0  0  0  0  0  0
   48.7506   55.6965   32.2992 O   0  0  0  0  0  0  0  0  0  0  0  0
   47.5051   54.7027   33.9849 C   0  0  1  0  0  0  0  0  0  0  0  0
   47.6338   53.5791   34.8215 O   0  0  0  0  0  0  0  0  0  0  0  0
   48.2533   55.8915   34.5605 C   0  0  1  0  0  0  0  0  0  0  0  0
   49.1078   55.4488   35.5883 O   0  0  0  0  0  0  0  0  0  0  0  0
   49.0746   56.4793   33.4198 C   0  0  2  0  0  0  0  0  0  0  0  0
   49.3198   57.2949   28.0813 O   0  0  0  0  0  0  0  0  0  0  0  0
   45.3967   59.5754   31.2817 N   0  0  0  0  0  0  0  0  0  0  0  0
   45.4495   58.1963   31.2997 C   0  0  0  0  0  0  0  0  0  0  0  0
   46.5033   57.5439   31.9131 N   0  0  0  0  0  0  0  0  0  0  0  0
   47.4994   58.2465   32.4960 C   0  0  0  0  0  0  0  0  0  0  0  0
   47.4632   59.6331   32.4961 C   0  0  0  0  0  0  0  0  0  0  0  0
   46.4067   60.2986   31.8802 C   0  0  0  0  0  0  0  0  0  0  0  0
   46.3588   61.6282   31.8646 N   0  0  0  0  0  0  0  0  0  0  0  0
   48.5625   60.0714   33.1493 N   0  0  0  0  0  0  0  0  0  0  0  0
   49.2769   59.0012   33.5700 C   0  0  0  0  0  0  0  0  0  0  0  0
   48.6296   57.8610   33.1716 N   0  0  0  0  0  0  0  0  0  0  0  0
  2  1  1  6  0  0  0
  2  3  1  0  0  0  0
  2  5  1  0  0  0  0
  3  4  1  0  0  0  0
  3 17  1  0  0  0  0
  5  6  1  0  0  0  0
  7  6  1  6  0  0  0
  7  8  1  0  0  0  0
  7  9  1  0  0  0  0
 10  9  1  6  0  0  0
 10 11  1  0  0  0  0
 10 12  1  0  0  0  0
 11 16  1  0  0  0  0
 12 13  1  1  0  0  0
 12 14  1  0  0  0  0
 14 15  1  1  0  0  0
 14 16  1  0  0  0  0
 16 27  1  6  0  0  0
 18 19  2  0  0  0  0
 18 23  1  0  0  0  0
 19 20  1  0  0  0  0
 20 21  2  0  0  0  0
 21 22  1  0  0  0  0
 21 27  1  0  0  0  0
 22 23  2  0  0  0  0
 22 25  1  0  0  0  0
 23 24  1  0  0  0  0
 25 26  2  0  0  0  0
 26 27  1  0  0  0  0
M  END
>  <CHROM.1>
122.00318076,-153.37275644,-62.72951656,-124.23567115,-152.54361921,48.40317606
36.00092189,47.73797763,56.66836415,31.45386461,2.10891807,-1.33533444,0.85912254

>  <Name>
ligand

>  <RI>
0

>  <Rbt.Current_Directory>
/home/itssahil/PROJECTS/Mol_Feturizer/New_Systems/rnas/3GX7

>  <Rbt.Executable>
rbdock ($Id: //depot/dev/client3/rdock/2013.1/src/exe/rbdock.cxx#4 $)

>  <Rbt.Library>
libRbt.so (2013.1, Build901 2013/11/27)

>  <Rbt.Parameter_File>
/export/apps/rDock/src/rDock_2013.1_src/data/scripts/dock_solv.prm

>  <Rbt.Receptor>
prm/pocket_docking_2.prm

>  <SCORE>
-14.3855

>  <SCORE.INTER>
-9.16573

>  <SCORE.INTER.CONST>
1

>  <SCORE.INTER.POLAR>
0

>  <SCORE.INTER.ROT>
7

>  <SCORE.INTER.SOLV>
19.7016

>  <SCORE.INTER.VDW>
-20.9443

>  <SCORE.INTER.norm>
-0.339472

>  <SCORE.INTRA>
-5.29253

>  <SCORE.INTRA.DIHEDRAL>
1.83992

>  <SCORE.INTRA.DIHEDRAL.0>
11.2699

>  <SCORE.INTRA.POLAR>
0

>  <SCORE.INTRA.POLAR.0>
0

>  <SCORE.INTRA.REPUL>
0

>  <SCORE.INTRA.REPUL.0>
0

>  <SCORE.INTRA.SOLV>
-0.63069

>  <SCORE.INTRA.SOLV.lig_0>
-48.6447

>  <SCORE.INTRA.VDW>
-5.89715

>  <SCORE.INTRA.VDW.0>
-0.0211724

>  <SCORE.INTRA.norm>
-0.19602

>  <SCORE.RESTR>
0.0727472

>  <SCORE.RESTR.CAVITY>
0.0727472

>  <SCORE.RESTR.norm>
0.00269434

>  <SCORE.SYSTEM>
0

>  <SCORE.SYSTEM.CONST>
0

>  <SCORE.SYSTEM.DIHEDRAL>
0

>  <SCORE.SYSTEM.SOLV>
0

>  <SCORE.SYSTEM.norm>
0

>  <SCORE.heavy>
27

>  <SCORE.norm>
-0.532797

>  <RMSD>
1.373

$$$$
ligand
 OpenBabel11021811483D
libRbt.so/2013.1/901 2013/11/27
 27 29  0  0  0  0  0  0  0  0999 V2000
   47.2634   57.5481   27.1349 N   0  0  0  0  0  0  0  0  0  0  0  0
   47.2370   56.8215   28.3986 C   0  0  2  0  0  0  0  0  0  0  0  0
   48.5101   57.0750   29.1888 C   0  0  0  0  0  0  0  0  0  0  0  0
   49.5301   56.4341   28.9463 O   0  0  0  0  0  0  0  0  0  0  0  0
   47.0321   55.3219   28.1885 C   0  0  0  0  0  0  0  0  0  0  0  0
   46.7284   54.5339   29.4571 C   0  0  0  0  0  0  0  0  0  0  0  0
   48.1882   54.1098   30.4473 S   0  0  2  0  0  0  0  0  0  0  0  0
   48.5528   52.4447   29.8394 C   0  0  0  0  0  0  0  0  0  0  0  0
   47.4025   53.7192   32.0329 C   0  0  0  0  0  0  0  0  0  0  0  0
   48.2715   54.2241   33.1750 C   0  0  1  0  0  0  0  0  0  0  0  0
   48.8914   55.4178   32.7613 O   0  0  0  0  0  0  0  0  0  0  0  0
   47.5084   54.5935   34.4311 C   0  0  1  0  0  0  0  0  0  0  0  0
   47.5440   53.5325   35.3542 O   0  0  0  0  0  0  0  0  0  0  0  0
   48.2621   55.7979   34.9654 C   0  0  1  0  0  0  0  0  0  0  0  0
   49.0346   55.4070   36.0758 O   0  0  0  0  0  0  0  0  0  0  0  0
   49.1734   56.2720   33.8403 C   0  0  2  0  0  0  0  0  0  0  0  0
   48.5418   57.9266   30.0777 O   0  0  0  0  0  0  0  0  0  0  0  0
   45.3679   59.4222   32.0296 N   0  0  0  0  0  0  0  0  0  0  0  0
   45.3139   58.0634   32.2657 C   0  0  0  0  0  0  0  0  0  0  0  0
   46.4230   57.3917   32.7462 N   0  0  0  0  0  0  0  0  0  0  0  0
   47.5767   58.0536   32.9835 C   0  0  0  0  0  0  0  0  0  0  0  0
   47.6515   59.4205   32.7603 C   0  0  0  0  0  0  0  0  0  0  0  0
   46.5402   60.1053   32.2757 C   0  0  0  0  0  0  0  0  0  0  0  0
   46.5956   61.4152   32.0492 N   0  0  0  0  0  0  0  0  0  0  0  0
   48.9002   59.8214   33.0879 N   0  0  0  0  0  0  0  0  0  0  0  0
   49.6035   58.7495   33.5229 C   0  0  0  0  0  0  0  0  0  0  0  0
   48.7951   57.6445   33.4636 N   0  0  0  0  0  0  0  0  0  0  0  0
  2  1  1  6  0  0  0
  2  3  1  0  0  0  0
  2  5  1  0  0  0  0
  3  4  1  0  0  0  0
  3 17  1  0  0  0  0
  5  6  1  0  0  0  0
  7  6  1  6  0  0  0
  7  8  1  0  0  0  0
  7  9  1  0  0  0  0
 10  9  1  6  0  0  0
 10 11  1  0  0  0  0
 10 12  1  0  0  0  0
 11 16  1  0  0  0  0
 12 13  1  1  0  0  0
 12 14  1  0  0  0  0
 14 15  1  1  0  0  0
 14 16  1  0  0  0  0
 16 27  1  6  0  0  0
 18 19  2  0  0  0  0
 18 23  1  0  0  0  0
 19 20  1  0  0  0  0
 20 21  2  0  0  0  0
 21 22  1  0  0  0  0
 21 27  1  0  0  0  0
 22 23  2  0  0  0  0
 22 25  1  0  0  0  0
 23 24  1  0  0  0  0
 25 26  2  0  0  0  0
 26 27  1  0  0  0  0
M  END
>  <CHROM.1>
-82.57660312,-168.86960253,-81.11250530,-94.85764341,-142.15699715,34.53548137
53.25699170,47.84176977,56.51447387,31.83159317,1.51194303,1.38825960,-2.07946504

>  <Name>
ligand

>  <RI>
0

>  <Rbt.Current_Directory>
/home/itssahil/PROJECTS/Mol_Feturizer/New_Systems/rnas/3GX7

>  <Rbt.Executable>
rbdock ($Id: //depot/dev/client3/rdock/2013.1/src/exe/rbdock.cxx#4 $)

>  <Rbt.Library>
libRbt.so (2013.1, Build901 2013/11/27)

>  <Rbt.Parameter_File>
/export/apps/rDock/src/rDock_2013.1_src/data/scripts/dock_solv.prm

>  <Rbt.Receptor>
prm/pocket_docking_2.prm

>  <SCORE>
-15.1669

>  <SCORE.INTER>
-10.8409

>  <SCORE.INTER.CONST>
1

>  <SCORE.INTER.POLAR>
0

>  <SCORE.INTER.ROT>
7

>  <SCORE.INTER.SOLV>
20.5451

>  <SCORE.INTER.VDW>
-22.3423

>  <SCORE.INTER.norm>
-0.401514

>  <SCORE.INTRA>
-4.33065

>  <SCORE.INTRA.DIHEDRAL>
1.4061

>  <SCORE.INTRA.DIHEDRAL.0>
11.2699

>  <SCORE.INTRA.POLAR>
0

>  <SCORE.INTRA.POLAR.0>
0

>  <SCORE.INTRA.REPUL>
0

>  <SCORE.INTRA.REPUL.0>
0

>  <SCORE.INTRA.SOLV>
-0.889871

>  <SCORE.INTRA.SOLV.lig_0>
-48.6447

>  <SCORE.INTRA.VDW>
-4.58877

>  <SCORE.INTRA.VDW.0>
-0.0211724

>  <SCORE.INTRA.norm>
-0.160395

>  <SCORE.RESTR>
0.00466886

>  <SCORE.RESTR.CAVITY>
0.00466886

>  <SCORE.RESTR.norm>
0.000172921

>  <SCORE.SYSTEM>
0

>  <SCORE.SYSTEM.CONST>
0

>  <SCORE.SYSTEM.DIHEDRAL>
0

>  <SCORE.SYSTEM.SOLV>
0

>  <SCORE.SYSTEM.norm>
0

>  <SCORE.heavy>
27

>  <SCORE.norm>
-0.561736

>  <RMSD>
1.395

$$$$
ligand
 OpenBabel11021811483D
libRbt.so/2013.1/901 2013/11/27
 27 29  0  0  0  0  0  0  0  0999 V2000
   46.3639   55.8777   26.5652 N   0  0  0  0  0  0  0  0  0  0  0  0
   46.7299   56.7127   27.7029 C   0  0  2  0  0  0  0  0  0  0  0  0
   48.0474   57.4242   27.4430 C   0  0  0  0  0  0  0  0  0  0  0  0
   48.1774   58.6134   27.7236 O   0  0  0  0  0  0  0  0  0  0  0  0
   46.8085   55.9064   28.9985 C   0  0  0  0  0  0  0  0  0  0  0  0
   47.8001   54.7494   28.9729 C   0  0  0  0  0  0  0  0  0  0  0  0
   49.1007   54.8449   30.2341 S   0  0  2  0  0  0  0  0  0  0  0  0
   50.2441   53.5667   29.6564 C   0  0  0  0  0  0  0  0  0  0  0  0
   48.2916   53.9727   31.6011 C   0  0  0  0  0  0  0  0  0  0  0  0
   48.8170   54.4984   32.9285 C   0  0  1  0  0  0  0  0  0  0  0  0
   49.3247   55.7940   32.7183 O   0  0  0  0  0  0  0  0  0  0  0  0
   47.7615   54.6605   34.0038 C   0  0  1  0  0  0  0  0  0  0  0  0
   47.7610   53.5444   34.8601 O   0  0  0  0  0  0  0  0  0  0  0  0
   48.1985   55.9097   34.7474 C   0  0  1  0  0  0  0  0  0  0  0  0
   48.7709   55.5401   35.9796 O   0  0  0  0  0  0  0  0  0  0  0  0
   49.2440   56.5903   33.8728 C   0  0  2  0  0  0  0  0  0  0  0  0
   49.0036   56.8221   26.9535 O   0  0  0  0  0  0  0  0  0  0  0  0
   45.2407   59.3810   31.9058 N   0  0  0  0  0  0  0  0  0  0  0  0
   45.3076   58.0205   32.1282 C   0  0  0  0  0  0  0  0  0  0  0  0
   46.4528   57.4529   32.6563 N   0  0  0  0  0  0  0  0  0  0  0  0
   47.5243   58.2201   32.9542 C   0  0  0  0  0  0  0  0  0  0  0  0
   47.4767   59.5906   32.7457 C   0  0  0  0  0  0  0  0  0  0  0  0
   46.3283   60.1709   32.2135 C   0  0  0  0  0  0  0  0  0  0  0  0
   46.2670   61.4828   32.0004 N   0  0  0  0  0  0  0  0  0  0  0  0
   48.6637   60.1059   33.1363 N   0  0  0  0  0  0  0  0  0  0  0  0
   49.4463   59.1014   33.5962 C   0  0  0  0  0  0  0  0  0  0  0  0
   48.7526   57.9245   33.4892 N   0  0  0  0  0  0  0  0  0  0  0  0
  2  1  1  6  0  0  0
  2  3  1  0  0  0  0
  2  5  1  0  0  0  0
  3  4  1  0  0  0  0
  3 17  1  0  0  0  0
  5  6  1  0  0  0  0
  7  6  1  6  0  0  0
  7  8  1  0  0  0  0
  7  9  1  0  0  0  0
 10  9  1  6  0  0  0
 10 11  1  0  0  0  0
 10 12  1  0  0  0  0
 11 16  1  0  0  0  0
 12 13  1  1  0  0  0
 12 14  1  0  0  0  0
 14 15  1  1  0  0  0
 14 16  1  0  0  0  0
 16 27  1  6  0  0  0
 18 19  2  0  0  0  0
 18 23  1  0  0  0  0
 19 20  1  0  0  0  0
 20 21  2  0  0  0  0
 21 22  1  0  0  0  0
 21 27  1  0  0  0  0
 22 23  2  0  0  0  0
 22 25  1  0  0  0  0
 23 24  1  0  0  0  0
 25 26  2  0  0  0  0
 26 27  1  0  0  0  0
M  END
>  <CHROM.1>
136.01266833,58.43792654,120.92762628,-167.73903983,-151.24758165,23.12002250
63.75852012,47.94319700,56.73950500,31.46109289,-1.70231472,-1.22539797,1.37676534

>  <Name>
ligand

>  <RI>
0

>  <Rbt.Current_Directory>
/home/itssahil/PROJECTS/Mol_Feturizer/New_Systems/rnas/3GX7

>  <Rbt.Executable>
rbdock ($Id: //depot/dev/client3/rdock/2013.1/src/exe/rbdock.cxx#4 $)

>  <Rbt.Library>
libRbt.so (2013.1, Build901 2013/11/27)

>  <Rbt.Parameter_File>
/export/apps/rDock/src/rDock_2013.1_src/data/scripts/dock_solv.prm

>  <Rbt.Receptor>
prm/pocket_docking_2.prm

>  <SCORE>
-11.984

>  <SCORE.INTER>
-12.6613

>  <SCORE.INTER.CONST>
1

>  <SCORE.INTER.POLAR>
0

>  <SCORE.INTER.ROT>
7

>  <SCORE.INTER.SOLV>
20.7938

>  <SCORE.INTER.VDW>
-23.6388

>  <SCORE.INTER.norm>
-0.468938

>  <SCORE.INTRA>
-0.200126

>  <SCORE.INTRA.DIHEDRAL>
5.03912

>  <SCORE.INTRA.DIHEDRAL.0>
11.2699

>  <SCORE.INTRA.POLAR>
0

>  <SCORE.INTRA.POLAR.0>
0

>  <SCORE.INTRA.REPUL>
0

>  <SCORE.INTRA.REPUL.0>
0

>  <SCORE.INTRA.SOLV>
-0.280462

>  <SCORE.INTRA.SOLV.lig_0>
-48.6447

>  <SCORE.INTRA.VDW>
-2.57945

>  <SCORE.INTRA.VDW.0>
-0.0211724

>  <SCORE.INTRA.norm>
-0.00741207

>  <SCORE.RESTR>
0.877419

>  <SCORE.RESTR.CAVITY>
0.877419

>  <SCORE.RESTR.norm>
0.032497

>  <SCORE.SYSTEM>
0

>  <SCORE.SYSTEM.CONST>
0

>  <SCORE.SYSTEM.DIHEDRAL>
0

>  <SCORE.SYSTEM.SOLV>
0

>  <SCORE.SYSTEM.norm>
0

>  <SCORE.heavy>
27

>  <SCORE.norm>
-0.443853

>  <RMSD>
1.405

$$$$
ligand
 OpenBabel11021811483D
libRbt.so/2013.1/901 2013/11/27
 27 29  0  0  0  0  0  0  0  0999 V2000
   45.8115   55.6508   27.7893 N   0  0  0  0  0  0  0  0  0  0  0  0
   46.3486   56.7728   28.5497 C   0  0  2  0  0  0  0  0  0  0  0  0
   46.2804   58.0537   27.7347 C   0  0  0  0  0  0  0  0  0  0  0  0
   45.6938   59.0397   28.1746 O   0  0  0  0  0  0  0  0  0  0  0  0
   47.7818   56.5131   29.0116 C   0  0  0  0  0  0  0  0  0  0  0  0
   47.9092   55.5718   30.2034 C   0  0  0  0  0  0  0  0  0  0  0  0
   49.6097   55.0695   30.5873 S   0  0  2  0  0  0  0  0  0  0  0  0
   50.0577   54.1694   29.0826 C   0  0  0  0  0  0  0  0  0  0  0  0
   49.2930   53.6890   31.7176 C   0  0  0  0  0  0  0  0  0  0  0  0
   49.2086   54.2040   33.1466 C   0  0  1  0  0  0  0  0  0  0  0  0
   49.6638   55.5355   33.1617 O   0  0  0  0  0  0  0  0  0  0  0  0
   47.8041   54.2632   33.7128 C   0  0  1  0  0  0  0  0  0  0  0  0
   47.5434   53.1222   34.4932 O   0  0  0  0  0  0  0  0  0  0  0  0
   47.8190   55.5131   34.5742 C   0  0  1  0  0  0  0  0  0  0  0  0
   47.8796   55.1412   35.9308 O   0  0  0  0  0  0  0  0  0  0  0  0
   49.0743   56.2872   34.1917 C   0  0  2  0  0  0  0  0  0  0  0  0
   46.8137   58.1257   26.6270 O   0  0  0  0  0  0  0  0  0  0  0  0
   45.1284   59.2967   32.4435 N   0  0  0  0  0  0  0  0  0  0  0  0
   45.0732   57.9981   32.9077 C   0  0  0  0  0  0  0  0  0  0  0  0
   46.2229   57.3562   33.3301 N   0  0  0  0  0  0  0  0  0  0  0  0
   47.4167   57.9876   33.2869 C   0  0  0  0  0  0  0  0  0  0  0  0
   47.4945   59.2952   32.8309 C   0  0  0  0  0  0  0  0  0  0  0  0
   46.3423   59.9493   32.4026 C   0  0  0  0  0  0  0  0  0  0  0  0
   46.3989   61.2013   31.9557 N   0  0  0  0  0  0  0  0  0  0  0  0
   48.7885   59.6788   32.9057 N   0  0  0  0  0  0  0  0  0  0  0  0
   49.5193   58.6561   33.4082 C   0  0  0  0  0  0  0  0  0  0  0  0
   48.6815   57.5989   33.6496 N   0  0  0  0  0  0  0  0  0  0  0  0
  2  1  1  6  0  0  0
  2  3  1  0  0  0  0
  2  5  1  0  0  0  0
  3  4  1  0  0  0  0
  3 17  1  0  0  0  0
  5  6  1  0  0  0  0
  7  6  1  6  0  0  0
  7  8  1  0  0  0  0
  7  9  1  0  0  0  0
 10  9  1  6  0  0  0
 10 11  1  0  0  0  0
 10 12  1  0  0  0  0
 11 16  1  0  0  0  0
 12 13  1  1  0  0  0
 12 14  1  0  0  0  0
 14 15  1  1  0  0  0
 14 16  1  0  0  0  0
 16 27  1  6  0  0  0
 18 19  2  0  0  0  0
 18 23  1  0  0  0  0
 19 20  1  0  0  0  0
 20 21  2  0  0  0  0
 21 22  1  0  0  0  0
 21 27  1  0  0  0  0
 22 23  2  0  0  0  0
 22 25  1  0  0  0  0
 23 24  1  0  0  0  0
 25 26  2  0  0  0  0
 26 27  1  0  0  0  0
M  END
>  <CHROM.1>
123.89264552,-76.75909016,171.15811660,-63.18287610,-89.54003522,-11.49720154
101.73174010,47.72595763,56.73476044,31.68289127,-2.36987657,-1.10349146
1.34377985

>  <Name>
ligand

>  <RI>
0

>  <Rbt.Current_Directory>
/home/itssahil/PROJECTS/Mol_Feturizer/New_Systems/rnas/3GX7

>  <Rbt.Executable>
rbdock ($Id: //depot/dev/client3/rdock/2013.1/src/exe/rbdock.cxx#4 $)

>  <Rbt.Library>
libRbt.so (2013.1, Build901 2013/11/27)

>  <Rbt.Parameter_File>
/export/apps/rDock/src/rDock_2013.1_src/data/scripts/dock_solv.prm

>  <Rbt.Receptor>
prm/pocket_docking_2.prm

>  <SCORE>
-14.99

>  <SCORE.INTER>
-13.7741

>  <SCORE.INTER.CONST>
1

>  <SCORE.INTER.POLAR>
0

>  <SCORE.INTER.ROT>
7

>  <SCORE.INTER.SOLV>
19.8078

>  <SCORE.INTER.VDW>
-24.052

>  <SCORE.INTER.norm>
-0.510152

>  <SCORE.INTRA>
-1.88414

>  <SCORE.INTRA.DIHEDRAL>
-0.675344

>  <SCORE.INTRA.DIHEDRAL.0>
11.2699

>  <SCORE.INTRA.POLAR>
0

>  <SCORE.INTRA.POLAR.0>
0

>  <SCORE.INTRA.REPUL>
0

>  <SCORE.INTRA.REPUL.0>
0

>  <SCORE.INTRA.SOLV>
-0.283218

>  <SCORE.INTRA.SOLV.lig_0>
-48.6447

>  <SCORE.INTRA.VDW>
-1.40486

>  <SCORE.INTRA.VDW.0>
-0.0211724

>  <SCORE.INTRA.norm>
-0.0697831

>  <SCORE.RESTR>
0.668288

>  <SCORE.RESTR.CAVITY>
0.668288

>  <SCORE.RESTR.norm>
0.0247514

>  <SCORE.SYSTEM>
0

>  <SCORE.SYSTEM.CONST>
0

>  <SCORE.SYSTEM.DIHEDRAL>
0

>  <SCORE.SYSTEM.SOLV>
0

>  <SCORE.SYSTEM.norm>
0

>  <SCORE.heavy>
27

>  <SCORE.norm>
-0.555184

>  <RMSD>
1.412

$$$$
ligand
 OpenBabel11021811483D
libRbt.so/2013.1/901 2013/11/27
 27 29  0  0  0  0  0  0  0  0999 V2000
   48.1903   55.5878   27.0073 N   0  0  0  0  0  0  0  0  0  0  0  0
   46.8327   55.6988   27.5271 C   0  0  2  0  0  0  0  0  0  0  0  0
   46.6554   57.0028   28.2874 C   0  0  0  0  0  0  0  0  0  0  0  0
   45.5302   57.4357   28.5248 O   0  0  0  0  0  0  0  0  0  0  0  0
   46.4649   54.5117   28.4161 C   0  0  0  0  0  0  0  0  0  0  0  0
   47.6163   53.9496   29.2413 C   0  0  0  0  0  0  0  0  0  0  0  0
   48.0860   54.9664   30.6685 S   0  0  2  0  0  0  0  0  0  0  0  0
   49.5327   55.8373   30.0177 C   0  0  0  0  0  0  0  0  0  0  0  0
   48.8900   53.7173   31.7063 C   0  0  0  0  0  0  0  0  0  0  0  0
   49.1369   54.2855   33.0959 C   0  0  1  0  0  0  0  0  0  0  0  0
   49.6627   55.5831   32.9532 O   0  0  0  0  0  0  0  0  0  0  0  0
   47.8880   54.4586   33.9365 C   0  0  1  0  0  0  0  0  0  0  0  0
   47.7297   53.3651   34.8073 O   0  0  0  0  0  0  0  0  0  0  0  0
   48.1562   55.7334   34.7158 C   0  0  1  0  0  0  0  0  0  0  0  0
   48.4774   55.4049   36.0468 O   0  0  0  0  0  0  0  0  0  0  0  0
   49.3470   56.4076   34.0459 C   0  0  2  0  0  0  0  0  0  0  0  0
   47.6321   57.6416   28.6804 O   0  0  0  0  0  0  0  0  0  0  0  0
   45.4303   59.2600   31.9947 N   0  0  0  0  0  0  0  0  0  0  0  0
   45.4149   57.9329   32.3735 C   0  0  0  0  0  0  0  0  0  0  0  0
   46.5494   57.3415   32.8985 N   0  0  0  0  0  0  0  0  0  0  0  0
   47.6902   58.0513   33.0404 C   0  0  0  0  0  0  0  0  0  0  0  0
   47.7264   59.3883   32.6730 C   0  0  0  0  0  0  0  0  0  0  0  0
   46.5893   59.9921   32.1427 C   0  0  0  0  0  0  0  0  0  0  0  0
   46.6074   61.2717   31.7786 N   0  0  0  0  0  0  0  0  0  0  0  0
   48.9704   59.8503   32.9302 N   0  0  0  0  0  0  0  0  0  0  0  0
   49.7084   58.8469   33.4606 C   0  0  0  0  0  0  0  0  0  0  0  0
   48.9273   57.7235   33.5350 N   0  0  0  0  0  0  0  0  0  0  0  0
  2  1  1  1  0  0  0
  2  3  1  0  0  0  0
  2  5  1  0  0  0  0
  3  4  1  0  0  0  0
  3 17  1  0  0  0  0
  5  6  1  0  0  0  0
  7  6  1  6  0  0  0
  7  8  1  0  0  0  0
  7  9  1  0  0  0  0
 10  9  1  6  0  0  0
 10 11  1  0  0  0  0
 10 12  1  0  0  0  0
 11 16  1  0  0  0  0
 12 13  1  1  0  0  0
 12 14  1  0  0  0  0
 14 15  1  1  0  0  0
 14 16  1  0  0  0  0
 16 27  1  6  0  0  0
 18 19  2  0  0  0  0
 18 23  1  0  0  0  0
 19 20  1  0  0  0  0
 20 21  2  0  0  0  0
 21 22  1  0  0  0  0
 21 27  1  0  0  0  0
 22 23  2  0  0  0  0
 22 25  1  0  0  0  0
 23 24  1  0  0  0  0
 25 26  2  0  0  0  0
 26 27  1  0  0  0  0
M  END
>  <CHROM.1>
162.55554270,34.42886725,74.96338808,-99.76116858,-169.10431473,-44.90077255
80.37640394,47.78583616,56.56997580,31.66083028,-2.29626426,-1.22729497,0.82237854

>  <Name>
ligand

>  <RI>
0

>  <Rbt.Current_Directory>
/home/itssahil/PROJECTS/Mol_Feturizer/New_Systems/rnas/3GX7

>  <Rbt.Executable>
rbdock ($Id: //depot/dev/client3/rdock/2013.1/src/exe/rbdock.cxx#4 $)

>  <Rbt.Library>
libRbt.so (2013.1, Build901 2013/11/27)

>  <Rbt.Parameter_File>
/export/apps/rDock/src/rDock_2013.1_src/data/scripts/dock_solv.prm

>  <Rbt.Receptor>
prm/pocket_docking_2.prm

>  <SCORE>
-15.2037

>  <SCORE.INTER>
-12.0546

>  <SCORE.INTER.CONST>
1

>  <SCORE.INTER.POLAR>
0

>  <SCORE.INTER.ROT>
7

>  <SCORE.INTER.SOLV>
17.0224

>  <SCORE.INTER.VDW>
-21.9772

>  <SCORE.INTER.norm>
-0.446468

>  <SCORE.INTRA>
-3.1715

>  <SCORE.INTRA.DIHEDRAL>
-0.952774

>  <SCORE.INTRA.DIHEDRAL.0>
11.2699

>  <SCORE.INTRA.POLAR>
0

>  <SCORE.INTRA.POLAR.0>
0

>  <SCORE.INTRA.REPUL>
0

>  <SCORE.INTRA.REPUL.0>
0

>  <SCORE.INTRA.SOLV>
1.7751

>  <SCORE.INTRA.SOLV.lig_0>
-48.6447

>  <SCORE.INTRA.VDW>
-3.58266

>  <SCORE.INTRA.VDW.0>
-0.0211724

>  <SCORE.INTRA.norm>
-0.117463

>  <SCORE.RESTR>
0.0224647

>  <SCORE.RESTR.CAVITY>
0.0224647

>  <SCORE.RESTR.norm>
0.000832025

>  <SCORE.SYSTEM>
0

>  <SCORE.SYSTEM.CONST>
0

>  <SCORE.SYSTEM.DIHEDRAL>
0

>  <SCORE.SYSTEM.SOLV>
0

>  <SCORE.SYSTEM.norm>
0

>  <SCORE.heavy>
27

>  <SCORE.norm>
-0.563099

>  <RMSD>
1.438

$$$$
ligand
 OpenBabel11021811483D
libRbt.so/2013.1/901 2013/11/27
 27 29  0  0  0  0  0  0  0  0999 V2000
   48.6769   55.4710   26.9550 N   0  0  0  0  0  0  0  0  0  0  0  0
   47.2516   55.3417   27.2332 C   0  0  2  0  0  0  0  0  0  0  0  0
   46.7161   56.6064   27.8838 C   0  0  0  0  0  0  0  0  0  0  0  0
   47.4849   57.4996   28.2319 O   0  0  0  0  0  0  0  0  0  0  0  0
   46.9507   54.1260   28.1086 C   0  0  0  0  0  0  0  0  0  0  0  0
   48.0694   53.7350   29.0669 C   0  0  0  0  0  0  0  0  0  0  0  0
   48.2070   54.7925   30.5346 S   0  0  2  0  0  0  0  0  0  0  0  0
   49.4610   55.9804   29.9948 C   0  0  0  0  0  0  0  0  0  0  0  0
   49.2017   53.7263   31.6106 C   0  0  0  0  0  0  0  0  0  0  0  0
   49.2025   54.2829   33.0265 C   0  0  1  0  0  0  0  0  0  0  0  0
   49.6601   55.6127   32.9760 O   0  0  0  0  0  0  0  0  0  0  0  0
   47.8339   54.3634   33.6723 C   0  0  1  0  0  0  0  0  0  0  0  0
   47.6176   53.2463   34.4995 O   0  0  0  0  0  0  0  0  0  0  0  0
   47.9017   55.6376   34.4945 C   0  0  1  0  0  0  0  0  0  0  0  0
   48.0414   55.3050   35.8555 O   0  0  0  0  0  0  0  0  0  0  0  0
   49.1336   56.3959   34.0165 C   0  0  2  0  0  0  0  0  0  0  0  0
   45.5080   56.7584   28.0675 O   0  0  0  0  0  0  0  0  0  0  0  0
   45.0993   59.3590   32.3952 N   0  0  0  0  0  0  0  0  0  0  0  0
   45.0696   58.0733   32.8964 C   0  0  0  0  0  0  0  0  0  0  0  0
   46.2404   57.4426   33.2757 N   0  0  0  0  0  0  0  0  0  0  0  0
   47.4296   58.0721   33.1536 C   0  0  0  0  0  0  0  0  0  0  0  0
   47.4824   59.3669   32.6591 C   0  0  0  0  0  0  0  0  0  0  0  0
   46.3089   60.0097   32.2738 C   0  0  0  0  0  0  0  0  0  0  0  0
   46.3410   61.2492   31.7911 N   0  0  0  0  0  0  0  0  0  0  0  0
   48.7781   59.7519   32.6564 N   0  0  0  0  0  0  0  0  0  0  0  0
   49.5351   58.7427   33.1476 C   0  0  0  0  0  0  0  0  0  0  0  0
   48.7120   57.6928   33.4605 N   0  0  0  0  0  0  0  0  0  0  0  0
  2  1  1  1  0  0  0
  2  3  1  0  0  0  0
  2  5  1  0  0  0  0
  3  4  1  0  0  0  0
  3 17  1  0  0  0  0
  5  6  1  0  0  0  0
  7  6  1  6  0  0  0
  7  8  1  0  0  0  0
  7  9  1  0  0  0  0
 10  9  1  6  0  0  0
 10 11  1  0  0  0  0
 10 12  1  0  0  0  0
 11 16  1  0  0  0  0
 12 13  1  1  0  0  0
 12 14  1  0  0  0  0
 14 15  1  1  0  0  0
 14 16  1  0  0  0  0
 16 27  1  6  0  0  0
 18 19  2  0  0  0  0
 18 23  1  0  0  0  0
 19 20  1  0  0  0  0
 20 21  2  0  0  0  0
 21 22  1  0  0  0  0
 21 27  1  0  0  0  0
 22 23  2  0  0  0  0
 22 25  1  0  0  0  0
 23 24  1  0  0  0  0
 25 26  2  0  0  0  0
 26 27  1  0  0  0  0
M  END
>  <CHROM.1>
-7.62094746,29.76349983,76.74824853,-94.64621299,-167.97712726,-55.66984718
101.28372199,47.73925361,56.46685388,31.55737563,1.65291079,1.20287685,-1.98800697

>  <Name>
ligand

>  <RI>
0

>  <Rbt.Current_Directory>
/home/itssahil/PROJECTS/Mol_Feturizer/New_Systems/rnas/3GX7

>  <Rbt.Executable>
rbdock ($Id: //depot/dev/client3/rdock/2013.1/src/exe/rbdock.cxx#4 $)

>  <Rbt.Library>
libRbt.so (2013.1, Build901 2013/11/27)

>  <Rbt.Parameter_File>
/export/apps/rDock/src/rDock_2013.1_src/data/scripts/dock_solv.prm

>  <Rbt.Receptor>
prm/pocket_docking_2.prm

>  <SCORE>
-15.0528

>  <SCORE.INTER>
-13.0331

>  <SCORE.INTER.CONST>
1

>  <SCORE.INTER.POLAR>
0

>  <SCORE.INTER.ROT>
7

>  <SCORE.INTER.SOLV>
16.403

>  <SCORE.INTER.VDW>
-22.423

>  <SCORE.INTER.norm>
-0.482706

>  <SCORE.INTRA>
-2.01975

>  <SCORE.INTRA.DIHEDRAL>
-1.23071

>  <SCORE.INTRA.DIHEDRAL.0>
11.2699

>  <SCORE.INTRA.POLAR>
0

>  <SCORE.INTRA.POLAR.0>
0

>  <SCORE.INTRA.REPUL>
0

>  <SCORE.INTRA.REPUL.0>
0

>  <SCORE.INTRA.SOLV>
1.8978

>  <SCORE.INTRA.SOLV.lig_0>
-48.6447

>  <SCORE.INTRA.VDW>
-2.3533

>  <SCORE.INTRA.VDW.0>
-0.0211724

>  <SCORE.INTRA.norm>
-0.0748057

>  <SCORE.RESTR>
0

>  <SCORE.RESTR.CAVITY>
0

>  <SCORE.RESTR.norm>
0

>  <SCORE.SYSTEM>
0

>  <SCORE.SYSTEM.CONST>
0

>  <SCORE.SYSTEM.DIHEDRAL>
0

>  <SCORE.SYSTEM.SOLV>
0

>  <SCORE.SYSTEM.norm>
0

>  <SCORE.heavy>
27

>  <SCORE.norm>
-0.557512

>  <RMSD>
1.446

$$$$
ligand
 OpenBabel11021811483D
libRbt.so/2013.1/901 2013/11/27
 27 29  0  0  0  0  0  0  0  0999 V2000
   47.3525   58.4974   27.4664 N   0  0  0  0  0  0  0  0  0  0  0  0
   47.4859   57.1869   28.0912 C   0  0  2  0  0  0  0  0  0  0  0  0
   46.4825   56.2087   27.5031 C   0  0  0  0  0  0  0  0  0  0  0  0
   45.2860   56.4871   27.4754 O   0  0  0  0  0  0  0  0  0  0  0  0
   47.3278   57.2614   29.6092 C   0  0  0  0  0  0  0  0  0  0  0  0
   47.7739   56.0129   30.3608 C   0  0  0  0  0  0  0  0  0  0  0  0
   49.5583   55.6923   30.2951 S   0  0  2  0  0  0  0  0  0  0  0  0
   49.7119   54.8933   28.6787 C   0  0  0  0  0  0  0  0  0  0  0  0
   49.6696   54.2518   31.3889 C   0  0  0  0  0  0  0  0  0  0  0  0
   49.4127   54.6774   32.8268 C   0  0  1  0  0  0  0  0  0  0  0  0
   49.7588   56.0357   32.9517 O   0  0  0  0  0  0  0  0  0  0  0  0
   47.9615   54.6014   33.2563 C   0  0  1  0  0  0  0  0  0  0  0  0
   47.7196   53.4019   33.9504 O   0  0  0  0  0  0  0  0  0  0  0  0
   47.7982   55.7981   34.1758 C   0  0  1  0  0  0  0  0  0  0  0  0
   47.7615   55.3554   35.5119 O   0  0  0  0  0  0  0  0  0  0  0  0
   49.0191   56.6826   33.9555 C   0  0  2  0  0  0  0  0  0  0  0  0
   46.8509   55.1279   27.0422 O   0  0  0  0  0  0  0  0  0  0  0  0
   44.9546   59.5938   32.3159 N   0  0  0  0  0  0  0  0  0  0  0  0
   44.9477   58.2858   32.7562 C   0  0  0  0  0  0  0  0  0  0  0  0
   46.1232   57.6740   33.1515 N   0  0  0  0  0  0  0  0  0  0  0  0
   47.2952   58.3446   33.1047 C   0  0  0  0  0  0  0  0  0  0  0  0
   47.3246   59.6622   32.6724 C   0  0  0  0  0  0  0  0  0  0  0  0
   46.1462   60.2862   32.2716 C   0  0  0  0  0  0  0  0  0  0  0  0
   46.1562   61.5474   31.8476 N   0  0  0  0  0  0  0  0  0  0  0  0
   48.6064   60.0863   32.7376 N   0  0  0  0  0  0  0  0  0  0  0  0
   49.3767   59.0788   33.2112 C   0  0  0  0  0  0  0  0  0  0  0  0
   48.5768   57.9906   33.4435 N   0  0  0  0  0  0  0  0  0  0  0  0
  2  1  1  6  0  0  0
  2  3  1  0  0  0  0
  2  5  1  0  0  0  0
  3  4  1  0  0  0  0
  3 17  1  0  0  0  0
  5  6  1  0  0  0  0
  7  6  1  6  0  0  0
  7  8  1  0  0  0  0
  7  9  1  0  0  0  0
 10  9  1  6  0  0  0
 10 11  1  0  0  0  0
 10 12  1  0  0  0  0
 11 16  1  0  0  0  0
 12 13  1  1  0  0  0
 12 14  1  0  0  0  0
 14 15  1  1  0  0  0
 14 16  1  0  0  0  0
 16 27  1  6  0  0  0
 18 19  2  0  0  0  0
 18 23  1  0  0  0  0
 19 20  1  0  0  0  0
 20 21  2  0  0  0  0
 21 22  1  0  0  0  0
 21 27  1  0  0  0  0
 22 23  2  0  0  0  0
 22 25  1  0  0  0  0
 23 24  1  0  0  0  0
 25 26  2  0  0  0  0
 26 27  1  0  0  0  0
M  END
>  <CHROM.1>
-53.46369651,-166.23972820,67.16302765,-81.33877102,-70.42679781,-25.93797064
108.72075463,47.74875605,56.91659297,31.46441005,1.77105623,1.08322110,-1.90144709

>  <Name>
ligand

>  <RI>
0

>  <Rbt.Current_Directory>
/home/itssahil/PROJECTS/Mol_Feturizer/New_Systems/rnas/3GX7

>  <Rbt.Executable>
rbdock ($Id: //depot/dev/client3/rdock/2013.1/src/exe/rbdock.cxx#4 $)

>  <Rbt.Library>
libRbt.so (2013.1, Build901 2013/11/27)

>  <Rbt.Parameter_File>
/export/apps/rDock/src/rDock_2013.1_src/data/scripts/dock_solv.prm

>  <Rbt.Receptor>
prm/pocket_docking_3.prm

>  <SCORE>
-18.3224

>  <SCORE.INTER>
-13.677

>  <SCORE.INTER.CONST>
1

>  <SCORE.INTER.POLAR>
0

>  <SCORE.INTER.ROT>
7

>  <SCORE.INTER.SOLV>
22.0014

>  <SCORE.INTER.VDW>
-24.7185

>  <SCORE.INTER.norm>
-0.506556

>  <SCORE.INTRA>
-4.64536

>  <SCORE.INTRA.DIHEDRAL>
-3.55403

>  <SCORE.INTRA.DIHEDRAL.0>
11.2699

>  <SCORE.INTRA.POLAR>
0

>  <SCORE.INTRA.POLAR.0>
0

>  <SCORE.INTRA.REPUL>
0

>  <SCORE.INTRA.REPUL.0>
0

>  <SCORE.INTRA.SOLV>
-0.430215

>  <SCORE.INTRA.SOLV.lig_0>
-48.6447

>  <SCORE.INTRA.VDW>
-2.65324

>  <SCORE.INTRA.VDW.0>
-0.0211724

>  <SCORE.INTRA.norm>
-0.17205

>  <SCORE.RESTR>
0

>  <SCORE.RESTR.CAVITY>
0

>  <SCORE.RESTR.norm>
0

>  <SCORE.SYSTEM>
0

>  <SCORE.SYSTEM.CONST>
0

>  <SCORE.SYSTEM.DIHEDRAL>
0

>  <SCORE.SYSTEM.SOLV>
0

>  <SCORE.SYSTEM.norm>
0

>  <SCORE.heavy>
27

>  <SCORE.norm>
-0.678607

>  <RMSD>
1.456

$$$$
ligand
 OpenBabel11021811483D
libRbt.so/2013.1/901 2013/11/27
 27 29  0  0  0  0  0  0  0  0999 V2000
   45.4740   55.8907   27.8623 N   0  0  0  0  0  0  0  0  0  0  0  0
   46.9045   56.0797   28.0707 C   0  0  2  0  0  0  0  0  0  0  0  0
   47.4518   57.1248   27.1127 C   0  0  0  0  0  0  0  0  0  0  0  0
   47.2812   57.0075   25.9015 O   0  0  0  0  0  0  0  0  0  0  0  0
   47.6785   54.7701   27.9265 C   0  0  0  0  0  0  0  0  0  0  0  0
   47.7422   53.9221   29.1912 C   0  0  0  0  0  0  0  0  0  0  0  0
   48.0320   54.8635   30.7147 S   0  0  2  0  0  0  0  0  0  0  0  0
   49.5371   55.7717   30.2850 C   0  0  0  0  0  0  0  0  0  0  0  0
   48.7200   53.5636   31.7734 C   0  0  0  0  0  0  0  0  0  0  0  0
   48.8955   54.0932   33.1889 C   0  0  1  0  0  0  0  0  0  0  0  0
   49.4287   55.3930   33.1090 O   0  0  0  0  0  0  0  0  0  0  0  0
   47.6051   54.2458   33.9686 C   0  0  1  0  0  0  0  0  0  0  0  0
   47.4016   53.1292   34.7998 O   0  0  0  0  0  0  0  0  0  0  0  0
   47.8337   55.4982   34.7953 C   0  0  1  0  0  0  0  0  0  0  0  0
   48.0858   55.1329   36.1316 O   0  0  0  0  0  0  0  0  0  0  0  0
   49.0577   56.1881   34.2061 C   0  0  2  0  0  0  0  0  0  0  0  0
   48.0682   58.1045   27.5329 O   0  0  0  0  0  0  0  0  0  0  0  0
   45.1359   59.2211   32.4444 N   0  0  0  0  0  0  0  0  0  0  0  0
   45.0833   57.9014   32.8450 C   0  0  0  0  0  0  0  0  0  0  0  0
   46.2256   57.2565   33.2825 N   0  0  0  0  0  0  0  0  0  0  0  0
   47.4100   57.9059   33.3163 C   0  0  0  0  0  0  0  0  0  0  0  0
   47.4848   59.2345   32.9251 C   0  0  0  0  0  0  0  0  0  0  0  0
   46.3401   59.8919   32.4823 C   0  0  0  0  0  0  0  0  0  0  0  0
   46.3942   61.1641   32.0967 N   0  0  0  0  0  0  0  0  0  0  0  0
   48.7686   59.6322   33.0691 N   0  0  0  0  0  0  0  0  0  0  0  0
   49.4955   58.5973   33.5522 C   0  0  0  0  0  0  0  0  0  0  0  0
   48.6657   57.5183   33.7106 N   0  0  0  0  0  0  0  0  0  0  0  0
  2  1  1  6  0  0  0
  2  3  1  0  0  0  0
  2  5  1  0  0  0  0
  3  4  1  0  0  0  0
  3 17  1  0  0  0  0
  5  6  1  0  0  0  0
  7  6  1  6  0  0  0
  7  8  1  0  0  0  0
  7  9  1  0  0  0  0
 10  9  1  6  0  0  0
 10 11  1  0  0  0  0
 10 12  1  0  0  0  0
 11 16  1  0  0  0  0
 12 13  1  1  0  0  0
 12 14  1  0  0  0  0
 14 15  1  1  0  0  0
 14 16  1  0  0  0  0
 16 27  1  6  0  0  0
 18 19  2  0  0  0  0
 18 23  1  0  0  0  0
 19 20  1  0  0  0  0
 20 21  2  0  0  0  0
 21 22  1  0  0  0  0
 21 27  1  0  0  0  0
 22 23  2  0  0  0  0
 22 25  1  0  0  0  0
 23 24  1  0  0  0  0
 25 26  2  0  0  0  0
 26 27  1  0  0  0  0
M  END
>  <CHROM.1>
-54.59456561,-85.31879780,-41.63635057,-54.21807990,-173.37036520,-42.67720112
89.04830794,47.67876307,56.48879830,31.63441231,-1.96235282,-1.30112635,1.23509487

>  <Name>
ligand

>  <RI>
0

>  <Rbt.Current_Directory>
/home/itssahil/PROJECTS/Mol_Feturizer/New_Systems/rnas/3GX7

>  <Rbt.Executable>
rbdock ($Id: //depot/dev/client3/rdock/2013.1/src/exe/rbdock.cxx#4 $)

>  <Rbt.Library>
libRbt.so (2013.1, Build901 2013/11/27)

>  <Rbt.Parameter_File>
/export/apps/rDock/src/rDock_2013.1_src/data/scripts/dock_solv.prm

>  <Rbt.Receptor>
prm/pocket_docking_2.prm

>  <SCORE>
-16.4213

>  <SCORE.INTER>
-13.6079

>  <SCORE.INTER.CONST>
1

>  <SCORE.INTER.POLAR>
0

>  <SCORE.INTER.ROT>
7

>  <SCORE.INTER.SOLV>
19.3683

>  <SCORE.INTER.VDW>
-23.7947

>  <SCORE.INTER.norm>
-0.503998

>  <SCORE.INTRA>
-2.86777

>  <SCORE.INTRA.DIHEDRAL>
-2.48787

>  <SCORE.INTRA.DIHEDRAL.0>
11.2699

>  <SCORE.INTRA.POLAR>
0

>  <SCORE.INTRA.POLAR.0>
0

>  <SCORE.INTRA.REPUL>
0

>  <SCORE.INTRA.REPUL.0>
0

>  <SCORE.INTRA.SOLV>
0.200343

>  <SCORE.INTRA.SOLV.lig_0>
-48.6447

>  <SCORE.INTRA.VDW>
-1.72401

>  <SCORE.INTRA.VDW.0>
-0.0211724

>  <SCORE.INTRA.norm>
-0.106214

>  <SCORE.RESTR>
0.0544082

>  <SCORE.RESTR.CAVITY>
0.0544082

>  <SCORE.RESTR.norm>
0.00201512

>  <SCORE.SYSTEM>
0

>  <SCORE.SYSTEM.CONST>
0

>  <SCORE.SYSTEM.DIHEDRAL>
0

>  <SCORE.SYSTEM.SOLV>
0

>  <SCORE.SYSTEM.norm>
0

>  <SCORE.heavy>
27

>  <SCORE.norm>
-0.608196

>  <RMSD>
1.476

$$$$
ligand
 OpenBabel11021811483D
libRbt.so/2013.1/901 2013/11/27
 27 29  0  0  0  0  0  0  0  0999 V2000
   46.9153   57.7354   27.6066 N   0  0  0  0  0  0  0  0  0  0  0  0
   47.3134   56.8995   28.7328 C   0  0  2  0  0  0  0  0  0  0  0  0
   48.8130   56.9894   28.9624 C   0  0  0  0  0  0  0  0  0  0  0  0
   49.5821   57.0994   28.0104 O   0  0  0  0  0  0  0  0  0  0  0  0
   46.8924   55.4437   28.5377 C   0  0  0  0  0  0  0  0  0  0  0  0
   46.7754   54.6338   29.8234 C   0  0  0  0  0  0  0  0  0  0  0  0
   48.3517   54.0000   30.4597 S   0  0  2  0  0  0  0  0  0  0  0  0
   48.5433   52.4899   29.4811 C   0  0  0  0  0  0  0  0  0  0  0  0
   47.8066   53.3033   32.0412 C   0  0  0  0  0  0  0  0  0  0  0  0
   48.5288   53.9990   33.1854 C   0  0  1  0  0  0  0  0  0  0  0  0
   49.0589   55.2087   32.6996 O   0  0  0  0  0  0  0  0  0  0  0  0
   47.6363   54.3987   34.3430 C   0  0  1  0  0  0  0  0  0  0  0  0
   47.7033   53.4360   35.3666 O   0  0  0  0  0  0  0  0  0  0  0  0
   48.2233   55.7196   34.8067 C   0  0  1  0  0  0  0  0  0  0  0  0
   48.9405   55.5152   36.0010 O   0  0  0  0  0  0  0  0  0  0  0  0
   49.1695   56.1826   33.7060 C   0  0  2  0  0  0  0  0  0  0  0  0
   49.2796   56.9584   30.1016 O   0  0  0  0  0  0  0  0  0  0  0  0
   44.9806   59.1249   32.4895 N   0  0  0  0  0  0  0  0  0  0  0  0
   45.0065   57.8521   33.0227 C   0  0  0  0  0  0  0  0  0  0  0  0
   46.2120   57.2251   33.2794 N   0  0  0  0  0  0  0  0  0  0  0  0
   47.3804   57.8455   33.0048 C   0  0  0  0  0  0  0  0  0  0  0  0
   47.3782   59.1276   32.4754 C   0  0  0  0  0  0  0  0  0  0  0  0
   46.1693   59.7665   32.2127 C   0  0  0  0  0  0  0  0  0  0  0  0
   46.1477   60.9936   31.6987 N   0  0  0  0  0  0  0  0  0  0  0  0
   48.6656   59.5059   32.3130 N   0  0  0  0  0  0  0  0  0  0  0  0
   49.4724   58.5054   32.7382 C   0  0  0  0  0  0  0  0  0  0  0  0
   48.6889   57.4675   33.1704 N   0  0  0  0  0  0  0  0  0  0  0  0
  2  1  1  6  0  0  0
  2  3  1  0  0  0  0
  2  5  1  0  0  0  0
  3  4  1  0  0  0  0
  3 17  1  0  0  0  0
  5  6  1  0  0  0  0
  7  6  1  6  0  0  0
  7  8  1  0  0  0  0
  7  9  1  0  0  0  0
 10  9  1  6  0  0  0
 10 11  1  0  0  0  0
 10 12  1  0  0  0  0
 11 16  1  0  0  0  0
 12 13  1  1  0  0  0
 12 14  1  0  0  0  0
 14 15  1  1  0  0  0
 14 16  1  0  0  0  0
 16 27  1  6  0  0  0
 18 19  2  0  0  0  0
 18 23  1  0  0  0  0
 19 20  1  0  0  0  0
 20 21  2  0  0  0  0
 21 22  1  0  0  0  0
 21 27  1  0  0  0  0
 22 23  2  0  0  0  0
 22 25  1  0  0  0  0
 23 24  1  0  0  0  0
 25 26  2  0  0  0  0
 26 27  1  0  0  0  0
M  END
>  <CHROM.1>
-35.51991306,-157.64792484,-81.26396228,-83.48405945,-119.49883836,17.96644985
77.84296073,47.82962053,56.37751907,31.78493103,-2.12943434,-1.30397279,1.65345896

>  <Name>
ligand

>  <RI>
0

>  <Rbt.Current_Directory>
/home/itssahil/PROJECTS/Mol_Feturizer/New_Systems/rnas/3GX7

>  <Rbt.Executable>
rbdock ($Id: //depot/dev/client3/rdock/2013.1/src/exe/rbdock.cxx#4 $)

>  <Rbt.Library>
libRbt.so (2013.1, Build901 2013/11/27)

>  <Rbt.Parameter_File>
/export/apps/rDock/src/rDock_2013.1_src/data/scripts/dock_solv.prm

>  <Rbt.Receptor>
prm/pocket_docking_2.prm

>  <SCORE>
-13.8803

>  <SCORE.INTER>
-11.804

>  <SCORE.INTER.CONST>
1

>  <SCORE.INTER.POLAR>
0

>  <SCORE.INTER.ROT>
7

>  <SCORE.INTER.SOLV>
17.6436

>  <SCORE.INTER.VDW>
-22.0172

>  <SCORE.INTER.norm>
-0.437184

>  <SCORE.INTRA>
-2.10406

>  <SCORE.INTRA.DIHEDRAL>
4.07696

>  <SCORE.INTRA.DIHEDRAL.0>
11.2699

>  <SCORE.INTRA.POLAR>
0

>  <SCORE.INTRA.POLAR.0>
0

>  <SCORE.INTRA.REPUL>
0

>  <SCORE.INTRA.REPUL.0>
0

>  <SCORE.INTRA.SOLV>
-0.789846

>  <SCORE.INTRA.SOLV.lig_0>
-48.6447

>  <SCORE.INTRA.VDW>
-3.74762

>  <SCORE.INTRA.VDW.0>
-0.0211724

>  <SCORE.INTRA.norm>
-0.0779283

>  <SCORE.RESTR>
0.027731

>  <SCORE.RESTR.CAVITY>
0.027731

>  <SCORE.RESTR.norm>
0.00102707

>  <SCORE.SYSTEM>
0

>  <SCORE.SYSTEM.CONST>
0

>  <SCORE.SYSTEM.DIHEDRAL>
0

>  <SCORE.SYSTEM.SOLV>
0

>  <SCORE.SYSTEM.norm>
0

>  <SCORE.heavy>
27

>  <SCORE.norm>
-0.514086

>  <RMSD>
1.483

$$$$
ligand
 OpenBabel11021811483D
libRbt.so/2013.1/901 2013/11/27
 27 29  0  0  0  0  0  0  0  0999 V2000
   45.7436   55.1229   27.0698 N   0  0  0  0  0  0  0  0  0  0  0  0
   46.3203   56.3648   27.5703 C   0  0  2  0  0  0  0  0  0  0  0  0
   47.1034   57.0708   26.4758 C   0  0  0  0  0  0  0  0  0  0  0  0
   47.2068   58.2952   26.4766 O   0  0  0  0  0  0  0  0  0  0  0  0
   47.2088   56.1285   28.7907 C   0  0  0  0  0  0  0  0  0  0  0  0
   48.3332   55.1218   28.5782 C   0  0  0  0  0  0  0  0  0  0  0  0
   49.5109   55.0075   29.9534 S   0  0  2  0  0  0  0  0  0  0  0  0
   50.5269   53.6046   29.4295 C   0  0  0  0  0  0  0  0  0  0  0  0
   48.4703   54.2136   31.2066 C   0  0  0  0  0  0  0  0  0  0  0  0
   48.8845   54.6856   32.5924 C   0  0  1  0  0  0  0  0  0  0  0  0
   49.3292   56.0167   32.4887 O   0  0  0  0  0  0  0  0  0  0  0  0
   47.7590   54.7260   33.6063 C   0  0  1  0  0  0  0  0  0  0  0  0
   47.7707   53.5618   34.3959 O   0  0  0  0  0  0  0  0  0  0  0  0
   48.0787   55.9496   34.4459 C   0  0  1  0  0  0  0  0  0  0  0  0
   48.5964   55.5374   35.6887 O   0  0  0  0  0  0  0  0  0  0  0  0
   49.1343   56.7365   33.6792 C   0  0  2  0  0  0  0  0  0  0  0  0
   47.6488   56.4300   25.5768 O   0  0  0  0  0  0  0  0  0  0  0  0
   44.9369   59.4661   32.0622 N   0  0  0  0  0  0  0  0  0  0  0  0
   45.0436   58.1065   32.2744 C   0  0  0  0  0  0  0  0  0  0  0  0
   46.2377   57.5564   32.7031 N   0  0  0  0  0  0  0  0  0  0  0  0
   47.3183   58.3401   32.9125 C   0  0  0  0  0  0  0  0  0  0  0  0
   47.2317   59.7100   32.7125 C   0  0  0  0  0  0  0  0  0  0  0  0
   46.0339   60.2727   32.2801 C   0  0  0  0  0  0  0  0  0  0  0  0
   45.9343   61.5838   32.0765 N   0  0  0  0  0  0  0  0  0  0  0  0
   48.4390   60.2435   33.0039 N   0  0  0  0  0  0  0  0  0  0  0  0
   49.2731   59.2510   33.3938 C   0  0  0  0  0  0  0  0  0  0  0  0
   48.5916   58.0633   33.3419 N   0  0  0  0  0  0  0  0  0  0  0  0
  2  1  1  6  0  0  0
  2  3  1  0  0  0  0
  2  5  1  0  0  0  0
  3  4  1  0  0  0  0
  3 17  1  0  0  0  0
  5  6  1  0  0  0  0
  7  6  1  6  0  0  0
  7  8  1  0  0  0  0
  7  9  1  0  0  0  0
 10  9  1  6  0  0  0
 10 11  1  0  0  0  0
 10 12  1  0  0  0  0
 11 16  1  0  0  0  0
 12 13  1  1  0  0  0
 12 14  1  0  0  0  0
 14 15  1  1  0  0  0
 14 16  1  0  0  0  0
 16 27  1  6  0  0  0
 18 19  2  0  0  0  0
 18 23  1  0  0  0  0
 19 20  1  0  0  0  0
 20 21  2  0  0  0  0
 21 22  1  0  0  0  0
 21 27  1  0  0  0  0
 22 23  2  0  0  0  0
 22 25  1  0  0  0  0
 23 24  1  0  0  0  0
 25 26  2  0  0  0  0
 26 27  1  0  0  0  0
M  END
>  <CHROM.1>
150.72017558,55.66663231,172.37195380,173.11457974,-148.21215805,32.71089526
72.97868569,47.77465142,56.76808948,31.18653240,1.65608217,1.10655030,-1.86058648

>  <Name>
ligand

>  <RI>
0

>  <Rbt.Current_Directory>
/home/itssahil/PROJECTS/Mol_Feturizer/New_Systems/rnas/3GX7

>  <Rbt.Executable>
rbdock ($Id: //depot/dev/client3/rdock/2013.1/src/exe/rbdock.cxx#4 $)

>  <Rbt.Library>
libRbt.so (2013.1, Build901 2013/11/27)

>  <Rbt.Parameter_File>
/export/apps/rDock/src/rDock_2013.1_src/data/scripts/dock_solv.prm

>  <Rbt.Receptor>
prm/pocket_docking_3.prm

>  <SCORE>
-17.0202

>  <SCORE.INTER>
-13.4878

>  <SCORE.INTER.CONST>
1

>  <SCORE.INTER.POLAR>
0

>  <SCORE.INTER.ROT>
7

>  <SCORE.INTER.SOLV>
21.014

>  <SCORE.INTER.VDW>
-24.2632

>  <SCORE.INTER.norm>
-0.499549

>  <SCORE.INTRA>
-3.53239

>  <SCORE.INTRA.DIHEDRAL>
-2.32812

>  <SCORE.INTRA.DIHEDRAL.0>
11.2699

>  <SCORE.INTRA.POLAR>
0

>  <SCORE.INTRA.POLAR.0>
0

>  <SCORE.INTRA.REPUL>
0

>  <SCORE.INTRA.REPUL.0>
0

>  <SCORE.INTRA.SOLV>
-0.302512

>  <SCORE.INTRA.SOLV.lig_0>
-48.6447

>  <SCORE.INTRA.VDW>
-2.21708

>  <SCORE.INTRA.VDW.0>
-0.0211724

>  <SCORE.INTRA.norm>
-0.130829

>  <SCORE.RESTR>
0

>  <SCORE.RESTR.CAVITY>
0

>  <SCORE.RESTR.norm>
0

>  <SCORE.SYSTEM>
0

>  <SCORE.SYSTEM.CONST>
0

>  <SCORE.SYSTEM.DIHEDRAL>
0

>  <SCORE.SYSTEM.SOLV>
0

>  <SCORE.SYSTEM.norm>
0

>  <SCORE.heavy>
27

>  <SCORE.norm>
-0.630378

>  <RMSD>
1.491

$$$$
ligand
 OpenBabel11021811483D
libRbt.so/2013.1/901 2013/11/27
 27 29  0  0  0  0  0  0  0  0999 V2000
   46.7716   58.5420   27.7417 N   0  0  0  0  0  0  0  0  0  0  0  0
   47.1692   57.2214   28.2144 C   0  0  2  0  0  0  0  0  0  0  0  0
   46.4251   56.1348   27.4559 C   0  0  0  0  0  0  0  0  0  0  0  0
   45.2033   56.0401   27.5450 O   0  0  0  0  0  0  0  0  0  0  0  0
   46.9487   57.0651   29.7184 C   0  0  0  0  0  0  0  0  0  0  0  0
   47.5375   55.7960   30.3228 C   0  0  0  0  0  0  0  0  0  0  0  0
   49.3501   55.7228   30.3007 S   0  0  2  0  0  0  0  0  0  0  0  0
   49.6522   55.0027   28.6682 C   0  0  0  0  0  0  0  0  0  0  0  0
   49.6293   54.2774   31.3575 C   0  0  0  0  0  0  0  0  0  0  0  0
   49.4681   54.6702   32.8184 C   0  0  1  0  0  0  0  0  0  0  0  0
   49.8139   56.0280   32.9492 O   0  0  0  0  0  0  0  0  0  0  0  0
   48.0497   54.5744   33.3435 C   0  0  1  0  0  0  0  0  0  0  0  0
   47.8625   53.3586   34.0259 O   0  0  0  0  0  0  0  0  0  0  0  0
   47.9423   55.7499   34.2979 C   0  0  1  0  0  0  0  0  0  0  0  0
   47.9990   55.2784   35.6234 O   0  0  0  0  0  0  0  0  0  0  0  0
   49.1402   56.6478   34.0148 C   0  0  2  0  0  0  0  0  0  0  0  0
   47.0313   55.3380   26.7389 O   0  0  0  0  0  0  0  0  0  0  0  0
   45.0977   59.3884   32.0576 N   0  0  0  0  0  0  0  0  0  0  0  0
   45.1486   58.0455   32.3723 C   0  0  0  0  0  0  0  0  0  0  0  0
   46.3078   57.4892   32.8814 N   0  0  0  0  0  0  0  0  0  0  0  0
   47.4085   58.2498   33.0701 C   0  0  0  0  0  0  0  0  0  0  0  0
   47.3777   59.6031   32.7676 C   0  0  0  0  0  0  0  0  0  0  0  0
   46.2153   60.1718   32.2537 C   0  0  0  0  0  0  0  0  0  0  0  0
   46.1694   61.4667   31.9514 N   0  0  0  0  0  0  0  0  0  0  0  0
   48.5934   60.1162   33.0608 N   0  0  0  0  0  0  0  0  0  0  0  0
   49.3783   59.1281   33.5510 C   0  0  0  0  0  0  0  0  0  0  0  0
   48.6566   57.9632   33.5627 N   0  0  0  0  0  0  0  0  0  0  0  0
  2  1  1  6  0  0  0
  2  3  1  0  0  0  0
  2  5  1  0  0  0  0
  3  4  1  0  0  0  0
  3 17  1  0  0  0  0
  5  6  1  0  0  0  0
  7  6  1  6  0  0  0
  7  8  1  0  0  0  0
  7  9  1  0  0  0  0
 10  9  1  6  0  0  0
 10 11  1  0  0  0  0
 10 12  1  0  0  0  0
 11 16  1  0  0  0  0
 12 13  1  1  0  0  0
 12 14  1  0  0  0  0
 14 15  1  1  0  0  0
 14 16  1  0  0  0  0
 16 27  1  6  0  0  0
 18 19  2  0  0  0  0
 18 23  1  0  0  0  0
 19 20  1  0  0  0  0
 20 21  2  0  0  0  0
 21 22  1  0  0  0  0
 21 27  1  0  0  0  0
 22 23  2  0  0  0  0
 22 25  1  0  0  0  0
 23 24  1  0  0  0  0
 25 26  2  0  0  0  0
 26 27  1  0  0  0  0
M  END
>  <CHROM.1>
-63.83449169,-170.97858412,66.73904525,-87.28248344,-78.25967885,-28.87265029
94.99553614,47.73621397,56.86005920,31.48569730,2.01528187,1.07793737,-2.05077316

>  <Name>
ligand

>  <RI>
0

>  <Rbt.Current_Directory>
/home/itssahil/PROJECTS/Mol_Feturizer/New_Systems/rnas/3GX7

>  <Rbt.Executable>
rbdock ($Id: //depot/dev/client3/rdock/2013.1/src/exe/rbdock.cxx#4 $)

>  <Rbt.Library>
libRbt.so (2013.1, Build901 2013/11/27)

>  <Rbt.Parameter_File>
/export/apps/rDock/src/rDock_2013.1_src/data/scripts/dock_solv.prm

>  <Rbt.Receptor>
prm/pocket_docking_3.prm

>  <SCORE>
-17.9445

>  <SCORE.INTER>
-12.3052

>  <SCORE.INTER.CONST>
1

>  <SCORE.INTER.POLAR>
0

>  <SCORE.INTER.ROT>
7

>  <SCORE.INTER.SOLV>
21.2779

>  <SCORE.INTER.VDW>
-23.5627

>  <SCORE.INTER.norm>
-0.455748

>  <SCORE.INTRA>
-5.63929

>  <SCORE.INTRA.DIHEDRAL>
-3.60476

>  <SCORE.INTRA.DIHEDRAL.0>
11.2699

>  <SCORE.INTRA.POLAR>
0

>  <SCORE.INTRA.POLAR.0>
0

>  <SCORE.INTRA.REPUL>
0

>  <SCORE.INTRA.REPUL.0>
0

>  <SCORE.INTRA.SOLV>
-0.669647

>  <SCORE.INTRA.SOLV.lig_0>
-48.6447

>  <SCORE.INTRA.VDW>
-3.50209

>  <SCORE.INTRA.VDW.0>
-0.0211724

>  <SCORE.INTRA.norm>
-0.208863

>  <SCORE.RESTR>
0

>  <SCORE.RESTR.CAVITY>
0

>  <SCORE.RESTR.norm>
0

>  <SCORE.SYSTEM>
0

>  <SCORE.SYSTEM.CONST>
0

>  <SCORE.SYSTEM.DIHEDRAL>
0

>  <SCORE.SYSTEM.SOLV>
0

>  <SCORE.SYSTEM.norm>
0

>  <SCORE.heavy>
27

>  <SCORE.norm>
-0.66461

>  <RMSD>
1.501

$$$$
ligand
 OpenBabel11021811483D
libRbt.so/2013.1/901 2013/11/27
 27 29  0  0  0  0  0  0  0  0999 V2000
   47.8413   55.5708   26.2818 N   0  0  0  0  0  0  0  0  0  0  0  0
   47.4989   56.2380   27.5321 C   0  0  2  0  0  0  0  0  0  0  0  0
   48.7547   56.5920   28.3114 C   0  0  0  0  0  0  0  0  0  0  0  0
   48.6808   57.2655   29.3365 O   0  0  0  0  0  0  0  0  0  0  0  0
   46.5620   55.3904   28.3915 C   0  0  0  0  0  0  0  0  0  0  0  0
   47.0553   53.9759   28.6717 C   0  0  0  0  0  0  0  0  0  0  0  0
   48.3449   53.8668   29.9431 S   0  0  2  0  0  0  0  0  0  0  0  0
   48.6711   52.0869   29.9601 C   0  0  0  0  0  0  0  0  0  0  0  0
   47.3388   54.0338   31.4410 C   0  0  0  0  0  0  0  0  0  0  0  0
   48.1996   54.5535   32.5828 C   0  0  1  0  0  0  0  0  0  0  0  0
   48.7616   55.7811   32.1861 O   0  0  0  0  0  0  0  0  0  0  0  0
   47.4373   54.8640   33.8552 C   0  0  1  0  0  0  0  0  0  0  0  0
   47.5309   53.7874   34.7558 O   0  0  0  0  0  0  0  0  0  0  0  0
   48.1448   56.0894   34.4050 C   0  0  1  0  0  0  0  0  0  0  0  0
   48.9477   55.7106   35.4978 O   0  0  0  0  0  0  0  0  0  0  0  0
   49.0201   56.6251   33.2789 C   0  0  2  0  0  0  0  0  0  0  0  0
   49.8615   56.2072   27.9328 O   0  0  0  0  0  0  0  0  0  0  0  0
   44.9230   59.7882   32.3343 N   0  0  0  0  0  0  0  0  0  0  0  0
   44.9116   58.4454   32.6533 C   0  0  0  0  0  0  0  0  0  0  0  0
   46.0972   57.7671   32.8690 N   0  0  0  0  0  0  0  0  0  0  0  0
   47.2828   58.4064   32.7627 C   0  0  0  0  0  0  0  0  0  0  0  0
   47.3176   59.7574   32.4503 C   0  0  0  0  0  0  0  0  0  0  0  0
   46.1291   60.4485   32.2304 C   0  0  0  0  0  0  0  0  0  0  0  0
   46.1435   61.7429   31.9231 N   0  0  0  0  0  0  0  0  0  0  0  0
   48.6144   60.1378   32.4215 N   0  0  0  0  0  0  0  0  0  0  0  0
   49.3902   59.0695   32.7207 C   0  0  0  0  0  0  0  0  0  0  0  0
   48.5777   57.9870   32.9349 N   0  0  0  0  0  0  0  0  0  0  0  0
  2  1  1  6  0  0  0
  2  3  1  0  0  0  0
  2  5  1  0  0  0  0
  3  4  1  0  0  0  0
  3 17  1  0  0  0  0
  5  6  1  0  0  0  0
  7  6  1  6  0  0  0
  7  8  1  0  0  0  0
  7  9  1  0  0  0  0
 10  9  1  6  0  0  0
 10 11  1  0  0  0  0
 10 12  1  0  0  0  0
 11 16  1  0  0  0  0
 12 13  1  1  0  0  0
 12 14  1  0  0  0  0
 14 15  1  1  0  0  0
 14 16  1  0  0  0  0
 16 27  1  6  0  0  0
 18 19  2  0  0  0  0
 18 23  1  0  0  0  0
 19 20  1  0  0  0  0
 20 21  2  0  0  0  0
 21 22  1  0  0  0  0
 21 27  1  0  0  0  0
 22 23  2  0  0  0  0
 22 25  1  0  0  0  0
 23 24  1  0  0  0  0
 25 26  2  0  0  0  0
 26 27  1  0  0  0  0
M  END
>  <CHROM.1>
173.51089369,53.63919081,77.23359703,-179.06112956,-156.17093678,57.54560166
68.63446627,47.77199973,56.52746384,31.38351346,0.69757838,1.33762714,-1.55274599

>  <Name>
ligand

>  <RI>
0

>  <Rbt.Current_Directory>
/home/itssahil/PROJECTS/Mol_Feturizer/New_Systems/rnas/3GX7

>  <Rbt.Executable>
rbdock ($Id: //depot/dev/client3/rdock/2013.1/src/exe/rbdock.cxx#4 $)

>  <Rbt.Library>
libRbt.so (2013.1, Build901 2013/11/27)

>  <Rbt.Parameter_File>
/export/apps/rDock/src/rDock_2013.1_src/data/scripts/dock_solv.prm

>  <Rbt.Receptor>
prm/pocket_docking_4.prm

>  <SCORE>
-17.8941

>  <SCORE.INTER>
-11.8875

>  <SCORE.INTER.CONST>
1

>  <SCORE.INTER.POLAR>
0

>  <SCORE.INTER.ROT>
7

>  <SCORE.INTER.SOLV>
17.4472

>  <SCORE.INTER.VDW>
-22.0074

>  <SCORE.INTER.norm>
-0.440279

>  <SCORE.INTRA>
-6.00656

>  <SCORE.INTRA.DIHEDRAL>
-4.21046

>  <SCORE.INTRA.DIHEDRAL.0>
11.2699

>  <SCORE.INTRA.POLAR>
0

>  <SCORE.INTRA.POLAR.0>
0

>  <SCORE.INTRA.REPUL>
0

>  <SCORE.INTRA.REPUL.0>
0

>  <SCORE.INTRA.SOLV>
0.1982

>  <SCORE.INTRA.SOLV.lig_0>
-48.6447

>  <SCORE.INTRA.VDW>
-4.00043

>  <SCORE.INTRA.VDW.0>
-0.0211724

>  <SCORE.INTRA.norm>
-0.222465

>  <SCORE.RESTR>
0

>  <SCORE.RESTR.CAVITY>
0

>  <SCORE.RESTR.norm>
0

>  <SCORE.SYSTEM>
0

>  <SCORE.SYSTEM.CONST>
0

>  <SCORE.SYSTEM.DIHEDRAL>
0

>  <SCORE.SYSTEM.SOLV>
0

>  <SCORE.SYSTEM.norm>
0

>  <SCORE.heavy>
27

>  <SCORE.norm>
-0.662744

>  <RMSD>
1.534

$$$$
ligand
 OpenBabel11021811483D
libRbt.so/2013.1/901 2013/11/27
 27 29  0  0  0  0  0  0  0  0999 V2000
   45.4687   57.4661   28.2869 N   0  0  0  0  0  0  0  0  0  0  0  0
   46.8151   56.9856   28.5730 C   0  0  2  0  0  0  0  0  0  0  0  0
   47.8521   57.8550   27.8814 C   0  0  0  0  0  0  0  0  0  0  0  0
   48.5537   58.6239   28.5344 O   0  0  0  0  0  0  0  0  0  0  0  0
   46.9949   55.5227   28.1701 C   0  0  0  0  0  0  0  0  0  0  0  0
   47.7011   54.6560   29.2059 C   0  0  0  0  0  0  0  0  0  0  0  0
   49.1417   55.4370   29.9843 S   0  0  2  0  0  0  0  0  0  0  0  0
   50.4038   55.1939   28.7104 C   0  0  0  0  0  0  0  0  0  0  0  0
   49.6111   54.1464   31.1666 C   0  0  0  0  0  0  0  0  0  0  0  0
   49.2215   54.5727   32.5741 C   0  0  1  0  0  0  0  0  0  0  0  0
   49.6435   55.9017   32.7636 O   0  0  0  0  0  0  0  0  0  0  0  0
   47.7289   54.5941   32.8352 C   0  0  1  0  0  0  0  0  0  0  0  0
   47.3276   53.4068   33.4741 O   0  0  0  0  0  0  0  0  0  0  0  0
   47.5442   55.7888   33.7532 C   0  0  1  0  0  0  0  0  0  0  0  0
   47.3249   55.3346   35.0678 O   0  0  0  0  0  0  0  0  0  0  0  0
   48.8401   56.5876   33.6896 C   0  0  2  0  0  0  0  0  0  0  0  0
   48.0089   57.7999   26.6612 O   0  0  0  0  0  0  0  0  0  0  0  0
   45.1253   59.9488   32.0813 N   0  0  0  0  0  0  0  0  0  0  0  0
   44.9679   58.6618   32.5545 C   0  0  0  0  0  0  0  0  0  0  0  0
   46.0687   57.9163   32.9349 N   0  0  0  0  0  0  0  0  0  0  0  0
   47.3134   58.4335   32.8413 C   0  0  0  0  0  0  0  0  0  0  0  0
   47.4945   59.7273   32.3753 C   0  0  0  0  0  0  0  0  0  0  0  0
   46.3922   60.4852   31.9891 C   0  0  0  0  0  0  0  0  0  0  0  0
   46.5473   61.7256   31.5334 N   0  0  0  0  0  0  0  0  0  0  0  0
   48.8205   59.9887   32.3971 N   0  0  0  0  0  0  0  0  0  0  0  0
   49.4724   58.9032   32.8762 C   0  0  0  0  0  0  0  0  0  0  0  0
   48.5500   57.9293   33.1562 N   0  0  0  0  0  0  0  0  0  0  0  0
  2  1  1  6  0  0  0
  2  3  1  0  0  0  0
  2  5  1  0  0  0  0
  3  4  1  0  0  0  0
  3 17  1  0  0  0  0
  5  6  1  0  0  0  0
  7  6  1  6  0  0  0
  7  8  1  0  0  0  0
  7  9  1  0  0  0  0
 10  9  1  6  0  0  0
 10 11  1  0  0  0  0
 10 12  1  0  0  0  0
 11 16  1  0  0  0  0
 12 13  1  1  0  0  0
 12 14  1  0  0  0  0
 14 15  1  1  0  0  0
 14 16  1  0  0  0  0
 16 27  1  6  0  0  0
 18 19  2  0  0  0  0
 18 23  1  0  0  0  0
 19 20  1  0  0  0  0
 20 21  2  0  0  0  0
 21 22  1  0  0  0  0
 21 27  1  0  0  0  0
 22 23  2  0  0  0  0
 22 25  1  0  0  0  0
 23 24  1  0  0  0  0
 25 26  2  0  0  0  0
 26 27  1  0  0  0  0
M  END
>  <CHROM.1>
107.83193972,-134.69146522,-42.79668731,-79.72129644,-105.90573094,-46.75152457
117.68814633,47.83266379,57.02201238,31.24054997,0.29932667,1.19069251,-1.43681190

>  <Name>
ligand

>  <RI>
0

>  <Rbt.Current_Directory>
/home/itssahil/PROJECTS/Mol_Feturizer/New_Systems/rnas/3GX7

>  <Rbt.Executable>
rbdock ($Id: //depot/dev/client3/rdock/2013.1/src/exe/rbdock.cxx#4 $)

>  <Rbt.Library>
libRbt.so (2013.1, Build901 2013/11/27)

>  <Rbt.Parameter_File>
/export/apps/rDock/src/rDock_2013.1_src/data/scripts/dock_solv.prm

>  <Rbt.Receptor>
prm/pocket_docking_2.prm

>  <SCORE>
-14.7187

>  <SCORE.INTER>
-13.3132

>  <SCORE.INTER.CONST>
1

>  <SCORE.INTER.POLAR>
0

>  <SCORE.INTER.ROT>
7

>  <SCORE.INTER.SOLV>
19.8296

>  <SCORE.INTER.VDW>
-23.752

>  <SCORE.INTER.norm>
-0.49308

>  <SCORE.INTRA>
-2.30418

>  <SCORE.INTRA.DIHEDRAL>
1.91723

>  <SCORE.INTRA.DIHEDRAL.0>
11.2699

>  <SCORE.INTRA.POLAR>
0

>  <SCORE.INTRA.POLAR.0>
0

>  <SCORE.INTRA.REPUL>
0

>  <SCORE.INTRA.REPUL.0>
0

>  <SCORE.INTRA.SOLV>
-0.5918

>  <SCORE.INTRA.SOLV.lig_0>
-48.6447

>  <SCORE.INTRA.VDW>
-2.9669

>  <SCORE.INTRA.VDW.0>
-0.0211724

>  <SCORE.INTRA.norm>
-0.0853402

>  <SCORE.RESTR>
0.898668

>  <SCORE.RESTR.CAVITY>
0.898668

>  <SCORE.RESTR.norm>
0.033284

>  <SCORE.SYSTEM>
0

>  <SCORE.SYSTEM.CONST>
0

>  <SCORE.SYSTEM.DIHEDRAL>
0

>  <SCORE.SYSTEM.SOLV>
0

>  <SCORE.SYSTEM.norm>
0

>  <SCORE.heavy>
27

>  <SCORE.norm>
-0.545136

>  <RMSD>
1.552

$$$$
ligand
 OpenBabel11021811483D
libRbt.so/2013.1/901 2013/11/27
 27 29  0  0  0  0  0  0  0  0999 V2000
   48.4075   55.7321   28.0493 N   0  0  0  0  0  0  0  0  0  0  0  0
   47.7138   54.6684   27.3331 C   0  0  2  0  0  0  0  0  0  0  0  0
   46.2241   54.9586   27.2550 C   0  0  0  0  0  0  0  0  0  0  0  0
   45.5512   54.5099   26.3299 O   0  0  0  0  0  0  0  0  0  0  0  0
   47.9558   53.3012   27.9711 C   0  0  0  0  0  0  0  0  0  0  0  0
   47.4498   53.1645   29.4022 C   0  0  0  0  0  0  0  0  0  0  0  0
   48.2627   54.2624   30.5959 S   0  0  2  0  0  0  0  0  0  0  0  0
   49.9362   53.5742   30.6223 C   0  0  0  0  0  0  0  0  0  0  0  0
   47.6060   53.5969   32.1483 C   0  0  0  0  0  0  0  0  0  0  0  0
   48.3910   54.1624   33.3225 C   0  0  1  0  0  0  0  0  0  0  0  0
   48.9638   55.3835   32.9211 O   0  0  0  0  0  0  0  0  0  0  0  0
   47.5502   54.5037   34.5361 C   0  0  1  0  0  0  0  0  0  0  0  0
   47.5999   53.4571   35.4749 O   0  0  0  0  0  0  0  0  0  0  0  0
   48.2108   55.7541   35.0878 C   0  0  1  0  0  0  0  0  0  0  0  0
   48.9500   55.4194   36.2385 O   0  0  0  0  0  0  0  0  0  0  0  0
   49.1473   56.2645   33.9998 C   0  0  2  0  0  0  0  0  0  0  0  0
   45.6684   55.6410   28.1163 O   0  0  0  0  0  0  0  0  0  0  0  0
   45.1798   59.2294   32.2243 N   0  0  0  0  0  0  0  0  0  0  0  0
   45.1764   57.8799   32.5142 C   0  0  0  0  0  0  0  0  0  0  0  0
   46.3234   57.2601   32.9751 N   0  0  0  0  0  0  0  0  0  0  0  0
   47.4648   57.9640   33.1403 C   0  0  0  0  0  0  0  0  0  0  0  0
   47.4892   59.3226   32.8620 C   0  0  0  0  0  0  0  0  0  0  0  0
   46.3394   59.9552   32.3966 C   0  0  0  0  0  0  0  0  0  0  0  0
   46.3460   61.2562   32.1181 N   0  0  0  0  0  0  0  0  0  0  0  0
   48.7369   59.7720   33.1236 N   0  0  0  0  0  0  0  0  0  0  0  0
   49.4889   58.7389   33.5707 C   0  0  0  0  0  0  0  0  0  0  0  0
   48.7129   57.6096   33.5863 N   0  0  0  0  0  0  0  0  0  0  0  0
  2  1  1  1  0  0  0
  2  3  1  0  0  0  0
  2  5  1  0  0  0  0
  3  4  1  0  0  0  0
  3 17  1  0  0  0  0
  5  6  1  0  0  0  0
  7  6  1  6  0  0  0
  7  8  1  0  0  0  0
  7  9  1  0  0  0  0
 10  9  1  6  0  0  0
 10 11  1  0  0  0  0
 10 12  1  0  0  0  0
 11 16  1  0  0  0  0
 12 13  1  1  0  0  0
 12 14  1  0  0  0  0
 14 15  1  1  0  0  0
 14 16  1  0  0  0  0
 16 27  1  6  0  0  0
 18 19  2  0  0  0  0
 18 23  1  0  0  0  0
 19 20  1  0  0  0  0
 20 21  2  0  0  0  0
 21 22  1  0  0  0  0
 21 27  1  0  0  0  0
 22 23  2  0  0  0  0
 22 25  1  0  0  0  0
 23 24  1  0  0  0  0
 25 26  2  0  0  0  0
 26 27  1  0  0  0  0
M  END
>  <CHROM.1>
152.88027923,62.09784518,-63.38803688,-67.63776236,167.33036737,24.13721116
58.64306260,47.62749210,56.02219778,31.69860145,1.83183262,1.17405911,-2.31322875

>  <Name>
ligand

>  <RI>
0

>  <Rbt.Current_Directory>
/home/itssahil/PROJECTS/Mol_Feturizer/New_Systems/rnas/3GX7

>  <Rbt.Executable>
rbdock ($Id: //depot/dev/client3/rdock/2013.1/src/exe/rbdock.cxx#4 $)

>  <Rbt.Library>
libRbt.so (2013.1, Build901 2013/11/27)

>  <Rbt.Parameter_File>
/export/apps/rDock/src/rDock_2013.1_src/data/scripts/dock_solv.prm

>  <Rbt.Receptor>
prm/pocket_docking_3.prm

>  <SCORE>
-15.3943

>  <SCORE.INTER>
-12.4953

>  <SCORE.INTER.CONST>
1

>  <SCORE.INTER.POLAR>
0

>  <SCORE.INTER.ROT>
7

>  <SCORE.INTER.SOLV>
17.0199

>  <SCORE.INTER.VDW>
-22.2702

>  <SCORE.INTER.norm>
-0.462789

>  <SCORE.INTRA>
-2.89902

>  <SCORE.INTRA.DIHEDRAL>
-4.6213

>  <SCORE.INTRA.DIHEDRAL.0>
11.2699

>  <SCORE.INTRA.POLAR>
0

>  <SCORE.INTRA.POLAR.0>
0

>  <SCORE.INTRA.REPUL>
0

>  <SCORE.INTRA.REPUL.0>
0

>  <SCORE.INTRA.SOLV>
1.76378

>  <SCORE.INTRA.SOLV.lig_0>
-48.6447

>  <SCORE.INTRA.VDW>
-1.47026

>  <SCORE.INTRA.VDW.0>
-0.0211724

>  <SCORE.INTRA.norm>
-0.107371

>  <SCORE.RESTR>
0

>  <SCORE.RESTR.CAVITY>
0

>  <SCORE.RESTR.norm>
0

>  <SCORE.SYSTEM>
0

>  <SCORE.SYSTEM.CONST>
0

>  <SCORE.SYSTEM.DIHEDRAL>
0

>  <SCORE.SYSTEM.SOLV>
0

>  <SCORE.SYSTEM.norm>
0

>  <SCORE.heavy>
27

>  <SCORE.norm>
-0.57016

>  <RMSD>
1.587

$$$$
ligand
 OpenBabel11021811483D
libRbt.so/2013.1/901 2013/11/27
 27 29  0  0  0  0  0  0  0  0999 V2000
   45.5033   56.8615   27.7380 N   0  0  0  0  0  0  0  0  0  0  0  0
   46.7560   56.6370   28.4492 C   0  0  2  0  0  0  0  0  0  0  0  0
   47.6938   57.8191   28.2679 C   0  0  0  0  0  0  0  0  0  0  0  0
   47.5863   58.5533   27.2885 O   0  0  0  0  0  0  0  0  0  0  0  0
   47.4390   55.3444   28.0047 C   0  0  0  0  0  0  0  0  0  0  0  0
   48.0498   54.5227   29.1335 C   0  0  0  0  0  0  0  0  0  0  0  0
   49.1692   55.4502   30.2190 S   0  0  2  0  0  0  0  0  0  0  0  0
   50.6630   55.5255   29.2003 C   0  0  0  0  0  0  0  0  0  0  0  0
   49.6337   54.1502   31.3930 C   0  0  0  0  0  0  0  0  0  0  0  0
   49.2170   54.5551   32.7991 C   0  0  1  0  0  0  0  0  0  0  0  0
   49.5915   55.8967   32.9994 O   0  0  0  0  0  0  0  0  0  0  0  0
   47.7223   54.5240   33.0465 C   0  0  1  0  0  0  0  0  0  0  0  0
   47.3561   53.3201   33.6754 O   0  0  0  0  0  0  0  0  0  0  0  0
   47.4885   55.7066   33.9691 C   0  0  1  0  0  0  0  0  0  0  0  0
   47.2730   55.2378   35.2792 O   0  0  0  0  0  0  0  0  0  0  0  0
   48.7568   56.5495   33.9217 C   0  0  2  0  0  0  0  0  0  0  0  0
   48.5699   58.0623   29.0984 O   0  0  0  0  0  0  0  0  0  0  0  0
   44.9617   59.7438   32.1673 N   0  0  0  0  0  0  0  0  0  0  0  0
   44.8468   58.4427   32.6133 C   0  0  0  0  0  0  0  0  0  0  0  0
   45.9634   57.7479   33.0407 N   0  0  0  0  0  0  0  0  0  0  0  0
   47.1829   58.3294   33.0202 C   0  0  0  0  0  0  0  0  0  0  0  0
   47.3207   59.6384   32.5827 C   0  0  0  0  0  0  0  0  0  0  0  0
   46.2023   60.3455   32.1497 C   0  0  0  0  0  0  0  0  0  0  0  0
   46.3165   61.5997   31.7203 N   0  0  0  0  0  0  0  0  0  0  0  0
   48.6286   59.9665   32.6781 N   0  0  0  0  0  0  0  0  0  0  0  0
   49.3099   58.9076   33.1755 C   0  0  0  0  0  0  0  0  0  0  0  0
   48.4258   57.8834   33.3927 N   0  0  0  0  0  0  0  0  0  0  0  0
  2  1  1  6  0  0  0
  2  3  1  0  0  0  0
  2  5  1  0  0  0  0
  3  4  1  0  0  0  0
  3 17  1  0  0  0  0
  5  6  1  0  0  0  0
  7  6  1  6  0  0  0
  7  8  1  0  0  0  0
  7  9  1  0  0  0  0
 10  9  1  6  0  0  0
 10 11  1  0  0  0  0
 10 12  1  0  0  0  0
 11 16  1  0  0  0  0
 12 13  1  1  0  0  0
 12 14  1  0  0  0  0
 14 15  1  1  0  0  0
 14 16  1  0  0  0  0
 16 27  1  6  0  0  0
 18 19  2  0  0  0  0
 18 23  1  0  0  0  0
 19 20  1  0  0  0  0
 20 21  2  0  0  0  0
 21 22  1  0  0  0  0
 21 27  1  0  0  0  0
 22 23  2  0  0  0  0
 22 25  1  0  0  0  0
 23 24  1  0  0  0  0
 25 26  2  0  0  0  0
 26 27  1  0  0  0  0
M  END
>  <CHROM.1>
-24.57542375,-138.65401964,-52.31799049,-77.77773795,-119.75224907,-45.30157631
114.96001209,47.79064183,56.94637376,31.43124871,0.59125676,1.15329766,-1.49858525

>  <Name>
ligand

>  <RI>
0

>  <Rbt.Current_Directory>
/home/itssahil/PROJECTS/Mol_Feturizer/New_Systems/rnas/3GX7

>  <Rbt.Executable>
rbdock ($Id: //depot/dev/client3/rdock/2013.1/src/exe/rbdock.cxx#4 $)

>  <Rbt.Library>
libRbt.so (2013.1, Build901 2013/11/27)

>  <Rbt.Parameter_File>
/export/apps/rDock/src/rDock_2013.1_src/data/scripts/dock_solv.prm

>  <Rbt.Receptor>
prm/pocket_docking_2.prm

>  <SCORE>
-14.3068

>  <SCORE.INTER>
-13.195

>  <SCORE.INTER.CONST>
1

>  <SCORE.INTER.POLAR>
0

>  <SCORE.INTER.ROT>
7

>  <SCORE.INTER.SOLV>
20.3453

>  <SCORE.INTER.VDW>
-23.8451

>  <SCORE.INTER.norm>
-0.488703

>  <SCORE.INTRA>
-2.13283

>  <SCORE.INTRA.DIHEDRAL>
1.76515

>  <SCORE.INTRA.DIHEDRAL.0>
11.2699

>  <SCORE.INTRA.POLAR>
0

>  <SCORE.INTRA.POLAR.0>
0

>  <SCORE.INTRA.REPUL>
0

>  <SCORE.INTRA.REPUL.0>
0

>  <SCORE.INTRA.SOLV>
-0.667546

>  <SCORE.INTRA.SOLV.lig_0>
-48.6447

>  <SCORE.INTRA.VDW>
-2.68163

>  <SCORE.INTRA.VDW.0>
-0.0211724

>  <SCORE.INTRA.norm>
-0.0789935

>  <SCORE.RESTR>
1.02101

>  <SCORE.RESTR.CAVITY>
1.02101

>  <SCORE.RESTR.norm>
0.0378154

>  <SCORE.SYSTEM>
0

>  <SCORE.SYSTEM.CONST>
0

>  <SCORE.SYSTEM.DIHEDRAL>
0

>  <SCORE.SYSTEM.SOLV>
0

>  <SCORE.SYSTEM.norm>
0

>  <SCORE.heavy>
27

>  <SCORE.norm>
-0.529881

>  <RMSD>
1.617

$$$$
ligand
 OpenBabel11021811483D
libRbt.so/2013.1/901 2013/11/27
 27 29  0  0  0  0  0  0  0  0999 V2000
   46.8814   55.6601   26.3536 N   0  0  0  0  0  0  0  0  0  0  0  0
   46.9282   55.4072   27.7887 C   0  0  2  0  0  0  0  0  0  0  0  0
   47.8892   56.3669   28.4705 C   0  0  0  0  0  0  0  0  0  0  0  0
   47.5083   57.0692   29.4041 O   0  0  0  0  0  0  0  0  0  0  0  0
   47.3121   53.9612   28.0994 C   0  0  0  0  0  0  0  0  0  0  0  0
   47.0261   53.5164   29.5287 C   0  0  0  0  0  0  0  0  0  0  0  0
   47.9678   54.4085   30.7971 S   0  0  2  0  0  0  0  0  0  0  0  0
   49.6669   54.0143   30.3148 C   0  0  0  0  0  0  0  0  0  0  0  0
   47.7551   53.2892   32.2063 C   0  0  0  0  0  0  0  0  0  0  0  0
   48.4381   53.8732   33.4340 C   0  0  1  0  0  0  0  0  0  0  0  0
   49.0365   55.0925   33.0658 O   0  0  0  0  0  0  0  0  0  0  0  0
   47.4987   54.2246   34.5699 C   0  0  1  0  0  0  0  0  0  0  0  0
   47.4756   53.1898   35.5227 O   0  0  0  0  0  0  0  0  0  0  0  0
   48.1060   55.4852   35.1584 C   0  0  1  0  0  0  0  0  0  0  0  0
   48.7494   55.1686   36.3701 O   0  0  0  0  0  0  0  0  0  0  0  0
   49.1266   55.9875   34.1448 C   0  0  2  0  0  0  0  0  0  0  0  0
   49.0616   56.4526   28.1035 O   0  0  0  0  0  0  0  0  0  0  0  0
   45.1715   59.0285   32.4734 N   0  0  0  0  0  0  0  0  0  0  0  0
   45.1310   57.7003   32.8463 C   0  0  0  0  0  0  0  0  0  0  0  0
   46.2808   57.0546   33.2626 N   0  0  0  0  0  0  0  0  0  0  0  0
   47.4607   57.7117   33.3024 C   0  0  0  0  0  0  0  0  0  0  0  0
   47.5234   59.0489   32.9389 C   0  0  0  0  0  0  0  0  0  0  0  0
   46.3711   59.7071   32.5176 C   0  0  0  0  0  0  0  0  0  0  0  0
   46.4136   60.9876   32.1588 N   0  0  0  0  0  0  0  0  0  0  0  0
   48.8053   59.4528   33.0830 N   0  0  0  0  0  0  0  0  0  0  0  0
   49.5427   58.4131   33.5392 C   0  0  0  0  0  0  0  0  0  0  0  0
   48.7218   57.3250   33.6801 N   0  0  0  0  0  0  0  0  0  0  0  0
  2  1  1  6  0  0  0
  2  3  1  0  0  0  0
  2  5  1  0  0  0  0
  3  4  1  0  0  0  0
  3 17  1  0  0  0  0
  5  6  1  0  0  0  0
  7  6  1  6  0  0  0
  7  8  1  0  0  0  0
  7  9  1  0  0  0  0
 10  9  1  6  0  0  0
 10 11  1  0  0  0  0
 10 12  1  0  0  0  0
 11 16  1  0  0  0  0
 12 13  1  1  0  0  0
 12 14  1  0  0  0  0
 14 15  1  1  0  0  0
 14 16  1  0  0  0  0
 16 27  1  6  0  0  0
 18 19  2  0  0  0  0
 18 23  1  0  0  0  0
 19 20  1  0  0  0  0
 20 21  2  0  0  0  0
 21 22  1  0  0  0  0
 21 27  1  0  0  0  0
 22 23  2  0  0  0  0
 22 25  1  0  0  0  0
 23 24  1  0  0  0  0
 25 26  2  0  0  0  0
 26 27  1  0  0  0  0
M  END
>  <CHROM.1>
124.78077109,-164.43626033,-63.62811512,-60.24622518,-177.95838078,-0.96359819
68.37488923,47.74033713,56.12441341,31.90000690,1.72837328,1.33164868,-1.95381891

>  <Name>
ligand

>  <RI>
0

>  <Rbt.Current_Directory>
/home/itssahil/PROJECTS/Mol_Feturizer/New_Systems/rnas/3GX7

>  <Rbt.Executable>
rbdock ($Id: //depot/dev/client3/rdock/2013.1/src/exe/rbdock.cxx#4 $)

>  <Rbt.Library>
libRbt.so (2013.1, Build901 2013/11/27)

>  <Rbt.Parameter_File>
/export/apps/rDock/src/rDock_2013.1_src/data/scripts/dock_solv.prm

>  <Rbt.Receptor>
prm/pocket_docking_2.prm

>  <SCORE>
-14.6466

>  <SCORE.INTER>
-11.9485

>  <SCORE.INTER.CONST>
1

>  <SCORE.INTER.POLAR>
0

>  <SCORE.INTER.ROT>
7

>  <SCORE.INTER.SOLV>
18.582

>  <SCORE.INTER.VDW>
-22.4263

>  <SCORE.INTER.norm>
-0.442536

>  <SCORE.INTRA>
-2.76505

>  <SCORE.INTRA.DIHEDRAL>
-1.45324

>  <SCORE.INTRA.DIHEDRAL.0>
11.2699

>  <SCORE.INTRA.POLAR>
0

>  <SCORE.INTRA.POLAR.0>
0

>  <SCORE.INTRA.REPUL>
0

>  <SCORE.INTRA.REPUL.0>
0

>  <SCORE.INTRA.SOLV>
-0.74782

>  <SCORE.INTRA.SOLV.lig_0>
-48.6447

>  <SCORE.INTRA.VDW>
-1.66452

>  <SCORE.INTRA.VDW.0>
-0.0211724

>  <SCORE.INTRA.norm>
-0.102409

>  <SCORE.RESTR>
0.0668648

>  <SCORE.RESTR.CAVITY>
0.0668648

>  <SCORE.RESTR.norm>
0.00247647

>  <SCORE.SYSTEM>
0

>  <SCORE.SYSTEM.CONST>
0

>  <SCORE.SYSTEM.DIHEDRAL>
0

>  <SCORE.SYSTEM.SOLV>
0

>  <SCORE.SYSTEM.norm>
0

>  <SCORE.heavy>
27

>  <SCORE.norm>
-0.542468

>  <RMSD>
1.639

$$$$
ligand
 OpenBabel11021811483D
libRbt.so/2013.1/901 2013/11/27
 27 29  0  0  0  0  0  0  0  0999 V2000
   45.6465   57.4697   29.1546 N   0  0  0  0  0  0  0  0  0  0  0  0
   46.7655   57.6220   28.2325 C   0  0  2  0  0  0  0  0  0  0  0  0
   46.6489   56.6364   27.0816 C   0  0  0  0  0  0  0  0  0  0  0  0
   47.3758   56.7424   26.0966 O   0  0  0  0  0  0  0  0  0  0  0  0
   48.1108   57.4575   28.9382 C   0  0  0  0  0  0  0  0  0  0  0  0
   48.2731   56.1535   29.7101 C   0  0  0  0  0  0  0  0  0  0  0  0
   49.9795   55.7733   30.1949 S   0  0  2  0  0  0  0  0  0  0  0  0
   50.6426   55.1049   28.6494 C   0  0  0  0  0  0  0  0  0  0  0  0
   49.7176   54.2445   31.1319 C   0  0  0  0  0  0  0  0  0  0  0  0
   49.1957   54.5768   32.5217 C   0  0  1  0  0  0  0  0  0  0  0  0
   49.5370   55.9107   32.8122 O   0  0  0  0  0  0  0  0  0  0  0  0
   47.6875   54.5192   32.6585 C   0  0  1  0  0  0  0  0  0  0  0  0
   47.2931   53.2827   33.2013 O   0  0  0  0  0  0  0  0  0  0  0  0
   47.3725   55.6534   33.6169 C   0  0  1  0  0  0  0  0  0  0  0  0
   47.0695   55.1197   34.8841 O   0  0  0  0  0  0  0  0  0  0  0  0
   48.6296   56.5100   33.7015 C   0  0  2  0  0  0  0  0  0  0  0  0
   45.8311   55.7165   27.1193 O   0  0  0  0  0  0  0  0  0  0  0  0
   44.8611   59.8879   32.2618 N   0  0  0  0  0  0  0  0  0  0  0  0
   44.7220   58.5861   32.6989 C   0  0  0  0  0  0  0  0  0  0  0  0
   45.8351   57.8384   33.0370 N   0  0  0  0  0  0  0  0  0  0  0  0
   47.0740   58.3682   32.9366 C   0  0  0  0  0  0  0  0  0  0  0  0
   47.2369   59.6768   32.5065 C   0  0  0  0  0  0  0  0  0  0  0  0
   46.1221   60.4370   32.1630 C   0  0  0  0  0  0  0  0  0  0  0  0
   46.2596   61.6917   31.7421 N   0  0  0  0  0  0  0  0  0  0  0  0
   48.5611   59.9480   32.5123 N   0  0  0  0  0  0  0  0  0  0  0  0
   49.2296   58.8539   32.9467 C   0  0  0  0  0  0  0  0  0  0  0  0
   48.3198   57.8647   33.2139 N   0  0  0  0  0  0  0  0  0  0  0  0
  2  1  1  1  0  0  0
  2  3  1  0  0  0  0
  2  5  1  0  0  0  0
  3  4  1  0  0  0  0
  3 17  1  0  0  0  0
  5  6  1  0  0  0  0
  7  6  1  6  0  0  0
  7  8  1  0  0  0  0
  7  9  1  0  0  0  0
 10  9  1  6  0  0  0
 10 11  1  0  0  0  0
 10 12  1  0  0  0  0
 11 16  1  0  0  0  0
 12 13  1  1  0  0  0
 12 14  1  0  0  0  0
 14 15  1  1  0  0  0
 14 16  1  0  0  0  0
 16 27  1  6  0  0  0
 18 19  2  0  0  0  0
 18 23  1  0  0  0  0
 19 20  1  0  0  0  0
 20 21  2  0  0  0  0
 21 22  1  0  0  0  0
 21 27  1  0  0  0  0
 22 23  2  0  0  0  0
 22 25  1  0  0  0  0
 23 24  1  0  0  0  0
 25 26  2  0  0  0  0
 26 27  1  0  0  0  0
M  END
>  <CHROM.1>
168.74971239,54.90299767,165.60762965,-79.81184524,-78.48863220,-21.21756312
123.95897594,47.68969642,56.95254450,31.22823986,1.12328815,1.03416884,-1.67367085

>  <Name>
ligand

>  <RI>
0

>  <Rbt.Current_Directory>
/home/itssahil/PROJECTS/Mol_Feturizer/New_Systems/rnas/3GX7

>  <Rbt.Executable>
rbdock ($Id: //depot/dev/client3/rdock/2013.1/src/exe/rbdock.cxx#4 $)

>  <Rbt.Library>
libRbt.so (2013.1, Build901 2013/11/27)

>  <Rbt.Parameter_File>
/export/apps/rDock/src/rDock_2013.1_src/data/scripts/dock_solv.prm

>  <Rbt.Receptor>
prm/pocket_docking_8.prm

>  <SCORE>
-19.2435

>  <SCORE.INTER>
-15.8312

>  <SCORE.INTER.CONST>
1

>  <SCORE.INTER.POLAR>
0

>  <SCORE.INTER.ROT>
7

>  <SCORE.INTER.SOLV>
18.042

>  <SCORE.INTER.VDW>
-24.8348

>  <SCORE.INTER.norm>
-0.586342

>  <SCORE.INTRA>
-3.41225

>  <SCORE.INTRA.DIHEDRAL>
-2.78906

>  <SCORE.INTRA.DIHEDRAL.0>
11.2699

>  <SCORE.INTRA.POLAR>
0

>  <SCORE.INTRA.POLAR.0>
0

>  <SCORE.INTRA.REPUL>
0

>  <SCORE.INTRA.REPUL.0>
0

>  <SCORE.INTRA.SOLV>
0.054151

>  <SCORE.INTRA.SOLV.lig_0>
-48.6447

>  <SCORE.INTRA.VDW>
-2.04479

>  <SCORE.INTRA.VDW.0>
-0.0211724

>  <SCORE.INTRA.norm>
-0.126379

>  <SCORE.RESTR>
0

>  <SCORE.RESTR.CAVITY>
0

>  <SCORE.RESTR.norm>
0

>  <SCORE.SYSTEM>
0

>  <SCORE.SYSTEM.CONST>
0

>  <SCORE.SYSTEM.DIHEDRAL>
0

>  <SCORE.SYSTEM.SOLV>
0

>  <SCORE.SYSTEM.norm>
0

>  <SCORE.heavy>
27

>  <SCORE.norm>
-0.712721

>  <RMSD>
1.648

$$$$
ligand
 OpenBabel11021811483D
libRbt.so/2013.1/901 2013/11/27
 27 29  0  0  0  0  0  0  0  0999 V2000
   47.7601   55.6147   25.5946 N   0  0  0  0  0  0  0  0  0  0  0  0
   47.5665   55.5269   27.0369 C   0  0  2  0  0  0  0  0  0  0  0  0
   48.8244   55.9572   27.7732 C   0  0  0  0  0  0  0  0  0  0  0  0
   49.9239   55.5328   27.4256 O   0  0  0  0  0  0  0  0  0  0  0  0
   47.1518   54.1216   27.4708 C   0  0  0  0  0  0  0  0  0  0  0  0
   46.7462   53.9977   28.9346 C   0  0  0  0  0  0  0  0  0  0  0  0
   48.1362   53.9568   30.0998 S   0  0  2  0  0  0  0  0  0  0  0  0
   48.6388   52.2221   29.9854 C   0  0  0  0  0  0  0  0  0  0  0  0
   47.2393   53.9389   31.6743 C   0  0  0  0  0  0  0  0  0  0  0  0
   48.1317   54.4825   32.7801 C   0  0  1  0  0  0  0  0  0  0  0  0
   48.6706   55.7084   32.3474 O   0  0  0  0  0  0  0  0  0  0  0  0
   47.4079   54.8063   34.0715 C   0  0  1  0  0  0  0  0  0  0  0  0
   47.5392   53.7442   34.9846 O   0  0  0  0  0  0  0  0  0  0  0  0
   48.1223   56.0453   34.5801 C   0  0  1  0  0  0  0  0  0  0  0  0
   48.9629   55.6894   35.6521 O   0  0  0  0  0  0  0  0  0  0  0  0
   48.9568   56.5709   33.4187 C   0  0  2  0  0  0  0  0  0  0  0  0
   48.7632   56.7386   28.7229 O   0  0  0  0  0  0  0  0  0  0  0  0
   44.8201   59.6284   32.3126 N   0  0  0  0  0  0  0  0  0  0  0  0
   44.8322   58.2819   32.6158 C   0  0  0  0  0  0  0  0  0  0  0  0
   46.0252   57.6347   32.8809 N   0  0  0  0  0  0  0  0  0  0  0  0
   47.1955   58.3086   32.8391 C   0  0  0  0  0  0  0  0  0  0  0  0
   47.2063   59.6638   32.5436 C   0  0  0  0  0  0  0  0  0  0  0  0
   46.0103   60.3237   32.2743 C   0  0  0  0  0  0  0  0  0  0  0  0
   46.0020   61.6218   31.9824 N   0  0  0  0  0  0  0  0  0  0  0  0
   48.4915   60.0811   32.5817 N   0  0  0  0  0  0  0  0  0  0  0  0
   49.2826   59.0315   32.9062 C   0  0  0  0  0  0  0  0  0  0  0  0
   48.4923   57.9239   33.0689 N   0  0  0  0  0  0  0  0  0  0  0  0
  2  1  1  6  0  0  0
  2  3  1  0  0  0  0
  2  5  1  0  0  0  0
  3  4  1  0  0  0  0
  3 17  1  0  0  0  0
  5  6  1  0  0  0  0
  7  6  1  6  0  0  0
  7  8  1  0  0  0  0
  7  9  1  0  0  0  0
 10  9  1  6  0  0  0
 10 11  1  0  0  0  0
 10 12  1  0  0  0  0
 11 16  1  0  0  0  0
 12 13  1  1  0  0  0
 12 14  1  0  0  0  0
 14 15  1  1  0  0  0
 14 16  1  0  0  0  0
 16 27  1  6  0  0  0
 18 19  2  0  0  0  0
 18 23  1  0  0  0  0
 19 20  1  0  0  0  0
 20 21  2  0  0  0  0
 21 22  1  0  0  0  0
 21 27  1  0  0  0  0
 22 23  2  0  0  0  0
 22 25  1  0  0  0  0
 23 24  1  0  0  0  0
 25 26  2  0  0  0  0
 26 27  1  0  0  0  0
M  END
>  <CHROM.1>
-46.46779566,-172.00261047,-77.48720987,-81.16611247,-156.26056459,50.33627162
63.65577389,47.72431397,56.35268534,31.34850361,0.89942206,1.32364690,-1.55987364

>  <Name>
ligand

>  <RI>
0

>  <Rbt.Current_Directory>
/home/itssahil/PROJECTS/Mol_Feturizer/New_Systems/rnas/3GX7

>  <Rbt.Executable>
rbdock ($Id: //depot/dev/client3/rdock/2013.1/src/exe/rbdock.cxx#4 $)

>  <Rbt.Library>
libRbt.so (2013.1, Build901 2013/11/27)

>  <Rbt.Parameter_File>
/export/apps/rDock/src/rDock_2013.1_src/data/scripts/dock_solv.prm

>  <Rbt.Receptor>
prm/pocket_docking_4.prm

>  <SCORE>
-17.5503

>  <SCORE.INTER>
-11.7441

>  <SCORE.INTER.CONST>
1

>  <SCORE.INTER.POLAR>
0

>  <SCORE.INTER.ROT>
7

>  <SCORE.INTER.SOLV>
18.2276

>  <SCORE.INTER.VDW>
-22.1719

>  <SCORE.INTER.norm>
-0.434966

>  <SCORE.INTRA>
-5.80619

>  <SCORE.INTRA.DIHEDRAL>
-3.61195

>  <SCORE.INTRA.DIHEDRAL.0>
11.2699

>  <SCORE.INTRA.POLAR>
0

>  <SCORE.INTRA.POLAR.0>
0

>  <SCORE.INTRA.REPUL>
0

>  <SCORE.INTRA.REPUL.0>
0

>  <SCORE.INTRA.SOLV>
-0.918546

>  <SCORE.INTRA.SOLV.lig_0>
-48.6447

>  <SCORE.INTRA.VDW>
-3.54094

>  <SCORE.INTRA.VDW.0>
-0.0211724

>  <SCORE.INTRA.norm>
-0.215044

>  <SCORE.RESTR>
0

>  <SCORE.RESTR.CAVITY>
0

>  <SCORE.RESTR.norm>
0

>  <SCORE.SYSTEM>
0

>  <SCORE.SYSTEM.CONST>
0

>  <SCORE.SYSTEM.DIHEDRAL>
0

>  <SCORE.SYSTEM.SOLV>
0

>  <SCORE.SYSTEM.norm>
0

>  <SCORE.heavy>
27

>  <SCORE.norm>
-0.65001

>  <RMSD>
1.651

$$$$
ligand
 OpenBabel11021811483D
libRbt.so/2013.1/901 2013/11/27
 27 29  0  0  0  0  0  0  0  0999 V2000
   45.3714   57.5164   29.3669 N   0  0  0  0  0  0  0  0  0  0  0  0
   46.5340   56.6784   29.0994 C   0  0  2  0  0  0  0  0  0  0  0  0
   46.6069   56.3188   27.6246 C   0  0  0  0  0  0  0  0  0  0  0  0
   47.6273   56.5468   26.9791 O   0  0  0  0  0  0  0  0  0  0  0  0
   46.5319   55.4124   29.9551 C   0  0  0  0  0  0  0  0  0  0  0  0
   47.7730   54.5399   29.8096 C   0  0  0  0  0  0  0  0  0  0  0  0
   49.3132   55.3244   30.3606 S   0  0  2  0  0  0  0  0  0  0  0  0
   50.4282   54.9031   28.9989 C   0  0  0  0  0  0  0  0  0  0  0  0
   49.8545   54.1321   31.6133 C   0  0  0  0  0  0  0  0  0  0  0  0
   49.2470   54.4914   32.9610 C   0  0  1  0  0  0  0  0  0  0  0  0
   49.5638   55.8334   33.2423 O   0  0  0  0  0  0  0  0  0  0  0  0
   47.7336   54.4279   33.0066 C   0  0  1  0  0  0  0  0  0  0  0  0
   47.3123   53.2012   33.5515 O   0  0  0  0  0  0  0  0  0  0  0  0
   47.3552   55.5808   33.9187 C   0  0  1  0  0  0  0  0  0  0  0  0
   46.9778   55.0730   35.1766 O   0  0  0  0  0  0  0  0  0  0  0  0
   48.6009   56.4464   34.0611 C   0  0  2  0  0  0  0  0  0  0  0  0
   45.6506   55.7910   27.0560 O   0  0  0  0  0  0  0  0  0  0  0  0
   44.9276   59.7343   32.2223 N   0  0  0  0  0  0  0  0  0  0  0  0
   44.7702   58.4364   32.6645 C   0  0  0  0  0  0  0  0  0  0  0  0
   45.8591   57.7140   33.1170 N   0  0  0  0  0  0  0  0  0  0  0  0
   47.0928   58.2650   33.1251 C   0  0  0  0  0  0  0  0  0  0  0  0
   47.2731   59.5703   32.6920 C   0  0  0  0  0  0  0  0  0  0  0  0
   46.1828   60.3051   32.2338 C   0  0  0  0  0  0  0  0  0  0  0  0
   46.3379   61.5562   31.8083 N   0  0  0  0  0  0  0  0  0  0  0  0
   48.5861   59.8659   32.8178 N   0  0  0  0  0  0  0  0  0  0  0  0
   49.2293   58.7903   33.3298 C   0  0  0  0  0  0  0  0  0  0  0  0
   48.3153   57.7883   33.5257 N   0  0  0  0  0  0  0  0  0  0  0  0
  2  1  1  6  0  0  0
  2  3  1  0  0  0  0
  2  5  1  0  0  0  0
  3  4  1  0  0  0  0
  3 17  1  0  0  0  0
  5  6  1  0  0  0  0
  7  6  1  6  0  0  0
  7  8  1  0  0  0  0
  7  9  1  0  0  0  0
 10  9  1  6  0  0  0
 10 11  1  0  0  0  0
 10 12  1  0  0  0  0
 11 16  1  0  0  0  0
 12 13  1  1  0  0  0
 12 14  1  0  0  0  0
 14 15  1  1  0  0  0
 14 16  1  0  0  0  0
 16 27  1  6  0  0  0
 18 19  2  0  0  0  0
 18 23  1  0  0  0  0
 19 20  1  0  0  0  0
 20 21  2  0  0  0  0
 21 22  1  0  0  0  0
 21 27  1  0  0  0  0
 22 23  2  0  0  0  0
 22 25  1  0  0  0  0
 23 24  1  0  0  0  0
 25 26  2  0  0  0  0
 26 27  1  0  0  0  0
M  END
>  <CHROM.1>
125.93306344,-175.41989049,63.89210530,-134.56867709,-88.24832588,-53.84590802
121.90100950,47.55262015,56.67143068,31.54221938,1.14209103,1.06236182,-1.93105951

>  <Name>
ligand

>  <RI>
0

>  <Rbt.Current_Directory>
/home/itssahil/PROJECTS/Mol_Feturizer/New_Systems/rnas/3GX7

>  <Rbt.Executable>
rbdock ($Id: //depot/dev/client3/rdock/2013.1/src/exe/rbdock.cxx#4 $)

>  <Rbt.Library>
libRbt.so (2013.1, Build901 2013/11/27)

>  <Rbt.Parameter_File>
/export/apps/rDock/src/rDock_2013.1_src/data/scripts/dock_solv.prm

>  <Rbt.Receptor>
prm/pocket_docking_3.prm

>  <SCORE>
-17.7125

>  <SCORE.INTER>
-12.8673

>  <SCORE.INTER.CONST>
1

>  <SCORE.INTER.POLAR>
0

>  <SCORE.INTER.ROT>
7

>  <SCORE.INTER.SOLV>
17.3938

>  <SCORE.INTER.VDW>
-22.6428

>  <SCORE.INTER.norm>
-0.476566

>  <SCORE.INTRA>
-4.84523

>  <SCORE.INTRA.DIHEDRAL>
-2.52452

>  <SCORE.INTRA.DIHEDRAL.0>
11.2699

>  <SCORE.INTRA.POLAR>
0

>  <SCORE.INTRA.POLAR.0>
0

>  <SCORE.INTRA.REPUL>
0

>  <SCORE.INTRA.REPUL.0>
0

>  <SCORE.INTRA.SOLV>
0.052566

>  <SCORE.INTRA.SOLV.lig_0>
-48.6447

>  <SCORE.INTRA.VDW>
-3.60926

>  <SCORE.INTRA.VDW.0>
-0.0211724

>  <SCORE.INTRA.norm>
-0.179453

>  <SCORE.RESTR>
0

>  <SCORE.RESTR.CAVITY>
0

>  <SCORE.RESTR.norm>
0

>  <SCORE.SYSTEM>
0

>  <SCORE.SYSTEM.CONST>
0

>  <SCORE.SYSTEM.DIHEDRAL>
0

>  <SCORE.SYSTEM.SOLV>
0

>  <SCORE.SYSTEM.norm>
0

>  <SCORE.heavy>
27

>  <SCORE.norm>
-0.656019

>  <RMSD>
1.656

$$$$
ligand
 OpenBabel11021811483D
libRbt.so/2013.1/901 2013/11/27
 27 29  0  0  0  0  0  0  0  0999 V2000
   45.2774   57.5397   28.5864 N   0  0  0  0  0  0  0  0  0  0  0  0
   46.1301   56.3879   28.8543 C   0  0  2  0  0  0  0  0  0  0  0  0
   45.9558   55.3305   27.7767 C   0  0  0  0  0  0  0  0  0  0  0  0
   45.4614   54.2395   28.0508 O   0  0  0  0  0  0  0  0  0  0  0  0
   45.8608   55.7892   30.2341 C   0  0  0  0  0  0  0  0  0  0  0  0
   46.8198   54.6795   30.6482 C   0  0  0  0  0  0  0  0  0  0  0  0
   48.5753   55.1270   30.5513 S   0  0  2  0  0  0  0  0  0  0  0  0
   49.0214   54.4488   28.9339 C   0  0  0  0  0  0  0  0  0  0  0  0
   49.2909   53.8723   31.6457 C   0  0  0  0  0  0  0  0  0  0  0  0
   49.2114   54.3446   33.0897 C   0  0  1  0  0  0  0  0  0  0  0  0
   49.6184   55.6909   33.1350 O   0  0  0  0  0  0  0  0  0  0  0  0
   47.8153   54.3369   33.6789 C   0  0  1  0  0  0  0  0  0  0  0  0
   47.6088   53.1661   34.4310 O   0  0  0  0  0  0  0  0  0  0  0  0
   47.7991   55.5624   34.5746 C   0  0  1  0  0  0  0  0  0  0  0  0
   47.8955   55.1559   35.9192 O   0  0  0  0  0  0  0  0  0  0  0  0
   49.0192   56.3921   34.1945 C   0  0  2  0  0  0  0  0  0  0  0  0
   46.3012   55.5505   26.6154 O   0  0  0  0  0  0  0  0  0  0  0  0
   44.9920   59.2230   32.3368 N   0  0  0  0  0  0  0  0  0  0  0  0
   44.9990   57.8994   32.7280 C   0  0  0  0  0  0  0  0  0  0  0  0
   46.1614   57.3136   33.1949 N   0  0  0  0  0  0  0  0  0  0  0  0
   47.3076   58.0254   33.2671 C   0  0  0  0  0  0  0  0  0  0  0  0
   47.3219   59.3590   32.8860 C   0  0  0  0  0  0  0  0  0  0  0  0
   46.1566   59.9572   32.4138 C   0  0  0  0  0  0  0  0  0  0  0  0
   46.1531   61.2334   32.0375 N   0  0  0  0  0  0  0  0  0  0  0  0
   48.5777   59.8241   33.0698 N   0  0  0  0  0  0  0  0  0  0  0  0
   49.3450   58.8261   33.5678 C   0  0  0  0  0  0  0  0  0  0  0  0
   48.5704   57.7029   33.6956 N   0  0  0  0  0  0  0  0  0  0  0  0
  2  1  1  6  0  0  0
  2  3  1  0  0  0  0
  2  5  1  0  0  0  0
  3  4  1  0  0  0  0
  3 17  1  0  0  0  0
  5  6  1  0  0  0  0
  7  6  1  6  0  0  0
  7  8  1  0  0  0  0
  7  9  1  0  0  0  0
 10  9  1  6  0  0  0
 10 11  1  0  0  0  0
 10 12  1  0  0  0  0
 11 16  1  0  0  0  0
 12 13  1  1  0  0  0
 12 14  1  0  0  0  0
 14 15  1  1  0  0  0
 14 16  1  0  0  0  0
 16 27  1  6  0  0  0
 18 19  2  0  0  0  0
 18 23  1  0  0  0  0
 19 20  1  0  0  0  0
 20 21  2  0  0  0  0
 21 22  1  0  0  0  0
 21 27  1  0  0  0  0
 22 23  2  0  0  0  0
 22 25  1  0  0  0  0
 23 24  1  0  0  0  0
 25 26  2  0  0  0  0
 26 27  1  0  0  0  0
M  END
>  <CHROM.1>
-114.04151187,-173.48530733,53.64729521,-96.73793389,-84.72497680,-44.81647723
96.37929084,47.37582475,56.40017758,31.76160494,2.09106394,1.06450987,-2.36953078

>  <Name>
ligand

>  <RI>
0

>  <Rbt.Current_Directory>
/home/itssahil/PROJECTS/Mol_Feturizer/New_Systems/rnas/3GX7

>  <Rbt.Executable>
rbdock ($Id: //depot/dev/client3/rdock/2013.1/src/exe/rbdock.cxx#4 $)

>  <Rbt.Library>
libRbt.so (2013.1, Build901 2013/11/27)

>  <Rbt.Parameter_File>
/export/apps/rDock/src/rDock_2013.1_src/data/scripts/dock_solv.prm

>  <Rbt.Receptor>
prm/pocket_docking_4.prm

>  <SCORE>
-16.1338

>  <SCORE.INTER>
-10.9435

>  <SCORE.INTER.CONST>
1

>  <SCORE.INTER.POLAR>
0

>  <SCORE.INTER.ROT>
7

>  <SCORE.INTER.SOLV>
18.7652

>  <SCORE.INTER.VDW>
-21.8174

>  <SCORE.INTER.norm>
-0.405314

>  <SCORE.INTRA>
-5.1903

>  <SCORE.INTRA.DIHEDRAL>
-4.28844

>  <SCORE.INTRA.DIHEDRAL.0>
11.2699

>  <SCORE.INTRA.POLAR>
0

>  <SCORE.INTRA.POLAR.0>
0

>  <SCORE.INTRA.REPUL>
0

>  <SCORE.INTRA.REPUL.0>
0

>  <SCORE.INTRA.SOLV>
-0.697758

>  <SCORE.INTRA.SOLV.lig_0>
-48.6447

>  <SCORE.INTRA.VDW>
-2.6972

>  <SCORE.INTRA.VDW.0>
-0.0211724

>  <SCORE.INTRA.norm>
-0.192233

>  <SCORE.RESTR>
0

>  <SCORE.RESTR.CAVITY>
0

>  <SCORE.RESTR.norm>
0

>  <SCORE.SYSTEM>
0

>  <SCORE.SYSTEM.CONST>
0

>  <SCORE.SYSTEM.DIHEDRAL>
0

>  <SCORE.SYSTEM.SOLV>
0

>  <SCORE.SYSTEM.norm>
0

>  <SCORE.heavy>
27

>  <SCORE.norm>
-0.597547

>  <RMSD>
1.753

$$$$
ligand
 OpenBabel11021811483D
libRbt.so/2013.1/901 2013/11/27
 27 29  0  0  0  0  0  0  0  0999 V2000
   44.2383   56.0300   29.3109 N   0  0  0  0  0  0  0  0  0  0  0  0
   45.6186   55.6055   29.1108 C   0  0  2  0  0  0  0  0  0  0  0  0
   46.0674   55.8963   27.6883 C   0  0  0  0  0  0  0  0  0  0  0  0
   46.9466   56.7270   27.4715 O   0  0  0  0  0  0  0  0  0  0  0  0
   45.8117   54.1251   29.4363 C   0  0  0  0  0  0  0  0  0  0  0  0
   47.2584   53.6468   29.4060 C   0  0  0  0  0  0  0  0  0  0  0  0
   48.3323   54.4186   30.6480 S   0  0  2  0  0  0  0  0  0  0  0  0
   49.9275   53.6615   30.2516 C   0  0  0  0  0  0  0  0  0  0  0  0
   47.8680   53.4639   32.1166 C   0  0  0  0  0  0  0  0  0  0  0  0
   48.5478   54.0488   33.3456 C   0  0  1  0  0  0  0  0  0  0  0  0
   49.1108   55.2881   32.9886 O   0  0  0  0  0  0  0  0  0  0  0  0
   47.6109   54.3602   34.4953 C   0  0  1  0  0  0  0  0  0  0  0  0
   47.6240   53.3124   35.4338 O   0  0  0  0  0  0  0  0  0  0  0  0
   48.1913   55.6281   35.0952 C   0  0  1  0  0  0  0  0  0  0  0  0
   48.8546   55.3119   36.2963 O   0  0  0  0  0  0  0  0  0  0  0  0
   49.1884   56.1705   34.0790 C   0  0  2  0  0  0  0  0  0  0  0  0
   45.5631   55.3034   26.7341 O   0  0  0  0  0  0  0  0  0  0  0  0
   45.1510   59.1159   32.4335 N   0  0  0  0  0  0  0  0  0  0  0  0
   45.1501   57.7800   32.7806 C   0  0  0  0  0  0  0  0  0  0  0  0
   46.3168   57.1633   33.1939 N   0  0  0  0  0  0  0  0  0  0  0  0
   47.4747   57.8568   33.2560 C   0  0  0  0  0  0  0  0  0  0  0  0
   47.4974   59.2020   32.9188 C   0  0  0  0  0  0  0  0  0  0  0  0
   46.3278   59.8313   32.5007 C   0  0  0  0  0  0  0  0  0  0  0  0
   46.3320   61.1192   32.1668 N   0  0  0  0  0  0  0  0  0  0  0  0
   48.7646   59.6437   33.0811 N   0  0  0  0  0  0  0  0  0  0  0  0
   49.5313   58.6194   33.5234 C   0  0  0  0  0  0  0  0  0  0  0  0
   48.7446   57.5032   33.6367 N   0  0  0  0  0  0  0  0  0  0  0  0
  2  1  1  6  0  0  0
  2  3  1  0  0  0  0
  2  5  1  0  0  0  0
  3  4  1  0  0  0  0
  3 17  1  0  0  0  0
  5  6  1  0  0  0  0
  7  6  1  6  0  0  0
  7  8  1  0  0  0  0
  7  9  1  0  0  0  0
 10  9  1  6  0  0  0
 10 11  1  0  0  0  0
 10 12  1  0  0  0  0
 11 16  1  0  0  0  0
 12 13  1  1  0  0  0
 12 14  1  0  0  0  0
 14 15  1  1  0  0  0
 14 16  1  0  0  0  0
 16 27  1  6  0  0  0
 18 19  2  0  0  0  0
 18 23  1  0  0  0  0
 19 20  1  0  0  0  0
 20 21  2  0  0  0  0
 21 22  1  0  0  0  0
 21 27  1  0  0  0  0
 22 23  2  0  0  0  0
 22 25  1  0  0  0  0
 23 24  1  0  0  0  0
 25 26  2  0  0  0  0
 26 27  1  0  0  0  0
M  END
>  <CHROM.1>
113.86330728,-173.25975980,63.71640542,-177.79578044,-173.76984765,11.06023413
67.25924020,47.39908374,56.15976016,31.88665791,2.32171748,1.10503178,-2.48939003

>  <Name>
ligand

>  <RI>
0

>  <Rbt.Current_Directory>
/home/itssahil/PROJECTS/Mol_Feturizer/New_Systems/rnas/3GX7

>  <Rbt.Executable>
rbdock ($Id: //depot/dev/client3/rdock/2013.1/src/exe/rbdock.cxx#4 $)

>  <Rbt.Library>
libRbt.so (2013.1, Build901 2013/11/27)

>  <Rbt.Parameter_File>
/export/apps/rDock/src/rDock_2013.1_src/data/scripts/dock_solv.prm

>  <Rbt.Receptor>
prm/pocket_docking_4.prm

>  <SCORE>
-16.6016

>  <SCORE.INTER>
-13.1426

>  <SCORE.INTER.CONST>
1

>  <SCORE.INTER.POLAR>
0

>  <SCORE.INTER.ROT>
7

>  <SCORE.INTER.SOLV>
19.4245

>  <SCORE.INTER.VDW>
-23.5032

>  <SCORE.INTER.norm>
-0.486761

>  <SCORE.INTRA>
-3.45906

>  <SCORE.INTRA.DIHEDRAL>
-2.17955

>  <SCORE.INTRA.DIHEDRAL.0>
11.2699

>  <SCORE.INTRA.POLAR>
0

>  <SCORE.INTRA.POLAR.0>
0

>  <SCORE.INTRA.REPUL>
0

>  <SCORE.INTRA.REPUL.0>
0

>  <SCORE.INTRA.SOLV>
-0.857311

>  <SCORE.INTRA.SOLV.lig_0>
-48.6447

>  <SCORE.INTRA.VDW>
-1.94063

>  <SCORE.INTRA.VDW.0>
-0.0211724

>  <SCORE.INTRA.norm>
-0.128113

>  <SCORE.RESTR>
0

>  <SCORE.RESTR.CAVITY>
0

>  <SCORE.RESTR.norm>
0

>  <SCORE.SYSTEM>
0

>  <SCORE.SYSTEM.CONST>
0

>  <SCORE.SYSTEM.DIHEDRAL>
0

>  <SCORE.SYSTEM.SOLV>
0

>  <SCORE.SYSTEM.norm>
0

>  <SCORE.heavy>
27

>  <SCORE.norm>
-0.614875

>  <RMSD>
1.764

$$$$
ligand
 OpenBabel11021811483D
libRbt.so/2013.1/901 2013/11/27
 27 29  0  0  0  0  0  0  0  0999 V2000
   46.5675   53.7933   27.4055 N   0  0  0  0  0  0  0  0  0  0  0  0
   47.5351   54.4670   28.2631 C   0  0  2  0  0  0  0  0  0  0  0  0
   47.9801   55.7797   27.6400 C   0  0  0  0  0  0  0  0  0  0  0  0
   47.3490   56.8129   27.8502 O   0  0  0  0  0  0  0  0  0  0  0  0
   48.7455   53.5827   28.5594 C   0  0  0  0  0  0  0  0  0  0  0  0
   48.4662   52.4056   29.4863 C   0  0  0  0  0  0  0  0  0  0  0  0
   48.1606   52.8647   31.2147 S   0  0  2  0  0  0  0  0  0  0  0  0
   46.5834   53.7405   31.0714 C   0  0  0  0  0  0  0  0  0  0  0  0
   49.3015   54.2622   31.3857 C   0  0  0  0  0  0  0  0  0  0  0  0
   49.3469   54.7136   32.8379 C   0  0  1  0  0  0  0  0  0  0  0  0
   49.7179   56.0708   32.8651 O   0  0  0  0  0  0  0  0  0  0  0  0
   48.0141   54.6569   33.5570 C   0  0  1  0  0  0  0  0  0  0  0  0
   47.9138   53.4710   34.3071 O   0  0  0  0  0  0  0  0  0  0  0  0
   48.0487   55.8699   34.4690 C   0  0  1  0  0  0  0  0  0  0  0  0
   48.2845   55.4495   35.7919 O   0  0  0  0  0  0  0  0  0  0  0  0
   49.2028   56.7403   33.9875 C   0  0  2  0  0  0  0  0  0  0  0  0
   48.9788   55.8304   26.9215 O   0  0  0  0  0  0  0  0  0  0  0  0
   45.0274   59.3807   32.1770 N   0  0  0  0  0  0  0  0  0  0  0  0
   45.1223   58.0395   32.4887 C   0  0  0  0  0  0  0  0  0  0  0  0
   46.3122   57.5119   32.9559 N   0  0  0  0  0  0  0  0  0  0  0  0
   47.3999   58.2992   33.1061 C   0  0  0  0  0  0  0  0  0  0  0  0
   47.3252   59.6513   32.8058 C   0  0  0  0  0  0  0  0  0  0  0  0
   46.1317   60.1913   32.3339 C   0  0  0  0  0  0  0  0  0  0  0  0
   46.0434   61.4847   32.0344 N   0  0  0  0  0  0  0  0  0  0  0  0
   48.5376   60.1941   33.0560 N   0  0  0  0  0  0  0  0  0  0  0  0
   49.3634   59.2256   33.5174 C   0  0  0  0  0  0  0  0  0  0  0  0
   48.6713   58.0434   33.5538 N   0  0  0  0  0  0  0  0  0  0  0  0
  2  1  1  6  0  0  0
  2  3  1  0  0  0  0
  2  5  1  0  0  0  0
  3  4  1  0  0  0  0
  3 17  1  0  0  0  0
  5  6  1  0  0  0  0
  7  6  1  6  0  0  0
  7  8  1  0  0  0  0
  7  9  1  0  0  0  0
 10  9  1  6  0  0  0
 10 11  1  0  0  0  0
 10 12  1  0  0  0  0
 11 16  1  0  0  0  0
 12 13  1  1  0  0  0
 12 14  1  0  0  0  0
 14 15  1  1  0  0  0
 14 16  1  0  0  0  0
 16 27  1  6  0  0  0
 18 19  2  0  0  0  0
 18 23  1  0  0  0  0
 19 20  1  0  0  0  0
 20 21  2  0  0  0  0
 21 22  1  0  0  0  0
 21 27  1  0  0  0  0
 22 23  2  0  0  0  0
 22 25  1  0  0  0  0
 23 24  1  0  0  0  0
 25 26  2  0  0  0  0
 26 27  1  0  0  0  0
M  END
>  <CHROM.1>
87.87339522,-70.79509551,-70.97205194,67.42715154,-172.88741200,-154.35249978
88.35318264,47.82317305,56.14584666,31.64213504,1.16245800,1.27228815,-2.07193990

>  <Name>
ligand

>  <RI>
0

>  <Rbt.Current_Directory>
/home/itssahil/PROJECTS/Mol_Feturizer/New_Systems/rnas/3GX7

>  <Rbt.Executable>
rbdock ($Id: //depot/dev/client3/rdock/2013.1/src/exe/rbdock.cxx#4 $)

>  <Rbt.Library>
libRbt.so (2013.1, Build901 2013/11/27)

>  <Rbt.Parameter_File>
/export/apps/rDock/src/rDock_2013.1_src/data/scripts/dock_solv.prm

>  <Rbt.Receptor>
prm/pocket_docking_2.prm

>  <SCORE>
-15.4959

>  <SCORE.INTER>
-15.3364

>  <SCORE.INTER.CONST>
1

>  <SCORE.INTER.POLAR>
0

>  <SCORE.INTER.ROT>
7

>  <SCORE.INTER.SOLV>
17.6808

>  <SCORE.INTER.VDW>
-24.3845

>  <SCORE.INTER.norm>
-0.568014

>  <SCORE.INTRA>
-0.164092

>  <SCORE.INTRA.DIHEDRAL>
-3.78397

>  <SCORE.INTRA.DIHEDRAL.0>
11.2699

>  <SCORE.INTRA.POLAR>
0

>  <SCORE.INTRA.POLAR.0>
0

>  <SCORE.INTRA.REPUL>
0

>  <SCORE.INTRA.REPUL.0>
0

>  <SCORE.INTRA.SOLV>
1.00295

>  <SCORE.INTRA.SOLV.lig_0>
-48.6447

>  <SCORE.INTRA.VDW>
1.22642

>  <SCORE.INTRA.VDW.0>
-0.0211724

>  <SCORE.INTRA.norm>
-0.00607748

>  <SCORE.RESTR>
0.00455374

>  <SCORE.RESTR.CAVITY>
0.00455374

>  <SCORE.RESTR.norm>
0.000168657

>  <SCORE.SYSTEM>
0

>  <SCORE.SYSTEM.CONST>
0

>  <SCORE.SYSTEM.DIHEDRAL>
0

>  <SCORE.SYSTEM.SOLV>
0

>  <SCORE.SYSTEM.norm>
0

>  <SCORE.heavy>
27

>  <SCORE.norm>
-0.573923

>  <RMSD>
1.797

$$$$
ligand
 OpenBabel11021811483D
libRbt.so/2013.1/901 2013/11/27
 27 29  0  0  0  0  0  0  0  0999 V2000
   52.0617   55.9558   28.5310 N   0  0  0  0  0  0  0  0  0  0  0  0
   51.2406   54.9928   27.8071 C   0  0  2  0  0  0  0  0  0  0  0  0
   50.0540   55.6836   27.1557 C   0  0  0  0  0  0  0  0  0  0  0  0
   49.5137   56.6407   27.7051 O   0  0  0  0  0  0  0  0  0  0  0  0
   50.7632   53.8580   28.7122 C   0  0  0  0  0  0  0  0  0  0  0  0
   49.8787   54.2951   29.8737 C   0  0  0  0  0  0  0  0  0  0  0  0
   49.0367   52.9361   30.7314 S   0  0  2  0  0  0  0  0  0  0  0  0
   47.9581   52.3089   29.4206 C   0  0  0  0  0  0  0  0  0  0  0  0
   47.8428   53.8696   31.7248 C   0  0  0  0  0  0  0  0  0  0  0  0
   48.5446   54.4871   32.9252 C   0  0  1  0  0  0  0  0  0  0  0  0
   49.0883   55.7230   32.5287 O   0  0  0  0  0  0  0  0  0  0  0  0
   47.6308   54.8157   34.0886 C   0  0  1  0  0  0  0  0  0  0  0  0
   47.6743   53.7888   35.0491 O   0  0  0  0  0  0  0  0  0  0  0  0
   48.2130   56.1013   34.6476 C   0  0  1  0  0  0  0  0  0  0  0  0
   48.9057   55.8172   35.8400 O   0  0  0  0  0  0  0  0  0  0  0  0
   49.1823   56.6297   33.5976 C   0  0  2  0  0  0  0  0  0  0  0  0
   49.6195   55.3002   26.0691 O   0  0  0  0  0  0  0  0  0  0  0  0
   45.0325   59.6234   32.3725 N   0  0  0  0  0  0  0  0  0  0  0  0
   45.0441   58.3130   32.8057 C   0  0  0  0  0  0  0  0  0  0  0  0
   46.2409   57.6778   33.0824 N   0  0  0  0  0  0  0  0  0  0  0  0
   47.4151   58.3275   32.9251 C   0  0  0  0  0  0  0  0  0  0  0  0
   47.4267   59.6470   32.4978 C   0  0  0  0  0  0  0  0  0  0  0  0
   46.2267   60.2946   32.2158 C   0  0  0  0  0  0  0  0  0  0  0  0
   46.2189   61.5579   31.7984 N   0  0  0  0  0  0  0  0  0  0  0  0
   48.7164   60.0476   32.4402 N   0  0  0  0  0  0  0  0  0  0  0  0
   49.5103   59.0236   32.8325 C   0  0  0  0  0  0  0  0  0  0  0  0
   48.7167   57.9486   33.1365 N   0  0  0  0  0  0  0  0  0  0  0  0
  2  1  1  1  0  0  0
  2  3  1  0  0  0  0
  2  5  1  0  0  0  0
  3  4  1  0  0  0  0
  3 17  1  0  0  0  0
  5  6  1  0  0  0  0
  7  6  1  6  0  0  0
  7  8  1  0  0  0  0
  7  9  1  0  0  0  0
 10  9  1  6  0  0  0
 10 11  1  0  0  0  0
 10 12  1  0  0  0  0
 11 16  1  0  0  0  0
 12 13  1  1  0  0  0
 12 14  1  0  0  0  0
 14 15  1  1  0  0  0
 14 16  1  0  0  0  0
 16 27  1  6  0  0  0
 18 19  2  0  0  0  0
 18 23  1  0  0  0  0
 19 20  1  0  0  0  0
 20 21  2  0  0  0  0
 21 22  1  0  0  0  0
 21 27  1  0  0  0  0
 22 23  2  0  0  0  0
 22 25  1  0  0  0  0
 23 24  1  0  0  0  0
 25 26  2  0  0  0  0
 26 27  1  0  0  0  0
M  END
>  <CHROM.1>
-34.28475245,61.85256332,167.79927261,-64.38444652,-77.17412129,86.02122942
75.37672042,48.49408736,56.25399227,31.50806528,-0.04154161,1.14333116,-0.69463557

>  <Name>
ligand

>  <RI>
0

>  <Rbt.Current_Directory>
/home/itssahil/PROJECTS/Mol_Feturizer/New_Systems/rnas/3GX7

>  <Rbt.Executable>
rbdock ($Id: //depot/dev/client3/rdock/2013.1/src/exe/rbdock.cxx#4 $)

>  <Rbt.Library>
libRbt.so (2013.1, Build901 2013/11/27)

>  <Rbt.Parameter_File>
/export/apps/rDock/src/rDock_2013.1_src/data/scripts/dock_solv.prm

>  <Rbt.Receptor>
prm/pocket_docking_6.prm

>  <SCORE>
-21.5453

>  <SCORE.INTER>
-16.2691

>  <SCORE.INTER.CONST>
1

>  <SCORE.INTER.POLAR>
0

>  <SCORE.INTER.ROT>
7

>  <SCORE.INTER.SOLV>
24.301

>  <SCORE.INTER.VDW>
-27.213

>  <SCORE.INTER.norm>
-0.602558

>  <SCORE.INTRA>
-5.27623

>  <SCORE.INTRA.DIHEDRAL>
-5.18018

>  <SCORE.INTRA.DIHEDRAL.0>
11.2699

>  <SCORE.INTRA.POLAR>
0

>  <SCORE.INTRA.POLAR.0>
0

>  <SCORE.INTRA.REPUL>
0

>  <SCORE.INTRA.REPUL.0>
0

>  <SCORE.INTRA.SOLV>
-0.421411

>  <SCORE.INTRA.SOLV.lig_0>
-48.6447

>  <SCORE.INTRA.VDW>
-2.47543

>  <SCORE.INTRA.VDW.0>
-0.0211724

>  <SCORE.INTRA.norm>
-0.195416

>  <SCORE.RESTR>
0

>  <SCORE.RESTR.CAVITY>
0

>  <SCORE.RESTR.norm>
0

>  <SCORE.SYSTEM>
0

>  <SCORE.SYSTEM.CONST>
0

>  <SCORE.SYSTEM.DIHEDRAL>
0

>  <SCORE.SYSTEM.SOLV>
0

>  <SCORE.SYSTEM.norm>
0

>  <SCORE.heavy>
27

>  <SCORE.norm>
-0.797974

>  <RMSD>
1.830

$$$$
ligand
 OpenBabel11021811483D
libRbt.so/2013.1/901 2013/11/27
 27 29  0  0  0  0  0  0  0  0999 V2000
   47.3607   55.1245   25.4468 N   0  0  0  0  0  0  0  0  0  0  0  0
   46.7888   55.3309   26.7719 C   0  0  2  0  0  0  0  0  0  0  0  0
   47.6102   56.3390   27.5585 C   0  0  0  0  0  0  0  0  0  0  0  0
   47.0784   57.0400   28.4162 O   0  0  0  0  0  0  0  0  0  0  0  0
   46.6685   54.0214   27.5501 C   0  0  0  0  0  0  0  0  0  0  0  0
   47.9724   53.2479   27.7062 C   0  0  0  0  0  0  0  0  0  0  0  0
   48.5667   53.1118   29.4149 S   0  0  2  0  0  0  0  0  0  0  0  0
   47.0364   52.6957   30.2866 C   0  0  0  0  0  0  0  0  0  0  0  0
   48.7262   54.8653   29.8435 C   0  0  0  0  0  0  0  0  0  0  0  0
   49.1827   55.0015   31.2884 C   0  0  1  0  0  0  0  0  0  0  0  0
   49.5604   56.3396   31.5058 O   0  0  0  0  0  0  0  0  0  0  0  0
   48.1054   54.7259   32.3179 C   0  0  1  0  0  0  0  0  0  0  0  0
   48.2079   53.4048   32.7904 O   0  0  0  0  0  0  0  0  0  0  0  0
   48.4076   55.7190   33.4254 C   0  0  1  0  0  0  0  0  0  0  0  0
   49.0015   55.0414   34.5074 O   0  0  0  0  0  0  0  0  0  0  0  0
   49.3887   56.7296   32.8444 C   0  0  2  0  0  0  0  0  0  0  0  0
   48.8178   56.4660   27.3535 O   0  0  0  0  0  0  0  0  0  0  0  0
   45.4426   59.7571   31.1278 N   0  0  0  0  0  0  0  0  0  0  0  0
   45.6861   58.4279   30.8467 C   0  0  0  0  0  0  0  0  0  0  0  0
   46.7839   57.7869   31.3910 N   0  0  0  0  0  0  0  0  0  0  0  0
   47.6375   58.4541   32.1983 C   0  0  0  0  0  0  0  0  0  0  0  0
   47.4084   59.7884   32.5001 C   0  0  0  0  0  0  0  0  0  0  0  0
   46.3062   60.4424   31.9560 C   0  0  0  0  0  0  0  0  0  0  0  0
   46.0743   61.7238   32.2290 N   0  0  0  0  0  0  0  0  0  0  0  0
   48.3969   60.1970   33.3266 N   0  0  0  0  0  0  0  0  0  0  0  0
   49.2285   59.1550   33.5622 C   0  0  0  0  0  0  0  0  0  0  0  0
   48.7702   58.0659   32.8683 N   0  0  0  0  0  0  0  0  0  0  0  0
  2  1  1  6  0  0  0
  2  3  1  0  0  0  0
  2  5  1  0  0  0  0
  3  4  1  0  0  0  0
  3 17  1  0  0  0  0
  5  6  1  0  0  0  0
  7  6  1  6  0  0  0
  7  8  1  0  0  0  0
  7  9  1  0  0  0  0
 10  9  1  6  0  0  0
 10 11  1  0  0  0  0
 10 12  1  0  0  0  0
 11 16  1  0  0  0  0
 12 13  1  1  0  0  0
 12 14  1  0  0  0  0
 14 15  1  1  0  0  0
 14 16  1  0  0  0  0
 16 27  1  6  0  0  0
 18 19  2  0  0  0  0
 18 23  1  0  0  0  0
 19 20  1  0  0  0  0
 20 21  2  0  0  0  0
 21 22  1  0  0  0  0
 21 27  1  0  0  0  0
 22 23  2  0  0  0  0
 22 25  1  0  0  0  0
 23 24  1  0  0  0  0
 25 26  2  0  0  0  0
 26 27  1  0  0  0  0
M  END
>  <CHROM.1>
151.09698708,56.02948647,114.61714308,44.39165853,178.20698530,168.03737651
51.34215967,47.84602317,56.38018079,30.69059029,1.44896572,1.17785608,-2.32270800

>  <Name>
ligand

>  <RI>
0

>  <Rbt.Current_Directory>
/home/itssahil/PROJECTS/Mol_Feturizer/New_Systems/rnas/3GX7

>  <Rbt.Executable>
rbdock ($Id: //depot/dev/client3/rdock/2013.1/src/exe/rbdock.cxx#4 $)

>  <Rbt.Library>
libRbt.so (2013.1, Build901 2013/11/27)

>  <Rbt.Parameter_File>
/export/apps/rDock/src/rDock_2013.1_src/data/scripts/dock_solv.prm

>  <Rbt.Receptor>
prm/pocket_docking_2.prm

>  <SCORE>
-8.14571

>  <SCORE.INTER>
-6.9889

>  <SCORE.INTER.CONST>
1

>  <SCORE.INTER.POLAR>
0

>  <SCORE.INTER.ROT>
7

>  <SCORE.INTER.SOLV>
19.1555

>  <SCORE.INTER.VDW>
-19.3111

>  <SCORE.INTER.norm>
-0.258848

>  <SCORE.INTRA>
-1.91627

>  <SCORE.INTRA.DIHEDRAL>
-1.88282

>  <SCORE.INTRA.DIHEDRAL.0>
11.2699

>  <SCORE.INTRA.POLAR>
0

>  <SCORE.INTRA.POLAR.0>
0

>  <SCORE.INTRA.REPUL>
0

>  <SCORE.INTRA.REPUL.0>
0

>  <SCORE.INTRA.SOLV>
0.0668755

>  <SCORE.INTRA.SOLV.lig_0>
-48.6447

>  <SCORE.INTRA.VDW>
-1.0083

>  <SCORE.INTRA.VDW.0>
-0.0211724

>  <SCORE.INTRA.norm>
-0.0709731

>  <SCORE.RESTR>
0.759463

>  <SCORE.RESTR.CAVITY>
0.759463

>  <SCORE.RESTR.norm>
0.0281283

>  <SCORE.SYSTEM>
0

>  <SCORE.SYSTEM.CONST>
0

>  <SCORE.SYSTEM.DIHEDRAL>
0

>  <SCORE.SYSTEM.SOLV>
0

>  <SCORE.SYSTEM.norm>
0

>  <SCORE.heavy>
27

>  <SCORE.norm>
-0.301693

>  <RMSD>
1.833

$$$$
ligand
 OpenBabel11021811483D
libRbt.so/2013.1/901 2013/11/27
 27 29  0  0  0  0  0  0  0  0999 V2000
   48.6321   55.2903   25.6267 N   0  0  0  0  0  0  0  0  0  0  0  0
   48.3572   55.2966   27.0584 C   0  0  2  0  0  0  0  0  0  0  0  0
   49.6529   55.3175   27.8523 C   0  0  0  0  0  0  0  0  0  0  0  0
   49.8697   56.2135   28.6647 O   0  0  0  0  0  0  0  0  0  0  0  0
   47.4966   54.1058   27.4779 C   0  0  0  0  0  0  0  0  0  0  0  0
   47.0255   54.1358   28.9270 C   0  0  0  0  0  0  0  0  0  0  0  0
   48.3343   53.8479   30.1499 S   0  0  2  0  0  0  0  0  0  0  0  0
   48.6063   52.0689   29.9604 C   0  0  0  0  0  0  0  0  0  0  0  0
   47.3614   53.8736   31.6785 C   0  0  0  0  0  0  0  0  0  0  0  0
   48.2095   54.4179   32.8182 C   0  0  1  0  0  0  0  0  0  0  0  0
   48.7802   55.6342   32.3994 O   0  0  0  0  0  0  0  0  0  0  0  0
   47.4325   54.7609   34.0733 C   0  0  1  0  0  0  0  0  0  0  0  0
   47.5117   53.7058   35.0004 O   0  0  0  0  0  0  0  0  0  0  0  0
   48.1369   55.9971   34.6025 C   0  0  1  0  0  0  0  0  0  0  0  0
   48.9251   55.6422   35.7139 O   0  0  0  0  0  0  0  0  0  0  0  0
   49.0277   56.5034   33.4750 C   0  0  2  0  0  0  0  0  0  0  0  0
   50.5010   54.4379   27.6988 O   0  0  0  0  0  0  0  0  0  0  0  0
   44.9591   59.6309   32.3134 N   0  0  0  0  0  0  0  0  0  0  0  0
   44.9407   58.2927   32.6509 C   0  0  0  0  0  0  0  0  0  0  0  0
   46.1194   57.6238   32.9261 N   0  0  0  0  0  0  0  0  0  0  0  0
   47.3053   58.2679   32.8606 C   0  0  0  0  0  0  0  0  0  0  0  0
   47.3469   59.6144   32.5305 C   0  0  0  0  0  0  0  0  0  0  0  0
   46.1654   60.2960   32.2509 C   0  0  0  0  0  0  0  0  0  0  0  0
   46.1866   61.5861   31.9259 N   0  0  0  0  0  0  0  0  0  0  0  0
   48.6419   60.0014   32.5509 N   0  0  0  0  0  0  0  0  0  0  0  0
   49.4095   58.9415   32.8978 C   0  0  0  0  0  0  0  0  0  0  0  0
   48.5938   57.8579   33.0932 N   0  0  0  0  0  0  0  0  0  0  0  0
  2  1  1  6  0  0  0
  2  3  1  0  0  0  0
  2  5  1  0  0  0  0
  3  4  1  0  0  0  0
  3 17  1  0  0  0  0
  5  6  1  0  0  0  0
  7  6  1  6  0  0  0
  7  8  1  0  0  0  0
  7  9  1  0  0  0  0
 10  9  1  6  0  0  0
 10 11  1  0  0  0  0
 10 12  1  0  0  0  0
 11 16  1  0  0  0  0
 12 13  1  1  0  0  0
 12 14  1  0  0  0  0
 14 15  1  1  0  0  0
 14 16  1  0  0  0  0
 16 27  1  6  0  0  0
 18 19  2  0  0  0  0
 18 23  1  0  0  0  0
 19 20  1  0  0  0  0
 20 21  2  0  0  0  0
 21 22  1  0  0  0  0
 21 27  1  0  0  0  0
 22 23  2  0  0  0  0
 22 25  1  0  0  0  0
 23 24  1  0  0  0  0
 25 26  2  0  0  0  0
 26 27  1  0  0  0  0
M  END
>  <CHROM.1>
123.10733881,-172.85632987,-70.79073121,-74.01601119,-148.53858304,51.05966634
66.78889793,47.97012297,56.20754517,31.37392076,0.49649838,1.30317126,-1.20754932

>  <Name>
ligand

>  <RI>
0

>  <Rbt.Current_Directory>
/home/itssahil/PROJECTS/Mol_Feturizer/New_Systems/rnas/3GX7

>  <Rbt.Executable>
rbdock ($Id: //depot/dev/client3/rdock/2013.1/src/exe/rbdock.cxx#4 $)

>  <Rbt.Library>
libRbt.so (2013.1, Build901 2013/11/27)

>  <Rbt.Parameter_File>
/export/apps/rDock/src/rDock_2013.1_src/data/scripts/dock_solv.prm

>  <Rbt.Receptor>
prm/pocket_docking_4.prm

>  <SCORE>
-17.7973

>  <SCORE.INTER>
-12.1501

>  <SCORE.INTER.CONST>
1

>  <SCORE.INTER.POLAR>
0

>  <SCORE.INTER.ROT>
7

>  <SCORE.INTER.SOLV>
16.9351

>  <SCORE.INTER.VDW>
-22.0117

>  <SCORE.INTER.norm>
-0.450002

>  <SCORE.INTRA>
-5.64724

>  <SCORE.INTRA.DIHEDRAL>
-3.89963

>  <SCORE.INTRA.DIHEDRAL.0>
11.2699

>  <SCORE.INTRA.POLAR>
0

>  <SCORE.INTRA.POLAR.0>
0

>  <SCORE.INTRA.REPUL>
0

>  <SCORE.INTRA.REPUL.0>
0

>  <SCORE.INTRA.SOLV>
-0.928161

>  <SCORE.INTRA.SOLV.lig_0>
-48.6447

>  <SCORE.INTRA.VDW>
-3.23335

>  <SCORE.INTRA.VDW.0>
-0.0211724

>  <SCORE.INTRA.norm>
-0.209157

>  <SCORE.RESTR>
0

>  <SCORE.RESTR.CAVITY>
0

>  <SCORE.RESTR.norm>
0

>  <SCORE.SYSTEM>
0

>  <SCORE.SYSTEM.CONST>
0

>  <SCORE.SYSTEM.DIHEDRAL>
0

>  <SCORE.SYSTEM.SOLV>
0

>  <SCORE.SYSTEM.norm>
0

>  <SCORE.heavy>
27

>  <SCORE.norm>
-0.65916

>  <RMSD>
1.875

$$$$
ligand
 OpenBabel11021811483D
libRbt.so/2013.1/901 2013/11/27
 27 29  0  0  0  0  0  0  0  0999 V2000
   46.0683   52.9978   27.3826 N   0  0  0  0  0  0  0  0  0  0  0  0
   46.7599   54.2035   27.8224 C   0  0  2  0  0  0  0  0  0  0  0  0
   46.2988   55.4084   27.0190 C   0  0  0  0  0  0  0  0  0  0  0  0
   45.4298   56.1555   27.4625 O   0  0  0  0  0  0  0  0  0  0  0  0
   48.2779   54.0541   27.7315 C   0  0  0  0  0  0  0  0  0  0  0  0
   48.9578   53.6310   29.0282 C   0  0  0  0  0  0  0  0  0  0  0  0
   48.4833   54.6090   30.4806 S   0  0  2  0  0  0  0  0  0  0  0  0
   49.2869   56.1893   30.1173 C   0  0  0  0  0  0  0  0  0  0  0  0
   49.6251   53.9324   31.7145 C   0  0  0  0  0  0  0  0  0  0  0  0
   49.1920   54.3652   33.1072 C   0  0  1  0  0  0  0  0  0  0  0  0
   49.5316   55.7209   33.2717 O   0  0  0  0  0  0  0  0  0  0  0  0
   47.6974   54.3032   33.3496 C   0  0  1  0  0  0  0  0  0  0  0  0
   47.3588   53.1082   34.0102 O   0  0  0  0  0  0  0  0  0  0  0  0
   47.4297   55.5044   34.2382 C   0  0  1  0  0  0  0  0  0  0  0  0
   47.2201   55.0667   35.5599 O   0  0  0  0  0  0  0  0  0  0  0  0
   48.6765   56.3776   34.1723 C   0  0  2  0  0  0  0  0  0  0  0  0
   46.7898   55.6575   25.9175 O   0  0  0  0  0  0  0  0  0  0  0  0
   44.8269   59.3923   32.2291 N   0  0  0  0  0  0  0  0  0  0  0  0
   44.7452   58.0968   32.6980 C   0  0  0  0  0  0  0  0  0  0  0  0
   45.8718   57.4529   33.1760 N   0  0  0  0  0  0  0  0  0  0  0  0
   47.0690   58.0792   33.1832 C   0  0  0  0  0  0  0  0  0  0  0  0
   47.1730   59.3837   32.7235 C   0  0  0  0  0  0  0  0  0  0  0  0
   46.0443   60.0398   32.2395 C   0  0  0  0  0  0  0  0  0  0  0  0
   46.1264   61.2887   31.7883 N   0  0  0  0  0  0  0  0  0  0  0  0
   48.4639   59.7625   32.8547 N   0  0  0  0  0  0  0  0  0  0  0  0
   49.1668   58.7399   33.3959 C   0  0  0  0  0  0  0  0  0  0  0  0
   48.3144   57.6876   33.6053 N   0  0  0  0  0  0  0  0  0  0  0  0
  2  1  1  6  0  0  0
  2  3  1  0  0  0  0
  2  5  1  0  0  0  0
  3  4  1  0  0  0  0
  3 17  1  0  0  0  0
  5  6  1  0  0  0  0
  7  6  1  6  0  0  0
  7  8  1  0  0  0  0
  7  9  1  0  0  0  0
 10  9  1  6  0  0  0
 10 11  1  0  0  0  0
 10 12  1  0  0  0  0
 11 16  1  0  0  0  0
 12 13  1  1  0  0  0
 12 14  1  0  0  0  0
 14 15  1  1  0  0  0
 14 16  1  0  0  0  0
 16 27  1  6  0  0  0
 18 19  2  0  0  0  0
 18 23  1  0  0  0  0
 19 20  1  0  0  0  0
 20 21  2  0  0  0  0
 21 22  1  0  0  0  0
 21 27  1  0  0  0  0
 22 23  2  0  0  0  0
 22 25  1  0  0  0  0
 23 24  1  0  0  0  0
 25 26  2  0  0  0  0
 26 27  1  0  0  0  0
M  END
>  <CHROM.1>
96.97441495,-95.60814140,-49.69105770,-70.66356231,-166.44863603,-74.86130740
113.11895678,47.50382081,56.18731351,31.40976038,1.59000037,1.11505697,-2.13882264

>  <Name>
ligand

>  <RI>
0

>  <Rbt.Current_Directory>
/home/itssahil/PROJECTS/Mol_Feturizer/New_Systems/rnas/3GX7

>  <Rbt.Executable>
rbdock ($Id: //depot/dev/client3/rdock/2013.1/src/exe/rbdock.cxx#4 $)

>  <Rbt.Library>
libRbt.so (2013.1, Build901 2013/11/27)

>  <Rbt.Parameter_File>
/export/apps/rDock/src/rDock_2013.1_src/data/scripts/dock_solv.prm

>  <Rbt.Receptor>
prm/pocket_docking_2.prm

>  <SCORE>
-14.0316

>  <SCORE.INTER>
-11.41

>  <SCORE.INTER.CONST>
1

>  <SCORE.INTER.POLAR>
0

>  <SCORE.INTER.ROT>
7

>  <SCORE.INTER.SOLV>
18.5061

>  <SCORE.INTER.VDW>
-22.0421

>  <SCORE.INTER.norm>
-0.422594

>  <SCORE.INTRA>
-2.69334

>  <SCORE.INTRA.DIHEDRAL>
-1.91856

>  <SCORE.INTRA.DIHEDRAL.0>
11.2699

>  <SCORE.INTRA.POLAR>
0

>  <SCORE.INTRA.POLAR.0>
0

>  <SCORE.INTRA.REPUL>
0

>  <SCORE.INTRA.REPUL.0>
0

>  <SCORE.INTRA.SOLV>
-0.10701

>  <SCORE.INTRA.SOLV.lig_0>
-48.6447

>  <SCORE.INTRA.VDW>
-1.68056

>  <SCORE.INTRA.VDW.0>
-0.0211724

>  <SCORE.INTRA.norm>
-0.0997534

>  <SCORE.RESTR>
0.0718146

>  <SCORE.RESTR.CAVITY>
0.0718146

>  <SCORE.RESTR.norm>
0.0026598

>  <SCORE.SYSTEM>
0

>  <SCORE.SYSTEM.CONST>
0

>  <SCORE.SYSTEM.DIHEDRAL>
0

>  <SCORE.SYSTEM.SOLV>
0

>  <SCORE.SYSTEM.norm>
0

>  <SCORE.heavy>
27

>  <SCORE.norm>
-0.519688

>  <RMSD>
1.958

$$$$
ligand
 OpenBabel11021811483D
libRbt.so/2013.1/901 2013/11/27
 27 29  0  0  0  0  0  0  0  0999 V2000
   48.3665   57.6174   29.1360 N   0  0  0  0  0  0  0  0  0  0  0  0
   48.8277   56.5019   28.3183 C   0  0  2  0  0  0  0  0  0  0  0  0
   47.6599   55.8449   27.6012 C   0  0  0  0  0  0  0  0  0  0  0  0
   47.1931   56.3489   26.5825 O   0  0  0  0  0  0  0  0  0  0  0  0
   49.5927   55.4689   29.1444 C   0  0  0  0  0  0  0  0  0  0  0  0
   48.8702   54.9902   30.3981 C   0  0  0  0  0  0  0  0  0  0  0  0
   49.2459   53.2811   30.8768 S   0  0  2  0  0  0  0  0  0  0  0  0
   48.5525   52.3647   29.4789 C   0  0  0  0  0  0  0  0  0  0  0  0
   47.9615   53.0040   32.1248 C   0  0  0  0  0  0  0  0  0  0  0  0
   48.2918   53.7894   33.3852 C   0  0  1  0  0  0  0  0  0  0  0  0
   48.3759   55.1522   33.0445 O   0  0  0  0  0  0  0  0  0  0  0  0
   47.2320   53.7201   34.4662 C   0  0  1  0  0  0  0  0  0  0  0  0
   47.5714   52.7446   35.4212 O   0  0  0  0  0  0  0  0  0  0  0  0
   47.2580   55.1078   35.0810 C   0  0  1  0  0  0  0  0  0  0  0  0
   47.9099   55.0511   36.3277 O   0  0  0  0  0  0  0  0  0  0  0  0
   48.0472   55.9909   34.1224 C   0  0  2  0  0  0  0  0  0  0  0  0
   47.1677   54.7986   28.0247 O   0  0  0  0  0  0  0  0  0  0  0  0
   47.7864   60.7666   31.9297 N   0  0  0  0  0  0  0  0  0  0  0  0
   48.9104   60.0377   32.2616 C   0  0  0  0  0  0  0  0  0  0  0  0
   48.7885   58.7865   32.8379 N   0  0  0  0  0  0  0  0  0  0  0  0
   47.5687   58.2637   33.0914 C   0  0  0  0  0  0  0  0  0  0  0  0
   46.4254   58.9756   32.7595 C   0  0  0  0  0  0  0  0  0  0  0  0
   46.5383   60.2365   32.1798 C   0  0  0  0  0  0  0  0  0  0  0  0
   45.4528   60.9366   31.8610 N   0  0  0  0  0  0  0  0  0  0  0  0
   45.3584   58.2221   33.1072 N   0  0  0  0  0  0  0  0  0  0  0  0
   45.7997   57.0552   33.6327 C   0  0  0  0  0  0  0  0  0  0  0  0
   47.1700   57.0664   33.6298 N   0  0  0  0  0  0  0  0  0  0  0  0
  2  1  1  1  0  0  0
  2  3  1  0  0  0  0
  2  5  1  0  0  0  0
  3  4  1  0  0  0  0
  3 17  1  0  0  0  0
  5  6  1  0  0  0  0
  7  6  1  6  0  0  0
  7  8  1  0  0  0  0
  7  9  1  0  0  0  0
 10  9  1  6  0  0  0
 10 11  1  0  0  0  0
 10 12  1  0  0  0  0
 11 16  1  0  0  0  0
 12 13  1  1  0  0  0
 12 14  1  0  0  0  0
 14 15  1  1  0  0  0
 14 16  1  0  0  0  0
 16 27  1  6  0  0  0
 18 19  2  0  0  0  0
 18 23  1  0  0  0  0
 19 20  1  0  0  0  0
 20 21  2  0  0  0  0
 21 22  1  0  0  0  0
 21 27  1  0  0  0  0
 22 23  2  0  0  0  0
 22 25  1  0  0  0  0
 23 24  1  0  0  0  0
 25 26  2  0  0  0  0
 26 27  1  0  0  0  0
M  END
>  <CHROM.1>
79.49408902,51.24084902,149.16611472,-65.14772742,-72.18981265,58.83759697
-87.14774370,47.78720083,56.13622994,31.81302597,0.08562105,1.32365123,-1.06801058

>  <Name>
ligand

>  <RI>
0

>  <Rbt.Current_Directory>
/home/itssahil/PROJECTS/Mol_Feturizer/New_Systems/rnas/3GX7

>  <Rbt.Executable>
rbdock ($Id: //depot/dev/client3/rdock/2013.1/src/exe/rbdock.cxx#4 $)

>  <Rbt.Library>
libRbt.so (2013.1, Build901 2013/11/27)

>  <Rbt.Parameter_File>
/export/apps/rDock/src/rDock_2013.1_src/data/scripts/dock_solv.prm

>  <Rbt.Receptor>
prm/pocket_docking_2.prm

>  <SCORE>
-16.0098

>  <SCORE.INTER>
-13.3666

>  <SCORE.INTER.CONST>
1

>  <SCORE.INTER.POLAR>
0

>  <SCORE.INTER.ROT>
7

>  <SCORE.INTER.SOLV>
18.8269

>  <SCORE.INTER.VDW>
-23.4534

>  <SCORE.INTER.norm>
-0.495059

>  <SCORE.INTRA>
-2.99717

>  <SCORE.INTRA.DIHEDRAL>
-4.81591

>  <SCORE.INTRA.DIHEDRAL.0>
11.2699

>  <SCORE.INTRA.POLAR>
0

>  <SCORE.INTRA.POLAR.0>
0

>  <SCORE.INTRA.REPUL>
0

>  <SCORE.INTRA.REPUL.0>
0

>  <SCORE.INTRA.SOLV>
-0.213096

>  <SCORE.INTRA.SOLV.lig_0>
-48.6447

>  <SCORE.INTRA.VDW>
-0.482669

>  <SCORE.INTRA.VDW.0>
-0.0211724

>  <SCORE.INTRA.norm>
-0.111006

>  <SCORE.RESTR>
0.354004

>  <SCORE.RESTR.CAVITY>
0.354004

>  <SCORE.RESTR.norm>
0.0131112

>  <SCORE.SYSTEM>
0

>  <SCORE.SYSTEM.CONST>
0

>  <SCORE.SYSTEM.DIHEDRAL>
0

>  <SCORE.SYSTEM.SOLV>
0

>  <SCORE.SYSTEM.norm>
0

>  <SCORE.heavy>
27

>  <SCORE.norm>
-0.592954

>  <RMSD>
1.971

$$$$
ligand
 OpenBabel11021811483D
libRbt.so/2013.1/901 2013/11/27
 27 29  0  0  0  0  0  0  0  0999 V2000
   47.3855   56.6213   29.6408 N   0  0  0  0  0  0  0  0  0  0  0  0
   48.5806   56.5244   28.8115 C   0  0  2  0  0  0  0  0  0  0  0  0
   48.2100   56.5111   27.3377 C   0  0  0  0  0  0  0  0  0  0  0  0
   48.3831   57.5107   26.6444 O   0  0  0  0  0  0  0  0  0  0  0  0
   49.4167   55.2937   29.1598 C   0  0  0  0  0  0  0  0  0  0  0  0
   49.4054   54.9091   30.6345 C   0  0  0  0  0  0  0  0  0  0  0  0
   49.3590   53.1224   30.9459 S   0  0  2  0  0  0  0  0  0  0  0  0
   48.5811   52.5216   29.4264 C   0  0  0  0  0  0  0  0  0  0  0  0
   47.9598   53.0294   32.0937 C   0  0  0  0  0  0  0  0  0  0  0  0
   48.2597   53.8533   33.3371 C   0  0  1  0  0  0  0  0  0  0  0  0
   48.2478   55.2135   32.9766 O   0  0  0  0  0  0  0  0  0  0  0  0
   47.2260   53.7304   34.4384 C   0  0  1  0  0  0  0  0  0  0  0  0
   47.6457   52.7933   35.4000 O   0  0  0  0  0  0  0  0  0  0  0  0
   47.1713   55.1256   35.0338 C   0  0  1  0  0  0  0  0  0  0  0  0
   47.8473   55.1301   36.2689 O   0  0  0  0  0  0  0  0  0  0  0  0
   47.8835   56.0445   34.0490 C   0  0  2  0  0  0  0  0  0  0  0  0
   47.7369   55.5014   26.8153 O   0  0  0  0  0  0  0  0  0  0  0  0
   47.2668   60.8111   31.9084 N   0  0  0  0  0  0  0  0  0  0  0  0
   48.4416   60.1700   32.2454 C   0  0  0  0  0  0  0  0  0  0  0  0
   48.4135   58.9060   32.8057 N   0  0  0  0  0  0  0  0  0  0  0  0
   47.2366   58.2846   33.0385 C   0  0  0  0  0  0  0  0  0  0  0  0
   46.0440   58.9072   32.7011 C   0  0  0  0  0  0  0  0  0  0  0  0
   46.0623   60.1802   32.1373 C   0  0  0  0  0  0  0  0  0  0  0  0
   44.9279   60.7955   31.8135 N   0  0  0  0  0  0  0  0  0  0  0  0
   45.0367   58.0669   33.0272 N   0  0  0  0  0  0  0  0  0  0  0  0
   45.5639   56.9323   33.5445 C   0  0  0  0  0  0  0  0  0  0  0  0
   46.9288   57.0527   33.5583 N   0  0  0  0  0  0  0  0  0  0  0  0
  2  1  1  1  0  0  0
  2  3  1  0  0  0  0
  2  5  1  0  0  0  0
  3  4  1  0  0  0  0
  3 17  1  0  0  0  0
  5  6  1  0  0  0  0
  7  6  1  6  0  0  0
  7  8  1  0  0  0  0
  7  9  1  0  0  0  0
 10  9  1  6  0  0  0
 10 11  1  0  0  0  0
 10 12  1  0  0  0  0
 11 16  1  0  0  0  0
 12 13  1  1  0  0  0
 12 14  1  0  0  0  0
 14 15  1  1  0  0  0
 14 16  1  0  0  0  0
 16 27  1  6  0  0  0
 18 19  2  0  0  0  0
 18 23  1  0  0  0  0
 19 20  1  0  0  0  0
 20 21  2  0  0  0  0
 21 22  1  0  0  0  0
 21 27  1  0  0  0  0
 22 23  2  0  0  0  0
 22 25  1  0  0  0  0
 23 24  1  0  0  0  0
 25 26  2  0  0  0  0
 26 27  1  0  0  0  0
M  END
>  <CHROM.1>
104.64794210,-34.28049883,141.26156359,-25.46935485,-60.32092313,69.65566625
-89.54606225,47.71222312,56.18732818,31.77440699,0.03842672,1.21165531,-1.00643200

>  <Name>
ligand

>  <RI>
0

>  <Rbt.Current_Directory>
/home/itssahil/PROJECTS/Mol_Feturizer/New_Systems/rnas/3GX7

>  <Rbt.Executable>
rbdock ($Id: //depot/dev/client3/rdock/2013.1/src/exe/rbdock.cxx#4 $)

>  <Rbt.Library>
libRbt.so (2013.1, Build901 2013/11/27)

>  <Rbt.Parameter_File>
/export/apps/rDock/src/rDock_2013.1_src/data/scripts/dock_solv.prm

>  <Rbt.Receptor>
prm/pocket_docking_2.prm

>  <SCORE>
-9.55878

>  <SCORE.INTER>
-13.2452

>  <SCORE.INTER.CONST>
1

>  <SCORE.INTER.POLAR>
0

>  <SCORE.INTER.ROT>
7

>  <SCORE.INTER.SOLV>
17.5266

>  <SCORE.INTER.VDW>
-22.939

>  <SCORE.INTER.norm>
-0.490562

>  <SCORE.INTRA>
3.3266

>  <SCORE.INTRA.DIHEDRAL>
2.16151

>  <SCORE.INTRA.DIHEDRAL.0>
11.2699

>  <SCORE.INTRA.POLAR>
0

>  <SCORE.INTRA.POLAR.0>
0

>  <SCORE.INTRA.REPUL>
0

>  <SCORE.INTRA.REPUL.0>
0

>  <SCORE.INTRA.SOLV>
1.2987

>  <SCORE.INTRA.SOLV.lig_0>
-48.6447

>  <SCORE.INTRA.VDW>
1.59649

>  <SCORE.INTRA.VDW.0>
-0.0211724

>  <SCORE.INTRA.norm>
0.123207

>  <SCORE.RESTR>
0.359787

>  <SCORE.RESTR.CAVITY>
0.359787

>  <SCORE.RESTR.norm>
0.0133254

>  <SCORE.SYSTEM>
0

>  <SCORE.SYSTEM.CONST>
0

>  <SCORE.SYSTEM.DIHEDRAL>
0

>  <SCORE.SYSTEM.SOLV>
0

>  <SCORE.SYSTEM.norm>
0

>  <SCORE.heavy>
27

>  <SCORE.norm>
-0.354029

>  <RMSD>
1.998

$$$$
ligand
 OpenBabel11021811483D
libRbt.so/2013.1/901 2013/11/27
 27 29  0  0  0  0  0  0  0  0999 V2000
   45.8061   56.2223   29.1107 N   0  0  0  0  0  0  0  0  0  0  0  0
   46.9276   57.0444   28.6728 C   0  0  2  0  0  0  0  0  0  0  0  0
   46.4312   58.3327   28.0376 C   0  0  0  0  0  0  0  0  0  0  0  0
   46.9016   58.7212   26.9710 O   0  0  0  0  0  0  0  0  0  0  0  0
   47.8406   56.2928   27.7052 C   0  0  0  0  0  0  0  0  0  0  0  0
   48.6409   55.1574   28.3321 C   0  0  0  0  0  0  0  0  0  0  0  0
   49.9742   55.6975   29.4375 S   0  0  2  0  0  0  0  0  0  0  0  0
   51.4161   55.5276   28.3572 C   0  0  0  0  0  0  0  0  0  0  0  0
   50.1579   54.2198   30.4704 C   0  0  0  0  0  0  0  0  0  0  0  0
   49.1987   54.2943   31.6490 C   0  0  1  0  0  0  0  0  0  0  0  0
   49.3470   55.5546   32.2574 O   0  0  0  0  0  0  0  0  0  0  0  0
   47.7328   54.2098   31.2742 C   0  0  1  0  0  0  0  0  0  0  0  0
   47.2612   52.8948   31.4399 O   0  0  0  0  0  0  0  0  0  0  0  0
   47.0586   55.1515   32.2556 C   0  0  1  0  0  0  0  0  0  0  0  0
   46.3986   54.3969   33.2443 O   0  0  0  0  0  0  0  0  0  0  0  0
   48.1676   55.9813   32.8902 C   0  0  2  0  0  0  0  0  0  0  0  0
   45.5499   59.0030   28.5765 O   0  0  0  0  0  0  0  0  0  0  0  0
   44.6669   59.8884   32.4856 N   0  0  0  0  0  0  0  0  0  0  0  0
   44.4469   58.5773   32.8568 C   0  0  0  0  0  0  0  0  0  0  0  0
   45.4966   57.6785   32.9074 N   0  0  0  0  0  0  0  0  0  0  0  0
   46.7499   58.0683   32.5867 C   0  0  0  0  0  0  0  0  0  0  0  0
   46.9952   59.3827   32.2178 C   0  0  0  0  0  0  0  0  0  0  0  0
   45.9445   60.2946   32.1631 C   0  0  0  0  0  0  0  0  0  0  0  0
   46.1600   61.5578   31.8049 N   0  0  0  0  0  0  0  0  0  0  0  0
   48.3184   59.4974   31.9663 N   0  0  0  0  0  0  0  0  0  0  0  0
   48.9097   58.2986   32.1808 C   0  0  0  0  0  0  0  0  0  0  0  0
   47.9486   57.4011   32.5663 N   0  0  0  0  0  0  0  0  0  0  0  0
  2  1  1  6  0  0  0
  2  3  1  0  0  0  0
  2  5  1  0  0  0  0
  3  4  1  0  0  0  0
  3 17  1  0  0  0  0
  5  6  1  0  0  0  0
  7  6  1  6  0  0  0
  7  8  1  0  0  0  0
  7  9  1  0  0  0  0
 10  9  1  6  0  0  0
 10 11  1  0  0  0  0
 10 12  1  0  0  0  0
 11 16  1  0  0  0  0
 12 13  1  1  0  0  0
 12 14  1  0  0  0  0
 14 15  1  1  0  0  0
 14 16  1  0  0  0  0
 16 27  1  6  0  0  0
 18 19  2  0  0  0  0
 18 23  1  0  0  0  0
 19 20  1  0  0  0  0
 20 21  2  0  0  0  0
 21 22  1  0  0  0  0
 21 27  1  0  0  0  0
 22 23  2  0  0  0  0
 22 25  1  0  0  0  0
 23 24  1  0  0  0  0
 25 26  2  0  0  0  0
 26 27  1  0  0  0  0
M  END
>  <CHROM.1>
-133.45596918,-69.42684428,-71.11125334,-100.48117264,-87.70123945,-49.67720803
156.46297017,47.56508778,56.89047812,30.78988313,-0.10677989,0.97651824,-1.10616102

>  <Name>
ligand

>  <RI>
0

>  <Rbt.Current_Directory>
/home/itssahil/PROJECTS/Mol_Feturizer/New_Systems/rnas/3GX7

>  <Rbt.Executable>
rbdock ($Id: //depot/dev/client3/rdock/2013.1/src/exe/rbdock.cxx#4 $)

>  <Rbt.Library>
libRbt.so (2013.1, Build901 2013/11/27)

>  <Rbt.Parameter_File>
/export/apps/rDock/src/rDock_2013.1_src/data/scripts/dock_solv.prm

>  <Rbt.Receptor>
prm/pocket_docking_4.prm

>  <SCORE>
-15.0768

>  <SCORE.INTER>
-10.5298

>  <SCORE.INTER.CONST>
1

>  <SCORE.INTER.POLAR>
0

>  <SCORE.INTER.ROT>
7

>  <SCORE.INTER.SOLV>
15.6323

>  <SCORE.INTER.VDW>
-20.4973

>  <SCORE.INTER.norm>
-0.389992

>  <SCORE.INTRA>
-4.54698

>  <SCORE.INTRA.DIHEDRAL>
-3.46475

>  <SCORE.INTRA.DIHEDRAL.0>
11.2699

>  <SCORE.INTRA.POLAR>
0

>  <SCORE.INTRA.POLAR.0>
0

>  <SCORE.INTRA.REPUL>
0

>  <SCORE.INTRA.REPUL.0>
0

>  <SCORE.INTRA.SOLV>
1.8118

>  <SCORE.INTRA.SOLV.lig_0>
-48.6447

>  <SCORE.INTRA.VDW>
-3.7205

>  <SCORE.INTRA.VDW.0>
-0.0211724

>  <SCORE.INTRA.norm>
-0.168407

>  <SCORE.RESTR>
0

>  <SCORE.RESTR.CAVITY>
0

>  <SCORE.RESTR.norm>
0

>  <SCORE.SYSTEM>
0

>  <SCORE.SYSTEM.CONST>
0

>  <SCORE.SYSTEM.DIHEDRAL>
0

>  <SCORE.SYSTEM.SOLV>
0

>  <SCORE.SYSTEM.norm>
0

>  <SCORE.heavy>
27

>  <SCORE.norm>
-0.558399

>  <RMSD>
2.056

$$$$
ligand
 OpenBabel11021811483D
libRbt.so/2013.1/901 2013/11/27
 27 29  0  0  0  0  0  0  0  0999 V2000
   44.7518   52.5268   28.5201 N   0  0  0  0  0  0  0  0  0  0  0  0
   45.7877   53.5168   28.7893 C   0  0  2  0  0  0  0  0  0  0  0  0
   45.7844   54.5989   27.7223 C   0  0  0  0  0  0  0  0  0  0  0  0
   45.7250   55.7845   28.0396 O   0  0  0  0  0  0  0  0  0  0  0  0
   47.1719   52.8781   28.8937 C   0  0  0  0  0  0  0  0  0  0  0  0
   48.3140   53.8606   29.1240 C   0  0  0  0  0  0  0  0  0  0  0  0
   48.2123   54.7804   30.6844 S   0  0  2  0  0  0  0  0  0  0  0  0
   49.4250   56.0927   30.3978 C   0  0  0  0  0  0  0  0  0  0  0  0
   49.1615   53.6832   31.7703 C   0  0  0  0  0  0  0  0  0  0  0  0
   49.1209   54.2111   33.1966 C   0  0  1  0  0  0  0  0  0  0  0  0
   49.5733   55.5435   33.1852 O   0  0  0  0  0  0  0  0  0  0  0  0
   47.7348   54.2727   33.8060 C   0  0  1  0  0  0  0  0  0  0  0  0
   47.5013   53.1383   34.6045 O   0  0  0  0  0  0  0  0  0  0  0  0
   47.7739   55.5304   34.6551 C   0  0  1  0  0  0  0  0  0  0  0  0
   47.8779   55.1710   36.0125 O   0  0  0  0  0  0  0  0  0  0  0  0
   49.0148   56.3034   34.2264 C   0  0  2  0  0  0  0  0  0  0  0  0
   45.8461   54.3069   26.5276 O   0  0  0  0  0  0  0  0  0  0  0  0
   45.0312   59.2392   32.4384 N   0  0  0  0  0  0  0  0  0  0  0  0
   44.9968   57.9374   32.8958 C   0  0  0  0  0  0  0  0  0  0  0  0
   46.1538   57.3174   33.3309 N   0  0  0  0  0  0  0  0  0  0  0  0
   47.3346   57.9736   33.3070 C   0  0  0  0  0  0  0  0  0  0  0  0
   47.3914   59.2848   32.8581 C   0  0  0  0  0  0  0  0  0  0  0  0
   46.2319   59.9170   32.4171 C   0  0  0  0  0  0  0  0  0  0  0  0
   46.2685   61.1720   31.9769 N   0  0  0  0  0  0  0  0  0  0  0  0
   48.6760   59.6947   32.9523 N   0  0  0  0  0  0  0  0  0  0  0  0
   49.4211   58.6848   33.4601 C   0  0  0  0  0  0  0  0  0  0  0  0
   48.6022   57.6094   33.6851 N   0  0  0  0  0  0  0  0  0  0  0  0
  2  1  1  6  0  0  0
  2  3  1  0  0  0  0
  2  5  1  0  0  0  0
  3  4  1  0  0  0  0
  3 17  1  0  0  0  0
  5  6  1  0  0  0  0
  7  6  1  6  0  0  0
  7  8  1  0  0  0  0
  7  9  1  0  0  0  0
 10  9  1  6  0  0  0
 10 11  1  0  0  0  0
 10 12  1  0  0  0  0
 11 16  1  0  0  0  0
 12 13  1  1  0  0  0
 12 14  1  0  0  0  0
 14 15  1  1  0  0  0
 14 16  1  0  0  0  0
 16 27  1  6  0  0  0
 18 19  2  0  0  0  0
 18 23  1  0  0  0  0
 19 20  1  0  0  0  0
 20 21  2  0  0  0  0
 21 22  1  0  0  0  0
 21 27  1  0  0  0  0
 22 23  2  0  0  0  0
 22 25  1  0  0  0  0
 23 24  1  0  0  0  0
 25 26  2  0  0  0  0
 26 27  1  0  0  0  0
M  END
>  <CHROM.1>
127.39414955,177.86738492,62.75459835,-165.78347900,-175.59196183,-54.81522000
98.82880665,47.41812785,55.97347162,31.74881242,1.94734880,1.07504061,-2.58508935

>  <Name>
ligand

>  <RI>
0

>  <Rbt.Current_Directory>
/home/itssahil/PROJECTS/Mol_Feturizer/New_Systems/rnas/3GX7

>  <Rbt.Executable>
rbdock ($Id: //depot/dev/client3/rdock/2013.1/src/exe/rbdock.cxx#4 $)

>  <Rbt.Library>
libRbt.so (2013.1, Build901 2013/11/27)

>  <Rbt.Parameter_File>
/export/apps/rDock/src/rDock_2013.1_src/data/scripts/dock_solv.prm

>  <Rbt.Receptor>
prm/pocket_docking_3.prm

>  <SCORE>
-18.4361

>  <SCORE.INTER>
-12.6838

>  <SCORE.INTER.CONST>
1

>  <SCORE.INTER.POLAR>
0

>  <SCORE.INTER.ROT>
7

>  <SCORE.INTER.SOLV>
20.4771

>  <SCORE.INTER.VDW>
-23.5482

>  <SCORE.INTER.norm>
-0.469769

>  <SCORE.INTRA>
-5.75233

>  <SCORE.INTRA.DIHEDRAL>
-6.15692

>  <SCORE.INTRA.DIHEDRAL.0>
11.2699

>  <SCORE.INTRA.POLAR>
0

>  <SCORE.INTRA.POLAR.0>
0

>  <SCORE.INTRA.REPUL>
0

>  <SCORE.INTRA.REPUL.0>
0

>  <SCORE.INTRA.SOLV>
-0.760463

>  <SCORE.INTRA.SOLV.lig_0>
-48.6447

>  <SCORE.INTRA.VDW>
-2.29364

>  <SCORE.INTRA.VDW.0>
-0.0211724

>  <SCORE.INTRA.norm>
-0.213049

>  <SCORE.RESTR>
0

>  <SCORE.RESTR.CAVITY>
0

>  <SCORE.RESTR.norm>
0

>  <SCORE.SYSTEM>
0

>  <SCORE.SYSTEM.CONST>
0

>  <SCORE.SYSTEM.DIHEDRAL>
0

>  <SCORE.SYSTEM.SOLV>
0

>  <SCORE.SYSTEM.norm>
0

>  <SCORE.heavy>
27

>  <SCORE.norm>
-0.682819

>  <RMSD>
2.271

$$$$
ligand
 OpenBabel11021811483D
libRbt.so/2013.1/901 2013/11/27
 27 29  0  0  0  0  0  0  0  0999 V2000
   46.2426   55.2938   26.8353 N   0  0  0  0  0  0  0  0  0  0  0  0
   46.8709   54.7111   28.0148 C   0  0  2  0  0  0  0  0  0  0  0  0
   47.9492   53.7188   27.6120 C   0  0  0  0  0  0  0  0  0  0  0  0
   49.1177   54.0822   27.5004 O   0  0  0  0  0  0  0  0  0  0  0  0
   45.8485   54.0411   28.9317 C   0  0  0  0  0  0  0  0  0  0  0  0
   46.4448   53.3115   30.1295 C   0  0  0  0  0  0  0  0  0  0  0  0
   47.0118   54.3984   31.4668 S   0  0  2  0  0  0  0  0  0  0  0  0
   48.1466   55.4898   30.5746 C   0  0  0  0  0  0  0  0  0  0  0  0
   48.1911   53.3020   32.2981 C   0  0  0  0  0  0  0  0  0  0  0  0
   48.6974   53.9629   33.5715 C   0  0  1  0  0  0  0  0  0  0  0  0
   49.2310   55.2201   33.2321 O   0  0  0  0  0  0  0  0  0  0  0  0
   47.6226   54.2573   34.5984 C   0  0  1  0  0  0  0  0  0  0  0  0
   47.5856   53.2421   35.5716 O   0  0  0  0  0  0  0  0  0  0  0  0
   48.0648   55.5742   35.2104 C   0  0  1  0  0  0  0  0  0  0  0  0
   48.6051   55.3341   36.4882 O   0  0  0  0  0  0  0  0  0  0  0  0
   49.1395   56.1395   34.2903 C   0  0  2  0  0  0  0  0  0  0  0  0
   47.6717   52.5386   27.3967 O   0  0  0  0  0  0  0  0  0  0  0  0
   45.0601   58.9110   32.4569 N   0  0  0  0  0  0  0  0  0  0  0  0
   45.0758   57.6053   32.9039 C   0  0  0  0  0  0  0  0  0  0  0  0
   46.2517   57.0335   33.3540 N   0  0  0  0  0  0  0  0  0  0  0  0
   47.4026   57.7414   33.3550 C   0  0  0  0  0  0  0  0  0  0  0  0
   47.4087   59.0574   32.9169 C   0  0  0  0  0  0  0  0  0  0  0  0
   46.2297   59.6413   32.4611 C   0  0  0  0  0  0  0  0  0  0  0  0
   46.2180   60.9003   32.0309 N   0  0  0  0  0  0  0  0  0  0  0  0
   48.6721   59.5229   33.0361 N   0  0  0  0  0  0  0  0  0  0  0  0
   49.4527   58.5428   33.5488 C   0  0  0  0  0  0  0  0  0  0  0  0
   48.6786   57.4304   33.7519 N   0  0  0  0  0  0  0  0  0  0  0  0
  2  1  1  6  0  0  0
  2  3  1  0  0  0  0
  2  5  1  0  0  0  0
  3  4  1  0  0  0  0
  3 17  1  0  0  0  0
  5  6  1  0  0  0  0
  7  6  1  6  0  0  0
  7  8  1  0  0  0  0
  7  9  1  0  0  0  0
 10  9  1  6  0  0  0
 10 11  1  0  0  0  0
 10 12  1  0  0  0  0
 11 16  1  0  0  0  0
 12 13  1  1  0  0  0
 12 14  1  0  0  0  0
 14 15  1  1  0  0  0
 14 16  1  0  0  0  0
 16 27  1  6  0  0  0
 18 19  2  0  0  0  0
 18 23  1  0  0  0  0
 19 20  1  0  0  0  0
 20 21  2  0  0  0  0
 21 22  1  0  0  0  0
 21 27  1  0  0  0  0
 22 23  2  0  0  0  0
 22 25  1  0  0  0  0
 23 24  1  0  0  0  0
 25 26  2  0  0  0  0
 26 27  1  0  0  0  0
M  END
>  <CHROM.1>
92.83255550,175.28589843,75.72796985,-55.05678278,-173.88588807,-55.23150258
74.86306137,47.51735101,55.80040623,31.93726532,1.74811013,1.26267254,-2.28588606

>  <Name>
ligand

>  <RI>
0

>  <Rbt.Current_Directory>
/home/itssahil/PROJECTS/Mol_Feturizer/New_Systems/rnas/3GX7

>  <Rbt.Executable>
rbdock ($Id: //depot/dev/client3/rdock/2013.1/src/exe/rbdock.cxx#4 $)

>  <Rbt.Library>
libRbt.so (2013.1, Build901 2013/11/27)

>  <Rbt.Parameter_File>
/export/apps/rDock/src/rDock_2013.1_src/data/scripts/dock_solv.prm

>  <Rbt.Receptor>
prm/pocket_docking_2.prm

>  <SCORE>
-14.7003

>  <SCORE.INTER>
-10.3969

>  <SCORE.INTER.CONST>
1

>  <SCORE.INTER.POLAR>
0

>  <SCORE.INTER.ROT>
7

>  <SCORE.INTER.SOLV>
18.5964

>  <SCORE.INTER.VDW>
-21.3967

>  <SCORE.INTER.norm>
-0.385071

>  <SCORE.INTRA>
-4.62636

>  <SCORE.INTRA.DIHEDRAL>
-5.94547

>  <SCORE.INTRA.DIHEDRAL.0>
11.2699

>  <SCORE.INTRA.POLAR>
0

>  <SCORE.INTRA.POLAR.0>
0

>  <SCORE.INTRA.REPUL>
0

>  <SCORE.INTRA.REPUL.0>
0

>  <SCORE.INTRA.SOLV>
-0.289314

>  <SCORE.INTRA.SOLV.lig_0>
-48.6447

>  <SCORE.INTRA.VDW>
-1.50897

>  <SCORE.INTRA.VDW.0>
-0.0211724

>  <SCORE.INTRA.norm>
-0.171347

>  <SCORE.RESTR>
0.32296

>  <SCORE.RESTR.CAVITY>
0.32296

>  <SCORE.RESTR.norm>
0.0119615

>  <SCORE.SYSTEM>
0

>  <SCORE.SYSTEM.CONST>
0

>  <SCORE.SYSTEM.DIHEDRAL>
0

>  <SCORE.SYSTEM.SOLV>
0

>  <SCORE.SYSTEM.norm>
0

>  <SCORE.heavy>
27

>  <SCORE.norm>
-0.544456

>  <RMSD>
2.279

$$$$
ligand
 OpenBabel11021811483D
libRbt.so/2013.1/901 2013/11/27
 27 29  0  0  0  0  0  0  0  0999 V2000
   45.6414   55.0708   26.9233 N   0  0  0  0  0  0  0  0  0  0  0  0
   46.4381   54.2644   27.8400 C   0  0  2  0  0  0  0  0  0  0  0  0
   46.4299   52.8053   27.4151 C   0  0  0  0  0  0  0  0  0  0  0  0
   47.4842   52.1835   27.3072 O   0  0  0  0  0  0  0  0  0  0  0  0
   45.9554   54.3997   29.2835 C   0  0  0  0  0  0  0  0  0  0  0  0
   46.9030   53.8278   30.3312 C   0  0  0  0  0  0  0  0  0  0  0  0
   48.3653   54.8497   30.6610 S   0  0  2  0  0  0  0  0  0  0  0  0
   49.2943   54.6399   29.1223 C   0  0  0  0  0  0  0  0  0  0  0  0
   49.2911   53.7459   31.7603 C   0  0  0  0  0  0  0  0  0  0  0  0
   49.2134   54.2610   33.1898 C   0  0  1  0  0  0  0  0  0  0  0  0
   49.6603   55.5953   33.2012 O   0  0  0  0  0  0  0  0  0  0  0  0
   47.8126   54.3116   33.7657 C   0  0  1  0  0  0  0  0  0  0  0  0
   47.5646   53.1692   34.5482 O   0  0  0  0  0  0  0  0  0  0  0  0
   47.8256   55.5618   34.6265 C   0  0  1  0  0  0  0  0  0  0  0  0
   47.8980   55.1909   35.9828 O   0  0  0  0  0  0  0  0  0  0  0  0
   49.0732   56.3437   34.2350 C   0  0  2  0  0  0  0  0  0  0  0  0
   45.3709   52.2234   27.1777 O   0  0  0  0  0  0  0  0  0  0  0  0
   45.1238   59.2760   32.3674 N   0  0  0  0  0  0  0  0  0  0  0  0
   45.0841   57.9696   32.8112 C   0  0  0  0  0  0  0  0  0  0  0  0
   46.2322   57.3515   33.2717 N   0  0  0  0  0  0  0  0  0  0  0  0
   47.4096   58.0140   33.2862 C   0  0  0  0  0  0  0  0  0  0  0  0
   47.4714   59.3297   32.8516 C   0  0  0  0  0  0  0  0  0  0  0  0
   46.3209   59.9602   32.3854 C   0  0  0  0  0  0  0  0  0  0  0  0
   46.3626   61.2196   31.9583 N   0  0  0  0  0  0  0  0  0  0  0  0
   48.7507   59.7454   32.9848 N   0  0  0  0  0  0  0  0  0  0  0  0
   49.4873   58.7345   33.5029 C   0  0  0  0  0  0  0  0  0  0  0  0
   48.6684   57.6527   33.6953 N   0  0  0  0  0  0  0  0  0  0  0  0
  2  1  1  6  0  0  0
  2  3  1  0  0  0  0
  2  5  1  0  0  0  0
  3  4  1  0  0  0  0
  3 17  1  0  0  0  0
  5  6  1  0  0  0  0
  7  6  1  6  0  0  0
  7  8  1  0  0  0  0
  7  9  1  0  0  0  0
 10  9  1  6  0  0  0
 10 11  1  0  0  0  0
 10 12  1  0  0  0  0
 11 16  1  0  0  0  0
 12 13  1  1  0  0  0
 12 14  1  0  0  0  0
 14 15  1  1  0  0  0
 14 16  1  0  0  0  0
 16 27  1  6  0  0  0
 18 19  2  0  0  0  0
 18 23  1  0  0  0  0
 19 20  1  0  0  0  0
 20 21  2  0  0  0  0
 21 22  1  0  0  0  0
 21 27  1  0  0  0  0
 22 23  2  0  0  0  0
 22 25  1  0  0  0  0
 23 24  1  0  0  0  0
 25 26  2  0  0  0  0
 26 27  1  0  0  0  0
M  END
>  <CHROM.1>
129.67076363,-167.79098817,75.47903360,-70.20860071,-106.29977149,-54.76449306
98.64888506,47.50514500,55.83064879,31.64099258,1.82488040,1.08317531,-2.51907529

>  <Name>
ligand

>  <RI>
0

>  <Rbt.Current_Directory>
/home/itssahil/PROJECTS/Mol_Feturizer/New_Systems/rnas/3GX7

>  <Rbt.Executable>
rbdock ($Id: //depot/dev/client3/rdock/2013.1/src/exe/rbdock.cxx#4 $)

>  <Rbt.Library>
libRbt.so (2013.1, Build901 2013/11/27)

>  <Rbt.Parameter_File>
/export/apps/rDock/src/rDock_2013.1_src/data/scripts/dock_solv.prm

>  <Rbt.Receptor>
prm/blind_docking_100.prm

>  <SCORE>
-16.9028

>  <SCORE.INTER>
-12.3986

>  <SCORE.INTER.CONST>
1

>  <SCORE.INTER.POLAR>
0

>  <SCORE.INTER.ROT>
7

>  <SCORE.INTER.SOLV>
20.8877

>  <SCORE.INTER.VDW>
-23.495

>  <SCORE.INTER.norm>
-0.459209

>  <SCORE.INTRA>
-4.50416

>  <SCORE.INTRA.DIHEDRAL>
-3.5301

>  <SCORE.INTRA.DIHEDRAL.0>
11.2699

>  <SCORE.INTRA.POLAR>
0

>  <SCORE.INTRA.POLAR.0>
0

>  <SCORE.INTRA.REPUL>
0

>  <SCORE.INTRA.REPUL.0>
0

>  <SCORE.INTRA.SOLV>
-0.419214

>  <SCORE.INTRA.SOLV.lig_0>
-48.6447

>  <SCORE.INTRA.VDW>
-2.52951

>  <SCORE.INTRA.VDW.0>
-0.0211724

>  <SCORE.INTRA.norm>
-0.166821

>  <SCORE.RESTR>
0

>  <SCORE.RESTR.CAVITY>
0

>  <SCORE.RESTR.norm>
0

>  <SCORE.SYSTEM>
0

>  <SCORE.SYSTEM.CONST>
0

>  <SCORE.SYSTEM.DIHEDRAL>
0

>  <SCORE.SYSTEM.SOLV>
0

>  <SCORE.SYSTEM.norm>
0

>  <SCORE.heavy>
27

>  <SCORE.norm>
-0.62603

>  <RMSD>
2.449

$$$$
ligand
 OpenBabel11021811483D
libRbt.so/2013.1/901 2013/11/27
 27 29  0  0  0  0  0  0  0  0999 V2000
   48.3009   54.8362   25.5407 N   0  0  0  0  0  0  0  0  0  0  0  0
   48.0008   53.9400   26.6508 C   0  0  2  0  0  0  0  0  0  0  0  0
   47.7832   52.5217   26.1502 C   0  0  0  0  0  0  0  0  0  0  0  0
   48.5006   51.6060   26.5460 O   0  0  0  0  0  0  0  0  0  0  0  0
   46.7882   54.4123   27.4517 C   0  0  0  0  0  0  0  0  0  0  0  0
   46.5675   53.6800   28.7699 C   0  0  0  0  0  0  0  0  0  0  0  0
   47.9398   53.8212   29.9481 S   0  0  2  0  0  0  0  0  0  0  0  0
   48.5007   52.1031   30.0408 C   0  0  0  0  0  0  0  0  0  0  0  0
   47.0196   53.9539   31.5036 C   0  0  0  0  0  0  0  0  0  0  0  0
   47.9487   54.4275   32.6114 C   0  0  1  0  0  0  0  0  0  0  0  0
   48.5429   55.6351   32.2005 O   0  0  0  0  0  0  0  0  0  0  0  0
   47.2547   54.7565   33.9177 C   0  0  1  0  0  0  0  0  0  0  0  0
   47.3427   53.6685   34.8051 O   0  0  0  0  0  0  0  0  0  0  0  0
   48.0343   55.9470   34.4461 C   0  0  1  0  0  0  0  0  0  0  0  0
   48.8670   55.5257   35.5004 O   0  0  0  0  0  0  0  0  0  0  0  0
   48.8819   56.4576   33.2876 C   0  0  2  0  0  0  0  0  0  0  0  0
   46.8851   52.2671   25.3470 O   0  0  0  0  0  0  0  0  0  0  0  0
   44.8880   59.7439   32.3217 N   0  0  0  0  0  0  0  0  0  0  0  0
   44.8366   58.3926   32.5980 C   0  0  0  0  0  0  0  0  0  0  0  0
   45.9994   57.6802   32.8274 N   0  0  0  0  0  0  0  0  0  0  0  0
   47.2018   58.2944   32.7764 C   0  0  0  0  0  0  0  0  0  0  0  0
   47.2767   59.6531   32.5075 C   0  0  0  0  0  0  0  0  0  0  0  0
   46.1113   60.3784   32.2744 C   0  0  0  0  0  0  0  0  0  0  0  0
   46.1643   61.6810   32.0083 N   0  0  0  0  0  0  0  0  0  0  0  0
   48.5820   60.0036   32.5291 N   0  0  0  0  0  0  0  0  0  0  0  0
   49.3240   58.9086   32.8176 C   0  0  0  0  0  0  0  0  0  0  0  0
   48.4811   57.8395   32.9736 N   0  0  0  0  0  0  0  0  0  0  0  0
  2  1  1  6  0  0  0
  2  3  1  0  0  0  0
  2  5  1  0  0  0  0
  3  4  1  0  0  0  0
  3 17  1  0  0  0  0
  5  6  1  0  0  0  0
  7  6  1  6  0  0  0
  7  8  1  0  0  0  0
  7  9  1  0  0  0  0
 10  9  1  6  0  0  0
 10 11  1  0  0  0  0
 10 12  1  0  0  0  0
 11 16  1  0  0  0  0
 12 13  1  1  0  0  0
 12 14  1  0  0  0  0
 14 15  1  1  0  0  0
 14 16  1  0  0  0  0
 16 27  1  6  0  0  0
 18 19  2  0  0  0  0
 18 23  1  0  0  0  0
 19 20  1  0  0  0  0
 20 21  2  0  0  0  0
 21 22  1  0  0  0  0
 21 27  1  0  0  0  0
 22 23  2  0  0  0  0
 22 25  1  0  0  0  0
 23 24  1  0  0  0  0
 25 26  2  0  0  0  0
 26 27  1  0  0  0  0
M  END
>  <CHROM.1>
120.10420798,-169.20671383,60.23445428,-114.85165463,-166.00704369,55.40442072
64.15757195,47.52523136,55.78503017,31.03481737,1.32681586,1.30244053,-2.07722703

>  <Name>
ligand

>  <RI>
0

>  <Rbt.Current_Directory>
/home/itssahil/PROJECTS/Mol_Feturizer/New_Systems/rnas/3GX7

>  <Rbt.Executable>
rbdock ($Id: //depot/dev/client3/rdock/2013.1/src/exe/rbdock.cxx#4 $)

>  <Rbt.Library>
libRbt.so (2013.1, Build901 2013/11/27)

>  <Rbt.Parameter_File>
/export/apps/rDock/src/rDock_2013.1_src/data/scripts/dock_solv.prm

>  <Rbt.Receptor>
prm/pocket_docking_4.prm

>  <SCORE>
-17.1911

>  <SCORE.INTER>
-12.1281

>  <SCORE.INTER.CONST>
1

>  <SCORE.INTER.POLAR>
0

>  <SCORE.INTER.ROT>
7

>  <SCORE.INTER.SOLV>
16.6786

>  <SCORE.INTER.VDW>
-21.9116

>  <SCORE.INTER.norm>
-0.449188

>  <SCORE.INTRA>
-5.06303

>  <SCORE.INTRA.DIHEDRAL>
-2.4906

>  <SCORE.INTRA.DIHEDRAL.0>
11.2699

>  <SCORE.INTRA.POLAR>
0

>  <SCORE.INTRA.POLAR.0>
0

>  <SCORE.INTRA.REPUL>
0

>  <SCORE.INTRA.REPUL.0>
0

>  <SCORE.INTRA.SOLV>
-0.943383

>  <SCORE.INTRA.SOLV.lig_0>
-48.6447

>  <SCORE.INTRA.VDW>
-3.34604

>  <SCORE.INTRA.VDW.0>
-0.0211724

>  <SCORE.INTRA.norm>
-0.18752

>  <SCORE.RESTR>
0

>  <SCORE.RESTR.CAVITY>
0

>  <SCORE.RESTR.norm>
0

>  <SCORE.SYSTEM>
0

>  <SCORE.SYSTEM.CONST>
0

>  <SCORE.SYSTEM.DIHEDRAL>
0

>  <SCORE.SYSTEM.SOLV>
0

>  <SCORE.SYSTEM.norm>
0

>  <SCORE.heavy>
27

>  <SCORE.norm>
-0.636708

>  <RMSD>
2.465

$$$$
ligand
 OpenBabel11021811483D
libRbt.so/2013.1/901 2013/11/27
 27 29  0  0  0  0  0  0  0  0999 V2000
   45.9215   55.0989   26.7404 N   0  0  0  0  0  0  0  0  0  0  0  0
   46.5434   54.2005   27.7056 C   0  0  2  0  0  0  0  0  0  0  0  0
   46.9008   52.8761   27.0514 C   0  0  0  0  0  0  0  0  0  0  0  0
   46.1047   52.3201   26.2984 O   0  0  0  0  0  0  0  0  0  0  0  0
   45.6504   53.9672   28.9234 C   0  0  0  0  0  0  0  0  0  0  0  0
   46.3308   53.2604   30.0897 C   0  0  0  0  0  0  0  0  0  0  0  0
   47.1504   54.3705   31.2676 S   0  0  2  0  0  0  0  0  0  0  0  0
   48.4032   55.1392   30.2118 C   0  0  0  0  0  0  0  0  0  0  0  0
   48.1694   53.1812   32.1791 C   0  0  0  0  0  0  0  0  0  0  0  0
   48.6650   53.8134   33.4712 C   0  0  1  0  0  0  0  0  0  0  0  0
   49.2401   55.0591   33.1587 O   0  0  0  0  0  0  0  0  0  0  0  0
   47.5760   54.1255   34.4777 C   0  0  1  0  0  0  0  0  0  0  0  0
   47.4896   53.1008   35.4375 O   0  0  0  0  0  0  0  0  0  0  0  0
   48.0402   55.4227   35.1149 C   0  0  1  0  0  0  0  0  0  0  0  0
   48.5451   55.1534   36.4014 O   0  0  0  0  0  0  0  0  0  0  0  0
   49.1503   55.9686   34.2255 C   0  0  2  0  0  0  0  0  0  0  0  0
   47.9911   52.3433   27.2603 O   0  0  0  0  0  0  0  0  0  0  0  0
   45.1548   58.9332   32.5133 N   0  0  0  0  0  0  0  0  0  0  0  0
   45.1198   57.6315   32.9707 C   0  0  0  0  0  0  0  0  0  0  0  0
   46.2803   57.0031   33.3840 N   0  0  0  0  0  0  0  0  0  0  0  0
   47.4650   57.6511   33.3383 C   0  0  0  0  0  0  0  0  0  0  0  0
   47.5227   58.9620   32.8890 C   0  0  0  0  0  0  0  0  0  0  0  0
   46.3596   59.6026   32.4700 C   0  0  0  0  0  0  0  0  0  0  0  0
   46.3967   60.8576   32.0297 N   0  0  0  0  0  0  0  0  0  0  0  0
   48.8116   59.3629   32.9595 N   0  0  0  0  0  0  0  0  0  0  0  0
   49.5590   58.3476   33.4528 C   0  0  0  0  0  0  0  0  0  0  0  0
   48.7369   57.2778   33.6926 N   0  0  0  0  0  0  0  0  0  0  0  0
  2  1  1  6  0  0  0
  2  3  1  0  0  0  0
  2  5  1  0  0  0  0
  3  4  1  0  0  0  0
  3 17  1  0  0  0  0
  5  6  1  0  0  0  0
  7  6  1  6  0  0  0
  7  8  1  0  0  0  0
  7  9  1  0  0  0  0
 10  9  1  6  0  0  0
 10 11  1  0  0  0  0
 10 12  1  0  0  0  0
 11 16  1  0  0  0  0
 12 13  1  1  0  0  0
 12 14  1  0  0  0  0
 14 15  1  1  0  0  0
 14 16  1  0  0  0  0
 16 27  1  6  0  0  0
 18 19  2  0  0  0  0
 18 23  1  0  0  0  0
 19 20  1  0  0  0  0
 20 21  2  0  0  0  0
 21 22  1  0  0  0  0
 21 27  1  0  0  0  0
 22 23  2  0  0  0  0
 22 25  1  0  0  0  0
 23 24  1  0  0  0  0
 25 26  2  0  0  0  0
 26 27  1  0  0  0  0
M  END
>  <CHROM.1>
-43.93630098,-168.87386974,89.01923330,-62.31434650,-164.48875790,-50.53074048
78.60253012,47.38437369,55.58052461,31.78651754,2.00648088,1.22042789,-2.56269891

>  <Name>
ligand

>  <RI>
0

>  <Rbt.Current_Directory>
/home/itssahil/PROJECTS/Mol_Feturizer/New_Systems/rnas/3GX7

>  <Rbt.Executable>
rbdock ($Id: //depot/dev/client3/rdock/2013.1/src/exe/rbdock.cxx#4 $)

>  <Rbt.Library>
libRbt.so (2013.1, Build901 2013/11/27)

>  <Rbt.Parameter_File>
/export/apps/rDock/src/rDock_2013.1_src/data/scripts/dock_solv.prm

>  <Rbt.Receptor>
prm/pocket_docking_4.prm

>  <SCORE>
-17.427

>  <SCORE.INTER>
-12.3925

>  <SCORE.INTER.CONST>
1

>  <SCORE.INTER.POLAR>
0

>  <SCORE.INTER.ROT>
7

>  <SCORE.INTER.SOLV>
19.7321

>  <SCORE.INTER.VDW>
-23.1057

>  <SCORE.INTER.norm>
-0.458981

>  <SCORE.INTRA>
-5.0345

>  <SCORE.INTRA.DIHEDRAL>
-3.12295

>  <SCORE.INTRA.DIHEDRAL.0>
11.2699

>  <SCORE.INTRA.POLAR>
0

>  <SCORE.INTRA.POLAR.0>
0

>  <SCORE.INTRA.REPUL>
0

>  <SCORE.INTRA.REPUL.0>
0

>  <SCORE.INTRA.SOLV>
-0.365957

>  <SCORE.INTRA.SOLV.lig_0>
-48.6447

>  <SCORE.INTRA.VDW>
-3.29004

>  <SCORE.INTRA.VDW.0>
-0.0211724

>  <SCORE.INTRA.norm>
-0.186463

>  <SCORE.RESTR>
0

>  <SCORE.RESTR.CAVITY>
0

>  <SCORE.RESTR.norm>
0

>  <SCORE.SYSTEM>
0

>  <SCORE.SYSTEM.CONST>
0

>  <SCORE.SYSTEM.DIHEDRAL>
0

>  <SCORE.SYSTEM.SOLV>
0

>  <SCORE.SYSTEM.norm>
0

>  <SCORE.heavy>
27

>  <SCORE.norm>
-0.645444

>  <RMSD>
2.490

$$$$
ligand
 OpenBabel11021811483D
libRbt.so/2013.1/901 2013/11/27
 27 29  0  0  0  0  0  0  0  0999 V2000
   52.1080   53.9135   26.5556 N   0  0  0  0  0  0  0  0  0  0  0  0
   50.9056   54.1089   27.3567 C   0  0  2  0  0  0  0  0  0  0  0  0
   50.9181   55.4783   28.0158 C   0  0  0  0  0  0  0  0  0  0  0  0
   49.9051   56.1737   28.0231 O   0  0  0  0  0  0  0  0  0  0  0  0
   50.7393   53.0143   28.4098 C   0  0  0  0  0  0  0  0  0  0  0  0
   49.3025   52.7670   28.8539 C   0  0  0  0  0  0  0  0  0  0  0  0
   49.0159   52.9876   30.6317 S   0  0  2  0  0  0  0  0  0  0  0  0
   47.2076   52.9721   30.7001 C   0  0  0  0  0  0  0  0  0  0  0  0
   49.3386   54.7633   30.7945 C   0  0  0  0  0  0  0  0  0  0  0  0
   49.3824   55.1447   32.2666 C   0  0  1  0  0  0  0  0  0  0  0  0
   49.6136   56.5300   32.3552 O   0  0  0  0  0  0  0  0  0  0  0  0
   48.0852   54.9149   33.0156 C   0  0  1  0  0  0  0  0  0  0  0  0
   48.1296   53.6895   33.7050 O   0  0  0  0  0  0  0  0  0  0  0  0
   48.0239   56.0785   33.9886 C   0  0  1  0  0  0  0  0  0  0  0  0
   48.3421   55.6200   35.2812 O   0  0  0  0  0  0  0  0  0  0  0  0
   49.0678   57.0863   33.5239 C   0  0  2  0  0  0  0  0  0  0  0  0
   51.9377   55.9094   28.5552 O   0  0  0  0  0  0  0  0  0  0  0  0
   44.5261   59.4073   32.2318 N   0  0  0  0  0  0  0  0  0  0  0  0
   44.7576   58.0754   32.5098 C   0  0  0  0  0  0  0  0  0  0  0  0
   46.0292   57.6385   32.8332 N   0  0  0  0  0  0  0  0  0  0  0  0
   47.0635   58.5068   32.8735 C   0  0  0  0  0  0  0  0  0  0  0  0
   46.8526   59.8511   32.6047 C   0  0  0  0  0  0  0  0  0  0  0  0
   45.5759   60.3001   32.2773 C   0  0  0  0  0  0  0  0  0  0  0  0
   45.3561   61.5848   32.0098 N   0  0  0  0  0  0  0  0  0  0  0  0
   48.0404   60.4845   32.7267 N   0  0  0  0  0  0  0  0  0  0  0  0
   48.9844   59.5798   33.0779 C   0  0  0  0  0  0  0  0  0  0  0  0
   48.3930   58.3473   33.1726 N   0  0  0  0  0  0  0  0  0  0  0  0
  2  1  1  1  0  0  0
  2  3  1  0  0  0  0
  2  5  1  0  0  0  0
  3  4  1  0  0  0  0
  3 17  1  0  0  0  0
  5  6  1  0  0  0  0
  7  6  1  6  0  0  0
  7  8  1  0  0  0  0
  7  9  1  0  0  0  0
 10  9  1  6  0  0  0
 10 11  1  0  0  0  0
 10 12  1  0  0  0  0
 11 16  1  0  0  0  0
 12 13  1  1  0  0  0
 12 14  1  0  0  0  0
 14 15  1  1  0  0  0
 14 16  1  0  0  0  0
 16 27  1  6  0  0  0
 18 19  2  0  0  0  0
 18 23  1  0  0  0  0
 19 20  1  0  0  0  0
 20 21  2  0  0  0  0
 21 22  1  0  0  0  0
 21 27  1  0  0  0  0
 22 23  2  0  0  0  0
 22 25  1  0  0  0  0
 23 24  1  0  0  0  0
 25 26  2  0  0  0  0
 26 27  1  0  0  0  0
M  END
>  <CHROM.1>
136.01022236,-154.37819151,-121.48442520,168.26854515,-170.62633287,-179.10671537
93.86910300,48.50776498,56.23157493,31.36362615,-0.37618034,1.00974965,-0.46416917

>  <Name>
ligand

>  <RI>
0

>  <Rbt.Current_Directory>
/home/itssahil/PROJECTS/Mol_Feturizer/New_Systems/rnas/3GX7

>  <Rbt.Executable>
rbdock ($Id: //depot/dev/client3/rdock/2013.1/src/exe/rbdock.cxx#4 $)

>  <Rbt.Library>
libRbt.so (2013.1, Build901 2013/11/27)

>  <Rbt.Parameter_File>
/export/apps/rDock/src/rDock_2013.1_src/data/scripts/dock_solv.prm

>  <Rbt.Receptor>
prm/pocket_docking_5.prm

>  <SCORE>
-18.6936

>  <SCORE.INTER>
-16.1712

>  <SCORE.INTER.CONST>
1

>  <SCORE.INTER.POLAR>
0

>  <SCORE.INTER.ROT>
7

>  <SCORE.INTER.SOLV>
19.4615

>  <SCORE.INTER.VDW>
-25.5346

>  <SCORE.INTER.norm>
-0.598933

>  <SCORE.INTRA>
-2.52245

>  <SCORE.INTRA.DIHEDRAL>
0.486838

>  <SCORE.INTRA.DIHEDRAL.0>
11.2699

>  <SCORE.INTRA.POLAR>
0

>  <SCORE.INTRA.POLAR.0>
0

>  <SCORE.INTRA.REPUL>
0

>  <SCORE.INTRA.REPUL.0>
0

>  <SCORE.INTRA.SOLV>
-0.717693

>  <SCORE.INTRA.SOLV.lig_0>
-48.6447

>  <SCORE.INTRA.VDW>
-2.40702

>  <SCORE.INTRA.VDW.0>
-0.0211724

>  <SCORE.INTRA.norm>
-0.0934239

>  <SCORE.RESTR>
0

>  <SCORE.RESTR.CAVITY>
0

>  <SCORE.RESTR.norm>
0

>  <SCORE.SYSTEM>
0

>  <SCORE.SYSTEM.CONST>
0

>  <SCORE.SYSTEM.DIHEDRAL>
0

>  <SCORE.SYSTEM.SOLV>
0

>  <SCORE.SYSTEM.norm>
0

>  <SCORE.heavy>
27

>  <SCORE.norm>
-0.692357

>  <RMSD>
2.518

$$$$
ligand
 OpenBabel11021811483D
libRbt.so/2013.1/901 2013/11/27
 27 29  0  0  0  0  0  0  0  0999 V2000
   50.4167   54.4859   26.3932 N   0  0  0  0  0  0  0  0  0  0  0  0
   50.4676   54.7395   27.8279 C   0  0  2  0  0  0  0  0  0  0  0  0
   51.9007   54.9633   28.2816 C   0  0  0  0  0  0  0  0  0  0  0  0
   52.7126   54.0414   28.2535 O   0  0  0  0  0  0  0  0  0  0  0  0
   49.8278   53.6066   28.6291 C   0  0  0  0  0  0  0  0  0  0  0  0
   49.1981   54.0333   29.9498 C   0  0  0  0  0  0  0  0  0  0  0  0
   48.1143   52.7889   30.7035 S   0  0  2  0  0  0  0  0  0  0  0  0
   46.9063   52.5287   29.3814 C   0  0  0  0  0  0  0  0  0  0  0  0
   47.1536   53.8345   31.8294 C   0  0  0  0  0  0  0  0  0  0  0  0
   48.0550   54.3618   32.9357 C   0  0  1  0  0  0  0  0  0  0  0  0
   48.6618   55.5473   32.4809 O   0  0  0  0  0  0  0  0  0  0  0  0
   47.3285   54.7556   34.2060 C   0  0  1  0  0  0  0  0  0  0  0  0
   47.3917   53.7129   35.1482 O   0  0  0  0  0  0  0  0  0  0  0  0
   48.0966   55.9704   34.6945 C   0  0  1  0  0  0  0  0  0  0  0  0
   48.9013   55.6014   35.7894 O   0  0  0  0  0  0  0  0  0  0  0  0
   48.9745   56.4224   33.5343 C   0  0  2  0  0  0  0  0  0  0  0  0
   52.2714   56.0685   28.6785 O   0  0  0  0  0  0  0  0  0  0  0  0
   45.0111   59.6644   32.3242 N   0  0  0  0  0  0  0  0  0  0  0  0
   44.9497   58.3292   32.6685 C   0  0  0  0  0  0  0  0  0  0  0  0
   46.1055   57.6267   32.9565 N   0  0  0  0  0  0  0  0  0  0  0  0
   47.3108   58.2345   32.8971 C   0  0  0  0  0  0  0  0  0  0  0  0
   47.3954   59.5774   32.5603 C   0  0  0  0  0  0  0  0  0  0  0  0
   46.2372   60.2927   32.2678 C   0  0  0  0  0  0  0  0  0  0  0  0
   46.2997   61.5797   31.9362 N   0  0  0  0  0  0  0  0  0  0  0  0
   48.7013   59.9253   32.5889 N   0  0  0  0  0  0  0  0  0  0  0  0
   49.4339   58.8448   32.9475 C   0  0  0  0  0  0  0  0  0  0  0  0
   48.5845   57.7873   33.1420 N   0  0  0  0  0  0  0  0  0  0  0  0
  2  1  1  6  0  0  0
  2  3  1  0  0  0  0
  2  5  1  0  0  0  0
  3  4  1  0  0  0  0
  3 17  1  0  0  0  0
  5  6  1  0  0  0  0
  7  6  1  6  0  0  0
  7  8  1  0  0  0  0
  7  9  1  0  0  0  0
 10  9  1  6  0  0  0
 10 11  1  0  0  0  0
 10 12  1  0  0  0  0
 11 16  1  0  0  0  0
 12 13  1  1  0  0  0
 12 14  1  0  0  0  0
 14 15  1  1  0  0  0
 14 16  1  0  0  0  0
 16 27  1  6  0  0  0
 18 19  2  0  0  0  0
 18 23  1  0  0  0  0
 19 20  1  0  0  0  0
 20 21  2  0  0  0  0
 21 22  1  0  0  0  0
 21 27  1  0  0  0  0
 22 23  2  0  0  0  0
 22 25  1  0  0  0  0
 23 24  1  0  0  0  0
 25 26  2  0  0  0  0
 26 27  1  0  0  0  0
M  END
>  <CHROM.1>
-67.56171977,-150.17173356,166.32189976,-57.62918348,-67.79152820,86.86878360
64.55330816,48.42325360,56.01583270,31.60577510,-0.53070952,0.99823091,-0.19052333

>  <Name>
ligand

>  <RI>
0

>  <Rbt.Current_Directory>
/home/itssahil/PROJECTS/Mol_Feturizer/New_Systems/rnas/3GX7

>  <Rbt.Executable>
rbdock ($Id: //depot/dev/client3/rdock/2013.1/src/exe/rbdock.cxx#4 $)

>  <Rbt.Library>
libRbt.so (2013.1, Build901 2013/11/27)

>  <Rbt.Parameter_File>
/export/apps/rDock/src/rDock_2013.1_src/data/scripts/dock_solv.prm

>  <Rbt.Receptor>
prm/pocket_docking_8.prm

>  <SCORE>
-20.4912

>  <SCORE.INTER>
-16.6022

>  <SCORE.INTER.CONST>
1

>  <SCORE.INTER.POLAR>
0

>  <SCORE.INTER.ROT>
7

>  <SCORE.INTER.SOLV>
17.6077

>  <SCORE.INTER.VDW>
-25.2041

>  <SCORE.INTER.norm>
-0.614898

>  <SCORE.INTRA>
-3.89031

>  <SCORE.INTRA.DIHEDRAL>
-2.05185

>  <SCORE.INTRA.DIHEDRAL.0>
11.2699

>  <SCORE.INTRA.POLAR>
0

>  <SCORE.INTRA.POLAR.0>
0

>  <SCORE.INTRA.REPUL>
0

>  <SCORE.INTRA.REPUL.0>
0

>  <SCORE.INTRA.SOLV>
-0.993491

>  <SCORE.INTRA.SOLV.lig_0>
-48.6447

>  <SCORE.INTRA.VDW>
-2.36764

>  <SCORE.INTRA.VDW.0>
-0.0211724

>  <SCORE.INTRA.norm>
-0.144086

>  <SCORE.RESTR>
0.0013566

>  <SCORE.RESTR.CAVITY>
0.0013566

>  <SCORE.RESTR.norm>
5.02444e-05

>  <SCORE.SYSTEM>
0

>  <SCORE.SYSTEM.CONST>
0

>  <SCORE.SYSTEM.DIHEDRAL>
0

>  <SCORE.SYSTEM.SOLV>
0

>  <SCORE.SYSTEM.norm>
0

>  <SCORE.heavy>
27

>  <SCORE.norm>
-0.758933

>  <RMSD>
2.521

$$$$
ligand
 OpenBabel11021811483D
libRbt.so/2013.1/901 2013/11/27
 27 29  0  0  0  0  0  0  0  0999 V2000
   47.6500   55.8047   25.2006 N   0  0  0  0  0  0  0  0  0  0  0  0
   48.8412   54.9641   25.2034 C   0  0  2  0  0  0  0  0  0  0  0  0
   48.4652   53.5020   25.0287 C   0  0  0  0  0  0  0  0  0  0  0  0
   49.1998   52.7420   24.4022 O   0  0  0  0  0  0  0  0  0  0  0  0
   49.6670   55.1517   26.4753 C   0  0  0  0  0  0  0  0  0  0  0  0
   48.9192   54.8643   27.7718 C   0  0  0  0  0  0  0  0  0  0  0  0
   49.9126   55.0724   29.2756 S   0  0  2  0  0  0  0  0  0  0  0  0
   51.0085   53.6359   29.1736 C   0  0  0  0  0  0  0  0  0  0  0  0
   48.7320   54.5007   30.5259 C   0  0  0  0  0  0  0  0  0  0  0  0
   49.2455   54.8497   31.9149 C   0  0  1  0  0  0  0  0  0  0  0  0
   49.5824   56.2159   31.9286 O   0  0  0  0  0  0  0  0  0  0  0  0
   48.2249   54.6862   33.0231 C   0  0  1  0  0  0  0  0  0  0  0  0
   48.3967   53.4471   33.6665 O   0  0  0  0  0  0  0  0  0  0  0  0
   48.5378   55.8320   33.9683 C   0  0  1  0  0  0  0  0  0  0  0  0
   49.2029   55.3294   35.1030 O   0  0  0  0  0  0  0  0  0  0  0  0
   49.4546   56.7821   33.2079 C   0  0  2  0  0  0  0  0  0  0  0  0
   47.4252   53.0558   25.5142 O   0  0  0  0  0  0  0  0  0  0  0  0
   45.3240   59.4184   31.2916 N   0  0  0  0  0  0  0  0  0  0  0  0
   45.6035   58.0710   31.1848 C   0  0  0  0  0  0  0  0  0  0  0  0
   46.7483   57.5461   31.7561 N   0  0  0  0  0  0  0  0  0  0  0  0
   47.6127   58.3452   32.4193 C   0  0  0  0  0  0  0  0  0  0  0  0
   47.3482   59.7010   32.5451 C   0  0  0  0  0  0  0  0  0  0  0  0
   46.1986   60.2387   31.9725 C   0  0  0  0  0  0  0  0  0  0  0  0
   45.9320   61.5380   32.0772 N   0  0  0  0  0  0  0  0  0  0  0  0
   48.3577   60.2510   33.2562 N   0  0  0  0  0  0  0  0  0  0  0  0
   49.2374   59.2780   33.5910 C   0  0  0  0  0  0  0  0  0  0  0  0
   48.7886   58.0891   33.0783 N   0  0  0  0  0  0  0  0  0  0  0  0
  2  1  1  1  0  0  0
  2  3  1  0  0  0  0
  2  5  1  0  0  0  0
  3  4  1  0  0  0  0
  3 17  1  0  0  0  0
  5  6  1  0  0  0  0
  7  6  1  6  0  0  0
  7  8  1  0  0  0  0
  7  9  1  0  0  0  0
 10  9  1  6  0  0  0
 10 11  1  0  0  0  0
 10 12  1  0  0  0  0
 11 16  1  0  0  0  0
 12 13  1  1  0  0  0
 12 14  1  0  0  0  0
 14 15  1  1  0  0  0
 14 16  1  0  0  0  0
 16 27  1  6  0  0  0
 18 19  2  0  0  0  0
 18 23  1  0  0  0  0
 19 20  1  0  0  0  0
 20 21  2  0  0  0  0
 21 22  1  0  0  0  0
 21 27  1  0  0  0  0
 22 23  2  0  0  0  0
 22 25  1  0  0  0  0
 23 24  1  0  0  0  0
 25 26  2  0  0  0  0
 26 27  1  0  0  0  0
M  END
>  <CHROM.1>
145.56916809,57.95924599,179.37764857,-72.00404904,-168.47361077,51.14216235
51.50380201,48.39643677,56.23537342,30.43646984,1.28172506,1.05820669,-1.88047922

>  <Name>
ligand

>  <RI>
0

>  <Rbt.Current_Directory>
/home/itssahil/PROJECTS/Mol_Feturizer/New_Systems/rnas/3GX7

>  <Rbt.Executable>
rbdock ($Id: //depot/dev/client3/rdock/2013.1/src/exe/rbdock.cxx#4 $)

>  <Rbt.Library>
libRbt.so (2013.1, Build901 2013/11/27)

>  <Rbt.Parameter_File>
/export/apps/rDock/src/rDock_2013.1_src/data/scripts/dock_solv.prm

>  <Rbt.Receptor>
prm/pocket_docking_6.prm

>  <SCORE>
-16.2946

>  <SCORE.INTER>
-9.97559

>  <SCORE.INTER.CONST>
1

>  <SCORE.INTER.POLAR>
0

>  <SCORE.INTER.ROT>
7

>  <SCORE.INTER.SOLV>
19.8276

>  <SCORE.INTER.VDW>
-21.5263

>  <SCORE.INTER.norm>
-0.369466

>  <SCORE.INTRA>
-6.319

>  <SCORE.INTRA.DIHEDRAL>
-6.7276

>  <SCORE.INTRA.DIHEDRAL.0>
11.2699

>  <SCORE.INTRA.POLAR>
0

>  <SCORE.INTRA.POLAR.0>
0

>  <SCORE.INTRA.REPUL>
0

>  <SCORE.INTRA.REPUL.0>
0

>  <SCORE.INTRA.SOLV>
-0.381666

>  <SCORE.INTRA.SOLV.lig_0>
-48.6447

>  <SCORE.INTRA.VDW>
-2.76437

>  <SCORE.INTRA.VDW.0>
-0.0211724

>  <SCORE.INTRA.norm>
-0.234037

>  <SCORE.RESTR>
0

>  <SCORE.RESTR.CAVITY>
0

>  <SCORE.RESTR.norm>
0

>  <SCORE.SYSTEM>
0

>  <SCORE.SYSTEM.CONST>
0

>  <SCORE.SYSTEM.DIHEDRAL>
0

>  <SCORE.SYSTEM.SOLV>
0

>  <SCORE.SYSTEM.norm>
0

>  <SCORE.heavy>
27

>  <SCORE.norm>
-0.603503

>  <RMSD>
2.540

$$$$
ligand
 OpenBabel11021811483D
libRbt.so/2013.1/901 2013/11/27
 27 29  0  0  0  0  0  0  0  0999 V2000
   46.5057   53.4224   26.7997 N   0  0  0  0  0  0  0  0  0  0  0  0
   46.6905   52.6696   28.0344 C   0  0  2  0  0  0  0  0  0  0  0  0
   45.7080   53.1341   29.0968 C   0  0  0  0  0  0  0  0  0  0  0  0
   45.1942   52.3240   29.8647 O   0  0  0  0  0  0  0  0  0  0  0  0
   48.1234   52.7730   28.5549 C   0  0  0  0  0  0  0  0  0  0  0  0
   48.6243   54.1960   28.7715 C   0  0  0  0  0  0  0  0  0  0  0  0
   48.2299   54.8930   30.3994 S   0  0  2  0  0  0  0  0  0  0  0  0
   48.8638   56.5788   30.2221 C   0  0  0  0  0  0  0  0  0  0  0  0
   49.5451   54.1477   31.3987 C   0  0  0  0  0  0  0  0  0  0  0  0
   49.4273   54.6224   32.8393 C   0  0  1  0  0  0  0  0  0  0  0  0
   49.7665   55.9876   32.8815 O   0  0  0  0  0  0  0  0  0  0  0  0
   48.0272   54.5482   33.4144 C   0  0  1  0  0  0  0  0  0  0  0  0
   47.8714   53.3723   34.1706 O   0  0  0  0  0  0  0  0  0  0  0  0
   47.9410   55.7757   34.3033 C   0  0  1  0  0  0  0  0  0  0  0  0
   48.0434   55.3811   35.6510 O   0  0  0  0  0  0  0  0  0  0  0  0
   49.1222   56.6632   33.9312 C   0  0  2  0  0  0  0  0  0  0  0  0
   45.4158   54.3251   29.2082 O   0  0  0  0  0  0  0  0  0  0  0  0
   44.9102   59.3754   32.3227 N   0  0  0  0  0  0  0  0  0  0  0  0
   44.9691   58.0695   32.7655 C   0  0  0  0  0  0  0  0  0  0  0  0
   46.1757   57.5148   33.1513 N   0  0  0  0  0  0  0  0  0  0  0  0
   47.3142   58.2399   33.0927 C   0  0  0  0  0  0  0  0  0  0  0  0
   47.2774   59.5564   32.6576 C   0  0  0  0  0  0  0  0  0  0  0  0
   46.0674   60.1232   32.2662 C   0  0  0  0  0  0  0  0  0  0  0  0
   46.0140   61.3824   31.8398 N   0  0  0  0  0  0  0  0  0  0  0  0
   48.5383   60.0407   32.7105 N   0  0  0  0  0  0  0  0  0  0  0  0
   49.3596   59.0718   33.1790 C   0  0  0  0  0  0  0  0  0  0  0  0
   48.6141   57.9477   33.4206 N   0  0  0  0  0  0  0  0  0  0  0  0
  2  1  1  6  0  0  0
  2  3  1  0  0  0  0
  2  5  1  0  0  0  0
  3  4  1  0  0  0  0
  3 17  1  0  0  0  0
  5  6  1  0  0  0  0
  7  6  1  6  0  0  0
  7  8  1  0  0  0  0
  7  9  1  0  0  0  0
 10  9  1  6  0  0  0
 10 11  1  0  0  0  0
 10 12  1  0  0  0  0
 11 16  1  0  0  0  0
 12 13  1  1  0  0  0
 12 14  1  0  0  0  0
 14 15  1  1  0  0  0
 14 16  1  0  0  0  0
 16 27  1  6  0  0  0
 18 19  2  0  0  0  0
 18 23  1  0  0  0  0
 19 20  1  0  0  0  0
 20 21  2  0  0  0  0
 21 22  1  0  0  0  0
 21 27  1  0  0  0  0
 22 23  2  0  0  0  0
 22 25  1  0  0  0  0
 23 24  1  0  0  0  0
 25 26  2  0  0  0  0
 26 27  1  0  0  0  0
M  END
>  <CHROM.1>
142.26496159,55.55472256,86.78344692,-176.05606709,178.99342248,-69.50458579
102.78908696,47.53824352,56.00655778,31.66515558,1.65415504,0.96039815,-2.57512925

>  <Name>
ligand

>  <RI>
0

>  <Rbt.Current_Directory>
/home/itssahil/PROJECTS/Mol_Feturizer/New_Systems/rnas/3GX7

>  <Rbt.Executable>
rbdock ($Id: //depot/dev/client3/rdock/2013.1/src/exe/rbdock.cxx#4 $)

>  <Rbt.Library>
libRbt.so (2013.1, Build901 2013/11/27)

>  <Rbt.Parameter_File>
/export/apps/rDock/src/rDock_2013.1_src/data/scripts/dock_solv.prm

>  <Rbt.Receptor>
prm/pocket_docking_5.prm

>  <SCORE>
-19.1927

>  <SCORE.INTER>
-14.4115

>  <SCORE.INTER.CONST>
1

>  <SCORE.INTER.POLAR>
0

>  <SCORE.INTER.ROT>
7

>  <SCORE.INTER.SOLV>
17.6169

>  <SCORE.INTER.VDW>
-23.7466

>  <SCORE.INTER.norm>
-0.533759

>  <SCORE.INTRA>
-4.78121

>  <SCORE.INTRA.DIHEDRAL>
-4.8443

>  <SCORE.INTRA.DIHEDRAL.0>
11.2699

>  <SCORE.INTRA.POLAR>
0

>  <SCORE.INTRA.POLAR.0>
0

>  <SCORE.INTRA.REPUL>
0

>  <SCORE.INTRA.REPUL.0>
0

>  <SCORE.INTRA.SOLV>
0.219439

>  <SCORE.INTRA.SOLV.lig_0>
-48.6447

>  <SCORE.INTRA.VDW>
-2.46878

>  <SCORE.INTRA.VDW.0>
-0.0211724

>  <SCORE.INTRA.norm>
-0.177082

>  <SCORE.RESTR>
0

>  <SCORE.RESTR.CAVITY>
0

>  <SCORE.RESTR.norm>
0

>  <SCORE.SYSTEM>
0

>  <SCORE.SYSTEM.CONST>
0

>  <SCORE.SYSTEM.DIHEDRAL>
0

>  <SCORE.SYSTEM.SOLV>
0

>  <SCORE.SYSTEM.norm>
0

>  <SCORE.heavy>
27

>  <SCORE.norm>
-0.710841

>  <RMSD>
2.556

$$$$
ligand
 OpenBabel11021811483D
libRbt.so/2013.1/901 2013/11/27
 27 29  0  0  0  0  0  0  0  0999 V2000
   46.7679   53.2891   26.8258 N   0  0  0  0  0  0  0  0  0  0  0  0
   46.8612   52.5625   28.0863 C   0  0  2  0  0  0  0  0  0  0  0  0
   45.8287   53.0743   29.0770 C   0  0  0  0  0  0  0  0  0  0  0  0
   45.2358   52.2922   29.8165 O   0  0  0  0  0  0  0  0  0  0  0  0
   48.2627   52.6463   28.6891 C   0  0  0  0  0  0  0  0  0  0  0  0
   48.7706   54.0624   28.9328 C   0  0  0  0  0  0  0  0  0  0  0  0
   48.2876   54.7703   30.5319 S   0  0  2  0  0  0  0  0  0  0  0  0
   49.0245   56.4195   30.4224 C   0  0  0  0  0  0  0  0  0  0  0  0
   49.4771   53.9475   31.6236 C   0  0  0  0  0  0  0  0  0  0  0  0
   49.2464   54.3896   33.0609 C   0  0  1  0  0  0  0  0  0  0  0  0
   49.6245   55.7405   33.1714 O   0  0  0  0  0  0  0  0  0  0  0  0
   47.7988   54.3497   33.5074 C   0  0  1  0  0  0  0  0  0  0  0  0
   47.5378   53.1612   34.2133 O   0  0  0  0  0  0  0  0  0  0  0  0
   47.6732   55.5566   34.4194 C   0  0  1  0  0  0  0  0  0  0  0  0
   47.6418   55.1248   35.7592 O   0  0  0  0  0  0  0  0  0  0  0  0
   48.9111   56.4115   34.1786 C   0  0  2  0  0  0  0  0  0  0  0  0
   45.5740   54.2763   29.1582 O   0  0  0  0  0  0  0  0  0  0  0  0
   44.9293   59.3371   32.3703 N   0  0  0  0  0  0  0  0  0  0  0  0
   44.9029   58.0234   32.7927 C   0  0  0  0  0  0  0  0  0  0  0  0
   46.0580   57.4085   33.2398 N   0  0  0  0  0  0  0  0  0  0  0  0
   47.2293   58.0816   33.2619 C   0  0  0  0  0  0  0  0  0  0  0  0
   47.2777   59.4048   32.8489 C   0  0  0  0  0  0  0  0  0  0  0  0
   46.1200   60.0320   32.3962 C   0  0  0  0  0  0  0  0  0  0  0  0
   46.1488   61.2986   31.9897 N   0  0  0  0  0  0  0  0  0  0  0  0
   48.5535   59.8301   32.9853 N   0  0  0  0  0  0  0  0  0  0  0  0
   49.3009   58.8177   33.4847 C   0  0  0  0  0  0  0  0  0  0  0  0
   48.4926   57.7254   33.6615 N   0  0  0  0  0  0  0  0  0  0  0  0
  2  1  1  6  0  0  0
  2  3  1  0  0  0  0
  2  5  1  0  0  0  0
  3  4  1  0  0  0  0
  3 17  1  0  0  0  0
  5  6  1  0  0  0  0
  7  6  1  6  0  0  0
  7  8  1  0  0  0  0
  7  9  1  0  0  0  0
 10  9  1  6  0  0  0
 10 11  1  0  0  0  0
 10 12  1  0  0  0  0
 11 16  1  0  0  0  0
 12 13  1  1  0  0  0
 12 14  1  0  0  0  0
 14 15  1  1  0  0  0
 14 16  1  0  0  0  0
 16 27  1  6  0  0  0
 18 19  2  0  0  0  0
 18 23  1  0  0  0  0
 19 20  1  0  0  0  0
 20 21  2  0  0  0  0
 21 22  1  0  0  0  0
 21 27  1  0  0  0  0
 22 23  2  0  0  0  0
 22 25  1  0  0  0  0
 23 24  1  0  0  0  0
 25 26  2  0  0  0  0
 26 27  1  0  0  0  0
M  END
>  <CHROM.1>
141.11051059,56.91166047,86.58547690,-178.63860969,-179.41851896,-69.18550982
104.68146618,47.51106730,55.85562493,31.79526575,1.60018809,1.04471988,-2.52028348

>  <Name>
ligand

>  <RI>
0

>  <Rbt.Current_Directory>
/home/itssahil/PROJECTS/Mol_Feturizer/New_Systems/rnas/3GX7

>  <Rbt.Executable>
rbdock ($Id: //depot/dev/client3/rdock/2013.1/src/exe/rbdock.cxx#4 $)

>  <Rbt.Library>
libRbt.so (2013.1, Build901 2013/11/27)

>  <Rbt.Parameter_File>
/export/apps/rDock/src/rDock_2013.1_src/data/scripts/dock_solv.prm

>  <Rbt.Receptor>
prm/pocket_docking_4.prm

>  <SCORE>
-18.7686

>  <SCORE.INTER>
-13.8876

>  <SCORE.INTER.CONST>
1

>  <SCORE.INTER.POLAR>
0

>  <SCORE.INTER.ROT>
7

>  <SCORE.INTER.SOLV>
17.6938

>  <SCORE.INTER.VDW>
-23.423

>  <SCORE.INTER.norm>
-0.514354

>  <SCORE.INTRA>
-4.88335

>  <SCORE.INTRA.DIHEDRAL>
-5.02182

>  <SCORE.INTRA.DIHEDRAL.0>
11.2699

>  <SCORE.INTRA.POLAR>
0

>  <SCORE.INTRA.POLAR.0>
0

>  <SCORE.INTRA.REPUL>
0

>  <SCORE.INTRA.REPUL.0>
0

>  <SCORE.INTRA.SOLV>
0.201086

>  <SCORE.INTRA.SOLV.lig_0>
-48.6447

>  <SCORE.INTRA.VDW>
-2.47299

>  <SCORE.INTRA.VDW.0>
-0.0211724

>  <SCORE.INTRA.norm>
-0.180865

>  <SCORE.RESTR>
0.00232573

>  <SCORE.RESTR.CAVITY>
0.00232573

>  <SCORE.RESTR.norm>
8.61383e-05

>  <SCORE.SYSTEM>
0

>  <SCORE.SYSTEM.CONST>
0

>  <SCORE.SYSTEM.DIHEDRAL>
0

>  <SCORE.SYSTEM.SOLV>
0

>  <SCORE.SYSTEM.norm>
0

>  <SCORE.heavy>
27

>  <SCORE.norm>
-0.695133

>  <RMSD>
2.563

$$$$
ligand
 OpenBabel11021811483D
libRbt.so/2013.1/901 2013/11/27
 27 29  0  0  0  0  0  0  0  0999 V2000
   48.1589   53.7657   25.1192 N   0  0  0  0  0  0  0  0  0  0  0  0
   48.6896   55.1173   25.2493 C   0  0  2  0  0  0  0  0  0  0  0  0
   49.4829   55.5026   24.0117 C   0  0  0  0  0  0  0  0  0  0  0  0
   48.9266   56.0490   23.0620 O   0  0  0  0  0  0  0  0  0  0  0  0
   49.5512   55.2723   26.5018 C   0  0  0  0  0  0  0  0  0  0  0  0
   48.8390   54.9557   27.8114 C   0  0  0  0  0  0  0  0  0  0  0  0
   49.8814   55.1007   29.2891 S   0  0  2  0  0  0  0  0  0  0  0  0
   50.9652   53.6644   29.0962 C   0  0  0  0  0  0  0  0  0  0  0  0
   48.7385   54.4862   30.5540 C   0  0  0  0  0  0  0  0  0  0  0  0
   49.2559   54.8546   31.9365 C   0  0  1  0  0  0  0  0  0  0  0  0
   49.5771   56.2247   31.9350 O   0  0  0  0  0  0  0  0  0  0  0  0
   48.2436   54.6902   33.0522 C   0  0  1  0  0  0  0  0  0  0  0  0
   48.4333   53.4595   33.7066 O   0  0  0  0  0  0  0  0  0  0  0  0
   48.5487   55.8487   33.9844 C   0  0  1  0  0  0  0  0  0  0  0  0
   49.2260   55.3648   35.1200 O   0  0  0  0  0  0  0  0  0  0  0  0
   49.4502   56.8017   33.2095 C   0  0  2  0  0  0  0  0  0  0  0  0
   50.6919   55.2788   23.9424 O   0  0  0  0  0  0  0  0  0  0  0  0
   45.2630   59.3666   31.3191 N   0  0  0  0  0  0  0  0  0  0  0  0
   45.5552   58.0207   31.2277 C   0  0  0  0  0  0  0  0  0  0  0  0
   46.7140   57.5162   31.7888 N   0  0  0  0  0  0  0  0  0  0  0  0
   47.5800   58.3339   32.4268 C   0  0  0  0  0  0  0  0  0  0  0  0
   47.3031   59.6886   32.5369 C   0  0  0  0  0  0  0  0  0  0  0  0
   46.1392   60.2058   31.9743 C   0  0  0  0  0  0  0  0  0  0  0  0
   45.8605   61.5037   32.0643 N   0  0  0  0  0  0  0  0  0  0  0  0
   48.3175   60.2594   33.2242 N   0  0  0  0  0  0  0  0  0  0  0  0
   49.2125   59.3006   33.5596 C   0  0  0  0  0  0  0  0  0  0  0  0
   48.7684   58.0998   33.0712 N   0  0  0  0  0  0  0  0  0  0  0  0
  2  1  1  6  0  0  0
  2  3  1  0  0  0  0
  2  5  1  0  0  0  0
  3  4  1  0  0  0  0
  3 17  1  0  0  0  0
  5  6  1  0  0  0  0
  7  6  1  6  0  0  0
  7  8  1  0  0  0  0
  7  9  1  0  0  0  0
 10  9  1  6  0  0  0
 10 11  1  0  0  0  0
 10 12  1  0  0  0  0
 11 16  1  0  0  0  0
 12 13  1  1  0  0  0
 12 14  1  0  0  0  0
 14 15  1  1  0  0  0
 14 16  1  0  0  0  0
 16 27  1  6  0  0  0
 18 19  2  0  0  0  0
 18 23  1  0  0  0  0
 19 20  1  0  0  0  0
 20 21  2  0  0  0  0
 21 22  1  0  0  0  0
 21 27  1  0  0  0  0
 22 23  2  0  0  0  0
 22 25  1  0  0  0  0
 23 24  1  0  0  0  0
 25 26  2  0  0  0  0
 26 27  1  0  0  0  0
M  END
>  <CHROM.1>
90.01967604,-58.32542231,178.49324601,-71.24412522,-164.99157259,49.53181783
52.12557967,48.54140883,56.46379365,30.29152256,1.14420445,1.08159642,-1.55745554

>  <Name>
ligand

>  <RI>
0

>  <Rbt.Current_Directory>
/home/itssahil/PROJECTS/Mol_Feturizer/New_Systems/rnas/3GX7

>  <Rbt.Executable>
rbdock ($Id: //depot/dev/client3/rdock/2013.1/src/exe/rbdock.cxx#4 $)

>  <Rbt.Library>
libRbt.so (2013.1, Build901 2013/11/27)

>  <Rbt.Parameter_File>
/export/apps/rDock/src/rDock_2013.1_src/data/scripts/dock_solv.prm

>  <Rbt.Receptor>
prm/blind_docking_100.prm

>  <SCORE>
-18.5956

>  <SCORE.INTER>
-13.0206

>  <SCORE.INTER.CONST>
1

>  <SCORE.INTER.POLAR>
0

>  <SCORE.INTER.ROT>
7

>  <SCORE.INTER.SOLV>
17.6167

>  <SCORE.INTER.VDW>
-22.8193

>  <SCORE.INTER.norm>
-0.482243

>  <SCORE.INTRA>
-5.59133

>  <SCORE.INTRA.DIHEDRAL>
-6.26386

>  <SCORE.INTRA.DIHEDRAL.0>
11.2699

>  <SCORE.INTRA.POLAR>
0

>  <SCORE.INTRA.POLAR.0>
0

>  <SCORE.INTRA.REPUL>
0

>  <SCORE.INTRA.REPUL.0>
0

>  <SCORE.INTRA.SOLV>
-0.393417

>  <SCORE.INTRA.SOLV.lig_0>
-48.6447

>  <SCORE.INTRA.VDW>
-2.26269

>  <SCORE.INTRA.VDW.0>
-0.0211724

>  <SCORE.INTRA.norm>
-0.207086

>  <SCORE.RESTR>
0.0163122

>  <SCORE.RESTR.CAVITY>
0.0163122

>  <SCORE.RESTR.norm>
0.000604157

>  <SCORE.SYSTEM>
0

>  <SCORE.SYSTEM.CONST>
0

>  <SCORE.SYSTEM.DIHEDRAL>
0

>  <SCORE.SYSTEM.SOLV>
0

>  <SCORE.SYSTEM.norm>
0

>  <SCORE.heavy>
27

>  <SCORE.norm>
-0.688725

>  <RMSD>
2.572

$$$$
ligand
 OpenBabel11021811483D
libRbt.so/2013.1/901 2013/11/27
 27 29  0  0  0  0  0  0  0  0999 V2000
   52.0855   53.1388   26.5531 N   0  0  0  0  0  0  0  0  0  0  0  0
   50.7326   52.7463   26.9285 C   0  0  2  0  0  0  0  0  0  0  0  0
   49.7058   53.5476   26.1454 C   0  0  0  0  0  0  0  0  0  0  0  0
   48.6985   53.0016   25.7014 O   0  0  0  0  0  0  0  0  0  0  0  0
   50.4919   52.8981   28.4298 C   0  0  0  0  0  0  0  0  0  0  0  0
   49.0805   52.5531   28.8895 C   0  0  0  0  0  0  0  0  0  0  0  0
   48.7734   52.8373   30.6548 S   0  0  2  0  0  0  0  0  0  0  0  0
   46.9784   53.0673   30.6661 C   0  0  0  0  0  0  0  0  0  0  0  0
   49.3288   54.5555   30.8082 C   0  0  0  0  0  0  0  0  0  0  0  0
   49.3916   54.9459   32.2773 C   0  0  1  0  0  0  0  0  0  0  0  0
   49.6804   56.3210   32.3547 O   0  0  0  0  0  0  0  0  0  0  0  0
   48.0877   54.7759   33.0304 C   0  0  1  0  0  0  0  0  0  0  0  0
   48.0826   53.5550   33.7292 O   0  0  0  0  0  0  0  0  0  0  0  0
   48.0769   55.9484   33.9945 C   0  0  1  0  0  0  0  0  0  0  0  0
   48.3785   55.4869   35.2901 O   0  0  0  0  0  0  0  0  0  0  0  0
   49.1606   56.9084   33.5202 C   0  0  2  0  0  0  0  0  0  0  0  0
   49.8634   54.7528   25.9480 O   0  0  0  0  0  0  0  0  0  0  0  0
   44.7005   59.4243   32.3112 N   0  0  0  0  0  0  0  0  0  0  0  0
   44.8749   58.0887   32.6126 C   0  0  0  0  0  0  0  0  0  0  0  0
   46.1329   57.5961   32.9078 N   0  0  0  0  0  0  0  0  0  0  0  0
   47.2094   58.4126   32.8975 C   0  0  0  0  0  0  0  0  0  0  0  0
   47.0564   59.7597   32.6044 C   0  0  0  0  0  0  0  0  0  0  0  0
   45.7938   60.2646   32.3051 C   0  0  0  0  0  0  0  0  0  0  0  0
   45.6291   61.5526   32.0150 N   0  0  0  0  0  0  0  0  0  0  0  0
   48.2771   60.3358   32.6766 N   0  0  0  0  0  0  0  0  0  0  0  0
   49.1859   59.3929   33.0200 C   0  0  0  0  0  0  0  0  0  0  0  0
   48.5380   58.1936   33.1604 N   0  0  0  0  0  0  0  0  0  0  0  0
  2  1  1  1  0  0  0
  2  3  1  0  0  0  0
  2  5  1  0  0  0  0
  3  4  1  0  0  0  0
  3 17  1  0  0  0  0
  5  6  1  0  0  0  0
  7  6  1  6  0  0  0
  7  8  1  0  0  0  0
  7  9  1  0  0  0  0
 10  9  1  6  0  0  0
 10 11  1  0  0  0  0
 10 12  1  0  0  0  0
 11 16  1  0  0  0  0
 12 13  1  1  0  0  0
 12 14  1  0  0  0  0
 14 15  1  1  0  0  0
 14 16  1  0  0  0  0
 16 27  1  6  0  0  0
 18 19  2  0  0  0  0
 18 23  1  0  0  0  0
 19 20  1  0  0  0  0
 20 21  2  0  0  0  0
 21 22  1  0  0  0  0
 21 27  1  0  0  0  0
 22 23  2  0  0  0  0
 22 25  1  0  0  0  0
 23 24  1  0  0  0  0
 25 26  2  0  0  0  0
 26 27  1  0  0  0  0
M  END
>  <CHROM.1>
138.98232987,177.90226976,-176.27821454,155.35000237,-170.13189781,-173.56538711
95.74426966,48.35175610,55.82739104,31.10148734,0.37503368,1.18653585,-1.22072477

>  <Name>
ligand

>  <RI>
0

>  <Rbt.Current_Directory>
/home/itssahil/PROJECTS/Mol_Feturizer/New_Systems/rnas/3GX7

>  <Rbt.Executable>
rbdock ($Id: //depot/dev/client3/rdock/2013.1/src/exe/rbdock.cxx#4 $)

>  <Rbt.Library>
libRbt.so (2013.1, Build901 2013/11/27)

>  <Rbt.Parameter_File>
/export/apps/rDock/src/rDock_2013.1_src/data/scripts/dock_solv.prm

>  <Rbt.Receptor>
prm/pocket_docking_5.prm

>  <SCORE>
-18.4237

>  <SCORE.INTER>
-13.9875

>  <SCORE.INTER.CONST>
1

>  <SCORE.INTER.POLAR>
0

>  <SCORE.INTER.ROT>
7

>  <SCORE.INTER.SOLV>
18.5257

>  <SCORE.INTER.VDW>
-23.7669

>  <SCORE.INTER.norm>
-0.518055

>  <SCORE.INTRA>
-4.43617

>  <SCORE.INTRA.DIHEDRAL>
-6.26702

>  <SCORE.INTRA.DIHEDRAL.0>
11.2699

>  <SCORE.INTRA.POLAR>
0

>  <SCORE.INTRA.POLAR.0>
0

>  <SCORE.INTRA.REPUL>
0

>  <SCORE.INTRA.REPUL.0>
0

>  <SCORE.INTRA.SOLV>
-0.77746

>  <SCORE.INTRA.SOLV.lig_0>
-48.6447

>  <SCORE.INTRA.VDW>
-0.913928

>  <SCORE.INTRA.VDW.0>
-0.0211724

>  <SCORE.INTRA.norm>
-0.164303

>  <SCORE.RESTR>
0

>  <SCORE.RESTR.CAVITY>
0

>  <SCORE.RESTR.norm>
0

>  <SCORE.SYSTEM>
0

>  <SCORE.SYSTEM.CONST>
0

>  <SCORE.SYSTEM.DIHEDRAL>
0

>  <SCORE.SYSTEM.SOLV>
0

>  <SCORE.SYSTEM.norm>
0

>  <SCORE.heavy>
27

>  <SCORE.norm>
-0.682358

>  <RMSD>
2.653

$$$$
ligand
 OpenBabel11021811483D
libRbt.so/2013.1/901 2013/11/27
 27 29  0  0  0  0  0  0  0  0999 V2000
   48.9870   54.5075   26.3186 N   0  0  0  0  0  0  0  0  0  0  0  0
   49.4316   53.3623   27.1035 C   0  0  2  0  0  0  0  0  0  0  0  0
   48.6067   52.1307   26.7684 C   0  0  0  0  0  0  0  0  0  0  0  0
   49.1400   51.1422   26.2700 O   0  0  0  0  0  0  0  0  0  0  0  0
   49.3776   53.6453   28.6041 C   0  0  0  0  0  0  0  0  0  0  0  0
   47.9914   53.9786   29.1427 C   0  0  0  0  0  0  0  0  0  0  0  0
   47.9922   54.8632   30.7266 S   0  0  2  0  0  0  0  0  0  0  0  0
   49.0846   56.2559   30.3501 C   0  0  0  0  0  0  0  0  0  0  0  0
   49.1142   53.8114   31.6851 C   0  0  0  0  0  0  0  0  0  0  0  0
   49.1763   54.3033   33.1235 C   0  0  1  0  0  0  0  0  0  0  0  0
   49.6469   55.6295   33.1146 O   0  0  0  0  0  0  0  0  0  0  0  0
   47.8348   54.3678   33.8254 C   0  0  1  0  0  0  0  0  0  0  0  0
   47.6379   53.2167   34.6096 O   0  0  0  0  0  0  0  0  0  0  0  0
   47.9490   55.6028   34.7007 C   0  0  1  0  0  0  0  0  0  0  0  0
   48.1376   55.2076   36.0389 O   0  0  0  0  0  0  0  0  0  0  0  0
   49.1702   56.3700   34.2091 C   0  0  2  0  0  0  0  0  0  0  0  0
   47.3965   52.1015   26.9943 O   0  0  0  0  0  0  0  0  0  0  0  0
   45.2421   59.2390   32.2032 N   0  0  0  0  0  0  0  0  0  0  0  0
   45.2361   57.9025   32.5481 C   0  0  0  0  0  0  0  0  0  0  0  0
   46.3722   57.3080   33.0659 N   0  0  0  0  0  0  0  0  0  0  0  0
   47.5056   58.0241   33.2339 C   0  0  0  0  0  0  0  0  0  0  0  0
   47.5323   59.3703   32.9008 C   0  0  0  0  0  0  0  0  0  0  0  0
   46.3935   59.9773   32.3780 C   0  0  0  0  0  0  0  0  0  0  0  0
   46.4026   61.2658   32.0465 N   0  0  0  0  0  0  0  0  0  0  0  0
   48.7703   59.8365   33.1785 N   0  0  0  0  0  0  0  0  0  0  0  0
   49.5137   58.8265   33.6885 C   0  0  0  0  0  0  0  0  0  0  0  0
   48.7422   57.6947   33.7288 N   0  0  0  0  0  0  0  0  0  0  0  0
  2  1  1  6  0  0  0
  2  3  1  0  0  0  0
  2  5  1  0  0  0  0
  3  4  1  0  0  0  0
  3 17  1  0  0  0  0
  5  6  1  0  0  0  0
  7  6  1  6  0  0  0
  7  8  1  0  0  0  0
  7  9  1  0  0  0  0
 10  9  1  6  0  0  0
 10 11  1  0  0  0  0
 10 12  1  0  0  0  0
 11 16  1  0  0  0  0
 12 13  1  1  0  0  0
 12 14  1  0  0  0  0
 14 15  1  1  0  0  0
 14 16  1  0  0  0  0
 16 27  1  6  0  0  0
 18 19  2  0  0  0  0
 18 23  1  0  0  0  0
 19 20  1  0  0  0  0
 20 21  2  0  0  0  0
 21 22  1  0  0  0  0
 21 27  1  0  0  0  0
 22 23  2  0  0  0  0
 22 25  1  0  0  0  0
 23 24  1  0  0  0  0
 25 26  2  0  0  0  0
 26 27  1  0  0  0  0
M  END
>  <CHROM.1>
117.09916264,60.46354357,-159.50602421,53.20010626,-175.06002864,-59.87723821
87.10857009,48.10560650,55.77190409,31.50566176,1.02650200,1.28299935,-1.78149276

>  <Name>
ligand

>  <RI>
0

>  <Rbt.Current_Directory>
/home/itssahil/PROJECTS/Mol_Feturizer/New_Systems/rnas/3GX7

>  <Rbt.Executable>
rbdock ($Id: //depot/dev/client3/rdock/2013.1/src/exe/rbdock.cxx#4 $)

>  <Rbt.Library>
libRbt.so (2013.1, Build901 2013/11/27)

>  <Rbt.Parameter_File>
/export/apps/rDock/src/rDock_2013.1_src/data/scripts/dock_solv.prm

>  <Rbt.Receptor>
prm/pocket_docking_5.prm

>  <SCORE>
-17.5703

>  <SCORE.INTER>
-13.3159

>  <SCORE.INTER.CONST>
1

>  <SCORE.INTER.POLAR>
0

>  <SCORE.INTER.ROT>
7

>  <SCORE.INTER.SOLV>
16.5969

>  <SCORE.INTER.VDW>
-22.6762

>  <SCORE.INTER.norm>
-0.493182

>  <SCORE.INTRA>
-4.25441

>  <SCORE.INTRA.DIHEDRAL>
-6.17442

>  <SCORE.INTRA.DIHEDRAL.0>
11.2699

>  <SCORE.INTRA.POLAR>
0

>  <SCORE.INTRA.POLAR.0>
0

>  <SCORE.INTRA.REPUL>
0

>  <SCORE.INTRA.REPUL.0>
0

>  <SCORE.INTRA.SOLV>
0.157219

>  <SCORE.INTRA.SOLV.lig_0>
-48.6447

>  <SCORE.INTRA.VDW>
-1.24581

>  <SCORE.INTRA.VDW.0>
-0.0211724

>  <SCORE.INTRA.norm>
-0.157571

>  <SCORE.RESTR>
0

>  <SCORE.RESTR.CAVITY>
0

>  <SCORE.RESTR.norm>
0

>  <SCORE.SYSTEM>
0

>  <SCORE.SYSTEM.CONST>
0

>  <SCORE.SYSTEM.DIHEDRAL>
0

>  <SCORE.SYSTEM.SOLV>
0

>  <SCORE.SYSTEM.norm>
0

>  <SCORE.heavy>
27

>  <SCORE.norm>
-0.650753

>  <RMSD>
2.680

$$$$
ligand
 OpenBabel11021811483D
libRbt.so/2013.1/901 2013/11/27
 27 29  0  0  0  0  0  0  0  0999 V2000
   50.5697   52.1058   26.6258 N   0  0  0  0  0  0  0  0  0  0  0  0
   49.1197   52.0767   26.7745 C   0  0  2  0  0  0  0  0  0  0  0  0
   48.4464   52.7515   25.5909 C   0  0  0  0  0  0  0  0  0  0  0  0
   47.4912   52.2176   25.0320 O   0  0  0  0  0  0  0  0  0  0  0  0
   48.6687   52.7252   28.0825 C   0  0  0  0  0  0  0  0  0  0  0  0
   48.9744   51.9153   29.3368 C   0  0  0  0  0  0  0  0  0  0  0  0
   48.2536   52.5866   30.8603 S   0  0  2  0  0  0  0  0  0  0  0  0
   46.6183   53.0989   30.2786 C   0  0  0  0  0  0  0  0  0  0  0  0
   49.0948   54.1898   30.9384 C   0  0  0  0  0  0  0  0  0  0  0  0
   49.2125   54.6382   32.3874 C   0  0  1  0  0  0  0  0  0  0  0  0
   49.6329   55.9811   32.3992 O   0  0  0  0  0  0  0  0  0  0  0  0
   47.9074   54.6290   33.1574 C   0  0  1  0  0  0  0  0  0  0  0  0
   47.7935   53.4470   33.9117 O   0  0  0  0  0  0  0  0  0  0  0  0
   48.0208   55.8394   34.0665 C   0  0  1  0  0  0  0  0  0  0  0  0
   48.2923   55.4098   35.3797 O   0  0  0  0  0  0  0  0  0  0  0  0
   49.1861   56.6680   33.5403 C   0  0  2  0  0  0  0  0  0  0  0  0
   48.8422   53.8418   25.1774 O   0  0  0  0  0  0  0  0  0  0  0  0
   44.9640   59.5708   32.3435 N   0  0  0  0  0  0  0  0  0  0  0  0
   45.0115   58.2432   32.7183 C   0  0  0  0  0  0  0  0  0  0  0  0
   46.2229   57.6374   32.9971 N   0  0  0  0  0  0  0  0  0  0  0  0
   47.3769   58.3332   32.8988 C   0  0  0  0  0  0  0  0  0  0  0  0
   47.3523   59.6703   32.5309 C   0  0  0  0  0  0  0  0  0  0  0  0
   46.1374   60.2886   32.2474 C   0  0  0  0  0  0  0  0  0  0  0  0
   46.0951   61.5685   31.8864 N   0  0  0  0  0  0  0  0  0  0  0  0
   48.6281   60.1169   32.5242 N   0  0  0  0  0  0  0  0  0  0  0  0
   49.4478   59.1038   32.8908 C   0  0  0  0  0  0  0  0  0  0  0  0
   48.6855   57.9897   33.1264 N   0  0  0  0  0  0  0  0  0  0  0  0
  2  1  1  6  0  0  0
  2  3  1  0  0  0  0
  2  5  1  0  0  0  0
  3  4  1  0  0  0  0
  3 17  1  0  0  0  0
  5  6  1  0  0  0  0
  7  6  1  6  0  0  0
  7  8  1  0  0  0  0
  7  9  1  0  0  0  0
 10  9  1  6  0  0  0
 10 11  1  0  0  0  0
 10 12  1  0  0  0  0
 11 16  1  0  0  0  0
 12 13  1  1  0  0  0
 12 14  1  0  0  0  0
 14 15  1  1  0  0  0
 14 16  1  0  0  0  0
 16 27  1  6  0  0  0
 18 19  2  0  0  0  0
 18 23  1  0  0  0  0
 19 20  1  0  0  0  0
 20 21  2  0  0  0  0
 21 22  1  0  0  0  0
 21 27  1  0  0  0  0
 22 23  2  0  0  0  0
 22 25  1  0  0  0  0
 23 24  1  0  0  0  0
 25 26  2  0  0  0  0
 26 27  1  0  0  0  0
M  END
>  <CHROM.1>
133.64870448,-71.92898277,-172.63366760,40.70718162,-152.00444497,-169.02185512
97.64453365,48.03324141,55.54760793,31.04538645,0.96441864,1.26905036,-1.80373222

>  <Name>
ligand

>  <RI>
0

>  <Rbt.Current_Directory>
/home/itssahil/PROJECTS/Mol_Feturizer/New_Systems/rnas/3GX7

>  <Rbt.Executable>
rbdock ($Id: //depot/dev/client3/rdock/2013.1/src/exe/rbdock.cxx#4 $)

>  <Rbt.Library>
libRbt.so (2013.1, Build901 2013/11/27)

>  <Rbt.Parameter_File>
/export/apps/rDock/src/rDock_2013.1_src/data/scripts/dock_solv.prm

>  <Rbt.Receptor>
prm/pocket_docking_8.prm

>  <SCORE>
-20.0333

>  <SCORE.INTER>
-17.6235

>  <SCORE.INTER.CONST>
1

>  <SCORE.INTER.POLAR>
0

>  <SCORE.INTER.ROT>
7

>  <SCORE.INTER.SOLV>
18.4315

>  <SCORE.INTER.VDW>
-26.1595

>  <SCORE.INTER.norm>
-0.652721

>  <SCORE.INTRA>
-2.41198

>  <SCORE.INTRA.DIHEDRAL>
-3.71226

>  <SCORE.INTRA.DIHEDRAL.0>
11.2699

>  <SCORE.INTRA.POLAR>
0

>  <SCORE.INTRA.POLAR.0>
0

>  <SCORE.INTRA.REPUL>
0

>  <SCORE.INTRA.REPUL.0>
0

>  <SCORE.INTRA.SOLV>
-0.293757

>  <SCORE.INTRA.SOLV.lig_0>
-48.6447

>  <SCORE.INTRA.VDW>
-0.408974

>  <SCORE.INTRA.VDW.0>
-0.0211724

>  <SCORE.INTRA.norm>
-0.0893327

>  <SCORE.RESTR>
0.00213502

>  <SCORE.RESTR.CAVITY>
0.00213502

>  <SCORE.RESTR.norm>
7.90749e-05

>  <SCORE.SYSTEM>
0

>  <SCORE.SYSTEM.CONST>
0

>  <SCORE.SYSTEM.DIHEDRAL>
0

>  <SCORE.SYSTEM.SOLV>
0

>  <SCORE.SYSTEM.norm>
0

>  <SCORE.heavy>
27

>  <SCORE.norm>
-0.741975

>  <RMSD>
2.736

$$$$
ligand
 OpenBabel11021811483D
libRbt.so/2013.1/901 2013/11/27
 27 29  0  0  0  0  0  0  0  0999 V2000
   49.9908   53.9401   26.0128 N   0  0  0  0  0  0  0  0  0  0  0  0
   49.6911   52.7982   26.8681 C   0  0  2  0  0  0  0  0  0  0  0  0
   48.6817   51.8792   26.2002 C   0  0  0  0  0  0  0  0  0  0  0  0
   48.9954   50.7324   25.8900 O   0  0  0  0  0  0  0  0  0  0  0  0
   49.1844   53.2340   28.2423 C   0  0  0  0  0  0  0  0  0  0  0  0
   49.0658   52.1112   29.2660 C   0  0  0  0  0  0  0  0  0  0  0  0
   48.4521   52.6358   30.8906 S   0  0  2  0  0  0  0  0  0  0  0  0
   46.8474   53.3453   30.4471 C   0  0  0  0  0  0  0  0  0  0  0  0
   49.4259   54.1446   31.1336 C   0  0  0  0  0  0  0  0  0  0  0  0
   49.3571   54.5712   32.5923 C   0  0  1  0  0  0  0  0  0  0  0  0
   49.7720   55.9131   32.6780 O   0  0  0  0  0  0  0  0  0  0  0  0
   47.9641   54.5525   33.1888 C   0  0  1  0  0  0  0  0  0  0  0  0
   47.7551   53.3596   33.9045 O   0  0  0  0  0  0  0  0  0  0  0  0
   47.9598   55.7490   34.1230 C   0  0  1  0  0  0  0  0  0  0  0  0
   48.0612   55.2995   35.4535 O   0  0  0  0  0  0  0  0  0  0  0  0
   49.1825   56.5835   33.7627 C   0  0  2  0  0  0  0  0  0  0  0  0
   47.5364   52.2655   25.9643 O   0  0  0  0  0  0  0  0  0  0  0  0
   45.0971   59.5948   32.3750 N   0  0  0  0  0  0  0  0  0  0  0  0
   45.0895   58.2741   32.7759 C   0  0  0  0  0  0  0  0  0  0  0  0
   46.2711   57.6357   33.1053 N   0  0  0  0  0  0  0  0  0  0  0  0
   47.4496   58.2924   33.0316 C   0  0  0  0  0  0  0  0  0  0  0  0
   47.4801   59.6221   32.6380 C   0  0  0  0  0  0  0  0  0  0  0  0
   46.2955   60.2730   32.3036 C   0  0  0  0  0  0  0  0  0  0  0  0
   46.3063   61.5462   31.9175 N   0  0  0  0  0  0  0  0  0  0  0  0
   48.7693   60.0277   32.6645 N   0  0  0  0  0  0  0  0  0  0  0  0
   49.5437   58.9965   33.0765 C   0  0  0  0  0  0  0  0  0  0  0  0
   48.7385   57.9121   33.3081 N   0  0  0  0  0  0  0  0  0  0  0  0
  2  1  1  6  0  0  0
  2  3  1  0  0  0  0
  2  5  1  0  0  0  0
  3  4  1  0  0  0  0
  3 17  1  0  0  0  0
  5  6  1  0  0  0  0
  7  6  1  6  0  0  0
  7  8  1  0  0  0  0
  7  9  1  0  0  0  0
 10  9  1  6  0  0  0
 10 11  1  0  0  0  0
 10 12  1  0  0  0  0
 11 16  1  0  0  0  0
 12 13  1  1  0  0  0
 12 14  1  0  0  0  0
 14 15  1  1  0  0  0
 14 16  1  0  0  0  0
 16 27  1  6  0  0  0
 18 19  2  0  0  0  0
 18 23  1  0  0  0  0
 19 20  1  0  0  0  0
 20 21  2  0  0  0  0
 21 22  1  0  0  0  0
 21 27  1  0  0  0  0
 22 23  2  0  0  0  0
 22 25  1  0  0  0  0
 23 24  1  0  0  0  0
 25 26  2  0  0  0  0
 26 27  1  0  0  0  0
M  END
>  <CHROM.1>
115.86875696,-170.50847816,-179.57598356,58.61484874,-165.01616026,-163.00121167
103.76058980,48.14238650,55.48933449,31.19747934,0.85131406,1.30008201,-1.72252251

>  <Name>
ligand

>  <RI>
0

>  <Rbt.Current_Directory>
/home/itssahil/PROJECTS/Mol_Feturizer/New_Systems/rnas/3GX7

>  <Rbt.Executable>
rbdock ($Id: //depot/dev/client3/rdock/2013.1/src/exe/rbdock.cxx#4 $)

>  <Rbt.Library>
libRbt.so (2013.1, Build901 2013/11/27)

>  <Rbt.Parameter_File>
/export/apps/rDock/src/rDock_2013.1_src/data/scripts/dock_solv.prm

>  <Rbt.Receptor>
prm/blind_docking_100.prm

>  <SCORE>
-21.2619

>  <SCORE.INTER>
-18.2829

>  <SCORE.INTER.CONST>
1

>  <SCORE.INTER.POLAR>
0

>  <SCORE.INTER.ROT>
7

>  <SCORE.INTER.SOLV>
17.7865

>  <SCORE.INTER.VDW>
-26.3841

>  <SCORE.INTER.norm>
-0.677146

>  <SCORE.INTRA>
-2.97891

>  <SCORE.INTRA.DIHEDRAL>
-5.23001

>  <SCORE.INTRA.DIHEDRAL.0>
11.2699

>  <SCORE.INTRA.POLAR>
0

>  <SCORE.INTRA.POLAR.0>
0

>  <SCORE.INTRA.REPUL>
0

>  <SCORE.INTRA.REPUL.0>
0

>  <SCORE.INTRA.SOLV>
-0.786515

>  <SCORE.INTRA.SOLV.lig_0>
-48.6447

>  <SCORE.INTRA.VDW>
0.0293498

>  <SCORE.INTRA.VDW.0>
-0.0211724

>  <SCORE.INTRA.norm>
-0.11033

>  <SCORE.RESTR>
0

>  <SCORE.RESTR.CAVITY>
0

>  <SCORE.RESTR.norm>
0

>  <SCORE.SYSTEM>
0

>  <SCORE.SYSTEM.CONST>
0

>  <SCORE.SYSTEM.DIHEDRAL>
0

>  <SCORE.SYSTEM.SOLV>
0

>  <SCORE.SYSTEM.norm>
0

>  <SCORE.heavy>
27

>  <SCORE.norm>
-0.787476

>  <RMSD>
2.829

$$$$
ligand
 OpenBabel11021811483D
libRbt.so/2013.1/901 2013/11/27
 27 29  0  0  0  0  0  0  0  0999 V2000
   46.2879   55.5318   28.0999 N   0  0  0  0  0  0  0  0  0  0  0  0
   47.0296   54.4571   27.4514 C   0  0  2  0  0  0  0  0  0  0  0  0
   46.6394   53.1092   28.0352 C   0  0  0  0  0  0  0  0  0  0  0  0
   46.1562   53.0367   29.1627 O   0  0  0  0  0  0  0  0  0  0  0  0
   48.5399   54.6640   27.5564 C   0  0  0  0  0  0  0  0  0  0  0  0
   49.1526   54.2413   28.8863 C   0  0  0  0  0  0  0  0  0  0  0  0
   48.3964   55.0145   30.3429 S   0  0  2  0  0  0  0  0  0  0  0  0
   48.7713   56.7601   30.0478 C   0  0  0  0  0  0  0  0  0  0  0  0
   49.6374   54.6171   31.6022 C   0  0  0  0  0  0  0  0  0  0  0  0
   49.0601   54.8635   32.9881 C   0  0  1  0  0  0  0  0  0  0  0  0
   48.7172   56.2248   33.0859 O   0  0  0  0  0  0  0  0  0  0  0  0
   47.7755   54.1136   33.2776 C   0  0  1  0  0  0  0  0  0  0  0  0
   48.0487   52.9361   33.9972 O   0  0  0  0  0  0  0  0  0  0  0  0
   46.9760   55.0884   34.1231 C   0  0  1  0  0  0  0  0  0  0  0  0
   47.0079   54.6714   35.4675 O   0  0  0  0  0  0  0  0  0  0  0  0
   47.6589   56.4431   33.9836 C   0  0  2  0  0  0  0  0  0  0  0  0
   46.7958   52.0728   27.3890 O   0  0  0  0  0  0  0  0  0  0  0  0
   47.0674   61.0759   31.5605 N   0  0  0  0  0  0  0  0  0  0  0  0
   48.2319   60.4901   32.0142 C   0  0  0  0  0  0  0  0  0  0  0  0
   48.1982   59.2551   32.6356 N   0  0  0  0  0  0  0  0  0  0  0  0
   47.0253   58.6087   32.8146 C   0  0  0  0  0  0  0  0  0  0  0  0
   45.8437   59.1755   32.3602 C   0  0  0  0  0  0  0  0  0  0  0  0
   45.8676   60.4189   31.7342 C   0  0  0  0  0  0  0  0  0  0  0  0
   44.7433   60.9810   31.2980 N   0  0  0  0  0  0  0  0  0  0  0  0
   44.8392   58.3206   32.6557 N   0  0  0  0  0  0  0  0  0  0  0  0
   45.3587   57.2304   33.2677 C   0  0  0  0  0  0  0  0  0  0  0  0
   46.7150   57.3949   33.3737 N   0  0  0  0  0  0  0  0  0  0  0  0
  2  1  1  1  0  0  0
  2  3  1  0  0  0  0
  2  5  1  0  0  0  0
  3  4  1  0  0  0  0
  3 17  1  0  0  0  0
  5  6  1  0  0  0  0
  7  6  1  6  0  0  0
  7  8  1  0  0  0  0
  7  9  1  0  0  0  0
 10  9  1  6  0  0  0
 10 11  1  0  0  0  0
 10 12  1  0  0  0  0
 11 16  1  0  0  0  0
 12 13  1  1  0  0  0
 12 14  1  0  0  0  0
 14 15  1  1  0  0  0
 14 16  1  0  0  0  0
 16 27  1  6  0  0  0
 18 19  2  0  0  0  0
 18 23  1  0  0  0  0
 19 20  1  0  0  0  0
 20 21  2  0  0  0  0
 21 22  1  0  0  0  0
 21 27  1  0  0  0  0
 22 23  2  0  0  0  0
 22 25  1  0  0  0  0
 23 24  1  0  0  0  0
 25 26  2  0  0  0  0
 26 27  1  0  0  0  0
M  END
>  <CHROM.1>
-23.06681996,80.74741532,-55.04020885,-62.87805594,-165.88127938,-60.79948201
-50.62416919,47.35560242,56.16147143,31.38705083,0.94781694,1.30759023,-1.93888987

>  <Name>
ligand

>  <RI>
0

>  <Rbt.Current_Directory>
/home/itssahil/PROJECTS/Mol_Feturizer/New_Systems/rnas/3GX7

>  <Rbt.Executable>
rbdock ($Id: //depot/dev/client3/rdock/2013.1/src/exe/rbdock.cxx#4 $)

>  <Rbt.Library>
libRbt.so (2013.1, Build901 2013/11/27)

>  <Rbt.Parameter_File>
/export/apps/rDock/src/rDock_2013.1_src/data/scripts/dock_solv.prm

>  <Rbt.Receptor>
prm/pocket_docking_2.prm

>  <SCORE>
-12.7261

>  <SCORE.INTER>
-8.74712

>  <SCORE.INTER.CONST>
1

>  <SCORE.INTER.POLAR>
0

>  <SCORE.INTER.ROT>
7

>  <SCORE.INTER.SOLV>
17.7372

>  <SCORE.INTER.VDW>
-20.0105

>  <SCORE.INTER.norm>
-0.323967

>  <SCORE.INTRA>
-4.01913

>  <SCORE.INTRA.DIHEDRAL>
-5.07273

>  <SCORE.INTRA.DIHEDRAL.0>
11.2699

>  <SCORE.INTRA.POLAR>
0

>  <SCORE.INTRA.POLAR.0>
0

>  <SCORE.INTRA.REPUL>
0

>  <SCORE.INTRA.REPUL.0>
0

>  <SCORE.INTRA.SOLV>
1.83163

>  <SCORE.INTRA.SOLV.lig_0>
-48.6447

>  <SCORE.INTRA.VDW>
-2.39858

>  <SCORE.INTRA.VDW.0>
-0.0211724

>  <SCORE.INTRA.norm>
-0.148857

>  <SCORE.RESTR>
0.0401537

>  <SCORE.RESTR.CAVITY>
0.0401537

>  <SCORE.RESTR.norm>
0.00148717

>  <SCORE.SYSTEM>
0

>  <SCORE.SYSTEM.CONST>
0

>  <SCORE.SYSTEM.DIHEDRAL>
0

>  <SCORE.SYSTEM.SOLV>
0

>  <SCORE.SYSTEM.norm>
0

>  <SCORE.heavy>
27

>  <SCORE.norm>
-0.471337

>  <RMSD>
2.840

$$$$
ligand
 OpenBabel11021811483D
libRbt.so/2013.1/901 2013/11/27
 27 29  0  0  0  0  0  0  0  0999 V2000
   45.6646   53.4235   27.8469 N   0  0  0  0  0  0  0  0  0  0  0  0
   45.8331   53.0113   29.2351 C   0  0  2  0  0  0  0  0  0  0  0  0
   44.4875   52.9307   29.9368 C   0  0  0  0  0  0  0  0  0  0  0  0
   43.9475   51.8426   30.1223 O   0  0  0  0  0  0  0  0  0  0  0  0
   46.7735   53.9450   29.9958 C   0  0  0  0  0  0  0  0  0  0  0  0
   48.1209   54.1820   29.3243 C   0  0  0  0  0  0  0  0  0  0  0  0
   49.2348   55.2830   30.2399 S   0  0  2  0  0  0  0  0  0  0  0  0
   50.6583   55.3485   29.1245 C   0  0  0  0  0  0  0  0  0  0  0  0
   49.8551   54.1403   31.5022 C   0  0  0  0  0  0  0  0  0  0  0  0
   49.2842   54.5168   32.8612 C   0  0  1  0  0  0  0  0  0  0  0  0
   49.5817   55.8708   33.1032 O   0  0  0  0  0  0  0  0  0  0  0  0
   47.7747   54.4235   32.9579 C   0  0  1  0  0  0  0  0  0  0  0  0
   47.3972   53.2009   33.5424 O   0  0  0  0  0  0  0  0  0  0  0  0
   47.4020   55.5883   33.8571 C   0  0  1  0  0  0  0  0  0  0  0  0
   47.0763   55.1008   35.1373 O   0  0  0  0  0  0  0  0  0  0  0  0
   48.6332   56.4821   33.9399 C   0  0  2  0  0  0  0  0  0  0  0  0
   43.9210   53.9495   30.3336 O   0  0  0  0  0  0  0  0  0  0  0  0
   44.8175   59.7029   32.2813 N   0  0  0  0  0  0  0  0  0  0  0  0
   44.6995   58.4193   32.7747 C   0  0  0  0  0  0  0  0  0  0  0  0
   45.8225   57.7137   33.1661 N   0  0  0  0  0  0  0  0  0  0  0  0
   47.0509   58.2671   33.0637 C   0  0  0  0  0  0  0  0  0  0  0  0
   47.1924   59.5584   32.5773 C   0  0  0  0  0  0  0  0  0  0  0  0
   46.0674   60.2762   32.1799 C   0  0  0  0  0  0  0  0  0  0  0  0
   46.1846   61.5134   31.7047 N   0  0  0  0  0  0  0  0  0  0  0  0
   48.5098   59.8604   32.5942 N   0  0  0  0  0  0  0  0  0  0  0  0
   49.1945   58.8028   33.0899 C   0  0  0  0  0  0  0  0  0  0  0  0
   48.3022   57.8057   33.3857 N   0  0  0  0  0  0  0  0  0  0  0  0
  2  1  1  6  0  0  0
  2  3  1  0  0  0  0
  2  5  1  0  0  0  0
  3  4  1  0  0  0  0
  3 17  1  0  0  0  0
  5  6  1  0  0  0  0
  7  6  1  6  0  0  0
  7  8  1  0  0  0  0
  7  9  1  0  0  0  0
 10  9  1  6  0  0  0
 10 11  1  0  0  0  0
 10 12  1  0  0  0  0
 11 16  1  0  0  0  0
 12 13  1  1  0  0  0
 12 14  1  0  0  0  0
 14 15  1  1  0  0  0
 14 16  1  0  0  0  0
 16 27  1  6  0  0  0
 18 19  2  0  0  0  0
 18 23  1  0  0  0  0
 19 20  1  0  0  0  0
 20 21  2  0  0  0  0
 21 22  1  0  0  0  0
 21 27  1  0  0  0  0
 22 23  2  0  0  0  0
 22 25  1  0  0  0  0
 23 24  1  0  0  0  0
 25 26  2  0  0  0  0
 26 27  1  0  0  0  0
M  END
>  <CHROM.1>
101.80022585,-52.07971929,-179.61587597,-178.34462778,-109.56810366,-54.43308616
124.61693980,47.26544345,55.97943977,31.75878561,1.69693219,0.27144898,-2.72660139

>  <Name>
ligand

>  <RI>
0

>  <Rbt.Current_Directory>
/home/itssahil/PROJECTS/Mol_Feturizer/New_Systems/rnas/3GX7

>  <Rbt.Executable>
rbdock ($Id: //depot/dev/client3/rdock/2013.1/src/exe/rbdock.cxx#4 $)

>  <Rbt.Library>
libRbt.so (2013.1, Build901 2013/11/27)

>  <Rbt.Parameter_File>
/export/apps/rDock/src/rDock_2013.1_src/data/scripts/dock_solv.prm

>  <Rbt.Receptor>
prm/pocket_docking_4.prm

>  <SCORE>
-17.4957

>  <SCORE.INTER>
-13.519

>  <SCORE.INTER.CONST>
1

>  <SCORE.INTER.POLAR>
0

>  <SCORE.INTER.ROT>
7

>  <SCORE.INTER.SOLV>
18.1765

>  <SCORE.INTER.VDW>
-23.3381

>  <SCORE.INTER.norm>
-0.500703

>  <SCORE.INTRA>
-3.97671

>  <SCORE.INTRA.DIHEDRAL>
-4.05431

>  <SCORE.INTRA.DIHEDRAL.0>
11.2699

>  <SCORE.INTRA.POLAR>
0

>  <SCORE.INTRA.POLAR.0>
0

>  <SCORE.INTRA.REPUL>
0

>  <SCORE.INTRA.REPUL.0>
0

>  <SCORE.INTRA.SOLV>
0.0400676

>  <SCORE.INTRA.SOLV.lig_0>
-48.6447

>  <SCORE.INTRA.VDW>
-1.96958

>  <SCORE.INTRA.VDW.0>
-0.0211724

>  <SCORE.INTRA.norm>
-0.147285

>  <SCORE.RESTR>
0

>  <SCORE.RESTR.CAVITY>
0

>  <SCORE.RESTR.norm>
0

>  <SCORE.SYSTEM>
0

>  <SCORE.SYSTEM.CONST>
0

>  <SCORE.SYSTEM.DIHEDRAL>
0

>  <SCORE.SYSTEM.SOLV>
0

>  <SCORE.SYSTEM.norm>
0

>  <SCORE.heavy>
27

>  <SCORE.norm>
-0.647988

>  <RMSD>
2.857

$$$$
ligand
 OpenBabel11021811483D
libRbt.so/2013.1/901 2013/11/27
 27 29  0  0  0  0  0  0  0  0999 V2000
   49.5023   54.0006   26.6243 N   0  0  0  0  0  0  0  0  0  0  0  0
   49.7219   53.6714   28.0275 C   0  0  2  0  0  0  0  0  0  0  0  0
   51.0886   53.0354   28.2207 C   0  0  0  0  0  0  0  0  0  0  0  0
   51.8709   53.4849   29.0548 O   0  0  0  0  0  0  0  0  0  0  0  0
   48.6280   52.7558   28.5751 C   0  0  0  0  0  0  0  0  0  0  0  0
   48.7082   52.4885   30.0734 C   0  0  0  0  0  0  0  0  0  0  0  0
   48.1580   53.8687   31.1144 S   0  0  2  0  0  0  0  0  0  0  0  0
   49.6004   54.9593   31.0421 C   0  0  0  0  0  0  0  0  0  0  0  0
   48.3750   53.1407   32.7597 C   0  0  0  0  0  0  0  0  0  0  0  0
   47.5012   53.8749   33.7657 C   0  0  1  0  0  0  0  0  0  0  0  0
   48.0458   55.1566   33.9680 O   0  0  0  0  0  0  0  0  0  0  0  0
   46.0793   54.1214   33.3031 C   0  0  1  0  0  0  0  0  0  0  0  0
   45.2193   53.1362   33.8214 O   0  0  0  0  0  0  0  0  0  0  0  0
   45.7471   55.4849   33.8817 C   0  0  1  0  0  0  0  0  0  0  0  0
   44.8938   55.3236   34.9900 O   0  0  0  0  0  0  0  0  0  0  0  0
   47.0680   56.0986   34.3287 C   0  0  2  0  0  0  0  0  0  0  0  0
   51.4310   52.0604   27.5509 O   0  0  0  0  0  0  0  0  0  0  0  0
   44.8865   60.1728   31.8135 N   0  0  0  0  0  0  0  0  0  0  0  0
   44.2558   59.1285   32.4589 C   0  0  0  0  0  0  0  0  0  0  0  0
   44.9967   58.1342   33.0713 N   0  0  0  0  0  0  0  0  0  0  0  0
   46.3470   58.1664   33.0395 C   0  0  0  0  0  0  0  0  0  0  0  0
   47.0019   59.2102   32.4027 C   0  0  0  0  0  0  0  0  0  0  0  0
   46.2644   60.2153   31.7826 C   0  0  0  0  0  0  0  0  0  0  0  0
   46.8754   61.2207   31.1613 N   0  0  0  0  0  0  0  0  0  0  0  0
   48.3309   59.0001   32.5328 N   0  0  0  0  0  0  0  0  0  0  0  0
   48.5265   57.8649   33.2439 C   0  0  0  0  0  0  0  0  0  0  0  0
   47.3040   57.3357   33.5654 N   0  0  0  0  0  0  0  0  0  0  0  0
  2  1  1  6  0  0  0
  2  3  1  0  0  0  0
  2  5  1  0  0  0  0
  3  4  1  0  0  0  0
  3 17  1  0  0  0  0
  5  6  1  0  0  0  0
  7  6  1  6  0  0  0
  7  8  1  0  0  0  0
  7  9  1  0  0  0  0
 10  9  1  6  0  0  0
 10 11  1  0  0  0  0
 10 12  1  0  0  0  0
 11 16  1  0  0  0  0
 12 13  1  1  0  0  0
 12 14  1  0  0  0  0
 14 15  1  1  0  0  0
 14 16  1  0  0  0  0
 16 27  1  6  0  0  0
 18 19  2  0  0  0  0
 18 23  1  0  0  0  0
 19 20  1  0  0  0  0
 20 21  2  0  0  0  0
 21 22  1  0  0  0  0
 21 27  1  0  0  0  0
 22 23  2  0  0  0  0
 22 25  1  0  0  0  0
 23 24  1  0  0  0  0
 25 26  2  0  0  0  0
 26 27  1  0  0  0  0
M  END
>  <CHROM.1>
127.22763082,-173.77765350,75.46844107,-78.14093005,-158.27615974,-70.76819473
142.39373633,47.70853571,55.62510128,31.66830770,-0.49865343,0.93766490,-0.30116589

>  <Name>
ligand

>  <RI>
0

>  <Rbt.Current_Directory>
/home/itssahil/PROJECTS/Mol_Feturizer/New_Systems/rnas/3GX7

>  <Rbt.Executable>
rbdock ($Id: //depot/dev/client3/rdock/2013.1/src/exe/rbdock.cxx#4 $)

>  <Rbt.Library>
libRbt.so (2013.1, Build901 2013/11/27)

>  <Rbt.Parameter_File>
/export/apps/rDock/src/rDock_2013.1_src/data/scripts/dock_solv.prm

>  <Rbt.Receptor>
prm/pocket_docking_6.prm

>  <SCORE>
-17.2387

>  <SCORE.INTER>
-12.2416

>  <SCORE.INTER.CONST>
1

>  <SCORE.INTER.POLAR>
0

>  <SCORE.INTER.ROT>
7

>  <SCORE.INTER.SOLV>
17.0182

>  <SCORE.INTER.VDW>
-22.1005

>  <SCORE.INTER.norm>
-0.453393

>  <SCORE.INTRA>
-4.99708

>  <SCORE.INTRA.DIHEDRAL>
-4.26833

>  <SCORE.INTRA.DIHEDRAL.0>
11.2699

>  <SCORE.INTRA.POLAR>
0

>  <SCORE.INTRA.POLAR.0>
0

>  <SCORE.INTRA.REPUL>
0

>  <SCORE.INTRA.REPUL.0>
0

>  <SCORE.INTRA.SOLV>
-0.539259

>  <SCORE.INTRA.SOLV.lig_0>
-48.6447

>  <SCORE.INTRA.VDW>
-2.59329

>  <SCORE.INTRA.VDW.0>
-0.0211724

>  <SCORE.INTRA.norm>
-0.185077

>  <SCORE.RESTR>
0

>  <SCORE.RESTR.CAVITY>
0

>  <SCORE.RESTR.norm>
0

>  <SCORE.SYSTEM>
0

>  <SCORE.SYSTEM.CONST>
0

>  <SCORE.SYSTEM.DIHEDRAL>
0

>  <SCORE.SYSTEM.SOLV>
0

>  <SCORE.SYSTEM.norm>
0

>  <SCORE.heavy>
27

>  <SCORE.norm>
-0.63847

>  <RMSD>
3.139

$$$$
ligand
 OpenBabel11021811483D
libRbt.so/2013.1/901 2013/11/27
 27 29  0  0  0  0  0  0  0  0999 V2000
   50.4619   53.8631   26.1940 N   0  0  0  0  0  0  0  0  0  0  0  0
   50.9413   52.6033   26.7497 C   0  0  2  0  0  0  0  0  0  0  0  0
   50.3591   51.4253   25.9862 C   0  0  0  0  0  0  0  0  0  0  0  0
   49.1462   51.3374   25.8096 O   0  0  0  0  0  0  0  0  0  0  0  0
   50.6227   52.4805   28.2391 C   0  0  0  0  0  0  0  0  0  0  0  0
   49.1388   52.5335   28.5823 C   0  0  0  0  0  0  0  0  0  0  0  0
   48.7815   52.7023   30.3530 S   0  0  2  0  0  0  0  0  0  0  0  0
   46.9845   52.9151   30.3296 C   0  0  0  0  0  0  0  0  0  0  0  0
   49.3142   54.4121   30.6299 C   0  0  0  0  0  0  0  0  0  0  0  0
   49.4404   54.6755   32.1230 C   0  0  1  0  0  0  0  0  0  0  0  0
   49.8009   56.0239   32.3026 O   0  0  0  0  0  0  0  0  0  0  0  0
   48.1523   54.5066   32.9032 C   0  0  1  0  0  0  0  0  0  0  0  0
   48.1059   53.2335   33.4998 O   0  0  0  0  0  0  0  0  0  0  0  0
   48.2298   55.5940   33.9596 C   0  0  1  0  0  0  0  0  0  0  0  0
   48.5458   55.0124   35.2023 O   0  0  0  0  0  0  0  0  0  0  0  0
   49.3465   56.5368   33.5289 C   0  0  2  0  0  0  0  0  0  0  0  0
   51.0904   50.5460   25.5297 O   0  0  0  0  0  0  0  0  0  0  0  0
   45.3071   59.3061   31.6058 N   0  0  0  0  0  0  0  0  0  0  0  0
   45.4685   57.9356   31.6344 C   0  0  0  0  0  0  0  0  0  0  0  0
   46.6076   57.3762   32.1838 N   0  0  0  0  0  0  0  0  0  0  0  0
   47.5814   58.1625   32.6926 C   0  0  0  0  0  0  0  0  0  0  0  0
   47.4371   59.5420   32.6810 C   0  0  0  0  0  0  0  0  0  0  0  0
   46.2941   60.1144   32.1290 C   0  0  0  0  0  0  0  0  0  0  0  0
   46.1415   61.4358   32.1031 N   0  0  0  0  0  0  0  0  0  0  0  0
   48.5387   60.0740   33.2559 N   0  0  0  0  0  0  0  0  0  0  0  0
   49.3604   59.0688   33.6396 C   0  0  0  0  0  0  0  0  0  0  0  0
   48.7797   57.8760   33.2964 N   0  0  0  0  0  0  0  0  0  0  0  0
  2  1  1  6  0  0  0
  2  3  1  0  0  0  0
  2  5  1  0  0  0  0
  3  4  1  0  0  0  0
  3 17  1  0  0  0  0
  5  6  1  0  0  0  0
  7  6  1  6  0  0  0
  7  8  1  0  0  0  0
  7  9  1  0  0  0  0
 10  9  1  6  0  0  0
 10 11  1  0  0  0  0
 10 12  1  0  0  0  0
 11 16  1  0  0  0  0
 12 13  1  1  0  0  0
 12 14  1  0  0  0  0
 14 15  1  1  0  0  0
 14 16  1  0  0  0  0
 16 27  1  6  0  0  0
 18 19  2  0  0  0  0
 18 23  1  0  0  0  0
 19 20  1  0  0  0  0
 20 21  2  0  0  0  0
 21 22  1  0  0  0  0
 21 27  1  0  0  0  0
 22 23  2  0  0  0  0
 22 25  1  0  0  0  0
 23 24  1  0  0  0  0
 25 26  2  0  0  0  0
 26 27  1  0  0  0  0
M  END
>  <CHROM.1>
-52.12043639,60.03688641,-169.02656947,173.90887178,-165.65242834,-177.60536215
73.58538819,48.56161890,55.34705018,30.93472108,0.57063703,1.23046191,-1.46134021

>  <Name>
ligand

>  <RI>
0

>  <Rbt.Current_Directory>
/home/itssahil/PROJECTS/Mol_Feturizer/New_Systems/rnas/3GX7

>  <Rbt.Executable>
rbdock ($Id: //depot/dev/client3/rdock/2013.1/src/exe/rbdock.cxx#4 $)

>  <Rbt.Library>
libRbt.so (2013.1, Build901 2013/11/27)

>  <Rbt.Parameter_File>
/export/apps/rDock/src/rDock_2013.1_src/data/scripts/dock_solv.prm

>  <Rbt.Receptor>
prm/pocket_docking_6.prm

>  <SCORE>
-20.7905

>  <SCORE.INTER>
-15.2426

>  <SCORE.INTER.CONST>
1

>  <SCORE.INTER.POLAR>
0

>  <SCORE.INTER.ROT>
7

>  <SCORE.INTER.SOLV>
17.9175

>  <SCORE.INTER.VDW>
-24.4009

>  <SCORE.INTER.norm>
-0.564542

>  <SCORE.INTRA>
-5.54789

>  <SCORE.INTRA.DIHEDRAL>
-6.28079

>  <SCORE.INTRA.DIHEDRAL.0>
11.2699

>  <SCORE.INTRA.POLAR>
0

>  <SCORE.INTRA.POLAR.0>
0

>  <SCORE.INTRA.REPUL>
0

>  <SCORE.INTRA.REPUL.0>
0

>  <SCORE.INTRA.SOLV>
-0.0780084

>  <SCORE.INTRA.SOLV.lig_0>
-48.6447

>  <SCORE.INTRA.VDW>
-2.36849

>  <SCORE.INTRA.VDW.0>
-0.0211724

>  <SCORE.INTRA.norm>
-0.205478

>  <SCORE.RESTR>
0

>  <SCORE.RESTR.CAVITY>
0

>  <SCORE.RESTR.norm>
0

>  <SCORE.SYSTEM>
0

>  <SCORE.SYSTEM.CONST>
0

>  <SCORE.SYSTEM.DIHEDRAL>
0

>  <SCORE.SYSTEM.SOLV>
0

>  <SCORE.SYSTEM.norm>
0

>  <SCORE.heavy>
27

>  <SCORE.norm>
-0.770019

>  <RMSD>
3.247

$$$$
ligand
 OpenBabel11021811483D
libRbt.so/2013.1/901 2013/11/27
 27 29  0  0  0  0  0  0  0  0999 V2000
   51.8954   52.1146   25.8417 N   0  0  0  0  0  0  0  0  0  0  0  0
   51.5049   53.3448   26.5197 C   0  0  2  0  0  0  0  0  0  0  0  0
   52.6308   54.3643   26.4699 C   0  0  0  0  0  0  0  0  0  0  0  0
   53.1077   54.8148   27.5089 O   0  0  0  0  0  0  0  0  0  0  0  0
   51.0843   53.0884   27.9662 C   0  0  0  0  0  0  0  0  0  0  0  0
   49.6889   52.4985   28.1318 C   0  0  0  0  0  0  0  0  0  0  0  0
   49.0339   52.5781   29.8218 S   0  0  2  0  0  0  0  0  0  0  0  0
   47.2540   52.6575   29.5047 C   0  0  0  0  0  0  0  0  0  0  0  0
   49.3772   54.3119   30.2215 C   0  0  0  0  0  0  0  0  0  0  0  0
   49.4531   54.4858   31.7310 C   0  0  1  0  0  0  0  0  0  0  0  0
   49.7973   55.8230   32.0027 O   0  0  0  0  0  0  0  0  0  0  0  0
   48.1419   54.2630   32.4573 C   0  0  1  0  0  0  0  0  0  0  0  0
   48.0861   52.9560   32.9748 O   0  0  0  0  0  0  0  0  0  0  0  0
   48.1770   55.2853   33.5789 C   0  0  1  0  0  0  0  0  0  0  0  0
   48.4573   54.6319   34.7942 O   0  0  0  0  0  0  0  0  0  0  0  0
   49.2997   56.2586   33.2421 C   0  0  2  0  0  0  0  0  0  0  0  0
   53.0850   54.7503   25.3924 O   0  0  0  0  0  0  0  0  0  0  0  0
   46.4973   59.4679   30.1548 N   0  0  0  0  0  0  0  0  0  0  0  0
   46.8419   58.1503   29.9307 C   0  0  0  0  0  0  0  0  0  0  0  0
   47.5919   57.4548   30.8613 N   0  0  0  0  0  0  0  0  0  0  0  0
   48.0047   58.0569   31.9983 C   0  0  0  0  0  0  0  0  0  0  0  0
   47.6639   59.3781   32.2476 C   0  0  0  0  0  0  0  0  0  0  0  0
   46.9097   60.0866   31.3160 C   0  0  0  0  0  0  0  0  0  0  0  0
   46.5791   61.3567   31.5351 N   0  0  0  0  0  0  0  0  0  0  0  0
   48.1899   59.7178   33.4455 N   0  0  0  0  0  0  0  0  0  0  0  0
   48.8365   58.6450   33.9591 C   0  0  0  0  0  0  0  0  0  0  0  0
   48.7305   57.6061   33.0718 N   0  0  0  0  0  0  0  0  0  0  0  0
  2  1  1  1  0  0  0
  2  3  1  0  0  0  0
  2  5  1  0  0  0  0
  3  4  1  0  0  0  0
  3 17  1  0  0  0  0
  5  6  1  0  0  0  0
  7  6  1  6  0  0  0
  7  8  1  0  0  0  0
  7  9  1  0  0  0  0
 10  9  1  6  0  0  0
 10 11  1  0  0  0  0
 10 12  1  0  0  0  0
 11 16  1  0  0  0  0
 12 13  1  1  0  0  0
 12 14  1  0  0  0  0
 14 15  1  1  0  0  0
 14 16  1  0  0  0  0
 16 27  1  6  0  0  0
 18 19  2  0  0  0  0
 18 23  1  0  0  0  0
 19 20  1  0  0  0  0
 20 21  2  0  0  0  0
 21 22  1  0  0  0  0
 21 27  1  0  0  0  0
 22 23  2  0  0  0  0
 22 25  1  0  0  0  0
 23 24  1  0  0  0  0
 25 26  2  0  0  0  0
 26 27  1  0  0  0  0
M  END
>  <CHROM.1>
-121.37904227,-77.16476941,-165.53666726,151.45284669,-156.73761365,176.61267111
39.10848191,49.15227002,55.60970001,30.55305520,-0.39744621,1.06566900,-0.33470270

>  <Name>
ligand

>  <RI>
0

>  <Rbt.Current_Directory>
/home/itssahil/PROJECTS/Mol_Feturizer/New_Systems/rnas/3GX7

>  <Rbt.Executable>
rbdock ($Id: //depot/dev/client3/rdock/2013.1/src/exe/rbdock.cxx#4 $)

>  <Rbt.Library>
libRbt.so (2013.1, Build901 2013/11/27)

>  <Rbt.Parameter_File>
/export/apps/rDock/src/rDock_2013.1_src/data/scripts/dock_solv.prm

>  <Rbt.Receptor>
prm/pocket_docking_8.prm

>  <SCORE>
-15.8173

>  <SCORE.INTER>
-12.3725

>  <SCORE.INTER.CONST>
1

>  <SCORE.INTER.POLAR>
0

>  <SCORE.INTER.ROT>
7

>  <SCORE.INTER.SOLV>
18.4785

>  <SCORE.INTER.VDW>
-22.6745

>  <SCORE.INTER.norm>
-0.458239

>  <SCORE.INTRA>
-3.44483

>  <SCORE.INTRA.DIHEDRAL>
-2.74897

>  <SCORE.INTRA.DIHEDRAL.0>
11.2699

>  <SCORE.INTRA.POLAR>
0

>  <SCORE.INTRA.POLAR.0>
0

>  <SCORE.INTRA.REPUL>
0

>  <SCORE.INTRA.REPUL.0>
0

>  <SCORE.INTRA.SOLV>
-0.299411

>  <SCORE.INTRA.SOLV.lig_0>
-48.6447

>  <SCORE.INTRA.VDW>
-1.92064

>  <SCORE.INTRA.VDW.0>
-0.0211724

>  <SCORE.INTRA.norm>
-0.127586

>  <SCORE.RESTR>
0

>  <SCORE.RESTR.CAVITY>
0

>  <SCORE.RESTR.norm>
0

>  <SCORE.SYSTEM>
0

>  <SCORE.SYSTEM.CONST>
0

>  <SCORE.SYSTEM.DIHEDRAL>
0

>  <SCORE.SYSTEM.SOLV>
0

>  <SCORE.SYSTEM.norm>
0

>  <SCORE.heavy>
27

>  <SCORE.norm>
-0.585825

>  <RMSD>
3.342

$$$$
ligand
 OpenBabel11021811483D
libRbt.so/2013.1/901 2013/11/27
 27 29  0  0  0  0  0  0  0  0999 V2000
   50.9256   54.1032   26.1627 N   0  0  0  0  0  0  0  0  0  0  0  0
   51.7666   53.2568   27.0004 C   0  0  2  0  0  0  0  0  0  0  0  0
   51.7068   51.8121   26.5326 C   0  0  0  0  0  0  0  0  0  0  0  0
   52.7188   51.1152   26.5364 O   0  0  0  0  0  0  0  0  0  0  0  0
   51.3807   53.3534   28.4758 C   0  0  0  0  0  0  0  0  0  0  0  0
   49.9381   52.9725   28.7860 C   0  0  0  0  0  0  0  0  0  0  0  0
   49.4671   53.1636   30.5276 S   0  0  2  0  0  0  0  0  0  0  0  0
   47.7234   52.6824   30.4743 C   0  0  0  0  0  0  0  0  0  0  0  0
   49.3108   54.9663   30.6255 C   0  0  0  0  0  0  0  0  0  0  0  0
   49.4079   55.4124   32.0768 C   0  0  1  0  0  0  0  0  0  0  0  0
   49.4790   56.8176   32.1010 O   0  0  0  0  0  0  0  0  0  0  0  0
   48.2001   55.0662   32.9241 C   0  0  1  0  0  0  0  0  0  0  0  0
   48.4353   53.8845   33.6502 O   0  0  0  0  0  0  0  0  0  0  0  0
   48.0670   56.2551   33.8585 C   0  0  1  0  0  0  0  0  0  0  0  0
   48.5231   55.8917   35.1400 O   0  0  0  0  0  0  0  0  0  0  0  0
   48.9508   57.3562   33.2860 C   0  0  2  0  0  0  0  0  0  0  0  0
   50.6469   51.3168   26.1483 O   0  0  0  0  0  0  0  0  0  0  0  0
   44.0711   59.1112   32.3958 N   0  0  0  0  0  0  0  0  0  0  0  0
   44.4740   57.8327   32.7244 C   0  0  0  0  0  0  0  0  0  0  0  0
   45.8130   57.5498   32.9227 N   0  0  0  0  0  0  0  0  0  0  0  0
   46.7459   58.5181   32.7899 C   0  0  0  0  0  0  0  0  0  0  0  0
   46.3630   59.8117   32.4674 C   0  0  0  0  0  0  0  0  0  0  0  0
   45.0172   60.1057   32.2649 C   0  0  0  0  0  0  0  0  0  0  0  0
   44.6321   61.3393   31.9483 N   0  0  0  0  0  0  0  0  0  0  0  0
   47.4818   60.5682   32.4118 N   0  0  0  0  0  0  0  0  0  0  0  0
   48.5506   59.7903   32.7040 C   0  0  0  0  0  0  0  0  0  0  0  0
   48.1096   58.5147   32.9408 N   0  0  0  0  0  0  0  0  0  0  0  0
  2  1  1  6  0  0  0
  2  3  1  0  0  0  0
  2  5  1  0  0  0  0
  3  4  1  0  0  0  0
  3 17  1  0  0  0  0
  5  6  1  0  0  0  0
  7  6  1  6  0  0  0
  7  8  1  0  0  0  0
  7  9  1  0  0  0  0
 10  9  1  6  0  0  0
 10 11  1  0  0  0  0
 10 12  1  0  0  0  0
 11 16  1  0  0  0  0
 12 13  1  1  0  0  0
 12 14  1  0  0  0  0
 14 15  1  1  0  0  0
 14 16  1  0  0  0  0
 16 27  1  6  0  0  0
 18 19  2  0  0  0  0
 18 23  1  0  0  0  0
 19 20  1  0  0  0  0
 20 21  2  0  0  0  0
 21 22  1  0  0  0  0
 21 27  1  0  0  0  0
 22 23  2  0  0  0  0
 22 25  1  0  0  0  0
 23 24  1  0  0  0  0
 25 26  2  0  0  0  0
 26 27  1  0  0  0  0
M  END
>  <CHROM.1>
141.05808114,58.48990149,-177.30996051,178.12573933,-159.88987613,171.55785959
96.94643261,48.55482033,55.77011183,31.04413802,0.26661442,1.03880296,-1.20479285

>  <Name>
ligand

>  <RI>
0

>  <Rbt.Current_Directory>
/home/itssahil/PROJECTS/Mol_Feturizer/New_Systems/rnas/3GX7

>  <Rbt.Executable>
rbdock ($Id: //depot/dev/client3/rdock/2013.1/src/exe/rbdock.cxx#4 $)

>  <Rbt.Library>
libRbt.so (2013.1, Build901 2013/11/27)

>  <Rbt.Parameter_File>
/export/apps/rDock/src/rDock_2013.1_src/data/scripts/dock_solv.prm

>  <Rbt.Receptor>
prm/pocket_docking_8.prm

>  <SCORE>
-20.7867

>  <SCORE.INTER>
-15.8547

>  <SCORE.INTER.CONST>
1

>  <SCORE.INTER.POLAR>
0

>  <SCORE.INTER.ROT>
7

>  <SCORE.INTER.SOLV>
20.4921

>  <SCORE.INTER.VDW>
-25.6672

>  <SCORE.INTER.norm>
-0.587212

>  <SCORE.INTRA>
-4.94174

>  <SCORE.INTRA.DIHEDRAL>
-5.73218

>  <SCORE.INTRA.DIHEDRAL.0>
11.2699

>  <SCORE.INTRA.POLAR>
0

>  <SCORE.INTRA.POLAR.0>
0

>  <SCORE.INTRA.REPUL>
0

>  <SCORE.INTRA.REPUL.0>
0

>  <SCORE.INTRA.SOLV>
-0.193788

>  <SCORE.INTRA.SOLV.lig_0>
-48.6447

>  <SCORE.INTRA.VDW>
-1.97875

>  <SCORE.INTRA.VDW.0>
-0.0211724

>  <SCORE.INTRA.norm>
-0.183027

>  <SCORE.RESTR>
0.00971813

>  <SCORE.RESTR.CAVITY>
0.00971813

>  <SCORE.RESTR.norm>
0.000359931

>  <SCORE.SYSTEM>
0

>  <SCORE.SYSTEM.CONST>
0

>  <SCORE.SYSTEM.DIHEDRAL>
0

>  <SCORE.SYSTEM.SOLV>
0

>  <SCORE.SYSTEM.norm>
0

>  <SCORE.heavy>
27

>  <SCORE.norm>
-0.76988

>  <RMSD>
3.476

$$$$
ligand
 OpenBabel11021811483D
libRbt.so/2013.1/901 2013/11/27
 27 29  0  0  0  0  0  0  0  0999 V2000
   48.8046   53.7074   29.2024 N   0  0  0  0  0  0  0  0  0  0  0  0
   48.9580   54.5266   30.3986 C   0  0  2  0  0  0  0  0  0  0  0  0
   49.8308   55.7369   30.1104 C   0  0  0  0  0  0  0  0  0  0  0  0
   50.7779   55.6491   29.3325 O   0  0  0  0  0  0  0  0  0  0  0  0
   49.5303   53.7255   31.5672 C   0  0  0  0  0  0  0  0  0  0  0  0
   48.5029   53.2785   32.6003 C   0  0  0  0  0  0  0  0  0  0  0  0
   47.6603   54.6358   33.4599 S   0  0  2  0  0  0  0  0  0  0  0  0
   48.9412   55.1620   34.6250 C   0  0  0  0  0  0  0  0  0  0  0  0
   46.5738   53.6956   34.5642 C   0  0  0  0  0  0  0  0  0  0  0  0
   45.1633   54.2625   34.5021 C   0  0  1  0  0  0  0  0  0  0  0  0
   45.2445   55.6601   34.6456 O   0  0  0  0  0  0  0  0  0  0  0  0
   44.4546   54.0444   33.1805 C   0  0  1  0  0  0  0  0  0  0  0  0
   43.6104   52.9218   33.2583 O   0  0  0  0  0  0  0  0  0  0  0  0
   43.6453   55.3153   32.9956 C   0  0  1  0  0  0  0  0  0  0  0  0
   42.2901   55.0462   33.2667 O   0  0  0  0  0  0  0  0  0  0  0  0
   44.1858   56.3228   34.0026 C   0  0  2  0  0  0  0  0  0  0  0  0
   49.6011   56.8219   30.6455 O   0  0  0  0  0  0  0  0  0  0  0  0
   48.4506   59.2182   32.9478 N   0  0  0  0  0  0  0  0  0  0  0  0
   48.3512   58.1042   33.7566 C   0  0  0  0  0  0  0  0  0  0  0  0
   47.1364   57.4640   33.9203 N   0  0  0  0  0  0  0  0  0  0  0  0
   46.0289   57.9241   33.2980 C   0  0  0  0  0  0  0  0  0  0  0  0
   46.1070   59.0377   32.4748 C   0  0  0  0  0  0  0  0  0  0  0  0
   47.3256   59.6894   32.3046 C   0  0  0  0  0  0  0  0  0  0  0  0
   47.4180   60.7631   31.5242 N   0  0  0  0  0  0  0  0  0  0  0  0
   44.8710   59.2675   31.9783 N   0  0  0  0  0  0  0  0  0  0  0  0
   44.0260   58.3230   32.4543 C   0  0  0  0  0  0  0  0  0  0  0  0
   44.7303   57.4818   33.2754 N   0  0  0  0  0  0  0  0  0  0  0  0
  2  1  1  6  0  0  0
  2  3  1  0  0  0  0
  2  5  1  0  0  0  0
  3  4  1  0  0  0  0
  3 17  1  0  0  0  0
  5  6  1  0  0  0  0
  7  6  1  6  0  0  0
  7  8  1  0  0  0  0
  7  9  1  0  0  0  0
 10  9  1  6  0  0  0
 10 11  1  0  0  0  0
 10 12  1  0  0  0  0
 11 16  1  0  0  0  0
 12 13  1  1  0  0  0
 12 14  1  0  0  0  0
 14 15  1  1  0  0  0
 14 16  1  0  0  0  0
 16 27  1  6  0  0  0
 18 19  2  0  0  0  0
 18 23  1  0  0  0  0
 19 20  1  0  0  0  0
 20 21  2  0  0  0  0
 21 22  1  0  0  0  0
 21 27  1  0  0  0  0
 22 23  2  0  0  0  0
 22 25  1  0  0  0  0
 23 24  1  0  0  0  0
 25 26  2  0  0  0  0
 26 27  1  0  0  0  0
M  END
>  <CHROM.1>
-35.57987928,-101.23319487,-62.76985509,-76.62644020,-132.83046838,-48.43987263
-5.02573580,46.79825473,56.07047497,32.63988260,-0.04372585,-0.46954988,3.07331155

>  <Name>
ligand

>  <RI>
0

>  <Rbt.Current_Directory>
/home/itssahil/PROJECTS/Mol_Feturizer/New_Systems/rnas/3GX7

>  <Rbt.Executable>
rbdock ($Id: //depot/dev/client3/rdock/2013.1/src/exe/rbdock.cxx#4 $)

>  <Rbt.Library>
libRbt.so (2013.1, Build901 2013/11/27)

>  <Rbt.Parameter_File>
/export/apps/rDock/src/rDock_2013.1_src/data/scripts/dock_solv.prm

>  <Rbt.Receptor>
prm/pocket_docking_5.prm

>  <SCORE>
-19.6555

>  <SCORE.INTER>
-16.5058

>  <SCORE.INTER.CONST>
1

>  <SCORE.INTER.POLAR>
0

>  <SCORE.INTER.ROT>
7

>  <SCORE.INTER.SOLV>
16.1787

>  <SCORE.INTER.VDW>
-24.6634

>  <SCORE.INTER.norm>
-0.611325

>  <SCORE.INTRA>
-3.14975

>  <SCORE.INTRA.DIHEDRAL>
1.43118

>  <SCORE.INTRA.DIHEDRAL.0>
11.2699

>  <SCORE.INTRA.POLAR>
0

>  <SCORE.INTRA.POLAR.0>
0

>  <SCORE.INTRA.REPUL>
0

>  <SCORE.INTRA.REPUL.0>
0

>  <SCORE.INTRA.SOLV>
-0.366263

>  <SCORE.INTRA.SOLV.lig_0>
-48.6447

>  <SCORE.INTRA.VDW>
-3.68221

>  <SCORE.INTRA.VDW.0>
-0.0211724

>  <SCORE.INTRA.norm>
-0.116658

>  <SCORE.RESTR>
0

>  <SCORE.RESTR.CAVITY>
0

>  <SCORE.RESTR.norm>
0

>  <SCORE.SYSTEM>
0

>  <SCORE.SYSTEM.CONST>
0

>  <SCORE.SYSTEM.DIHEDRAL>
0

>  <SCORE.SYSTEM.SOLV>
0

>  <SCORE.SYSTEM.norm>
0

>  <SCORE.heavy>
27

>  <SCORE.norm>
-0.727983

>  <RMSD>
4.010

$$$$
ligand
 OpenBabel11021811483D
libRbt.so/2013.1/901 2013/11/27
 27 29  0  0  0  0  0  0  0  0999 V2000
   52.8766   54.8328   26.2416 N   0  0  0  0  0  0  0  0  0  0  0  0
   51.6796   54.2823   26.8659 C   0  0  2  0  0  0  0  0  0  0  0  0
   50.4851   54.4051   25.9343 C   0  0  0  0  0  0  0  0  0  0  0  0
   49.5585   53.6010   26.0026 O   0  0  0  0  0  0  0  0  0  0  0  0
   51.3782   54.9507   28.2065 C   0  0  0  0  0  0  0  0  0  0  0  0
   50.4207   54.1778   29.1057 C   0  0  0  0  0  0  0  0  0  0  0  0
   49.9699   55.0364   30.6390 S   0  0  2  0  0  0  0  0  0  0  0  0
   49.1046   53.7235   31.5348 C   0  0  0  0  0  0  0  0  0  0  0  0
   48.5651   56.0225   30.0576 C   0  0  0  0  0  0  0  0  0  0  0  0
   48.2792   57.1425   31.0468 C   0  0  1  0  0  0  0  0  0  0  0  0
   46.9516   57.5686   30.8568 O   0  0  0  0  0  0  0  0  0  0  0  0
   48.3543   56.7307   32.5033 C   0  0  1  0  0  0  0  0  0  0  0  0
   49.6099   57.0663   33.0418 O   0  0  0  0  0  0  0  0  0  0  0  0
   47.2521   57.5415   33.1607 C   0  0  1  0  0  0  0  0  0  0  0  0
   47.8262   58.6037   33.8851 O   0  0  0  0  0  0  0  0  0  0  0  0
   46.3873   58.0903   32.0328 C   0  0  2  0  0  0  0  0  0  0  0  0
   50.4243   55.3112   25.1027 O   0  0  0  0  0  0  0  0  0  0  0  0
   42.1228   56.2648   29.5497 N   0  0  0  0  0  0  0  0  0  0  0  0
   43.3109   56.7027   29.0004 C   0  0  0  0  0  0  0  0  0  0  0  0
   44.3338   57.1543   29.8141 N   0  0  0  0  0  0  0  0  0  0  0  0
   44.1821   57.1809   31.1564 C   0  0  0  0  0  0  0  0  0  0  0  0
   42.9994   56.7388   31.7304 C   0  0  0  0  0  0  0  0  0  0  0  0
   41.9635   56.2832   30.9192 C   0  0  0  0  0  0  0  0  0  0  0  0
   40.8194   55.8616   31.4518 N   0  0  0  0  0  0  0  0  0  0  0  0
   43.1231   56.8629   33.0707 N   0  0  0  0  0  0  0  0  0  0  0  0
   44.3523   57.3552   33.3526 C   0  0  0  0  0  0  0  0  0  0  0  0
   45.0214   57.5580   32.1741 N   0  0  0  0  0  0  0  0  0  0  0  0
  2  1  1  6  0  0  0
  2  3  1  0  0  0  0
  2  5  1  0  0  0  0
  3  4  1  0  0  0  0
  3 17  1  0  0  0  0
  5  6  1  0  0  0  0
  7  6  1  6  0  0  0
  7  8  1  0  0  0  0
  7  9  1  0  0  0  0
 10  9  1  6  0  0  0
 10 11  1  0  0  0  0
 10 12  1  0  0  0  0
 11 16  1  0  0  0  0
 12 13  1  1  0  0  0
 12 14  1  0  0  0  0
 14 15  1  6  0  0  0
 14 16  1  0  0  0  0
 16 27  1  1  0  0  0
 18 19  2  0  0  0  0
 18 23  1  0  0  0  0
 19 20  1  0  0  0  0
 20 21  2  0  0  0  0
 21 22  1  0  0  0  0
 21 27  1  0  0  0  0
 22 23  2  0  0  0  0
 22 25  1  0  0  0  0
 23 24  1  0  0  0  0
 25 26  2  0  0  0  0
 26 27  1  0  0  0  0
M  END
>  <CHROM.1>
151.85219021,-162.55531950,-175.57655430,-170.33136750,-162.69534538,-158.85750725
-28.83408078,47.33318669,56.11823531,30.30562212,0.58516959,0.08544821,-1.93932955

>  <Name>
ligand

>  <RI>
0

>  <Rbt.Current_Directory>
/home/itssahil/PROJECTS/Mol_Feturizer/New_Systems/rnas/3GX7

>  <Rbt.Executable>
rbdock ($Id: //depot/dev/client3/rdock/2013.1/src/exe/rbdock.cxx#4 $)

>  <Rbt.Library>
libRbt.so (2013.1, Build901 2013/11/27)

>  <Rbt.Parameter_File>
/export/apps/rDock/src/rDock_2013.1_src/data/scripts/dock_solv.prm

>  <Rbt.Receptor>
prm/pocket_docking_6.prm

>  <SCORE>
-13.0632

>  <SCORE.INTER>
-9.51705

>  <SCORE.INTER.CONST>
1

>  <SCORE.INTER.POLAR>
0

>  <SCORE.INTER.ROT>
7

>  <SCORE.INTER.SOLV>
15.6541

>  <SCORE.INTER.VDW>
-19.8294

>  <SCORE.INTER.norm>
-0.352483

>  <SCORE.INTRA>
-3.54615

>  <SCORE.INTRA.DIHEDRAL>
-2.91418

>  <SCORE.INTRA.DIHEDRAL.0>
11.2699

>  <SCORE.INTRA.POLAR>
0

>  <SCORE.INTRA.POLAR.0>
0

>  <SCORE.INTRA.REPUL>
0

>  <SCORE.INTRA.REPUL.0>
0

>  <SCORE.INTRA.SOLV>
-0.742995

>  <SCORE.INTRA.SOLV.lig_0>
-48.6447

>  <SCORE.INTRA.VDW>
-1.71756

>  <SCORE.INTRA.VDW.0>
-0.0211724

>  <SCORE.INTRA.norm>
-0.131339

>  <SCORE.RESTR>
0

>  <SCORE.RESTR.CAVITY>
0

>  <SCORE.RESTR.norm>
0

>  <SCORE.SYSTEM>
0

>  <SCORE.SYSTEM.CONST>
0

>  <SCORE.SYSTEM.DIHEDRAL>
0

>  <SCORE.SYSTEM.SOLV>
0

>  <SCORE.SYSTEM.norm>
0

>  <SCORE.heavy>
27

>  <SCORE.norm>
-0.483822

>  <RMSD>
4.394

$$$$
ligand
 OpenBabel11021811483D
libRbt.so/2013.1/901 2013/11/27
 27 29  0  0  0  0  0  0  0  0999 V2000
   46.6764   55.9523   28.2945 N   0  0  0  0  0  0  0  0  0  0  0  0
   47.4324   56.6922   27.2913 C   0  0  2  0  0  0  0  0  0  0  0  0
   47.9599   55.7537   26.2186 C   0  0  0  0  0  0  0  0  0  0  0  0
   48.3156   56.1939   25.1279 O   0  0  0  0  0  0  0  0  0  0  0  0
   48.5804   57.4852   27.9143 C   0  0  0  0  0  0  0  0  0  0  0  0
   48.1484   58.6543   28.7913 C   0  0  0  0  0  0  0  0  0  0  0  0
   47.4344   58.1735   30.3883 S   0  0  2  0  0  0  0  0  0  0  0  0
   46.4202   59.6229   30.7697 C   0  0  0  0  0  0  0  0  0  0  0  0
   48.8523   58.4648   31.4785 C   0  0  0  0  0  0  0  0  0  0  0  0
   48.6351   57.7528   32.8053 C   0  0  1  0  0  0  0  0  0  0  0  0
   47.3384   58.0565   33.2600 O   0  0  0  0  0  0  0  0  0  0  0  0
   48.6775   56.2402   32.7226 C   0  0  1  0  0  0  0  0  0  0  0  0
   49.9498   55.7663   33.0907 O   0  0  0  0  0  0  0  0  0  0  0  0
   47.6271   55.7984   33.7254 C   0  0  1  0  0  0  0  0  0  0  0  0
   48.2653   55.3160   34.8841 O   0  0  0  0  0  0  0  0  0  0  0  0
   46.8040   57.0352   34.0631 C   0  0  2  0  0  0  0  0  0  0  0  0
   48.0439   54.5427   26.4257 O   0  0  0  0  0  0  0  0  0  0  0  0
   42.7102   53.7314   34.1587 N   0  0  0  0  0  0  0  0  0  0  0  0
   43.9648   53.5553   34.7064 C   0  0  0  0  0  0  0  0  0  0  0  0
   44.9276   54.5401   34.5816 N   0  0  0  0  0  0  0  0  0  0  0  0
   44.6568   55.6841   33.9156 C   0  0  0  0  0  0  0  0  0  0  0  0
   43.4005   55.8853   33.3634 C   0  0  0  0  0  0  0  0  0  0  0  0
   42.4250   54.8991   33.4831 C   0  0  0  0  0  0  0  0  0  0  0  0
   41.2165   55.0719   32.9540 N   0  0  0  0  0  0  0  0  0  0  0  0
   43.4020   57.1020   32.7745 N   0  0  0  0  0  0  0  0  0  0  0  0
   44.6161   57.6733   32.9544 C   0  0  0  0  0  0  0  0  0  0  0  0
   45.4062   56.8048   33.6610 N   0  0  0  0  0  0  0  0  0  0  0  0
  2  1  1  1  0  0  0
  2  3  1  0  0  0  0
  2  5  1  0  0  0  0
  3  4  1  0  0  0  0
  3 17  1  0  0  0  0
  5  6  1  0  0  0  0
  7  6  1  6  0  0  0
  7  8  1  0  0  0  0
  7  9  1  0  0  0  0
 10  9  1  6  0  0  0
 10 11  1  0  0  0  0
 10 12  1  0  0  0  0
 11 16  1  0  0  0  0
 12 13  1  1  0  0  0
 12 14  1  0  0  0  0
 14 15  1  1  0  0  0
 14 16  1  0  0  0  0
 16 27  1  6  0  0  0
 18 19  2  0  0  0  0
 18 23  1  0  0  0  0
 19 20  1  0  0  0  0
 20 21  2  0  0  0  0
 21 22  1  0  0  0  0
 21 27  1  0  0  0  0
 22 23  2  0  0  0  0
 22 25  1  0  0  0  0
 23 24  1  0  0  0  0
 25 26  2  0  0  0  0
 26 27  1  0  0  0  0
M  END
>  <CHROM.1>
161.25108398,-68.40626684,72.49198200,-155.79500118,-163.40227253,-48.08213233
160.52672688,46.50606485,56.48876617,31.50412564,0.97423534,-0.42895547,-1.62522032

>  <Name>
ligand

>  <RI>
0

>  <Rbt.Current_Directory>
/home/itssahil/PROJECTS/Mol_Feturizer/New_Systems/rnas/3GX7

>  <Rbt.Executable>
rbdock ($Id: //depot/dev/client3/rdock/2013.1/src/exe/rbdock.cxx#4 $)

>  <Rbt.Library>
libRbt.so (2013.1, Build901 2013/11/27)

>  <Rbt.Parameter_File>
/export/apps/rDock/src/rDock_2013.1_src/data/scripts/dock_solv.prm

>  <Rbt.Receptor>
prm/pocket_docking_7.prm

>  <SCORE>
-16.7292

>  <SCORE.INTER>
-13.0136

>  <SCORE.INTER.CONST>
1

>  <SCORE.INTER.POLAR>
0

>  <SCORE.INTER.ROT>
7

>  <SCORE.INTER.SOLV>
10.055

>  <SCORE.INTER.VDW>
-20.2941

>  <SCORE.INTER.norm>
-0.481985

>  <SCORE.INTRA>
-3.71561

>  <SCORE.INTRA.DIHEDRAL>
-2.67968

>  <SCORE.INTRA.DIHEDRAL.0>
11.2699

>  <SCORE.INTRA.POLAR>
0

>  <SCORE.INTRA.POLAR.0>
0

>  <SCORE.INTRA.REPUL>
0

>  <SCORE.INTRA.REPUL.0>
0

>  <SCORE.INTRA.SOLV>
1.20525

>  <SCORE.INTRA.SOLV.lig_0>
-48.6447

>  <SCORE.INTRA.VDW>
-2.9784

>  <SCORE.INTRA.VDW.0>
-0.0211724

>  <SCORE.INTRA.norm>
-0.137615

>  <SCORE.RESTR>
0

>  <SCORE.RESTR.CAVITY>
0

>  <SCORE.RESTR.norm>
0

>  <SCORE.SYSTEM>
0

>  <SCORE.SYSTEM.CONST>
0

>  <SCORE.SYSTEM.DIHEDRAL>
0

>  <SCORE.SYSTEM.SOLV>
0

>  <SCORE.SYSTEM.norm>
0

>  <SCORE.heavy>
27

>  <SCORE.norm>
-0.619601

>  <RMSD>
4.402

$$$$
ligand
 OpenBabel11021811483D
libRbt.so/2013.1/901 2013/11/27
 27 29  0  0  0  0  0  0  0  0999 V2000
   46.5245   56.1261   28.0898 N   0  0  0  0  0  0  0  0  0  0  0  0
   47.0479   56.9787   27.0293 C   0  0  2  0  0  0  0  0  0  0  0  0
   48.3408   56.4068   26.4715 C   0  0  0  0  0  0  0  0  0  0  0  0
   49.2642   56.1080   27.2250 O   0  0  0  0  0  0  0  0  0  0  0  0
   47.2649   58.4136   27.5076 C   0  0  0  0  0  0  0  0  0  0  0  0
   48.1908   58.5540   28.7100 C   0  0  0  0  0  0  0  0  0  0  0  0
   47.4706   58.0061   30.2824 S   0  0  2  0  0  0  0  0  0  0  0  0
   46.2770   59.3285   30.6012 C   0  0  0  0  0  0  0  0  0  0  0  0
   48.7961   58.4731   31.4265 C   0  0  0  0  0  0  0  0  0  0  0  0
   48.5831   57.7865   32.7673 C   0  0  1  0  0  0  0  0  0  0  0  0
   47.2774   58.0744   33.2061 O   0  0  0  0  0  0  0  0  0  0  0  0
   48.6558   56.2736   32.7186 C   0  0  1  0  0  0  0  0  0  0  0  0
   49.9345   55.8332   33.1061 O   0  0  0  0  0  0  0  0  0  0  0  0
   47.6069   55.8333   33.7238 C   0  0  1  0  0  0  0  0  0  0  0  0
   48.2459   55.3895   34.8973 O   0  0  0  0  0  0  0  0  0  0  0  0
   46.7573   57.0608   34.0281 C   0  0  2  0  0  0  0  0  0  0  0  0
   48.4817   56.2297   25.2610 O   0  0  0  0  0  0  0  0  0  0  0  0
   42.6678   53.7633   34.3217 N   0  0  0  0  0  0  0  0  0  0  0  0
   43.9126   53.6366   34.9041 C   0  0  0  0  0  0  0  0  0  0  0  0
   44.8759   54.6108   34.7161 N   0  0  0  0  0  0  0  0  0  0  0  0
   44.6153   55.6955   33.9538 C   0  0  0  0  0  0  0  0  0  0  0  0
   43.3687   55.8470   33.3648 C   0  0  0  0  0  0  0  0  0  0  0  0
   42.3928   54.8708   33.5476 C   0  0  0  0  0  0  0  0  0  0  0  0
   41.1937   54.9959   32.9849 N   0  0  0  0  0  0  0  0  0  0  0  0
   43.3788   57.0113   32.6782 N   0  0  0  0  0  0  0  0  0  0  0  0
   44.5885   57.5992   32.8321 C   0  0  0  0  0  0  0  0  0  0  0  0
   45.3672   56.7939   33.6214 N   0  0  0  0  0  0  0  0  0  0  0  0
  2  1  1  1  0  0  0
  2  3  1  0  0  0  0
  2  5  1  0  0  0  0
  3  4  1  0  0  0  0
  3 17  1  0  0  0  0
  5  6  1  0  0  0  0
  7  6  1  6  0  0  0
  7  8  1  0  0  0  0
  7  9  1  0  0  0  0
 10  9  1  6  0  0  0
 10 11  1  0  0  0  0
 10 12  1  0  0  0  0
 11 16  1  0  0  0  0
 12 13  1  1  0  0  0
 12 14  1  0  0  0  0
 14 15  1  1  0  0  0
 14 16  1  0  0  0  0
 16 27  1  6  0  0  0
 18 19  2  0  0  0  0
 18 23  1  0  0  0  0
 19 20  1  0  0  0  0
 20 21  2  0  0  0  0
 21 22  1  0  0  0  0
 21 27  1  0  0  0  0
 22 23  2  0  0  0  0
 22 25  1  0  0  0  0
 23 24  1  0  0  0  0
 25 26  2  0  0  0  0
 26 27  1  0  0  0  0
M  END
>  <CHROM.1>
-52.03393491,57.04419991,-72.90798223,-72.06636357,-165.18607829,-53.28583042
164.15021838,46.48529149,56.60182278,31.50822214,0.99470420,-0.29615632,-1.46147445

>  <Name>
ligand

>  <RI>
0

>  <Rbt.Current_Directory>
/home/itssahil/PROJECTS/Mol_Feturizer/New_Systems/rnas/3GX7

>  <Rbt.Executable>
rbdock ($Id: //depot/dev/client3/rdock/2013.1/src/exe/rbdock.cxx#4 $)

>  <Rbt.Library>
libRbt.so (2013.1, Build901 2013/11/27)

>  <Rbt.Parameter_File>
/export/apps/rDock/src/rDock_2013.1_src/data/scripts/dock_solv.prm

>  <Rbt.Receptor>
prm/pocket_docking_7.prm

>  <SCORE>
-19.2249

>  <SCORE.INTER>
-14.3925

>  <SCORE.INTER.CONST>
1

>  <SCORE.INTER.POLAR>
0

>  <SCORE.INTER.ROT>
7

>  <SCORE.INTER.SOLV>
10.737

>  <SCORE.INTER.VDW>
-21.4407

>  <SCORE.INTER.norm>
-0.533056

>  <SCORE.INTRA>
-4.8324

>  <SCORE.INTRA.DIHEDRAL>
-5.84716

>  <SCORE.INTRA.DIHEDRAL.0>
11.2699

>  <SCORE.INTRA.POLAR>
0

>  <SCORE.INTRA.POLAR.0>
0

>  <SCORE.INTRA.REPUL>
0

>  <SCORE.INTRA.REPUL.0>
0

>  <SCORE.INTRA.SOLV>
1.55026

>  <SCORE.INTRA.SOLV.lig_0>
-48.6447

>  <SCORE.INTRA.VDW>
-2.68395

>  <SCORE.INTRA.VDW.0>
-0.0211724

>  <SCORE.INTRA.norm>
-0.178978

>  <SCORE.RESTR>
0

>  <SCORE.RESTR.CAVITY>
0

>  <SCORE.RESTR.norm>
0

>  <SCORE.SYSTEM>
0

>  <SCORE.SYSTEM.CONST>
0

>  <SCORE.SYSTEM.DIHEDRAL>
0

>  <SCORE.SYSTEM.SOLV>
0

>  <SCORE.SYSTEM.norm>
0

>  <SCORE.heavy>
27

>  <SCORE.norm>
-0.712034

>  <RMSD>
4.416

$$$$
ligand
 OpenBabel11021811483D
libRbt.so/2013.1/901 2013/11/27
 27 29  0  0  0  0  0  0  0  0999 V2000
   46.6732   55.9318   28.0468 N   0  0  0  0  0  0  0  0  0  0  0  0
   46.7966   57.0966   28.9148 C   0  0  2  0  0  0  0  0  0  0  0  0
   46.3290   58.3516   28.1965 C   0  0  0  0  0  0  0  0  0  0  0  0
   46.8746   58.7120   27.1561 O   0  0  0  0  0  0  0  0  0  0  0  0
   48.2257   57.2778   29.4244 C   0  0  0  0  0  0  0  0  0  0  0  0
   48.4085   58.4109   30.4271 C   0  0  0  0  0  0  0  0  0  0  0  0
   47.6349   58.1188   32.0419 S   0  0  2  0  0  0  0  0  0  0  0  0
   47.1902   59.8043   32.5278 C   0  0  0  0  0  0  0  0  0  0  0  0
   49.1078   57.8567   33.0646 C   0  0  0  0  0  0  0  0  0  0  0  0
   49.4387   56.3727   33.1180 C   0  0  1  0  0  0  0  0  0  0  0  0
   48.7332   55.8034   34.1943 O   0  0  0  0  0  0  0  0  0  0  0  0
   48.9989   55.5852   31.9003 C   0  0  1  0  0  0  0  0  0  0  0  0
   50.0748   55.4227   31.0087 O   0  0  0  0  0  0  0  0  0  0  0  0
   48.5697   54.2478   32.4760 C   0  0  1  0  0  0  0  0  0  0  0  0
   49.5585   53.2844   32.1992 O   0  0  0  0  0  0  0  0  0  0  0  0
   48.4446   54.4451   33.9816 C   0  0  2  0  0  0  0  0  0  0  0  0
   45.3966   59.0223   28.6406 O   0  0  0  0  0  0  0  0  0  0  0  0
   43.4329   56.0040   33.6107 N   0  0  0  0  0  0  0  0  0  0  0  0
   44.5491   56.5646   33.0235 C   0  0  0  0  0  0  0  0  0  0  0  0
   45.8011   56.0166   33.2346 N   0  0  0  0  0  0  0  0  0  0  0  0
   45.9505   54.9306   34.0245 C   0  0  0  0  0  0  0  0  0  0  0  0
   44.8418   54.3465   34.6190 C   0  0  0  0  0  0  0  0  0  0  0  0
   43.5773   54.8918   34.4129 C   0  0  0  0  0  0  0  0  0  0  0  0
   42.5033   54.3490   34.9805 N   0  0  0  0  0  0  0  0  0  0  0  0
   45.2729   53.2840   35.3347 N   0  0  0  0  0  0  0  0  0  0  0  0
   46.6151   53.1775   35.1940 C   0  0  0  0  0  0  0  0  0  0  0  0
   47.0504   54.1930   34.3834 N   0  0  0  0  0  0  0  0  0  0  0  0
  2  1  1  6  0  0  0
  2  3  1  0  0  0  0
  2  5  1  0  0  0  0
  3  4  1  0  0  0  0
  3 17  1  0  0  0  0
  5  6  1  0  0  0  0
  7  6  1  6  0  0  0
  7  8  1  0  0  0  0
  7  9  1  0  0  0  0
 10  9  1  6  0  0  0
 10 11  1  0  0  0  0
 10 12  1  0  0  0  0
 11 16  1  0  0  0  0
 12 13  1  6  0  0  0
 12 14  1  0  0  0  0
 14 15  1  1  0  0  0
 14 16  1  0  0  0  0
 16 27  1  6  0  0  0
 18 19  2  0  0  0  0
 18 23  1  0  0  0  0
 19 20  1  0  0  0  0
 20 21  2  0  0  0  0
 21 22  1  0  0  0  0
 21 27  1  0  0  0  0
 22 23  2  0  0  0  0
 22 25  1  0  0  0  0
 23 24  1  0  0  0  0
 25 26  2  0  0  0  0
 26 27  1  0  0  0  0
M  END
>  <CHROM.1>
-59.44613137,-175.33334202,69.05922498,-148.26889883,-92.16976774,-88.53359482
48.42978750,46.98652903,56.19843952,32.14943749,1.31490749,0.14863090,-0.92295677

>  <Name>
ligand

>  <RI>
0

>  <Rbt.Current_Directory>
/home/itssahil/PROJECTS/Mol_Feturizer/New_Systems/rnas/3GX7

>  <Rbt.Executable>
rbdock ($Id: //depot/dev/client3/rdock/2013.1/src/exe/rbdock.cxx#4 $)

>  <Rbt.Library>
libRbt.so (2013.1, Build901 2013/11/27)

>  <Rbt.Parameter_File>
/export/apps/rDock/src/rDock_2013.1_src/data/scripts/dock_solv.prm

>  <Rbt.Receptor>
prm/pocket_docking_7.prm

>  <SCORE>
-16.0455

>  <SCORE.INTER>
-12.3496

>  <SCORE.INTER.CONST>
1

>  <SCORE.INTER.POLAR>
0

>  <SCORE.INTER.ROT>
7

>  <SCORE.INTER.SOLV>
12.5154

>  <SCORE.INTER.VDW>
-20.6715

>  <SCORE.INTER.norm>
-0.457391

>  <SCORE.INTRA>
-3.69596

>  <SCORE.INTRA.DIHEDRAL>
-0.559807

>  <SCORE.INTRA.DIHEDRAL.0>
11.2699

>  <SCORE.INTRA.POLAR>
0

>  <SCORE.INTRA.POLAR.0>
0

>  <SCORE.INTRA.REPUL>
0

>  <SCORE.INTRA.REPUL.0>
0

>  <SCORE.INTRA.SOLV>
-0.252358

>  <SCORE.INTRA.SOLV.lig_0>
-48.6447

>  <SCORE.INTRA.VDW>
-3.28987

>  <SCORE.INTRA.VDW.0>
-0.0211724

>  <SCORE.INTRA.norm>
-0.136887

>  <SCORE.RESTR>
0

>  <SCORE.RESTR.CAVITY>
0

>  <SCORE.RESTR.norm>
0

>  <SCORE.SYSTEM>
0

>  <SCORE.SYSTEM.CONST>
0

>  <SCORE.SYSTEM.DIHEDRAL>
0

>  <SCORE.SYSTEM.SOLV>
0

>  <SCORE.SYSTEM.norm>
0

>  <SCORE.heavy>
27

>  <SCORE.norm>
-0.594278

>  <RMSD>
4.420

$$$$
ligand
 OpenBabel11021811483D
libRbt.so/2013.1/901 2013/11/27
 27 29  0  0  0  0  0  0  0  0999 V2000
   47.5533   58.0775   28.2490 N   0  0  0  0  0  0  0  0  0  0  0  0
   48.2341   57.2042   27.3007 C   0  0  2  0  0  0  0  0  0  0  0  0
   47.2286   56.3734   26.5206 C   0  0  0  0  0  0  0  0  0  0  0  0
   46.1936   55.9852   27.0573 O   0  0  0  0  0  0  0  0  0  0  0  0
   49.2506   56.2963   27.9917 C   0  0  0  0  0  0  0  0  0  0  0  0
   48.7159   55.5441   29.2045 C   0  0  0  0  0  0  0  0  0  0  0  0
   49.9093   54.4171   29.9772 S   0  0  2  0  0  0  0  0  0  0  0  0
   49.6367   52.9065   29.0187 C   0  0  0  0  0  0  0  0  0  0  0  0
   49.0247   54.0050   31.5041 C   0  0  0  0  0  0  0  0  0  0  0  0
   48.8497   55.2571   32.3504 C   0  0  1  0  0  0  0  0  0  0  0  0
   47.4749   55.5478   32.4266 O   0  0  0  0  0  0  0  0  0  0  0  0
   49.3002   55.1122   33.7901 C   0  0  1  0  0  0  0  0  0  0  0  0
   50.6004   55.6252   33.9491 O   0  0  0  0  0  0  0  0  0  0  0  0
   48.2943   55.9445   34.5644 C   0  0  1  0  0  0  0  0  0  0  0  0
   48.8972   57.1550   34.9566 O   0  0  0  0  0  0  0  0  0  0  0  0
   47.1396   56.2250   33.6108 C   0  0  2  0  0  0  0  0  0  0  0  0
   47.4313   56.0812   25.3417 O   0  0  0  0  0  0  0  0  0  0  0  0
   45.0785   52.4344   36.6220 N   0  0  0  0  0  0  0  0  0  0  0  0
   46.4076   52.6712   36.3346 C   0  0  0  0  0  0  0  0  0  0  0  0
   46.7696   53.7240   35.5142 N   0  0  0  0  0  0  0  0  0  0  0  0
   45.8281   54.5300   34.9763 C   0  0  0  0  0  0  0  0  0  0  0  0
   44.4870   54.3149   35.2572 C   0  0  0  0  0  0  0  0  0  0  0  0
   44.1128   53.2569   36.0814 C   0  0  0  0  0  0  0  0  0  0  0  0
   42.8307   53.0313   36.3565 N   0  0  0  0  0  0  0  0  0  0  0  0
   43.7752   55.2624   34.6071 N   0  0  0  0  0  0  0  0  0  0  0  0
   44.6313   56.0719   33.9404 C   0  0  0  0  0  0  0  0  0  0  0  0
   45.9096   55.6295   34.1597 N   0  0  0  0  0  0  0  0  0  0  0  0
  2  1  1  1  0  0  0
  2  3  1  0  0  0  0
  2  5  1  0  0  0  0
  3  4  1  0  0  0  0
  3 17  1  0  0  0  0
  5  6  1  0  0  0  0
  7  6  1  6  0  0  0
  7  8  1  0  0  0  0
  7  9  1  0  0  0  0
 10  9  1  6  0  0  0
 10 11  1  0  0  0  0
 10 12  1  0  0  0  0
 11 16  1  0  0  0  0
 12 13  1  6  0  0  0
 12 14  1  0  0  0  0
 14 15  1  6  0  0  0
 14 16  1  0  0  0  0
 16 27  1  1  0  0  0
 18 19  2  0  0  0  0
 18 23  1  0  0  0  0
 19 20  1  0  0  0  0
 20 21  2  0  0  0  0
 21 22  1  0  0  0  0
 21 27  1  0  0  0  0
 22 23  2  0  0  0  0
 22 25  1  0  0  0  0
 23 24  1  0  0  0  0
 25 26  2  0  0  0  0
 26 27  1  0  0  0  0
M  END
>  <CHROM.1>
-34.37262478,49.93965378,177.59878903,-87.61798573,-63.69127507,114.44576721
85.46001689,47.36446841,55.12951662,32.08027909,1.22643663,-0.03104606,-1.35579425

>  <Name>
ligand

>  <RI>
0

>  <Rbt.Current_Directory>
/home/itssahil/PROJECTS/Mol_Feturizer/New_Systems/rnas/3GX7

>  <Rbt.Executable>
rbdock ($Id: //depot/dev/client3/rdock/2013.1/src/exe/rbdock.cxx#4 $)

>  <Rbt.Library>
libRbt.so (2013.1, Build901 2013/11/27)

>  <Rbt.Parameter_File>
/export/apps/rDock/src/rDock_2013.1_src/data/scripts/dock_solv.prm

>  <Rbt.Receptor>
prm/pocket_docking_7.prm

>  <SCORE>
-17.2443

>  <SCORE.INTER>
-14.1067

>  <SCORE.INTER.CONST>
1

>  <SCORE.INTER.POLAR>
0

>  <SCORE.INTER.ROT>
7

>  <SCORE.INTER.SOLV>
12.5532

>  <SCORE.INTER.VDW>
-21.8555

>  <SCORE.INTER.norm>
-0.522469

>  <SCORE.INTRA>
-3.1376

>  <SCORE.INTRA.DIHEDRAL>
-1.49906

>  <SCORE.INTRA.DIHEDRAL.0>
11.2699

>  <SCORE.INTRA.POLAR>
0

>  <SCORE.INTRA.POLAR.0>
0

>  <SCORE.INTRA.REPUL>
0

>  <SCORE.INTRA.REPUL.0>
0

>  <SCORE.INTRA.SOLV>
-0.342989

>  <SCORE.INTRA.SOLV.lig_0>
-48.6447

>  <SCORE.INTRA.VDW>
-2.21658

>  <SCORE.INTRA.VDW.0>
-0.0211724

>  <SCORE.INTRA.norm>
-0.116207

>  <SCORE.RESTR>
0

>  <SCORE.RESTR.CAVITY>
0

>  <SCORE.RESTR.norm>
0

>  <SCORE.SYSTEM>
0

>  <SCORE.SYSTEM.CONST>
0

>  <SCORE.SYSTEM.DIHEDRAL>
0

>  <SCORE.SYSTEM.SOLV>
0

>  <SCORE.SYSTEM.norm>
0

>  <SCORE.heavy>
27

>  <SCORE.norm>
-0.638676

>  <RMSD>
4.475

$$$$
ligand
 OpenBabel11021811483D
libRbt.so/2013.1/901 2013/11/27
 27 29  0  0  0  0  0  0  0  0999 V2000
   49.8487   53.9637   26.5431 N   0  0  0  0  0  0  0  0  0  0  0  0
   48.4222   54.0167   26.2470 C   0  0  2  0  0  0  0  0  0  0  0  0
   48.1792   54.6762   24.8995 C   0  0  0  0  0  0  0  0  0  0  0  0
   47.4466   54.1428   24.0696 O   0  0  0  0  0  0  0  0  0  0  0  0
   47.6403   54.7416   27.3415 C   0  0  0  0  0  0  0  0  0  0  0  0
   48.1229   56.1555   27.6430 C   0  0  0  0  0  0  0  0  0  0  0  0
   47.4064   56.8925   29.1379 S   0  0  2  0  0  0  0  0  0  0  0  0
   45.7774   57.3984   28.5334 C   0  0  0  0  0  0  0  0  0  0  0  0
   48.2638   58.4889   29.1555 C   0  0  0  0  0  0  0  0  0  0  0  0
   48.1509   59.1174   30.5364 C   0  0  1  0  0  0  0  0  0  0  0  0
   46.7869   59.1970   30.8730 O   0  0  0  0  0  0  0  0  0  0  0  0
   48.7832   58.3077   31.6505 C   0  0  1  0  0  0  0  0  0  0  0  0
   50.0736   58.7909   31.9339 O   0  0  0  0  0  0  0  0  0  0  0  0
   47.8526   58.5336   32.8283 C   0  0  1  0  0  0  0  0  0  0  0  0
   48.4555   59.4302   33.7310 O   0  0  0  0  0  0  0  0  0  0  0  0
   46.5781   59.1465   32.2613 C   0  0  2  0  0  0  0  0  0  0  0  0
   48.7063   55.7535   24.6202 O   0  0  0  0  0  0  0  0  0  0  0  0
   44.9374   54.1544   32.5282 N   0  0  0  0  0  0  0  0  0  0  0  0
   46.1943   54.6260   32.2076 C   0  0  0  0  0  0  0  0  0  0  0  0
   46.4473   55.9854   32.1857 N   0  0  0  0  0  0  0  0  0  0  0  0
   45.4668   56.8706   32.4694 C   0  0  0  0  0  0  0  0  0  0  0  0
   44.1981   56.4189   32.8012 C   0  0  0  0  0  0  0  0  0  0  0  0
   43.9336   55.0521   32.8250 C   0  0  0  0  0  0  0  0  0  0  0  0
   42.7209   54.6006   33.1345 N   0  0  0  0  0  0  0  0  0  0  0  0
   43.4284   57.5027   33.0461 N   0  0  0  0  0  0  0  0  0  0  0  0
   44.1810   58.6174   32.8917 C   0  0  0  0  0  0  0  0  0  0  0  0
   45.4490   58.2410   32.5334 N   0  0  0  0  0  0  0  0  0  0  0  0
  2  1  1  1  0  0  0
  2  3  1  0  0  0  0
  2  5  1  0  0  0  0
  3  4  1  0  0  0  0
  3 17  1  0  0  0  0
  5  6  1  0  0  0  0
  7  6  1  6  0  0  0
  7  8  1  0  0  0  0
  7  9  1  0  0  0  0
 10  9  1  6  0  0  0
 10 11  1  0  0  0  0
 10 12  1  0  0  0  0
 11 16  1  0  0  0  0
 12 13  1  1  0  0  0
 12 14  1  0  0  0  0
 14 15  1  1  0  0  0
 14 16  1  0  0  0  0
 16 27  1  6  0  0  0
 18 19  2  0  0  0  0
 18 23  1  0  0  0  0
 19 20  1  0  0  0  0
 20 21  2  0  0  0  0
 21 22  1  0  0  0  0
 21 27  1  0  0  0  0
 22 23  2  0  0  0  0
 22 25  1  0  0  0  0
 23 24  1  0  0  0  0
 25 26  2  0  0  0  0
 26 27  1  0  0  0  0
M  END
>  <CHROM.1>
130.71357929,55.87203741,-169.09398078,-78.87844977,-162.78708057,-55.07124028
74.62497739,46.88789879,56.73330195,30.19087395,-1.11564673,0.67199023,0.93956731

>  <Name>
ligand

>  <RI>
0

>  <Rbt.Current_Directory>
/home/itssahil/PROJECTS/Mol_Feturizer/New_Systems/rnas/3GX7

>  <Rbt.Executable>
rbdock ($Id: //depot/dev/client3/rdock/2013.1/src/exe/rbdock.cxx#4 $)

>  <Rbt.Library>
libRbt.so (2013.1, Build901 2013/11/27)

>  <Rbt.Parameter_File>
/export/apps/rDock/src/rDock_2013.1_src/data/scripts/dock_solv.prm

>  <Rbt.Receptor>
prm/pocket_docking_6.prm

>  <SCORE>
-14.6291

>  <SCORE.INTER>
-8.14667

>  <SCORE.INTER.CONST>
1

>  <SCORE.INTER.POLAR>
0

>  <SCORE.INTER.ROT>
7

>  <SCORE.INTER.SOLV>
7.92963

>  <SCORE.INTER.VDW>
-16.341

>  <SCORE.INTER.norm>
-0.301729

>  <SCORE.INTRA>
-6.48243

>  <SCORE.INTRA.DIHEDRAL>
-5.54439

>  <SCORE.INTRA.DIHEDRAL.0>
11.2699

>  <SCORE.INTRA.POLAR>
0

>  <SCORE.INTRA.POLAR.0>
0

>  <SCORE.INTRA.REPUL>
0

>  <SCORE.INTRA.REPUL.0>
0

>  <SCORE.INTRA.SOLV>
-0.144327

>  <SCORE.INTRA.SOLV.lig_0>
-48.6447

>  <SCORE.INTRA.VDW>
-3.63807

>  <SCORE.INTRA.VDW.0>
-0.0211724

>  <SCORE.INTRA.norm>
-0.24009

>  <SCORE.RESTR>
0

>  <SCORE.RESTR.CAVITY>
0

>  <SCORE.RESTR.norm>
0

>  <SCORE.SYSTEM>
0

>  <SCORE.SYSTEM.CONST>
0

>  <SCORE.SYSTEM.DIHEDRAL>
0

>  <SCORE.SYSTEM.SOLV>
0

>  <SCORE.SYSTEM.norm>
0

>  <SCORE.heavy>
27

>  <SCORE.norm>
-0.541819

>  <RMSD>
4.553

$$$$
ligand
 OpenBabel11021811483D
libRbt.so/2013.1/901 2013/11/27
 27 29  0  0  0  0  0  0  0  0999 V2000
   47.1070   54.2956   25.5936 N   0  0  0  0  0  0  0  0  0  0  0  0
   47.6257   55.6544   25.4940 C   0  0  2  0  0  0  0  0  0  0  0  0
   49.0860   55.6405   25.0733 C   0  0  0  0  0  0  0  0  0  0  0  0
   49.9594   55.3075   25.8710 O   0  0  0  0  0  0  0  0  0  0  0  0
   47.4574   56.4252   26.8026 C   0  0  0  0  0  0  0  0  0  0  0  0
   47.9798   55.7057   28.0405 C   0  0  0  0  0  0  0  0  0  0  0  0
   47.5265   56.4885   29.6131 S   0  0  2  0  0  0  0  0  0  0  0  0
   45.7622   56.7980   29.3553 C   0  0  0  0  0  0  0  0  0  0  0  0
   48.1965   58.1519   29.3526 C   0  0  0  0  0  0  0  0  0  0  0  0
   48.1194   58.9456   30.6483 C   0  0  1  0  0  0  0  0  0  0  0  0
   46.7682   59.0300   31.0324 O   0  0  0  0  0  0  0  0  0  0  0  0
   48.8221   58.2995   31.8253 C   0  0  1  0  0  0  0  0  0  0  0  0
   50.1066   58.8492   31.9891 O   0  0  0  0  0  0  0  0  0  0  0  0
   47.9331   58.6463   33.0059 C   0  0  1  0  0  0  0  0  0  0  0  0
   48.5428   59.6652   33.7626 O   0  0  0  0  0  0  0  0  0  0  0  0
   46.6176   59.1485   32.4240 C   0  0  2  0  0  0  0  0  0  0  0  0
   49.4161   55.9567   23.9299 O   0  0  0  0  0  0  0  0  0  0  0  0
   45.3559   54.5694   34.6876 N   0  0  0  0  0  0  0  0  0  0  0  0
   46.6124   55.0869   34.4459 C   0  0  0  0  0  0  0  0  0  0  0  0
   46.7564   56.3184   33.8334 N   0  0  0  0  0  0  0  0  0  0  0  0
   45.6705   57.0281   33.4557 C   0  0  0  0  0  0  0  0  0  0  0  0
   44.3981   56.5305   33.6952 C   0  0  0  0  0  0  0  0  0  0  0  0
   44.2432   55.2912   34.3105 C   0  0  0  0  0  0  0  0  0  0  0  0
   43.0306   54.7951   34.5421 N   0  0  0  0  0  0  0  0  0  0  0  0
   43.5096   57.4384   33.2330 N   0  0  0  0  0  0  0  0  0  0  0  0
   44.1876   58.4945   32.7253 C   0  0  0  0  0  0  0  0  0  0  0  0
   45.5303   58.2542   32.8563 N   0  0  0  0  0  0  0  0  0  0  0  0
  2  1  1  1  0  0  0
  2  3  1  0  0  0  0
  2  5  1  0  0  0  0
  3  4  1  0  0  0  0
  3 17  1  0  0  0  0
  5  6  1  0  0  0  0
  7  6  1  6  0  0  0
  7  8  1  0  0  0  0
  7  9  1  0  0  0  0
 10  9  1  6  0  0  0
 10 11  1  0  0  0  0
 10 12  1  0  0  0  0
 11 16  1  0  0  0  0
 12 13  1  1  0  0  0
 12 14  1  0  0  0  0
 14 15  1  6  0  0  0
 14 16  1  0  0  0  0
 16 27  1  1  0  0  0
 18 19  2  0  0  0  0
 18 23  1  0  0  0  0
 19 20  1  0  0  0  0
 20 21  2  0  0  0  0
 21 22  1  0  0  0  0
 21 27  1  0  0  0  0
 22 23  2  0  0  0  0
 22 25  1  0  0  0  0
 23 24  1  0  0  0  0
 25 26  2  0  0  0  0
 26 27  1  0  0  0  0
M  END
>  <CHROM.1>
-74.02266240,51.02274664,-170.03396406,46.80492591,-171.35181957,-60.17867590
101.87652012,47.00456343,56.92248775,30.65895729,1.06330496,-0.72111024,-2.06104562

>  <Name>
ligand

>  <RI>
0

>  <Rbt.Current_Directory>
/home/itssahil/PROJECTS/Mol_Feturizer/New_Systems/rnas/3GX7

>  <Rbt.Executable>
rbdock ($Id: //depot/dev/client3/rdock/2013.1/src/exe/rbdock.cxx#4 $)

>  <Rbt.Library>
libRbt.so (2013.1, Build901 2013/11/27)

>  <Rbt.Parameter_File>
/export/apps/rDock/src/rDock_2013.1_src/data/scripts/dock_solv.prm

>  <Rbt.Receptor>
prm/pocket_docking_5.prm

>  <SCORE>
-16.2105

>  <SCORE.INTER>
-12.2963

>  <SCORE.INTER.CONST>
1

>  <SCORE.INTER.POLAR>
0

>  <SCORE.INTER.ROT>
7

>  <SCORE.INTER.SOLV>
14.1298

>  <SCORE.INTER.VDW>
-21.1742

>  <SCORE.INTER.norm>
-0.45542

>  <SCORE.INTRA>
-3.92073

>  <SCORE.INTRA.DIHEDRAL>
-6.56998

>  <SCORE.INTRA.DIHEDRAL.0>
11.2699

>  <SCORE.INTRA.POLAR>
0

>  <SCORE.INTRA.POLAR.0>
0

>  <SCORE.INTRA.REPUL>
0

>  <SCORE.INTRA.REPUL.0>
0

>  <SCORE.INTRA.SOLV>
-0.0694635

>  <SCORE.INTRA.SOLV.lig_0>
-48.6447

>  <SCORE.INTRA.VDW>
-0.601009

>  <SCORE.INTRA.VDW.0>
-0.0211724

>  <SCORE.INTRA.norm>
-0.145212

>  <SCORE.RESTR>
0.00658304

>  <SCORE.RESTR.CAVITY>
0.00658304

>  <SCORE.RESTR.norm>
0.000243816

>  <SCORE.SYSTEM>
0

>  <SCORE.SYSTEM.CONST>
0

>  <SCORE.SYSTEM.DIHEDRAL>
0

>  <SCORE.SYSTEM.SOLV>
0

>  <SCORE.SYSTEM.norm>
0

>  <SCORE.heavy>
27

>  <SCORE.norm>
-0.600388

>  <RMSD>
4.565

$$$$
ligand
 OpenBabel11021811483D
libRbt.so/2013.1/901 2013/11/27
 27 29  0  0  0  0  0  0  0  0999 V2000
   50.1206   54.1292   26.1230 N   0  0  0  0  0  0  0  0  0  0  0  0
   48.8620   54.8650   26.1306 C   0  0  2  0  0  0  0  0  0  0  0  0
   48.6901   55.6451   24.8377 C   0  0  0  0  0  0  0  0  0  0  0  0
   47.5958   56.1164   24.5371 O   0  0  0  0  0  0  0  0  0  0  0  0
   48.7575   55.8013   27.3336 C   0  0  0  0  0  0  0  0  0  0  0  0
   47.4185   56.5157   27.4737 C   0  0  0  0  0  0  0  0  0  0  0  0
   47.0409   57.0835   29.1549 S   0  0  2  0  0  0  0  0  0  0  0  0
   45.3778   57.7610   28.9311 C   0  0  0  0  0  0  0  0  0  0  0  0
   48.0162   58.6098   29.2086 C   0  0  0  0  0  0  0  0  0  0  0  0
   48.0383   59.1557   30.6285 C   0  0  1  0  0  0  0  0  0  0  0  0
   46.7100   59.2520   31.0832 O   0  0  0  0  0  0  0  0  0  0  0  0
   48.7338   58.2624   31.6359 C   0  0  1  0  0  0  0  0  0  0  0  0
   50.0582   58.6919   31.8372 O   0  0  0  0  0  0  0  0  0  0  0  0
   47.9115   58.4414   32.8992 C   0  0  1  0  0  0  0  0  0  0  0  0
   48.6157   59.2644   33.7988 O   0  0  0  0  0  0  0  0  0  0  0  0
   46.6151   59.1225   32.4787 C   0  0  2  0  0  0  0  0  0  0  0  0
   49.6414   55.8211   24.0759 O   0  0  0  0  0  0  0  0  0  0  0  0
   45.0908   54.5740   34.6401 N   0  0  0  0  0  0  0  0  0  0  0  0
   46.3675   55.0891   34.5415 C   0  0  0  0  0  0  0  0  0  0  0  0
   46.5839   56.3121   33.9334 N   0  0  0  0  0  0  0  0  0  0  0  0
   45.5508   57.0158   33.4204 C   0  0  0  0  0  0  0  0  0  0  0  0
   44.2586   56.5206   33.5146 C   0  0  0  0  0  0  0  0  0  0  0  0
   44.0311   55.2897   34.1243 C   0  0  0  0  0  0  0  0  0  0  0  0
   42.7991   54.7959   34.2177 N   0  0  0  0  0  0  0  0  0  0  0  0
   43.4318   57.4213   32.9382 N   0  0  0  0  0  0  0  0  0  0  0  0
   44.1660   58.4709   32.4998 C   0  0  0  0  0  0  0  0  0  0  0  0
   45.4836   58.2334   32.7917 N   0  0  0  0  0  0  0  0  0  0  0  0
  2  1  1  6  0  0  0
  2  3  1  0  0  0  0
  2  5  1  0  0  0  0
  3  4  1  0  0  0  0
  3 17  1  0  0  0  0
  5  6  1  0  0  0  0
  7  6  1  6  0  0  0
  7  8  1  0  0  0  0
  7  9  1  0  0  0  0
 10  9  1  6  0  0  0
 10 11  1  0  0  0  0
 10 12  1  0  0  0  0
 11 16  1  0  0  0  0
 12 13  1  1  0  0  0
 12 14  1  0  0  0  0
 14 15  1  1  0  0  0
 14 16  1  0  0  0  0
 16 27  1  6  0  0  0
 18 19  2  0  0  0  0
 18 23  1  0  0  0  0
 19 20  1  0  0  0  0
 20 21  2  0  0  0  0
 21 22  1  0  0  0  0
 21 27  1  0  0  0  0
 22 23  2  0  0  0  0
 22 25  1  0  0  0  0
 23 24  1  0  0  0  0
 25 26  2  0  0  0  0
 26 27  1  0  0  0  0
M  END
>  <CHROM.1>
165.86316327,-175.00653662,157.22285752,-176.58537720,-170.62426923,-52.34173507
116.84887250,46.96047822,57.00853795,30.53243396,1.01511438,-0.71344598,-2.07880014

>  <Name>
ligand

>  <RI>
0

>  <Rbt.Current_Directory>
/home/itssahil/PROJECTS/Mol_Feturizer/New_Systems/rnas/3GX7

>  <Rbt.Executable>
rbdock ($Id: //depot/dev/client3/rdock/2013.1/src/exe/rbdock.cxx#4 $)

>  <Rbt.Library>
libRbt.so (2013.1, Build901 2013/11/27)

>  <Rbt.Parameter_File>
/export/apps/rDock/src/rDock_2013.1_src/data/scripts/dock_solv.prm

>  <Rbt.Receptor>
prm/pocket_docking_8.prm

>  <SCORE>
-18.3206

>  <SCORE.INTER>
-14.0889

>  <SCORE.INTER.CONST>
1

>  <SCORE.INTER.POLAR>
0

>  <SCORE.INTER.ROT>
7

>  <SCORE.INTER.SOLV>
11.7422

>  <SCORE.INTER.VDW>
-21.5733

>  <SCORE.INTER.norm>
-0.52181

>  <SCORE.INTRA>
-4.23176

>  <SCORE.INTRA.DIHEDRAL>
-4.80717

>  <SCORE.INTRA.DIHEDRAL.0>
11.2699

>  <SCORE.INTRA.POLAR>
0

>  <SCORE.INTRA.POLAR.0>
0

>  <SCORE.INTRA.REPUL>
0

>  <SCORE.INTRA.REPUL.0>
0

>  <SCORE.INTRA.SOLV>
-0.814286

>  <SCORE.INTRA.SOLV.lig_0>
-48.6447

>  <SCORE.INTRA.VDW>
-1.42103

>  <SCORE.INTRA.VDW.0>
-0.0211724

>  <SCORE.INTRA.norm>
-0.156732

>  <SCORE.RESTR>
0

>  <SCORE.RESTR.CAVITY>
0

>  <SCORE.RESTR.norm>
0

>  <SCORE.SYSTEM>
0

>  <SCORE.SYSTEM.CONST>
0

>  <SCORE.SYSTEM.DIHEDRAL>
0

>  <SCORE.SYSTEM.SOLV>
0

>  <SCORE.SYSTEM.norm>
0

>  <SCORE.heavy>
27

>  <SCORE.norm>
-0.678542

>  <RMSD>
4.606

$$$$
ligand
 OpenBabel11021811483D
libRbt.so/2013.1/901 2013/11/27
 27 29  0  0  0  0  0  0  0  0999 V2000
   46.6979   52.3461   27.4199 N   0  0  0  0  0  0  0  0  0  0  0  0
   47.9803   52.8137   26.9077 C   0  0  2  0  0  0  0  0  0  0  0  0
   48.0888   52.5502   25.4149 C   0  0  0  0  0  0  0  0  0  0  0  0
   49.1107   52.8525   24.8032 O   0  0  0  0  0  0  0  0  0  0  0  0
   49.1553   52.1747   27.6465 C   0  0  0  0  0  0  0  0  0  0  0  0
   49.1140   52.3221   29.1628 C   0  0  0  0  0  0  0  0  0  0  0  0
   48.9477   54.0311   29.7486 S   0  0  2  0  0  0  0  0  0  0  0  0
   50.5295   54.7369   29.2248 C   0  0  0  0  0  0  0  0  0  0  0  0
   49.2581   53.7989   31.5188 C   0  0  0  0  0  0  0  0  0  0  0  0
   48.9327   55.0813   32.2699 C   0  0  1  0  0  0  0  0  0  0  0  0
   47.5384   55.2689   32.2360 O   0  0  0  0  0  0  0  0  0  0  0  0
   49.2893   55.0563   33.7426 C   0  0  1  0  0  0  0  0  0  0  0  0
   50.5340   55.6767   33.9544 O   0  0  0  0  0  0  0  0  0  0  0  0
   48.1729   55.8525   34.3937 C   0  0  1  0  0  0  0  0  0  0  0  0
   48.6565   57.1268   34.7470 O   0  0  0  0  0  0  0  0  0  0  0  0
   47.0714   55.9866   33.3496 C   0  0  2  0  0  0  0  0  0  0  0  0
   47.1605   52.0273   24.7976 O   0  0  0  0  0  0  0  0  0  0  0  0
   41.8369   55.6043   32.9787 N   0  0  0  0  0  0  0  0  0  0  0  0
   42.6888   56.4161   32.2574 C   0  0  0  0  0  0  0  0  0  0  0  0
   44.0513   56.3849   32.4920 N   0  0  0  0  0  0  0  0  0  0  0  0
   44.5666   55.5662   33.4352 C   0  0  0  0  0  0  0  0  0  0  0  0
   43.7299   54.7366   34.1670 C   0  0  0  0  0  0  0  0  0  0  0  0
   42.3567   54.7617   33.9385 C   0  0  0  0  0  0  0  0  0  0  0  0
   41.5381   53.9779   34.6355 N   0  0  0  0  0  0  0  0  0  0  0  0
   44.5012   54.0261   35.0199 N   0  0  0  0  0  0  0  0  0  0  0  0
   45.7958   54.3757   34.8333 C   0  0  0  0  0  0  0  0  0  0  0  0
   45.8523   55.3312   33.8527 N   0  0  0  0  0  0  0  0  0  0  0  0
  2  1  1  1  0  0  0
  2  3  1  0  0  0  0
  2  5  1  0  0  0  0
  3  4  1  0  0  0  0
  3 17  1  0  0  0  0
  5  6  1  0  0  0  0
  7  6  1  6  0  0  0
  7  8  1  0  0  0  0
  7  9  1  0  0  0  0
 10  9  1  1  0  0  0
 10 11  1  0  0  0  0
 10 12  1  0  0  0  0
 11 16  1  0  0  0  0
 12 13  1  6  0  0  0
 12 14  1  0  0  0  0
 14 15  1  6  0  0  0
 14 16  1  0  0  0  0
 16 27  1  1  0  0  0
 18 19  2  0  0  0  0
 18 23  1  0  0  0  0
 19 20  1  0  0  0  0
 20 21  2  0  0  0  0
 21 22  1  0  0  0  0
 21 27  1  0  0  0  0
 22 23  2  0  0  0  0
 22 25  1  0  0  0  0
 23 24  1  0  0  0  0
 25 26  2  0  0  0  0
 26 27  1  0  0  0  0
M  END
>  <CHROM.1>
-178.65438118,-53.69698211,-54.25607554,-66.61020843,-170.21059511,69.31178312
-87.59263337,46.99006033,54.44585950,31.28766368,1.08541435,-0.07006644,-1.94402346

>  <Name>
ligand

>  <RI>
0

>  <Rbt.Current_Directory>
/home/itssahil/PROJECTS/Mol_Feturizer/New_Systems/rnas/3GX7

>  <Rbt.Executable>
rbdock ($Id: //depot/dev/client3/rdock/2013.1/src/exe/rbdock.cxx#4 $)

>  <Rbt.Library>
libRbt.so (2013.1, Build901 2013/11/27)

>  <Rbt.Parameter_File>
/export/apps/rDock/src/rDock_2013.1_src/data/scripts/dock_solv.prm

>  <Rbt.Receptor>
prm/pocket_docking_7.prm

>  <SCORE>
-14.9165

>  <SCORE.INTER>
-10.268

>  <SCORE.INTER.CONST>
1

>  <SCORE.INTER.POLAR>
0

>  <SCORE.INTER.ROT>
7

>  <SCORE.INTER.SOLV>
13.3275

>  <SCORE.INTER.VDW>
-19.5545

>  <SCORE.INTER.norm>
-0.380298

>  <SCORE.INTRA>
-4.64847

>  <SCORE.INTRA.DIHEDRAL>
-6.60817

>  <SCORE.INTRA.DIHEDRAL.0>
11.2699

>  <SCORE.INTRA.POLAR>
0

>  <SCORE.INTRA.POLAR.0>
0

>  <SCORE.INTRA.REPUL>
0

>  <SCORE.INTRA.REPUL.0>
0

>  <SCORE.INTRA.SOLV>
0.329632

>  <SCORE.INTRA.SOLV.lig_0>
-48.6447

>  <SCORE.INTRA.VDW>
-1.50921

>  <SCORE.INTRA.VDW.0>
-0.0211724

>  <SCORE.INTRA.norm>
-0.172166

>  <SCORE.RESTR>
0

>  <SCORE.RESTR.CAVITY>
0

>  <SCORE.RESTR.norm>
0

>  <SCORE.SYSTEM>
0

>  <SCORE.SYSTEM.CONST>
0

>  <SCORE.SYSTEM.DIHEDRAL>
0

>  <SCORE.SYSTEM.SOLV>
0

>  <SCORE.SYSTEM.norm>
0

>  <SCORE.heavy>
27

>  <SCORE.norm>
-0.552463

>  <RMSD>
4.627

$$$$
ligand
 OpenBabel11021811483D
libRbt.so/2013.1/901 2013/11/27
 27 29  0  0  0  0  0  0  0  0999 V2000
   46.9967   54.4666   30.4968 N   0  0  0  0  0  0  0  0  0  0  0  0
   48.3783   54.1115   30.1958 C   0  0  2  0  0  0  0  0  0  0  0  0
   49.2125   54.0824   31.4658 C   0  0  0  0  0  0  0  0  0  0  0  0
   50.1870   53.3389   31.5524 O   0  0  0  0  0  0  0  0  0  0  0  0
   49.0004   55.0617   29.1736 C   0  0  0  0  0  0  0  0  0  0  0  0
   49.0482   56.5228   29.6047 C   0  0  0  0  0  0  0  0  0  0  0  0
   47.4246   57.3207   29.7408 S   0  0  2  0  0  0  0  0  0  0  0  0
   46.9951   57.5418   27.9968 C   0  0  0  0  0  0  0  0  0  0  0  0
   47.9272   59.0069   30.1747 C   0  0  0  0  0  0  0  0  0  0  0  0
   48.1456   59.1073   31.6769 C   0  0  1  0  0  0  0  0  0  0  0  0
   46.9721   58.6742   32.3217 O   0  0  0  0  0  0  0  0  0  0  0  0
   49.2425   58.2109   32.2152 C   0  0  1  0  0  0  0  0  0  0  0  0
   50.4395   58.9359   32.3585 O   0  0  0  0  0  0  0  0  0  0  0  0
   48.7130   57.7723   33.5685 C   0  0  1  0  0  0  0  0  0  0  0  0
   49.3919   58.4747   34.5825 O   0  0  0  0  0  0  0  0  0  0  0  0
   47.2324   58.1310   33.5908 C   0  0  2  0  0  0  0  0  0  0  0  0
   48.9297   54.8038   32.4229 O   0  0  0  0  0  0  0  0  0  0  0  0
   42.5723   55.7986   32.8652 N   0  0  0  0  0  0  0  0  0  0  0  0
   42.9390   57.0926   32.5551 C   0  0  0  0  0  0  0  0  0  0  0  0
   44.2205   57.5396   32.8202 N   0  0  0  0  0  0  0  0  0  0  0  0
   45.1285   56.7195   33.3934 C   0  0  0  0  0  0  0  0  0  0  0  0
   44.7840   55.4130   33.7068 C   0  0  0  0  0  0  0  0  0  0  0  0
   43.4958   54.9543   33.4444 C   0  0  0  0  0  0  0  0  0  0  0  0
   43.1454   53.7063   33.7445 N   0  0  0  0  0  0  0  0  0  0  0  0
   45.8712   54.8218   34.2504 N   0  0  0  0  0  0  0  0  0  0  0  0
   46.8889   55.7144   34.2729 C   0  0  0  0  0  0  0  0  0  0  0  0
   46.4430   56.8973   33.7442 N   0  0  0  0  0  0  0  0  0  0  0  0
  2  1  1  1  0  0  0
  2  3  1  0  0  0  0
  2  5  1  0  0  0  0
  3  4  1  0  0  0  0
  3 17  1  0  0  0  0
  5  6  1  0  0  0  0
  7  6  1  6  0  0  0
  7  8  1  0  0  0  0
  7  9  1  0  0  0  0
 10  9  1  6  0  0  0
 10 11  1  0  0  0  0
 10 12  1  0  0  0  0
 11 16  1  0  0  0  0
 12 13  1  1  0  0  0
 12 14  1  0  0  0  0
 14 15  1  1  0  0  0
 14 16  1  0  0  0  0
 16 27  1  6  0  0  0
 18 19  2  0  0  0  0
 18 23  1  0  0  0  0
 19 20  1  0  0  0  0
 20 21  2  0  0  0  0
 21 22  1  0  0  0  0
 21 27  1  0  0  0  0
 22 23  2  0  0  0  0
 22 25  1  0  0  0  0
 23 24  1  0  0  0  0
 25 26  2  0  0  0  0
 26 27  1  0  0  0  0
M  END
>  <CHROM.1>
151.01128913,60.20993032,-67.56974420,-74.18163786,-84.68489974,-54.95588268
-43.94927879,47.13351462,56.51713848,32.00423856,0.00110242,-0.51882470,-2.66986185

>  <Name>
ligand

>  <RI>
0

>  <Rbt.Current_Directory>
/home/itssahil/PROJECTS/Mol_Feturizer/New_Systems/rnas/3GX7

>  <Rbt.Executable>
rbdock ($Id: //depot/dev/client3/rdock/2013.1/src/exe/rbdock.cxx#4 $)

>  <Rbt.Library>
libRbt.so (2013.1, Build901 2013/11/27)

>  <Rbt.Parameter_File>
/export/apps/rDock/src/rDock_2013.1_src/data/scripts/dock_solv.prm

>  <Rbt.Receptor>
prm/pocket_docking_6.prm

>  <SCORE>
-18.0609

>  <SCORE.INTER>
-11.6433

>  <SCORE.INTER.CONST>
1

>  <SCORE.INTER.POLAR>
0

>  <SCORE.INTER.ROT>
7

>  <SCORE.INTER.SOLV>
9.08113

>  <SCORE.INTER.VDW>
-19.0559

>  <SCORE.INTER.norm>
-0.431233

>  <SCORE.INTRA>
-6.418

>  <SCORE.INTRA.DIHEDRAL>
-6.96602

>  <SCORE.INTRA.DIHEDRAL.0>
11.2699

>  <SCORE.INTRA.POLAR>
0

>  <SCORE.INTRA.POLAR.0>
0

>  <SCORE.INTRA.REPUL>
0

>  <SCORE.INTRA.REPUL.0>
0

>  <SCORE.INTRA.SOLV>
1.81534

>  <SCORE.INTRA.SOLV.lig_0>
-48.6447

>  <SCORE.INTRA.VDW>
-3.84265

>  <SCORE.INTRA.VDW.0>
-0.0211724

>  <SCORE.INTRA.norm>
-0.237704

>  <SCORE.RESTR>
0.00042776

>  <SCORE.RESTR.CAVITY>
0.00042776

>  <SCORE.RESTR.norm>
1.5843e-05

>  <SCORE.SYSTEM>
0

>  <SCORE.SYSTEM.CONST>
0

>  <SCORE.SYSTEM.DIHEDRAL>
0

>  <SCORE.SYSTEM.SOLV>
0

>  <SCORE.SYSTEM.norm>
0

>  <SCORE.heavy>
27

>  <SCORE.norm>
-0.668921

>  <RMSD>
4.679

$$$$
ligand
 OpenBabel11021811483D
libRbt.so/2013.1/901 2013/11/27
 27 29  0  0  0  0  0  0  0  0999 V2000
   48.0627   54.4645   28.4176 N   0  0  0  0  0  0  0  0  0  0  0  0
   47.8701   54.8861   27.0353 C   0  0  2  0  0  0  0  0  0  0  0  0
   49.1789   55.3754   26.4375 C   0  0  0  0  0  0  0  0  0  0  0  0
   50.0990   55.7363   27.1675 O   0  0  0  0  0  0  0  0  0  0  0  0
   46.7948   55.9649   26.9139 C   0  0  0  0  0  0  0  0  0  0  0  0
   47.1475   57.2960   27.5668 C   0  0  0  0  0  0  0  0  0  0  0  0
   47.1383   57.2704   29.3808 S   0  0  2  0  0  0  0  0  0  0  0  0
   45.3631   57.3492   29.7237 C   0  0  0  0  0  0  0  0  0  0  0  0
   47.6200   58.9818   29.7318 C   0  0  0  0  0  0  0  0  0  0  0  0
   47.8535   59.1536   31.2253 C   0  0  1  0  0  0  0  0  0  0  0  0
   46.6188   59.0035   31.8835 O   0  0  0  0  0  0  0  0  0  0  0  0
   48.7583   58.1082   31.8457 C   0  0  1  0  0  0  0  0  0  0  0  0
   50.0721   58.5999   31.9516 O   0  0  0  0  0  0  0  0  0  0  0  0
   48.1546   57.8840   33.2203 C   0  0  1  0  0  0  0  0  0  0  0  0
   48.9555   58.5195   34.1884 O   0  0  0  0  0  0  0  0  0  0  0  0
   46.7702   58.5196   33.1936 C   0  0  2  0  0  0  0  0  0  0  0  0
   49.3397   55.4134   25.2172 O   0  0  0  0  0  0  0  0  0  0  0  0
   45.8016   53.7185   35.1159 N   0  0  0  0  0  0  0  0  0  0  0  0
   46.9999   54.4029   35.0869 C   0  0  0  0  0  0  0  0  0  0  0  0
   47.0696   55.6692   34.5356 N   0  0  0  0  0  0  0  0  0  0  0  0
   45.9687   56.2508   34.0108 C   0  0  0  0  0  0  0  0  0  0  0  0
   44.7525   55.5843   34.0357 C   0  0  0  0  0  0  0  0  0  0  0  0
   44.6728   54.3086   34.5879 C   0  0  0  0  0  0  0  0  0  0  0  0
   43.5161   53.6516   34.6144 N   0  0  0  0  0  0  0  0  0  0  0  0
   43.8315   56.3912   33.4633 N   0  0  0  0  0  0  0  0  0  0  0  0
   44.4317   57.5474   33.0947 C   0  0  0  0  0  0  0  0  0  0  0  0
   45.7590   57.4750   33.4279 N   0  0  0  0  0  0  0  0  0  0  0  0
  2  1  1  1  0  0  0
  2  3  1  0  0  0  0
  2  5  1  0  0  0  0
  3  4  1  0  0  0  0
  3 17  1  0  0  0  0
  5  6  1  0  0  0  0
  7  6  1  6  0  0  0
  7  8  1  0  0  0  0
  7  9  1  0  0  0  0
 10  9  1  6  0  0  0
 10 11  1  0  0  0  0
 10 12  1  0  0  0  0
 11 16  1  0  0  0  0
 12 13  1  1  0  0  0
 12 14  1  0  0  0  0
 14 15  1  1  0  0  0
 14 16  1  0  0  0  0
 16 27  1  6  0  0  0
 18 19  2  0  0  0  0
 18 23  1  0  0  0  0
 19 20  1  0  0  0  0
 20 21  2  0  0  0  0
 21 22  1  0  0  0  0
 21 27  1  0  0  0  0
 22 23  2  0  0  0  0
 22 25  1  0  0  0  0
 23 24  1  0  0  0  0
 25 26  2  0  0  0  0
 26 27  1  0  0  0  0
M  END
>  <CHROM.1>
-20.66155461,66.16164378,-71.65642588,-77.82557519,-172.78809552,-67.03267461
134.13652667,47.05877204,56.64801632,31.19792187,0.92134518,-0.91459876,-2.07369456

>  <Name>
ligand

>  <RI>
0

>  <Rbt.Current_Directory>
/home/itssahil/PROJECTS/Mol_Feturizer/New_Systems/rnas/3GX7

>  <Rbt.Executable>
rbdock ($Id: //depot/dev/client3/rdock/2013.1/src/exe/rbdock.cxx#4 $)

>  <Rbt.Library>
libRbt.so (2013.1, Build901 2013/11/27)

>  <Rbt.Parameter_File>
/export/apps/rDock/src/rDock_2013.1_src/data/scripts/dock_solv.prm

>  <Rbt.Receptor>
prm/pocket_docking_6.prm

>  <SCORE>
-15.6362

>  <SCORE.INTER>
-11.0024

>  <SCORE.INTER.CONST>
1

>  <SCORE.INTER.POLAR>
0

>  <SCORE.INTER.ROT>
7

>  <SCORE.INTER.SOLV>
8.65687

>  <SCORE.INTER.VDW>
-18.4872

>  <SCORE.INTER.norm>
-0.407497

>  <SCORE.INTRA>
-4.63373

>  <SCORE.INTRA.DIHEDRAL>
-6.36368

>  <SCORE.INTRA.DIHEDRAL.0>
11.2699

>  <SCORE.INTRA.POLAR>
0

>  <SCORE.INTRA.POLAR.0>
0

>  <SCORE.INTRA.REPUL>
0

>  <SCORE.INTRA.REPUL.0>
0

>  <SCORE.INTRA.SOLV>
1.41684

>  <SCORE.INTRA.SOLV.lig_0>
-48.6447

>  <SCORE.INTRA.VDW>
-2.16031

>  <SCORE.INTRA.VDW.0>
-0.0211724

>  <SCORE.INTRA.norm>
-0.17162

>  <SCORE.RESTR>
0

>  <SCORE.RESTR.CAVITY>
0

>  <SCORE.RESTR.norm>
0

>  <SCORE.SYSTEM>
0

>  <SCORE.SYSTEM.CONST>
0

>  <SCORE.SYSTEM.DIHEDRAL>
0

>  <SCORE.SYSTEM.SOLV>
0

>  <SCORE.SYSTEM.norm>
0

>  <SCORE.heavy>
27

>  <SCORE.norm>
-0.579117

>  <RMSD>
4.683

$$$$
ligand
 OpenBabel11021811483D
libRbt.so/2013.1/901 2013/11/27
 27 29  0  0  0  0  0  0  0  0999 V2000
   47.3343   54.9918   27.5733 N   0  0  0  0  0  0  0  0  0  0  0  0
   45.9823   54.7609   28.0675 C   0  0  2  0  0  0  0  0  0  0  0  0
   45.4899   55.9604   28.8602 C   0  0  0  0  0  0  0  0  0  0  0  0
   46.2892   56.6985   29.4313 O   0  0  0  0  0  0  0  0  0  0  0  0
   45.8949   53.4923   28.9148 C   0  0  0  0  0  0  0  0  0  0  0  0
   46.6781   53.5404   30.2212 C   0  0  0  0  0  0  0  0  0  0  0  0
   48.4723   53.7153   30.0170 S   0  0  2  0  0  0  0  0  0  0  0  0
   48.9258   52.0535   29.4623 C   0  0  0  0  0  0  0  0  0  0  0  0
   49.0044   53.6438   31.7478 C   0  0  0  0  0  0  0  0  0  0  0  0
   48.7702   54.9917   32.4133 C   0  0  1  0  0  0  0  0  0  0  0  0
   47.3830   55.2236   32.4606 O   0  0  0  0  0  0  0  0  0  0  0  0
   49.2305   55.0706   33.8550 C   0  0  1  0  0  0  0  0  0  0  0  0
   50.5043   55.6628   33.9294 O   0  0  0  0  0  0  0  0  0  0  0  0
   48.1867   55.9533   34.5150 C   0  0  1  0  0  0  0  0  0  0  0  0
   48.7305   57.2342   34.7297 O   0  0  0  0  0  0  0  0  0  0  0  0
   47.0176   56.0423   33.5421 C   0  0  2  0  0  0  0  0  0  0  0  0
   44.2874   56.2140   28.9388 O   0  0  0  0  0  0  0  0  0  0  0  0
   45.1279   52.3952   36.8303 N   0  0  0  0  0  0  0  0  0  0  0  0
   46.4398   52.6216   36.4661 C   0  0  0  0  0  0  0  0  0  0  0  0
   46.7553   53.6346   35.5792 N   0  0  0  0  0  0  0  0  0  0  0  0
   45.7841   54.4113   35.0509 C   0  0  0  0  0  0  0  0  0  0  0  0
   44.4597   54.2063   35.4083 C   0  0  0  0  0  0  0  0  0  0  0  0
   44.1323   53.1882   36.2998 C   0  0  0  0  0  0  0  0  0  0  0  0
   42.8666   52.9726   36.6490 N   0  0  0  0  0  0  0  0  0  0  0  0
   43.7117   55.1196   34.7499 N   0  0  0  0  0  0  0  0  0  0  0  0
   44.5296   55.8984   34.0033 C   0  0  0  0  0  0  0  0  0  0  0  0
   45.8194   55.4706   34.1796 N   0  0  0  0  0  0  0  0  0  0  0  0
  2  1  1  1  0  0  0
  2  3  1  0  0  0  0
  2  5  1  0  0  0  0
  3  4  1  0  0  0  0
  3 17  1  0  0  0  0
  5  6  1  0  0  0  0
  7  6  1  1  0  0  0
  7  8  1  0  0  0  0
  7  9  1  0  0  0  0
 10  9  1  1  0  0  0
 10 11  1  0  0  0  0
 10 12  1  0  0  0  0
 11 16  1  0  0  0  0
 12 13  1  6  0  0  0
 12 14  1  0  0  0  0
 14 15  1  6  0  0  0
 14 16  1  0  0  0  0
 16 27  1  1  0  0  0
 18 19  2  0  0  0  0
 18 23  1  0  0  0  0
 19 20  1  0  0  0  0
 20 21  2  0  0  0  0
 21 22  1  0  0  0  0
 21 27  1  0  0  0  0
 22 23  2  0  0  0  0
 22 25  1  0  0  0  0
 23 24  1  0  0  0  0
 25 26  2  0  0  0  0
 26 27  1  0  0  0  0
M  END
>  <CHROM.1>
-27.04908919,65.64224573,-63.14101601,-74.18244467,-79.01242939,65.60599798
79.08928404,46.72929446,54.62501093,32.53453691,1.32228110,-0.08952081,-1.50411861

>  <Name>
ligand

>  <RI>
0

>  <Rbt.Current_Directory>
/home/itssahil/PROJECTS/Mol_Feturizer/New_Systems/rnas/3GX7

>  <Rbt.Executable>
rbdock ($Id: //depot/dev/client3/rdock/2013.1/src/exe/rbdock.cxx#4 $)

>  <Rbt.Library>
libRbt.so (2013.1, Build901 2013/11/27)

>  <Rbt.Parameter_File>
/export/apps/rDock/src/rDock_2013.1_src/data/scripts/dock_solv.prm

>  <Rbt.Receptor>
prm/pocket_docking_7.prm

>  <SCORE>
-17.636

>  <SCORE.INTER>
-11.9009

>  <SCORE.INTER.CONST>
1

>  <SCORE.INTER.POLAR>
0

>  <SCORE.INTER.ROT>
7

>  <SCORE.INTER.SOLV>
9.43717

>  <SCORE.INTER.VDW>
-19.3463

>  <SCORE.INTER.norm>
-0.440773

>  <SCORE.INTRA>
-5.73516

>  <SCORE.INTRA.DIHEDRAL>
-7.40845

>  <SCORE.INTRA.DIHEDRAL.0>
11.2699

>  <SCORE.INTRA.POLAR>
0

>  <SCORE.INTRA.POLAR.0>
0

>  <SCORE.INTRA.REPUL>
0

>  <SCORE.INTRA.REPUL.0>
0

>  <SCORE.INTRA.SOLV>
1.5787

>  <SCORE.INTRA.SOLV.lig_0>
-48.6447

>  <SCORE.INTRA.VDW>
-2.82028

>  <SCORE.INTRA.VDW.0>
-0.0211724

>  <SCORE.INTRA.norm>
-0.212413

>  <SCORE.RESTR>
0

>  <SCORE.RESTR.CAVITY>
0

>  <SCORE.RESTR.norm>
0

>  <SCORE.SYSTEM>
0

>  <SCORE.SYSTEM.CONST>
0

>  <SCORE.SYSTEM.DIHEDRAL>
0

>  <SCORE.SYSTEM.SOLV>
0

>  <SCORE.SYSTEM.norm>
0

>  <SCORE.heavy>
27

>  <SCORE.norm>
-0.653186

>  <RMSD>
4.724

$$$$
ligand
 OpenBabel11021811483D
libRbt.so/2013.1/901 2013/11/27
 27 29  0  0  0  0  0  0  0  0999 V2000
   46.5448   53.8166   29.8878 N   0  0  0  0  0  0  0  0  0  0  0  0
   46.4844   54.4494   28.5758 C   0  0  2  0  0  0  0  0  0  0  0  0
   46.1014   53.4362   27.5098 C   0  0  0  0  0  0  0  0  0  0  0  0
   45.6685   53.8114   26.4227 O   0  0  0  0  0  0  0  0  0  0  0  0
   47.8026   55.1309   28.2114 C   0  0  0  0  0  0  0  0  0  0  0  0
   48.2046   56.2788   29.1298 C   0  0  0  0  0  0  0  0  0  0  0  0
   47.0063   57.6390   29.2029 S   0  0  2  0  0  0  0  0  0  0  0  0
   47.1140   58.2922   27.5187 C   0  0  0  0  0  0  0  0  0  0  0  0
   47.9765   58.8780   30.1016 C   0  0  0  0  0  0  0  0  0  0  0  0
   47.8311   58.6565   31.5998 C   0  0  1  0  0  0  0  0  0  0  0  0
   46.4770   58.8313   31.9407 O   0  0  0  0  0  0  0  0  0  0  0  0
   48.1752   57.2561   32.0656 C   0  0  1  0  0  0  0  0  0  0  0  0
   49.4938   57.2139   32.5541 O   0  0  0  0  0  0  0  0  0  0  0  0
   47.1790   56.9962   33.1810 C   0  0  1  0  0  0  0  0  0  0  0  0
   47.8350   57.0985   34.4227 O   0  0  0  0  0  0  0  0  0  0  0  0
   46.1110   58.0769   33.0678 C   0  0  2  0  0  0  0  0  0  0  0  0
   46.2228   52.2281   27.7151 O   0  0  0  0  0  0  0  0  0  0  0  0
   42.7744   54.2291   34.3887 N   0  0  0  0  0  0  0  0  0  0  0  0
   44.0107   54.5137   34.9324 C   0  0  0  0  0  0  0  0  0  0  0  0
   44.7581   55.5746   34.4546 N   0  0  0  0  0  0  0  0  0  0  0  0
   44.2929   56.3418   33.4444 C   0  0  0  0  0  0  0  0  0  0  0  0
   43.0501   56.0784   32.8879 C   0  0  0  0  0  0  0  0  0  0  0  0
   42.2907   55.0118   33.3618 C   0  0  0  0  0  0  0  0  0  0  0  0
   41.0993   54.7401   32.8355 N   0  0  0  0  0  0  0  0  0  0  0  0
   42.8327   56.9951   31.9185 N   0  0  0  0  0  0  0  0  0  0  0  0
   43.8952   57.8321   31.8621 C   0  0  0  0  0  0  0  0  0  0  0  0
   44.8103   57.4391   32.8033 N   0  0  0  0  0  0  0  0  0  0  0  0
  2  1  1  1  0  0  0
  2  3  1  0  0  0  0
  2  5  1  0  0  0  0
  3  4  1  0  0  0  0
  3 17  1  0  0  0  0
  5  6  1  0  0  0  0
  7  6  1  6  0  0  0
  7  8  1  0  0  0  0
  7  9  1  0  0  0  0
 10  9  1  6  0  0  0
 10 11  1  0  0  0  0
 10 12  1  0  0  0  0
 11 16  1  0  0  0  0
 12 13  1  1  0  0  0
 12 14  1  0  0  0  0
 14 15  1  1  0  0  0
 14 16  1  0  0  0  0
 16 27  1  6  0  0  0
 18 19  2  0  0  0  0
 18 23  1  0  0  0  0
 19 20  1  0  0  0  0
 20 21  2  0  0  0  0
 21 22  1  0  0  0  0
 21 27  1  0  0  0  0
 22 23  2  0  0  0  0
 22 25  1  0  0  0  0
 23 24  1  0  0  0  0
 25 26  2  0  0  0  0
 26 27  1  0  0  0  0
M  END
>  <CHROM.1>
161.37588421,-62.98245518,-59.50364944,-66.65604950,-85.86042073,-62.30822438
159.40378577,45.91366329,56.25213703,31.17057992,0.86318380,-0.65160012,-2.11556499

>  <Name>
ligand

>  <RI>
0

>  <Rbt.Current_Directory>
/home/itssahil/PROJECTS/Mol_Feturizer/New_Systems/rnas/3GX7

>  <Rbt.Executable>
rbdock ($Id: //depot/dev/client3/rdock/2013.1/src/exe/rbdock.cxx#4 $)

>  <Rbt.Library>
libRbt.so (2013.1, Build901 2013/11/27)

>  <Rbt.Parameter_File>
/export/apps/rDock/src/rDock_2013.1_src/data/scripts/dock_solv.prm

>  <Rbt.Receptor>
prm/pocket_docking_7.prm

>  <SCORE>
-14.6457

>  <SCORE.INTER>
-8.89618

>  <SCORE.INTER.CONST>
1

>  <SCORE.INTER.POLAR>
0

>  <SCORE.INTER.ROT>
7

>  <SCORE.INTER.SOLV>
8.41149

>  <SCORE.INTER.VDW>
-17.0013

>  <SCORE.INTER.norm>
-0.329488

>  <SCORE.INTRA>
-5.7495

>  <SCORE.INTRA.DIHEDRAL>
-7.17911

>  <SCORE.INTRA.DIHEDRAL.0>
11.2699

>  <SCORE.INTRA.POLAR>
0

>  <SCORE.INTRA.POLAR.0>
0

>  <SCORE.INTRA.REPUL>
0

>  <SCORE.INTRA.REPUL.0>
0

>  <SCORE.INTRA.SOLV>
0.630779

>  <SCORE.INTRA.SOLV.lig_0>
-48.6447

>  <SCORE.INTRA.VDW>
-2.47534

>  <SCORE.INTRA.VDW.0>
-0.0211724

>  <SCORE.INTRA.norm>
-0.212945

>  <SCORE.RESTR>
0

>  <SCORE.RESTR.CAVITY>
0

>  <SCORE.RESTR.norm>
0

>  <SCORE.SYSTEM>
0

>  <SCORE.SYSTEM.CONST>
0

>  <SCORE.SYSTEM.DIHEDRAL>
0

>  <SCORE.SYSTEM.SOLV>
0

>  <SCORE.SYSTEM.norm>
0

>  <SCORE.heavy>
27

>  <SCORE.norm>
-0.542433

>  <RMSD>
4.731

$$$$
ligand
 OpenBabel11021811483D
libRbt.so/2013.1/901 2013/11/27
 27 29  0  0  0  0  0  0  0  0999 V2000
   46.5010   52.5537   28.4855 N   0  0  0  0  0  0  0  0  0  0  0  0
   46.2234   53.6135   27.5237 C   0  0  2  0  0  0  0  0  0  0  0  0
   46.0257   53.0354   26.1322 C   0  0  0  0  0  0  0  0  0  0  0  0
   46.9490   52.4594   25.5616 O   0  0  0  0  0  0  0  0  0  0  0  0
   47.3264   54.6708   27.5077 C   0  0  0  0  0  0  0  0  0  0  0  0
   47.6701   55.2576   28.8716 C   0  0  0  0  0  0  0  0  0  0  0  0
   49.0861   56.3917   28.8678 S   0  0  2  0  0  0  0  0  0  0  0  0
   50.4161   55.2904   28.3263 C   0  0  0  0  0  0  0  0  0  0  0  0
   49.4336   56.4827   30.6440 C   0  0  0  0  0  0  0  0  0  0  0  0
   48.7706   57.7181   31.2346 C   0  0  1  0  0  0  0  0  0  0  0  0
   47.3889   57.4707   31.3337 O   0  0  0  0  0  0  0  0  0  0  0  0
   49.2107   58.0556   32.6449 C   0  0  1  0  0  0  0  0  0  0  0  0
   50.2084   59.0471   32.6212 O   0  0  0  0  0  0  0  0  0  0  0  0
   47.9449   58.5807   33.2977 C   0  0  1  0  0  0  0  0  0  0  0  0
   48.0253   59.9823   33.4058 O   0  0  0  0  0  0  0  0  0  0  0  0
   46.7925   58.1963   32.3782 C   0  0  2  0  0  0  0  0  0  0  0  0
   44.9404   53.1301   25.5581 O   0  0  0  0  0  0  0  0  0  0  0  0
   46.1673   53.5164   34.7002 N   0  0  0  0  0  0  0  0  0  0  0  0
   47.2907   54.0180   34.0746 C   0  0  0  0  0  0  0  0  0  0  0  0
   47.2738   55.2814   33.5126 N   0  0  0  0  0  0  0  0  0  0  0  0
   46.1560   56.0389   33.5607 C   0  0  0  0  0  0  0  0  0  0  0  0
   45.0177   55.5579   34.1906 C   0  0  0  0  0  0  0  0  0  0  0  0
   45.0250   54.2866   34.7585 C   0  0  0  0  0  0  0  0  0  0  0  0
   43.9404   53.8060   35.3609 N   0  0  0  0  0  0  0  0  0  0  0  0
   44.0659   56.5136   34.1025 N   0  0  0  0  0  0  0  0  0  0  0  0
   44.5791   57.5828   33.4496 C   0  0  0  0  0  0  0  0  0  0  0  0
   45.8759   57.3030   33.1067 N   0  0  0  0  0  0  0  0  0  0  0  0
  2  1  1  1  0  0  0
  2  3  1  0  0  0  0
  2  5  1  0  0  0  0
  3  4  1  0  0  0  0
  3 17  1  0  0  0  0
  5  6  1  0  0  0  0
  7  6  1  1  0  0  0
  7  8  1  0  0  0  0
  7  9  1  0  0  0  0
 10  9  1  1  0  0  0
 10 11  1  0  0  0  0
 10 12  1  0  0  0  0
 11 16  1  0  0  0  0
 12 13  1  6  0  0  0
 12 14  1  0  0  0  0
 14 15  1  6  0  0  0
 14 16  1  0  0  0  0
 16 27  1  1  0  0  0
 18 19  2  0  0  0  0
 18 23  1  0  0  0  0
 19 20  1  0  0  0  0
 20 21  2  0  0  0  0
 21 22  1  0  0  0  0
 21 27  1  0  0  0  0
 22 23  2  0  0  0  0
 22 25  1  0  0  0  0
 23 24  1  0  0  0  0
 25 26  2  0  0  0  0
 26 27  1  0  0  0  0
M  END
>  <CHROM.1>
-63.85283582,-52.75296770,174.37976543,-62.16552892,-96.58919012,74.85599340
48.31824590,47.12397939,55.81825685,31.09815744,1.48502576,-0.76294631,-2.05509361

>  <Name>
ligand

>  <RI>
0

>  <Rbt.Current_Directory>
/home/itssahil/PROJECTS/Mol_Feturizer/New_Systems/rnas/3GX7

>  <Rbt.Executable>
rbdock ($Id: //depot/dev/client3/rdock/2013.1/src/exe/rbdock.cxx#4 $)

>  <Rbt.Library>
libRbt.so (2013.1, Build901 2013/11/27)

>  <Rbt.Parameter_File>
/export/apps/rDock/src/rDock_2013.1_src/data/scripts/dock_solv.prm

>  <Rbt.Receptor>
prm/pocket_docking_7.prm

>  <SCORE>
-15.8885

>  <SCORE.INTER>
-10.41

>  <SCORE.INTER.CONST>
1

>  <SCORE.INTER.POLAR>
0

>  <SCORE.INTER.ROT>
7

>  <SCORE.INTER.SOLV>
13.6354

>  <SCORE.INTER.VDW>
-19.7518

>  <SCORE.INTER.norm>
-0.385557

>  <SCORE.INTRA>
-5.47842

>  <SCORE.INTRA.DIHEDRAL>
-4.91978

>  <SCORE.INTRA.DIHEDRAL.0>
11.2699

>  <SCORE.INTRA.POLAR>
0

>  <SCORE.INTRA.POLAR.0>
0

>  <SCORE.INTRA.REPUL>
0

>  <SCORE.INTRA.REPUL.0>
0

>  <SCORE.INTRA.SOLV>
-0.340212

>  <SCORE.INTRA.SOLV.lig_0>
-48.6447

>  <SCORE.INTRA.VDW>
-2.84843

>  <SCORE.INTRA.VDW.0>
-0.0211724

>  <SCORE.INTRA.norm>
-0.202905

>  <SCORE.RESTR>
0

>  <SCORE.RESTR.CAVITY>
0

>  <SCORE.RESTR.norm>
0

>  <SCORE.SYSTEM>
0

>  <SCORE.SYSTEM.CONST>
0

>  <SCORE.SYSTEM.DIHEDRAL>
0

>  <SCORE.SYSTEM.SOLV>
0

>  <SCORE.SYSTEM.norm>
0

>  <SCORE.heavy>
27

>  <SCORE.norm>
-0.588462

>  <RMSD>
4.743

$$$$
ligand
 OpenBabel11021811483D
libRbt.so/2013.1/901 2013/11/27
 27 29  0  0  0  0  0  0  0  0999 V2000
   48.0985   52.7070   31.6336 N   0  0  0  0  0  0  0  0  0  0  0  0
   48.9515   52.8086   30.4557 C   0  0  2  0  0  0  0  0  0  0  0  0
   49.8239   54.0507   30.5319 C   0  0  0  0  0  0  0  0  0  0  0  0
   50.5773   54.3388   29.6049 O   0  0  0  0  0  0  0  0  0  0  0  0
   48.1380   52.8096   29.1623 C   0  0  0  0  0  0  0  0  0  0  0  0
   47.3044   54.0645   28.9318 C   0  0  0  0  0  0  0  0  0  0  0  0
   46.1631   54.4684   30.2831 S   0  0  2  0  0  0  0  0  0  0  0  0
   44.9064   53.1827   30.0769 C   0  0  0  0  0  0  0  0  0  0  0  0
   45.3017   55.8921   29.5655 C   0  0  0  0  0  0  0  0  0  0  0  0
   46.1393   57.1480   29.7545 C   0  0  1  0  0  0  0  0  0  0  0  0
   46.1463   57.4697   31.1245 O   0  0  0  0  0  0  0  0  0  0  0  0
   47.5996   56.9933   29.3805 C   0  0  1  0  0  0  0  0  0  0  0  0
   47.8244   57.4769   28.0787 O   0  0  0  0  0  0  0  0  0  0  0  0
   48.3230   57.8483   30.4051 C   0  0  1  0  0  0  0  0  0  0  0  0
   48.7463   59.0449   29.7956 O   0  0  0  0  0  0  0  0  0  0  0  0
   47.3128   58.1546   31.5037 C   0  0  2  0  0  0  0  0  0  0  0  0
   49.7865   54.7882   31.5173 O   0  0  0  0  0  0  0  0  0  0  0  0
   47.1121   54.0936   34.8432 N   0  0  0  0  0  0  0  0  0  0  0  0
   46.4401   54.2528   33.6482 C   0  0  0  0  0  0  0  0  0  0  0  0
   46.6151   55.3985   32.8938 N   0  0  0  0  0  0  0  0  0  0  0  0
   47.4392   56.3810   33.3192 C   0  0  0  0  0  0  0  0  0  0  0  0
   48.1301   56.2392   34.5136 C   0  0  0  0  0  0  0  0  0  0  0  0
   47.9596   55.0896   35.2804 C   0  0  0  0  0  0  0  0  0  0  0  0
   48.6089   54.9393   36.4319 N   0  0  0  0  0  0  0  0  0  0  0  0
   48.8807   57.3500   34.6869 N   0  0  0  0  0  0  0  0  0  0  0  0
   48.6911   58.1750   33.6305 C   0  0  0  0  0  0  0  0  0  0  0  0
   47.7985   57.5872   32.7729 N   0  0  0  0  0  0  0  0  0  0  0  0
  2  1  1  1  0  0  0
  2  3  1  0  0  0  0
  2  5  1  0  0  0  0
  3  4  1  0  0  0  0
  3 17  1  0  0  0  0
  5  6  1  0  0  0  0
  7  6  1  6  0  0  0
  7  8  1  0  0  0  0
  7  9  1  0  0  0  0
 10  9  1  1  0  0  0
 10 11  1  0  0  0  0
 10 12  1  0  0  0  0
 11 16  1  0  0  0  0
 12 13  1  6  0  0  0
 12 14  1  0  0  0  0
 14 15  1  6  0  0  0
 14 16  1  0  0  0  0
 16 27  1  1  0  0  0
 18 19  2  0  0  0  0
 18 23  1  0  0  0  0
 19 20  1  0  0  0  0
 20 21  2  0  0  0  0
 21 22  1  0  0  0  0
 21 27  1  0  0  0  0
 22 23  2  0  0  0  0
 22 25  1  0  0  0  0
 23 24  1  0  0  0  0
 25 26  2  0  0  0  0
 26 27  1  0  0  0  0
M  END
>  <CHROM.1>
-177.21953343,69.36423479,-55.35518513,-72.50861596,-81.90302883,-69.45544515
16.95989201,47.66655657,55.60738272,31.47552102,2.95232229,-1.44129646,-0.28963667

>  <Name>
ligand

>  <RI>
0

>  <Rbt.Current_Directory>
/home/itssahil/PROJECTS/Mol_Feturizer/New_Systems/rnas/3GX7

>  <Rbt.Executable>
rbdock ($Id: //depot/dev/client3/rdock/2013.1/src/exe/rbdock.cxx#4 $)

>  <Rbt.Library>
libRbt.so (2013.1, Build901 2013/11/27)

>  <Rbt.Parameter_File>
/export/apps/rDock/src/rDock_2013.1_src/data/scripts/dock_solv.prm

>  <Rbt.Receptor>
prm/pocket_docking_3.prm

>  <SCORE>
-10.3464

>  <SCORE.INTER>
-4.42141

>  <SCORE.INTER.CONST>
1

>  <SCORE.INTER.POLAR>
0

>  <SCORE.INTER.ROT>
7

>  <SCORE.INTER.SOLV>
18.0802

>  <SCORE.INTER.VDW>
-17.241

>  <SCORE.INTER.norm>
-0.163756

>  <SCORE.INTRA>
-5.95261

>  <SCORE.INTRA.DIHEDRAL>
-6.80918

>  <SCORE.INTRA.DIHEDRAL.0>
11.2699

>  <SCORE.INTRA.POLAR>
0

>  <SCORE.INTRA.POLAR.0>
0

>  <SCORE.INTRA.REPUL>
0

>  <SCORE.INTRA.REPUL.0>
0

>  <SCORE.INTRA.SOLV>
3.10557

>  <SCORE.INTRA.SOLV.lig_0>
-48.6447

>  <SCORE.INTRA.VDW>
-4.1008

>  <SCORE.INTRA.VDW.0>
-0.0211724

>  <SCORE.INTRA.norm>
-0.220467

>  <SCORE.RESTR>
0.0276148

>  <SCORE.RESTR.CAVITY>
0.0276148

>  <SCORE.RESTR.norm>
0.00102277

>  <SCORE.SYSTEM>
0

>  <SCORE.SYSTEM.CONST>
0

>  <SCORE.SYSTEM.DIHEDRAL>
0

>  <SCORE.SYSTEM.SOLV>
0

>  <SCORE.SYSTEM.norm>
0

>  <SCORE.heavy>
27

>  <SCORE.norm>
-0.3832

>  <RMSD>
4.765

$$$$
ligand
 OpenBabel11021811483D
libRbt.so/2013.1/901 2013/11/27
 27 29  0  0  0  0  0  0  0  0999 V2000
   48.3931   52.6569   27.7388 N   0  0  0  0  0  0  0  0  0  0  0  0
   48.9161   53.4700   28.8300 C   0  0  2  0  0  0  0  0  0  0  0  0
   48.8432   52.7121   30.1452 C   0  0  0  0  0  0  0  0  0  0  0  0
   48.1743   51.6851   30.2343 O   0  0  0  0  0  0  0  0  0  0  0  0
   48.1837   54.8061   28.9458 C   0  0  0  0  0  0  0  0  0  0  0  0
   48.8629   55.8321   29.8450 C   0  0  0  0  0  0  0  0  0  0  0  0
   47.8741   57.3176   30.1723 S   0  0  2  0  0  0  0  0  0  0  0  0
   48.1424   58.2599   28.6507 C   0  0  0  0  0  0  0  0  0  0  0  0
   48.9784   58.1989   31.3070 C   0  0  0  0  0  0  0  0  0  0  0  0
   48.7179   57.7430   32.7350 C   0  0  1  0  0  0  0  0  0  0  0  0
   47.3851   58.0563   33.0603 O   0  0  0  0  0  0  0  0  0  0  0  0
   48.8327   56.2472   32.9493 C   0  0  1  0  0  0  0  0  0  0  0  0
   50.1020   55.9232   33.4622 O   0  0  0  0  0  0  0  0  0  0  0  0
   47.7477   55.9483   33.9680 C   0  0  1  0  0  0  0  0  0  0  0  0
   48.3398   55.7324   35.2271 O   0  0  0  0  0  0  0  0  0  0  0  0
   46.8521   57.1798   34.0200 C   0  0  2  0  0  0  0  0  0  0  0  0
   49.4543   53.1101   31.1374 O   0  0  0  0  0  0  0  0  0  0  0  0
   42.9327   53.7052   34.5196 N   0  0  0  0  0  0  0  0  0  0  0  0
   44.1637   53.7021   35.1438 C   0  0  0  0  0  0  0  0  0  0  0  0
   45.0803   54.7057   34.8890 N   0  0  0  0  0  0  0  0  0  0  0  0
   44.7875   55.6982   34.0202 C   0  0  0  0  0  0  0  0  0  0  0  0
   43.5537   55.7252   33.3870 C   0  0  0  0  0  0  0  0  0  0  0  0
   42.6247   54.7185   33.6366 C   0  0  0  0  0  0  0  0  0  0  0  0
   41.4389   54.7244   33.0333 N   0  0  0  0  0  0  0  0  0  0  0  0
   43.5246   56.8188   32.5931 N   0  0  0  0  0  0  0  0  0  0  0  0
   44.6967   57.4839   32.7219 C   0  0  0  0  0  0  0  0  0  0  0  0
   45.4912   56.8001   33.6044 N   0  0  0  0  0  0  0  0  0  0  0  0
  2  1  1  6  0  0  0
  2  3  1  0  0  0  0
  2  5  1  0  0  0  0
  3  4  1  0  0  0  0
  3 17  1  0  0  0  0
  5  6  1  0  0  0  0
  7  6  1  6  0  0  0
  7  8  1  0  0  0  0
  7  9  1  0  0  0  0
 10  9  1  6  0  0  0
 10 11  1  0  0  0  0
 10 12  1  0  0  0  0
 11 16  1  0  0  0  0
 12 13  1  1  0  0  0
 12 14  1  0  0  0  0
 14 15  1  1  0  0  0
 14 16  1  0  0  0  0
 16 27  1  6  0  0  0
 18 19  2  0  0  0  0
 18 23  1  0  0  0  0
 19 20  1  0  0  0  0
 20 21  2  0  0  0  0
 21 22  1  0  0  0  0
 21 27  1  0  0  0  0
 22 23  2  0  0  0  0
 22 25  1  0  0  0  0
 23 24  1  0  0  0  0
 25 26  2  0  0  0  0
 26 27  1  0  0  0  0
M  END
>  <CHROM.1>
-13.42501232,-166.97544282,-171.45970350,-79.68434048,-87.32746649,-61.28373572
159.44835704,46.89185375,55.60001861,32.09434480,0.39223335,-0.59135915,-2.58456885

>  <Name>
ligand

>  <RI>
0

>  <Rbt.Current_Directory>
/home/itssahil/PROJECTS/Mol_Feturizer/New_Systems/rnas/3GX7

>  <Rbt.Executable>
rbdock ($Id: //depot/dev/client3/rdock/2013.1/src/exe/rbdock.cxx#4 $)

>  <Rbt.Library>
libRbt.so (2013.1, Build901 2013/11/27)

>  <Rbt.Parameter_File>
/export/apps/rDock/src/rDock_2013.1_src/data/scripts/dock_solv.prm

>  <Rbt.Receptor>
prm/pocket_docking_6.prm

>  <SCORE>
-17.1288

>  <SCORE.INTER>
-11.2503

>  <SCORE.INTER.CONST>
1

>  <SCORE.INTER.POLAR>
0

>  <SCORE.INTER.ROT>
7

>  <SCORE.INTER.SOLV>
10.0618

>  <SCORE.INTER.VDW>
-19.1208

>  <SCORE.INTER.norm>
-0.416676

>  <SCORE.INTRA>
-5.8785

>  <SCORE.INTRA.DIHEDRAL>
-5.82869

>  <SCORE.INTRA.DIHEDRAL.0>
11.2699

>  <SCORE.INTRA.POLAR>
0

>  <SCORE.INTRA.POLAR.0>
0

>  <SCORE.INTRA.REPUL>
0

>  <SCORE.INTRA.REPUL.0>
0

>  <SCORE.INTRA.SOLV>
-0.689905

>  <SCORE.INTRA.SOLV.lig_0>
-48.6447

>  <SCORE.INTRA.VDW>
-2.6192

>  <SCORE.INTRA.VDW.0>
-0.0211724

>  <SCORE.INTRA.norm>
-0.217722

>  <SCORE.RESTR>
0

>  <SCORE.RESTR.CAVITY>
0

>  <SCORE.RESTR.norm>
0

>  <SCORE.SYSTEM>
0

>  <SCORE.SYSTEM.CONST>
0

>  <SCORE.SYSTEM.DIHEDRAL>
0

>  <SCORE.SYSTEM.SOLV>
0

>  <SCORE.SYSTEM.norm>
0

>  <SCORE.heavy>
27

>  <SCORE.norm>
-0.634399

>  <RMSD>
4.768

$$$$
ligand
 OpenBabel11021811483D
libRbt.so/2013.1/901 2013/11/27
 27 29  0  0  0  0  0  0  0  0999 V2000
   48.4145   54.7489   24.6826 N   0  0  0  0  0  0  0  0  0  0  0  0
   49.4777   55.3842   25.4517 C   0  0  2  0  0  0  0  0  0  0  0  0
   50.8323   54.8143   25.0648 C   0  0  0  0  0  0  0  0  0  0  0  0
   51.2270   53.7604   25.5582 O   0  0  0  0  0  0  0  0  0  0  0  0
   49.2529   55.2443   26.9566 C   0  0  0  0  0  0  0  0  0  0  0  0
   50.2109   56.0518   27.8243 C   0  0  0  0  0  0  0  0  0  0  0  0
   50.1104   55.6852   29.5983 S   0  0  2  0  0  0  0  0  0  0  0  0
   50.3761   53.8952   29.6022 C   0  0  0  0  0  0  0  0  0  0  0  0
   48.3161   55.7546   29.8427 C   0  0  0  0  0  0  0  0  0  0  0  0
   47.9091   57.1584   30.2648 C   0  0  1  0  0  0  0  0  0  0  0  0
   46.5037   57.2308   30.2535 O   0  0  0  0  0  0  0  0  0  0  0  0
   48.3096   57.5322   31.6777 C   0  0  1  0  0  0  0  0  0  0  0  0
   49.5051   58.2737   31.6667 O   0  0  0  0  0  0  0  0  0  0  0  0
   47.1514   58.3849   32.1633 C   0  0  1  0  0  0  0  0  0  0  0  0
   47.5392   59.7384   32.1630 O   0  0  0  0  0  0  0  0  0  0  0  0
   46.0124   58.1712   31.1742 C   0  0  2  0  0  0  0  0  0  0  0  0
   51.5513   55.3941   24.2505 O   0  0  0  0  0  0  0  0  0  0  0  0
   41.4138   55.6539   30.7275 N   0  0  0  0  0  0  0  0  0  0  0  0
   42.2621   56.0711   29.7219 C   0  0  0  0  0  0  0  0  0  0  0  0
   43.4411   56.7261   30.0273 N   0  0  0  0  0  0  0  0  0  0  0  0
   43.7752   56.9740   31.3128 C   0  0  0  0  0  0  0  0  0  0  0  0
   42.9411   56.5574   32.3398 C   0  0  0  0  0  0  0  0  0  0  0  0
   41.7516   55.8980   32.0419 C   0  0  0  0  0  0  0  0  0  0  0  0
   40.9360   55.4970   33.0136 N   0  0  0  0  0  0  0  0  0  0  0  0
   43.5171   56.9197   33.5078 N   0  0  0  0  0  0  0  0  0  0  0  0
   44.6924   57.5370   33.2427 C   0  0  0  0  0  0  0  0  0  0  0  0
   44.8664   57.5785   31.8841 N   0  0  0  0  0  0  0  0  0  0  0  0
  2  1  1  6  0  0  0
  2  3  1  0  0  0  0
  2  5  1  0  0  0  0
  3  4  1  0  0  0  0
  3 17  1  0  0  0  0
  5  6  1  0  0  0  0
  7  6  1  6  0  0  0
  7  8  1  0  0  0  0
  7  9  1  0  0  0  0
 10  9  1  1  0  0  0
 10 11  1  0  0  0  0
 10 12  1  0  0  0  0
 11 16  1  0  0  0  0
 12 13  1  6  0  0  0
 12 14  1  0  0  0  0
 14 15  1  6  0  0  0
 14 16  1  0  0  0  0
 16 27  1  1  0  0  0
 18 19  2  0  0  0  0
 18 23  1  0  0  0  0
 19 20  1  0  0  0  0
 20 21  2  0  0  0  0
 21 22  1  0  0  0  0
 21 27  1  0  0  0  0
 22 23  2  0  0  0  0
 22 25  1  0  0  0  0
 23 24  1  0  0  0  0
 25 26  2  0  0  0  0
 26 27  1  0  0  0  0
M  END
>  <CHROM.1>
-82.46535973,-171.59660721,-170.93534371,55.07575258,-92.42528954,171.42922469
-50.97388673,47.04110521,56.35765162,29.78501962,0.66751575,-0.17933511,-2.09128508

>  <Name>
ligand

>  <RI>
0

>  <Rbt.Current_Directory>
/home/itssahil/PROJECTS/Mol_Feturizer/New_Systems/rnas/3GX7

>  <Rbt.Executable>
rbdock ($Id: //depot/dev/client3/rdock/2013.1/src/exe/rbdock.cxx#4 $)

>  <Rbt.Library>
libRbt.so (2013.1, Build901 2013/11/27)

>  <Rbt.Parameter_File>
/export/apps/rDock/src/rDock_2013.1_src/data/scripts/dock_solv.prm

>  <Rbt.Receptor>
prm/pocket_docking_8.prm

>  <SCORE>
-13.1509

>  <SCORE.INTER>
-8.99804

>  <SCORE.INTER.CONST>
1

>  <SCORE.INTER.POLAR>
0

>  <SCORE.INTER.ROT>
7

>  <SCORE.INTER.SOLV>
11.9261

>  <SCORE.INTER.VDW>
-18.2407

>  <SCORE.INTER.norm>
-0.333261

>  <SCORE.INTRA>
-4.15282

>  <SCORE.INTRA.DIHEDRAL>
-5.74537

>  <SCORE.INTRA.DIHEDRAL.0>
11.2699

>  <SCORE.INTRA.POLAR>
0

>  <SCORE.INTRA.POLAR.0>
0

>  <SCORE.INTRA.REPUL>
0

>  <SCORE.INTRA.REPUL.0>
0

>  <SCORE.INTRA.SOLV>
-0.990137

>  <SCORE.INTRA.SOLV.lig_0>
-48.6447

>  <SCORE.INTRA.VDW>
-0.785063

>  <SCORE.INTRA.VDW.0>
-0.0211724

>  <SCORE.INTRA.norm>
-0.153808

>  <SCORE.RESTR>
0

>  <SCORE.RESTR.CAVITY>
0

>  <SCORE.RESTR.norm>
0

>  <SCORE.SYSTEM>
0

>  <SCORE.SYSTEM.CONST>
0

>  <SCORE.SYSTEM.DIHEDRAL>
0

>  <SCORE.SYSTEM.SOLV>
0

>  <SCORE.SYSTEM.norm>
0

>  <SCORE.heavy>
27

>  <SCORE.norm>
-0.487069

>  <RMSD>
4.776

$$$$
ligand
 OpenBabel11021811483D
libRbt.so/2013.1/901 2013/11/27
 27 29  0  0  0  0  0  0  0  0999 V2000
   48.6553   52.7047   27.7681 N   0  0  0  0  0  0  0  0  0  0  0  0
   49.0529   53.5100   28.9166 C   0  0  2  0  0  0  0  0  0  0  0  0
   48.8290   52.7447   30.2104 C   0  0  0  0  0  0  0  0  0  0  0  0
   48.0627   51.7846   30.2399 O   0  0  0  0  0  0  0  0  0  0  0  0
   48.3154   54.8476   28.9565 C   0  0  0  0  0  0  0  0  0  0  0  0
   48.9196   55.8835   29.8971 C   0  0  0  0  0  0  0  0  0  0  0  0
   47.8831   57.3471   30.1704 S   0  0  2  0  0  0  0  0  0  0  0  0
   48.1584   58.2637   28.6345 C   0  0  0  0  0  0  0  0  0  0  0  0
   48.9374   58.2833   31.3087 C   0  0  0  0  0  0  0  0  0  0  0  0
   48.7072   57.8038   32.7341 C   0  0  1  0  0  0  0  0  0  0  0  0
   47.3762   58.0949   33.0863 O   0  0  0  0  0  0  0  0  0  0  0  0
   48.8450   56.3068   32.9249 C   0  0  1  0  0  0  0  0  0  0  0  0
   50.1268   55.9922   33.4116 O   0  0  0  0  0  0  0  0  0  0  0  0
   47.7814   55.9792   33.9573 C   0  0  1  0  0  0  0  0  0  0  0  0
   48.3976   55.7532   35.2030 O   0  0  0  0  0  0  0  0  0  0  0  0
   46.8710   57.1979   34.0421 C   0  0  2  0  0  0  0  0  0  0  0  0
   49.4129   53.0698   31.2447 O   0  0  0  0  0  0  0  0  0  0  0  0
   43.0117   53.6572   34.5457 N   0  0  0  0  0  0  0  0  0  0  0  0
   44.2539   53.6603   35.1472 C   0  0  0  0  0  0  0  0  0  0  0  0
   45.1512   54.6820   34.8953 N   0  0  0  0  0  0  0  0  0  0  0  0
   44.8282   55.6864   34.0513 C   0  0  0  0  0  0  0  0  0  0  0  0
   43.5826   55.7073   33.4413 C   0  0  0  0  0  0  0  0  0  0  0  0
   42.6730   54.6826   33.6882 C   0  0  0  0  0  0  0  0  0  0  0  0
   41.4762   54.6826   33.1068 N   0  0  0  0  0  0  0  0  0  0  0  0
   43.5232   56.8153   32.6693 N   0  0  0  0  0  0  0  0  0  0  0  0
   44.6878   57.4950   32.7896 C   0  0  0  0  0  0  0  0  0  0  0  0
   45.5082   56.8063   33.6442 N   0  0  0  0  0  0  0  0  0  0  0  0
  2  1  1  6  0  0  0
  2  3  1  0  0  0  0
  2  5  1  0  0  0  0
  3  4  1  0  0  0  0
  3 17  1  0  0  0  0
  5  6  1  0  0  0  0
  7  6  1  6  0  0  0
  7  8  1  0  0  0  0
  7  9  1  0  0  0  0
 10  9  1  6  0  0  0
 10 11  1  0  0  0  0
 10 12  1  0  0  0  0
 11 16  1  0  0  0  0
 12 13  1  1  0  0  0
 12 14  1  0  0  0  0
 14 15  1  1  0  0  0
 14 16  1  0  0  0  0
 16 27  1  6  0  0  0
 18 19  2  0  0  0  0
 18 23  1  0  0  0  0
 19 20  1  0  0  0  0
 20 21  2  0  0  0  0
 21 22  1  0  0  0  0
 21 27  1  0  0  0  0
 22 23  2  0  0  0  0
 22 25  1  0  0  0  0
 23 24  1  0  0  0  0
 25 26  2  0  0  0  0
 26 27  1  0  0  0  0
M  END
>  <CHROM.1>
-19.52145753,-164.92797088,-169.42321781,-77.07696508,-84.59994185,-64.01978569
159.14536532,46.92401449,55.61941278,32.11835518,0.35519644,-0.61145129,-2.62511631

>  <Name>
ligand

>  <RI>
0

>  <Rbt.Current_Directory>
/home/itssahil/PROJECTS/Mol_Feturizer/New_Systems/rnas/3GX7

>  <Rbt.Executable>
rbdock ($Id: //depot/dev/client3/rdock/2013.1/src/exe/rbdock.cxx#4 $)

>  <Rbt.Library>
libRbt.so (2013.1, Build901 2013/11/27)

>  <Rbt.Parameter_File>
/export/apps/rDock/src/rDock_2013.1_src/data/scripts/dock_solv.prm

>  <Rbt.Receptor>
prm/pocket_docking_6.prm

>  <SCORE>
-17.0517

>  <SCORE.INTER>
-11.3607

>  <SCORE.INTER.CONST>
1

>  <SCORE.INTER.POLAR>
0

>  <SCORE.INTER.ROT>
7

>  <SCORE.INTER.SOLV>
9.62889

>  <SCORE.INTER.VDW>
-19.0501

>  <SCORE.INTER.norm>
-0.420768

>  <SCORE.INTRA>
-5.69095

>  <SCORE.INTRA.DIHEDRAL>
-5.82628

>  <SCORE.INTRA.DIHEDRAL.0>
11.2699

>  <SCORE.INTRA.POLAR>
0

>  <SCORE.INTRA.POLAR.0>
0

>  <SCORE.INTRA.REPUL>
0

>  <SCORE.INTRA.REPUL.0>
0

>  <SCORE.INTRA.SOLV>
-0.670438

>  <SCORE.INTRA.SOLV.lig_0>
-48.6447

>  <SCORE.INTRA.VDW>
-2.4426

>  <SCORE.INTRA.VDW.0>
-0.0211724

>  <SCORE.INTRA.norm>
-0.210776

>  <SCORE.RESTR>
0

>  <SCORE.RESTR.CAVITY>
0

>  <SCORE.RESTR.norm>
0

>  <SCORE.SYSTEM>
0

>  <SCORE.SYSTEM.CONST>
0

>  <SCORE.SYSTEM.DIHEDRAL>
0

>  <SCORE.SYSTEM.SOLV>
0

>  <SCORE.SYSTEM.norm>
0

>  <SCORE.heavy>
27

>  <SCORE.norm>
-0.631544

>  <RMSD>
4.778

$$$$
ligand
 OpenBabel11021811483D
libRbt.so/2013.1/901 2013/11/27
 27 29  0  0  0  0  0  0  0  0999 V2000
   48.3509   53.4261   25.6683 N   0  0  0  0  0  0  0  0  0  0  0  0
   47.9119   54.6887   25.0865 C   0  0  2  0  0  0  0  0  0  0  0  0
   49.0797   55.4151   24.4399 C   0  0  0  0  0  0  0  0  0  0  0  0
   48.9247   56.0251   23.3846 O   0  0  0  0  0  0  0  0  0  0  0  0
   47.2348   55.5870   26.1207 C   0  0  0  0  0  0  0  0  0  0  0  0
   48.0397   55.8151   27.3946 C   0  0  0  0  0  0  0  0  0  0  0  0
   47.2815   56.9742   28.5664 S   0  0  2  0  0  0  0  0  0  0  0  0
   47.6869   58.5629   27.8004 C   0  0  0  0  0  0  0  0  0  0  0  0
   48.5036   56.9295   29.9037 C   0  0  0  0  0  0  0  0  0  0  0  0
   48.1902   58.0149   30.9227 C   0  0  1  0  0  0  0  0  0  0  0  0
   46.8456   57.8755   31.3138 O   0  0  0  0  0  0  0  0  0  0  0  0
   48.9849   57.9191   32.2094 C   0  0  1  0  0  0  0  0  0  0  0  0
   50.0918   58.7862   32.1656 O   0  0  0  0  0  0  0  0  0  0  0  0
   47.9963   58.3609   33.2732 C   0  0  1  0  0  0  0  0  0  0  0  0
   48.3140   59.6685   33.6879 O   0  0  0  0  0  0  0  0  0  0  0  0
   46.6204   58.3439   32.6190 C   0  0  2  0  0  0  0  0  0  0  0  0
   50.1944   55.4085   24.9632 O   0  0  0  0  0  0  0  0  0  0  0  0
   46.3774   53.6867   35.0553 N   0  0  0  0  0  0  0  0  0  0  0  0
   47.4736   54.2933   34.4762 C   0  0  0  0  0  0  0  0  0  0  0  0
   47.3512   55.5316   33.8730 N   0  0  0  0  0  0  0  0  0  0  0  0
   46.1563   56.1612   33.8347 C   0  0  0  0  0  0  0  0  0  0  0  0
   45.0428   55.5734   34.4166 C   0  0  0  0  0  0  0  0  0  0  0  0
   45.1562   54.3263   35.0254 C   0  0  0  0  0  0  0  0  0  0  0  0
   44.0975   53.7443   35.5828 N   0  0  0  0  0  0  0  0  0  0  0  0
   43.9988   56.4147   34.2451 N   0  0  0  0  0  0  0  0  0  0  0  0
   44.4289   57.5167   33.5868 C   0  0  0  0  0  0  0  0  0  0  0  0
   45.7664   57.3738   33.3249 N   0  0  0  0  0  0  0  0  0  0  0  0
  2  1  1  1  0  0  0
  2  3  1  0  0  0  0
  2  5  1  0  0  0  0
  3  4  1  0  0  0  0
  3 17  1  0  0  0  0
  5  6  1  0  0  0  0
  7  6  1  6  0  0  0
  7  8  1  0  0  0  0
  7  9  1  0  0  0  0
 10  9  1  6  0  0  0
 10 11  1  0  0  0  0
 10 12  1  0  0  0  0
 11 16  1  0  0  0  0
 12 13  1  6  0  0  0
 12 14  1  0  0  0  0
 14 15  1  6  0  0  0
 14 16  1  0  0  0  0
 16 27  1  1  0  0  0
 18 19  2  0  0  0  0
 18 23  1  0  0  0  0
 19 20  1  0  0  0  0
 20 21  2  0  0  0  0
 21 22  1  0  0  0  0
 21 27  1  0  0  0  0
 22 23  2  0  0  0  0
 22 25  1  0  0  0  0
 23 24  1  0  0  0  0
 25 26  2  0  0  0  0
 26 27  1  0  0  0  0
M  END
>  <CHROM.1>
141.57299725,51.94036099,175.93068927,-78.07419049,170.75974808,52.66569795
75.95671685,47.32951698,56.46077872,30.63671960,1.00055134,-1.01911994,-2.11764004

>  <Name>
ligand

>  <RI>
0

>  <Rbt.Current_Directory>
/home/itssahil/PROJECTS/Mol_Feturizer/New_Systems/rnas/3GX7

>  <Rbt.Executable>
rbdock ($Id: //depot/dev/client3/rdock/2013.1/src/exe/rbdock.cxx#4 $)

>  <Rbt.Library>
libRbt.so (2013.1, Build901 2013/11/27)

>  <Rbt.Parameter_File>
/export/apps/rDock/src/rDock_2013.1_src/data/scripts/dock_solv.prm

>  <Rbt.Receptor>
prm/pocket_docking_6.prm

>  <SCORE>
-19.0136

>  <SCORE.INTER>
-12.9545

>  <SCORE.INTER.CONST>
1

>  <SCORE.INTER.POLAR>
0

>  <SCORE.INTER.ROT>
7

>  <SCORE.INTER.SOLV>
11.111

>  <SCORE.INTER.VDW>
-20.6067

>  <SCORE.INTER.norm>
-0.479798

>  <SCORE.INTRA>
-6.05901

>  <SCORE.INTRA.DIHEDRAL>
-7.34707

>  <SCORE.INTRA.DIHEDRAL.0>
11.2699

>  <SCORE.INTRA.POLAR>
0

>  <SCORE.INTRA.POLAR.0>
0

>  <SCORE.INTRA.REPUL>
0

>  <SCORE.INTRA.REPUL.0>
0

>  <SCORE.INTRA.SOLV>
-0.33764

>  <SCORE.INTRA.SOLV.lig_0>
-48.6447

>  <SCORE.INTRA.VDW>
-2.21665

>  <SCORE.INTRA.VDW.0>
-0.0211724

>  <SCORE.INTRA.norm>
-0.224408

>  <SCORE.RESTR>
0

>  <SCORE.RESTR.CAVITY>
0

>  <SCORE.RESTR.norm>
0

>  <SCORE.SYSTEM>
0

>  <SCORE.SYSTEM.CONST>
0

>  <SCORE.SYSTEM.DIHEDRAL>
0

>  <SCORE.SYSTEM.SOLV>
0

>  <SCORE.SYSTEM.norm>
0

>  <SCORE.heavy>
27

>  <SCORE.norm>
-0.704206

>  <RMSD>
4.820

$$$$
ligand
 OpenBabel11021811483D
libRbt.so/2013.1/901 2013/11/27
 27 29  0  0  0  0  0  0  0  0999 V2000
   47.1535   58.4309   26.8785 N   0  0  0  0  0  0  0  0  0  0  0  0
   48.0821   58.1978   27.9780 C   0  0  2  0  0  0  0  0  0  0  0  0
   48.6381   56.7847   27.9188 C   0  0  0  0  0  0  0  0  0  0  0  0
   47.8844   55.8261   27.7675 O   0  0  0  0  0  0  0  0  0  0  0  0
   47.4319   58.4560   29.3365 C   0  0  0  0  0  0  0  0  0  0  0  0
   48.3684   58.3173   30.5307 C   0  0  0  0  0  0  0  0  0  0  0  0
   47.6056   58.6941   32.1331 S   0  0  2  0  0  0  0  0  0  0  0  0
   47.6500   60.5033   32.1259 C   0  0  0  0  0  0  0  0  0  0  0  0
   48.9905   58.3330   33.2446 C   0  0  0  0  0  0  0  0  0  0  0  0
   48.9122   56.8866   33.7099 C   0  0  1  0  0  0  0  0  0  0  0  0
   47.7404   56.7334   34.4740 O   0  0  0  0  0  0  0  0  0  0  0  0
   48.7867   55.8714   32.5918 C   0  0  1  0  0  0  0  0  0  0  0  0
   50.0459   55.3245   32.2848 O   0  0  0  0  0  0  0  0  0  0  0  0
   47.8667   54.8128   33.1725 C   0  0  1  0  0  0  0  0  0  0  0  0
   48.6259   53.6804   33.5244 O   0  0  0  0  0  0  0  0  0  0  0  0
   47.2371   55.4231   34.4184 C   0  0  2  0  0  0  0  0  0  0  0  0
   49.8482   56.5784   28.0161 O   0  0  0  0  0  0  0  0  0  0  0  0
   42.6644   52.8411   34.7470 N   0  0  0  0  0  0  0  0  0  0  0  0
   43.9313   52.3784   35.0398 C   0  0  0  0  0  0  0  0  0  0  0  0
   45.0300   53.2051   34.8924 N   0  0  0  0  0  0  0  0  0  0  0  0
   44.8801   54.4737   34.4523 C   0  0  0  0  0  0  0  0  0  0  0  0
   43.6154   54.9621   34.1591 C   0  0  0  0  0  0  0  0  0  0  0  0
   42.5034   54.1368   34.3036 C   0  0  0  0  0  0  0  0  0  0  0  0
   41.2834   54.5860   34.0206 N   0  0  0  0  0  0  0  0  0  0  0  0
   43.7548   56.2453   33.7577 N   0  0  0  0  0  0  0  0  0  0  0  0
   45.0661   56.5783   33.8052 C   0  0  0  0  0  0  0  0  0  0  0  0
   45.7774   55.4885   34.2344 N   0  0  0  0  0  0  0  0  0  0  0  0
  2  1  1  6  0  0  0
  2  3  1  0  0  0  0
  2  5  1  0  0  0  0
  3  4  1  0  0  0  0
  3 17  1  0  0  0  0
  5  6  1  0  0  0  0
  7  6  1  6  0  0  0
  7  8  1  0  0  0  0
  7  9  1  0  0  0  0
 10  9  1  6  0  0  0
 10 11  1  0  0  0  0
 10 12  1  0  0  0  0
 11 16  1  0  0  0  0
 12 13  1  1  0  0  0
 12 14  1  0  0  0  0
 14 15  1  1  0  0  0
 14 16  1  0  0  0  0
 16 27  1  6  0  0  0
 18 19  2  0  0  0  0
 18 23  1  0  0  0  0
 19 20  1  0  0  0  0
 20 21  2  0  0  0  0
 21 22  1  0  0  0  0
 21 27  1  0  0  0  0
 22 23  2  0  0  0  0
 22 25  1  0  0  0  0
 23 24  1  0  0  0  0
 25 26  2  0  0  0  0
 26 27  1  0  0  0  0
M  END
>  <CHROM.1>
-48.30879093,-176.32950292,177.53289955,-79.71086067,-92.09062424,-64.35201653
-162.99656254,46.78465385,56.22125611,32.28376297,0.90262613,-0.35643553
-1.22851358

>  <Name>
ligand

>  <RI>
0

>  <Rbt.Current_Directory>
/home/itssahil/PROJECTS/Mol_Feturizer/New_Systems/rnas/3GX7

>  <Rbt.Executable>
rbdock ($Id: //depot/dev/client3/rdock/2013.1/src/exe/rbdock.cxx#4 $)

>  <Rbt.Library>
libRbt.so (2013.1, Build901 2013/11/27)

>  <Rbt.Parameter_File>
/export/apps/rDock/src/rDock_2013.1_src/data/scripts/dock_solv.prm

>  <Rbt.Receptor>
prm/pocket_docking_7.prm

>  <SCORE>
-20.2372

>  <SCORE.INTER>
-13.9525

>  <SCORE.INTER.CONST>
1

>  <SCORE.INTER.POLAR>
0

>  <SCORE.INTER.ROT>
7

>  <SCORE.INTER.SOLV>
16.8573

>  <SCORE.INTER.VDW>
-23.1874

>  <SCORE.INTER.norm>
-0.516758

>  <SCORE.INTRA>
-6.28468

>  <SCORE.INTRA.DIHEDRAL>
-6.12859

>  <SCORE.INTRA.DIHEDRAL.0>
11.2699

>  <SCORE.INTRA.POLAR>
0

>  <SCORE.INTRA.POLAR.0>
0

>  <SCORE.INTRA.REPUL>
0

>  <SCORE.INTRA.REPUL.0>
0

>  <SCORE.INTRA.SOLV>
-0.811564

>  <SCORE.INTRA.SOLV.lig_0>
-48.6447

>  <SCORE.INTRA.VDW>
-2.8146

>  <SCORE.INTRA.VDW.0>
-0.0211724

>  <SCORE.INTRA.norm>
-0.232766

>  <SCORE.RESTR>
0

>  <SCORE.RESTR.CAVITY>
0

>  <SCORE.RESTR.norm>
0

>  <SCORE.SYSTEM>
0

>  <SCORE.SYSTEM.CONST>
0

>  <SCORE.SYSTEM.DIHEDRAL>
0

>  <SCORE.SYSTEM.SOLV>
0

>  <SCORE.SYSTEM.norm>
0

>  <SCORE.heavy>
27

>  <SCORE.norm>
-0.749524

>  <RMSD>
4.830

$$$$
ligand
 OpenBabel11021811483D
libRbt.so/2013.1/901 2013/11/27
 27 29  0  0  0  0  0  0  0  0999 V2000
   48.4047   53.5190   27.3245 N   0  0  0  0  0  0  0  0  0  0  0  0
   47.0935   54.0089   27.7322 C   0  0  2  0  0  0  0  0  0  0  0  0
   46.0574   52.9003   27.6466 C   0  0  0  0  0  0  0  0  0  0  0  0
   45.9038   52.2725   26.6016 O   0  0  0  0  0  0  0  0  0  0  0  0
   46.6524   55.2132   26.9016 C   0  0  0  0  0  0  0  0  0  0  0  0
   47.2315   56.5485   27.3533 C   0  0  0  0  0  0  0  0  0  0  0  0
   46.7951   57.0229   29.0492 S   0  0  2  0  0  0  0  0  0  0  0  0
   45.0585   57.4900   28.8469 C   0  0  0  0  0  0  0  0  0  0  0  0
   47.5701   58.6586   29.1381 C   0  0  0  0  0  0  0  0  0  0  0  0
   47.6565   59.1079   30.5891 C   0  0  1  0  0  0  0  0  0  0  0  0
   46.3504   59.1661   31.1098 O   0  0  0  0  0  0  0  0  0  0  0  0
   48.4001   58.1528   31.5009 C   0  0  1  0  0  0  0  0  0  0  0  0
   49.7313   58.5751   31.6695 O   0  0  0  0  0  0  0  0  0  0  0  0
   47.6367   58.2419   32.8099 C   0  0  1  0  0  0  0  0  0  0  0  0
   48.3798   59.0065   33.7296 O   0  0  0  0  0  0  0  0  0  0  0  0
   46.3206   58.9425   32.4964 C   0  0  2  0  0  0  0  0  0  0  0  0
   45.3613   52.6111   28.6203 O   0  0  0  0  0  0  0  0  0  0  0  0
   44.8564   54.4409   34.7933 N   0  0  0  0  0  0  0  0  0  0  0  0
   46.1181   54.9965   34.7262 C   0  0  0  0  0  0  0  0  0  0  0  0
   46.3199   56.1988   34.0735 N   0  0  0  0  0  0  0  0  0  0  0  0
   45.2874   56.8421   33.4856 C   0  0  0  0  0  0  0  0  0  0  0  0
   44.0097   56.3058   33.5467 C   0  0  0  0  0  0  0  0  0  0  0  0
   43.7970   55.0953   34.2010 C   0  0  0  0  0  0  0  0  0  0  0  0
   42.5795   54.5624   34.2639 N   0  0  0  0  0  0  0  0  0  0  0  0
   43.1792   57.1505   32.8956 N   0  0  0  0  0  0  0  0  0  0  0  0
   43.8963   58.2055   32.4421 C   0  0  0  0  0  0  0  0  0  0  0  0
   45.2070   58.0281   32.8005 N   0  0  0  0  0  0  0  0  0  0  0  0
  2  1  1  6  0  0  0
  2  3  1  0  0  0  0
  2  5  1  0  0  0  0
  3  4  1  0  0  0  0
  3 17  1  0  0  0  0
  5  6  1  0  0  0  0
  7  6  1  6  0  0  0
  7  8  1  0  0  0  0
  7  9  1  0  0  0  0
 10  9  1  6  0  0  0
 10 11  1  0  0  0  0
 10 12  1  0  0  0  0
 11 16  1  0  0  0  0
 12 13  1  1  0  0  0
 12 14  1  0  0  0  0
 14 15  1  1  0  0  0
 14 16  1  0  0  0  0
 16 27  1  6  0  0  0
 18 19  2  0  0  0  0
 18 23  1  0  0  0  0
 19 20  1  0  0  0  0
 20 21  2  0  0  0  0
 21 22  1  0  0  0  0
 21 27  1  0  0  0  0
 22 23  2  0  0  0  0
 22 25  1  0  0  0  0
 23 24  1  0  0  0  0
 25 26  2  0  0  0  0
 26 27  1  0  0  0  0
M  END
>  <CHROM.1>
-53.93151464,-81.75919009,-60.49755233,-73.59848059,-165.01905706,-60.01037132
125.24356679,46.21894703,56.45089649,30.95534628,1.30252446,-0.88249602,-2.21962268

>  <Name>
ligand

>  <RI>
0

>  <Rbt.Current_Directory>
/home/itssahil/PROJECTS/Mol_Feturizer/New_Systems/rnas/3GX7

>  <Rbt.Executable>
rbdock ($Id: //depot/dev/client3/rdock/2013.1/src/exe/rbdock.cxx#4 $)

>  <Rbt.Library>
libRbt.so (2013.1, Build901 2013/11/27)

>  <Rbt.Parameter_File>
/export/apps/rDock/src/rDock_2013.1_src/data/scripts/dock_solv.prm

>  <Rbt.Receptor>
prm/pocket_docking_5.prm

>  <SCORE>
-17.3899

>  <SCORE.INTER>
-12.6999

>  <SCORE.INTER.CONST>
1

>  <SCORE.INTER.POLAR>
0

>  <SCORE.INTER.ROT>
7

>  <SCORE.INTER.SOLV>
10.7068

>  <SCORE.INTER.VDW>
-20.3022

>  <SCORE.INTER.norm>
-0.470367

>  <SCORE.INTRA>
-4.68994

>  <SCORE.INTRA.DIHEDRAL>
-4.88933

>  <SCORE.INTRA.DIHEDRAL.0>
11.2699

>  <SCORE.INTRA.POLAR>
0

>  <SCORE.INTRA.POLAR.0>
0

>  <SCORE.INTRA.REPUL>
0

>  <SCORE.INTRA.REPUL.0>
0

>  <SCORE.INTRA.SOLV>
0.00874401

>  <SCORE.INTRA.SOLV.lig_0>
-48.6447

>  <SCORE.INTRA.VDW>
-2.24965

>  <SCORE.INTRA.VDW.0>
-0.0211724

>  <SCORE.INTRA.norm>
-0.173702

>  <SCORE.RESTR>
0

>  <SCORE.RESTR.CAVITY>
0

>  <SCORE.RESTR.norm>
0

>  <SCORE.SYSTEM>
0

>  <SCORE.SYSTEM.CONST>
0

>  <SCORE.SYSTEM.DIHEDRAL>
0

>  <SCORE.SYSTEM.SOLV>
0

>  <SCORE.SYSTEM.norm>
0

>  <SCORE.heavy>
27

>  <SCORE.norm>
-0.644069

>  <RMSD>
4.834

$$$$
ligand
 OpenBabel11021811483D
libRbt.so/2013.1/901 2013/11/27
 27 29  0  0  0  0  0  0  0  0999 V2000
   47.5315   52.3033   25.8107 N   0  0  0  0  0  0  0  0  0  0  0  0
   47.5862   52.6811   27.2177 C   0  0  2  0  0  0  0  0  0  0  0  0
   46.2106   52.5737   27.8548 C   0  0  0  0  0  0  0  0  0  0  0  0
   45.2021   52.5376   27.1537 O   0  0  0  0  0  0  0  0  0  0  0  0
   48.1509   54.0882   27.4076 C   0  0  0  0  0  0  0  0  0  0  0  0
   48.4210   54.4790   28.8557 C   0  0  0  0  0  0  0  0  0  0  0  0
   49.3363   56.0324   29.0577 S   0  0  2  0  0  0  0  0  0  0  0  0
   51.0215   55.4998   28.6684 C   0  0  0  0  0  0  0  0  0  0  0  0
   49.4265   56.1231   30.8653 C   0  0  0  0  0  0  0  0  0  0  0  0
   48.7162   57.3770   31.3529 C   0  0  1  0  0  0  0  0  0  0  0  0
   47.3437   57.0881   31.4678 O   0  0  0  0  0  0  0  0  0  0  0  0
   49.1359   57.8423   32.7326 C   0  0  1  0  0  0  0  0  0  0  0  0
   50.0973   58.8643   32.6321 O   0  0  0  0  0  0  0  0  0  0  0  0
   47.8483   58.3716   33.3378 C   0  0  1  0  0  0  0  0  0  0  0  0
   47.8775   59.7793   33.3331 O   0  0  0  0  0  0  0  0  0  0  0  0
   46.7157   57.8731   32.4490 C   0  0  2  0  0  0  0  0  0  0  0  0
   46.0849   52.5165   29.0784 O   0  0  0  0  0  0  0  0  0  0  0  0
   46.2296   53.3487   35.0905 N   0  0  0  0  0  0  0  0  0  0  0  0
   47.3353   53.8351   34.4227 C   0  0  0  0  0  0  0  0  0  0  0  0
   47.2813   55.0562   33.7759 N   0  0  0  0  0  0  0  0  0  0  0  0
   46.1442   55.7860   33.7814 C   0  0  0  0  0  0  0  0  0  0  0  0
   45.0232   55.3199   34.4521 C   0  0  0  0  0  0  0  0  0  0  0  0
   45.0678   54.0911   35.1055 C   0  0  0  0  0  0  0  0  0  0  0  0
   44.0002   53.6250   35.7483 N   0  0  0  0  0  0  0  0  0  0  0  0
   44.0459   56.2423   34.3069 N   0  0  0  0  0  0  0  0  0  0  0  0
   44.5263   57.2773   33.5783 C   0  0  0  0  0  0  0  0  0  0  0  0
   45.8278   57.0083   33.2445 N   0  0  0  0  0  0  0  0  0  0  0  0
  2  1  1  6  0  0  0
  2  3  1  0  0  0  0
  2  5  1  0  0  0  0
  3  4  1  0  0  0  0
  3 17  1  0  0  0  0
  5  6  1  0  0  0  0
  7  6  1  1  0  0  0
  7  8  1  0  0  0  0
  7  9  1  0  0  0  0
 10  9  1  1  0  0  0
 10 11  1  0  0  0  0
 10 12  1  0  0  0  0
 11 16  1  0  0  0  0
 12 13  1  6  0  0  0
 12 14  1  0  0  0  0
 14 15  1  6  0  0  0
 14 16  1  0  0  0  0
 16 27  1  1  0  0  0
 18 19  2  0  0  0  0
 18 23  1  0  0  0  0
 19 20  1  0  0  0  0
 20 21  2  0  0  0  0
 21 22  1  0  0  0  0
 21 27  1  0  0  0  0
 22 23  2  0  0  0  0
 22 25  1  0  0  0  0
 23 24  1  0  0  0  0
 25 26  2  0  0  0  0
 26 27  1  0  0  0  0
M  END
>  <CHROM.1>
-18.13484415,-171.82881135,170.52695853,-77.36720709,-118.74392066,84.68228834
47.20464379,47.26814231,55.51397104,31.39039990,1.26719895,-0.77242692,-2.19359174

>  <Name>
ligand

>  <RI>
0

>  <Rbt.Current_Directory>
/home/itssahil/PROJECTS/Mol_Feturizer/New_Systems/rnas/3GX7

>  <Rbt.Executable>
rbdock ($Id: //depot/dev/client3/rdock/2013.1/src/exe/rbdock.cxx#4 $)

>  <Rbt.Library>
libRbt.so (2013.1, Build901 2013/11/27)

>  <Rbt.Parameter_File>
/export/apps/rDock/src/rDock_2013.1_src/data/scripts/dock_solv.prm

>  <Rbt.Receptor>
prm/pocket_docking_5.prm

>  <SCORE>
-15.8884

>  <SCORE.INTER>
-11.8321

>  <SCORE.INTER.CONST>
1

>  <SCORE.INTER.POLAR>
0

>  <SCORE.INTER.ROT>
7

>  <SCORE.INTER.SOLV>
12.5417

>  <SCORE.INTER.VDW>
-20.3353

>  <SCORE.INTER.norm>
-0.438225

>  <SCORE.INTRA>
-4.05632

>  <SCORE.INTRA.DIHEDRAL>
-1.27504

>  <SCORE.INTRA.DIHEDRAL.0>
11.2699

>  <SCORE.INTRA.POLAR>
0

>  <SCORE.INTRA.POLAR.0>
0

>  <SCORE.INTRA.REPUL>
0

>  <SCORE.INTRA.REPUL.0>
0

>  <SCORE.INTRA.SOLV>
-1.09808

>  <SCORE.INTRA.SOLV.lig_0>
-48.6447

>  <SCORE.INTRA.VDW>
-2.86976

>  <SCORE.INTRA.VDW.0>
-0.0211724

>  <SCORE.INTRA.norm>
-0.150234

>  <SCORE.RESTR>
0

>  <SCORE.RESTR.CAVITY>
0

>  <SCORE.RESTR.norm>
0

>  <SCORE.SYSTEM>
0

>  <SCORE.SYSTEM.CONST>
0

>  <SCORE.SYSTEM.DIHEDRAL>
0

>  <SCORE.SYSTEM.SOLV>
0

>  <SCORE.SYSTEM.norm>
0

>  <SCORE.heavy>
27

>  <SCORE.norm>
-0.588459

>  <RMSD>
4.862

$$$$
ligand
 OpenBabel11021811483D
libRbt.so/2013.1/901 2013/11/27
 27 29  0  0  0  0  0  0  0  0999 V2000
   49.2618   53.2439   28.7236 N   0  0  0  0  0  0  0  0  0  0  0  0
   48.1871   54.1180   29.1781 C   0  0  2  0  0  0  0  0  0  0  0  0
   47.4481   53.4931   30.3499 C   0  0  0  0  0  0  0  0  0  0  0  0
   47.3150   52.2737   30.4217 O   0  0  0  0  0  0  0  0  0  0  0  0
   47.2103   54.4519   28.0515 C   0  0  0  0  0  0  0  0  0  0  0  0
   46.1567   55.4944   28.4064 C   0  0  0  0  0  0  0  0  0  0  0  0
   46.7713   57.2008   28.4499 S   0  0  2  0  0  0  0  0  0  0  0  0
   47.7507   57.2598   26.9293 C   0  0  0  0  0  0  0  0  0  0  0  0
   48.0870   57.0403   29.6857 C   0  0  0  0  0  0  0  0  0  0  0  0
   47.8741   58.0566   30.7977 C   0  0  1  0  0  0  0  0  0  0  0  0
   46.5653   57.9010   31.2907 O   0  0  0  0  0  0  0  0  0  0  0  0
   48.7724   57.8681   32.0035 C   0  0  1  0  0  0  0  0  0  0  0  0
   49.8830   58.7279   31.9245 O   0  0  0  0  0  0  0  0  0  0  0  0
   47.8822   58.2442   33.1741 C   0  0  1  0  0  0  0  0  0  0  0  0
   48.2505   59.5182   33.6469 O   0  0  0  0  0  0  0  0  0  0  0  0
   46.4563   58.2816   32.6385 C   0  0  2  0  0  0  0  0  0  0  0  0
   46.9769   54.1952   31.2451 O   0  0  0  0  0  0  0  0  0  0  0  0
   46.4089   53.5506   34.9405 N   0  0  0  0  0  0  0  0  0  0  0  0
   47.4682   54.1984   34.3378 C   0  0  0  0  0  0  0  0  0  0  0  0
   47.2957   55.4508   33.7775 N   0  0  0  0  0  0  0  0  0  0  0  0
   46.0871   56.0543   33.8050 C   0  0  0  0  0  0  0  0  0  0  0  0
   45.0103   55.4249   34.4118 C   0  0  0  0  0  0  0  0  0  0  0  0
   45.1742   54.1634   34.9778 C   0  0  0  0  0  0  0  0  0  0  0  0
   44.1510   53.5417   35.5581 N   0  0  0  0  0  0  0  0  0  0  0  0
   43.9428   56.2474   34.3067 N   0  0  0  0  0  0  0  0  0  0  0  0
   44.3229   57.3776   33.6656 C   0  0  0  0  0  0  0  0  0  0  0  0
   45.6517   57.2724   33.3476 N   0  0  0  0  0  0  0  0  0  0  0  0
  2  1  1  6  0  0  0
  2  3  1  0  0  0  0
  2  5  1  0  0  0  0
  3  4  1  0  0  0  0
  3 17  1  0  0  0  0
  5  6  1  0  0  0  0
  7  6  1  6  0  0  0
  7  8  1  0  0  0  0
  7  9  1  0  0  0  0
 10  9  1  6  0  0  0
 10 11  1  0  0  0  0
 10 12  1  0  0  0  0
 11 16  1  0  0  0  0
 12 13  1  6  0  0  0
 12 14  1  0  0  0  0
 14 15  1  6  0  0  0
 14 16  1  0  0  0  0
 16 27  1  1  0  0  0
 18 19  2  0  0  0  0
 18 23  1  0  0  0  0
 19 20  1  0  0  0  0
 20 21  2  0  0  0  0
 21 22  1  0  0  0  0
 21 27  1  0  0  0  0
 22 23  2  0  0  0  0
 22 25  1  0  0  0  0
 23 24  1  0  0  0  0
 25 26  2  0  0  0  0
 26 27  1  0  0  0  0
M  END
>  <CHROM.1>
-33.26134431,-172.92862270,75.78397540,45.30220852,-125.51446613,53.48424743
79.77878820,46.93975586,56.03413779,31.62933512,0.44272402,-1.18314838,-2.58854268

>  <Name>
ligand

>  <RI>
0

>  <Rbt.Current_Directory>
/home/itssahil/PROJECTS/Mol_Feturizer/New_Systems/rnas/3GX7

>  <Rbt.Executable>
rbdock ($Id: //depot/dev/client3/rdock/2013.1/src/exe/rbdock.cxx#4 $)

>  <Rbt.Library>
libRbt.so (2013.1, Build901 2013/11/27)

>  <Rbt.Parameter_File>
/export/apps/rDock/src/rDock_2013.1_src/data/scripts/dock_solv.prm

>  <Rbt.Receptor>
prm/pocket_docking_4.prm

>  <SCORE>
-13.5052

>  <SCORE.INTER>
-9.98811

>  <SCORE.INTER.CONST>
1

>  <SCORE.INTER.POLAR>
0

>  <SCORE.INTER.ROT>
7

>  <SCORE.INTER.SOLV>
10.0992

>  <SCORE.INTER.VDW>
-18.2918

>  <SCORE.INTER.norm>
-0.36993

>  <SCORE.INTRA>
-3.51705

>  <SCORE.INTRA.DIHEDRAL>
-2.44234

>  <SCORE.INTRA.DIHEDRAL.0>
11.2699

>  <SCORE.INTRA.POLAR>
0

>  <SCORE.INTRA.POLAR.0>
0

>  <SCORE.INTRA.REPUL>
0

>  <SCORE.INTRA.REPUL.0>
0

>  <SCORE.INTRA.SOLV>
-0.361805

>  <SCORE.INTRA.SOLV.lig_0>
-48.6447

>  <SCORE.INTRA.VDW>
-2.11498

>  <SCORE.INTRA.VDW.0>
-0.0211724

>  <SCORE.INTRA.norm>
-0.130261

>  <SCORE.RESTR>
0

>  <SCORE.RESTR.CAVITY>
0

>  <SCORE.RESTR.norm>
0

>  <SCORE.SYSTEM>
0

>  <SCORE.SYSTEM.CONST>
0

>  <SCORE.SYSTEM.DIHEDRAL>
0

>  <SCORE.SYSTEM.SOLV>
0

>  <SCORE.SYSTEM.norm>
0

>  <SCORE.heavy>
27

>  <SCORE.norm>
-0.500191

>  <RMSD>
4.867

$$$$
ligand
 OpenBabel11021811483D
libRbt.so/2013.1/901 2013/11/27
 27 29  0  0  0  0  0  0  0  0999 V2000
   48.3757   53.1419   25.8603 N   0  0  0  0  0  0  0  0  0  0  0  0
   47.5752   54.3602   25.8769 C   0  0  2  0  0  0  0  0  0  0  0  0
   48.2708   55.4685   25.1038 C   0  0  0  0  0  0  0  0  0  0  0  0
   49.4827   55.6378   25.2152 O   0  0  0  0  0  0  0  0  0  0  0  0
   47.2671   54.8193   27.3014 C   0  0  0  0  0  0  0  0  0  0  0  0
   46.3737   56.0503   27.3977 C   0  0  0  0  0  0  0  0  0  0  0  0
   45.9209   56.5210   29.0902 S   0  0  2  0  0  0  0  0  0  0  0  0
   45.0997   58.1082   28.8051 C   0  0  0  0  0  0  0  0  0  0  0  0
   47.5272   57.0855   29.7107 C   0  0  0  0  0  0  0  0  0  0  0  0
   47.3236   57.9805   30.9240 C   0  0  1  0  0  0  0  0  0  0  0  0
   46.7572   57.2047   31.9525 O   0  0  0  0  0  0  0  0  0  0  0  0
   48.6016   58.5415   31.5143 C   0  0  1  0  0  0  0  0  0  0  0  0
   48.8260   59.8474   31.0416 O   0  0  0  0  0  0  0  0  0  0  0  0
   48.3318   58.5483   33.0081 C   0  0  1  0  0  0  0  0  0  0  0  0
   48.0759   59.8678   33.4277 O   0  0  0  0  0  0  0  0  0  0  0  0
   47.0961   57.6848   33.2285 C   0  0  2  0  0  0  0  0  0  0  0  0
   47.6348   56.2085   24.3526 O   0  0  0  0  0  0  0  0  0  0  0  0
   45.4299   53.2880   35.5899 N   0  0  0  0  0  0  0  0  0  0  0  0
   44.7078   54.1642   34.8051 C   0  0  0  0  0  0  0  0  0  0  0  0
   45.3155   55.2811   34.2617 N   0  0  0  0  0  0  0  0  0  0  0  0
   46.6215   55.5349   34.4975 C   0  0  0  0  0  0  0  0  0  0  0  0
   47.3682   54.6642   35.2774 C   0  0  0  0  0  0  0  0  0  0  0  0
   46.7647   53.5374   35.8295 C   0  0  0  0  0  0  0  0  0  0  0  0
   47.4637   52.6948   36.5856 N   0  0  0  0  0  0  0  0  0  0  0  0
   48.6292   55.1473   35.3379 N   0  0  0  0  0  0  0  0  0  0  0  0
   48.6969   56.2854   34.6079 C   0  0  0  0  0  0  0  0  0  0  0  0
   47.4580   56.5391   34.0801 N   0  0  0  0  0  0  0  0  0  0  0  0
  2  1  1  1  0  0  0
  2  3  1  0  0  0  0
  2  5  1  0  0  0  0
  3  4  1  0  0  0  0
  3 17  1  0  0  0  0
  5  6  1  0  0  0  0
  7  6  1  6  0  0  0
  7  8  1  0  0  0  0
  7  9  1  0  0  0  0
 10  9  1  6  0  0  0
 10 11  1  0  0  0  0
 10 12  1  0  0  0  0
 11 16  1  0  0  0  0
 12 13  1  6  0  0  0
 12 14  1  0  0  0  0
 14 15  1  6  0  0  0
 14 16  1  0  0  0  0
 16 27  1  1  0  0  0
 18 19  2  0  0  0  0
 18 23  1  0  0  0  0
 19 20  1  0  0  0  0
 20 21  2  0  0  0  0
 21 22  1  0  0  0  0
 21 27  1  0  0  0  0
 22 23  2  0  0  0  0
 22 25  1  0  0  0  0
 23 24  1  0  0  0  0
 25 26  2  0  0  0  0
 26 27  1  0  0  0  0
M  END
>  <CHROM.1>
-41.62083732,-177.08488965,176.04018616,172.04657260,159.89268982,64.58809465
-65.92787395,47.24933756,56.16822111,31.06408591,1.19592594,-1.35711827,-1.88528981

>  <Name>
ligand

>  <RI>
0

>  <Rbt.Current_Directory>
/home/itssahil/PROJECTS/Mol_Feturizer/New_Systems/rnas/3GX7

>  <Rbt.Executable>
rbdock ($Id: //depot/dev/client3/rdock/2013.1/src/exe/rbdock.cxx#4 $)

>  <Rbt.Library>
libRbt.so (2013.1, Build901 2013/11/27)

>  <Rbt.Parameter_File>
/export/apps/rDock/src/rDock_2013.1_src/data/scripts/dock_solv.prm

>  <Rbt.Receptor>
prm/pocket_docking_5.prm

>  <SCORE>
-13.7895

>  <SCORE.INTER>
-8.38281

>  <SCORE.INTER.CONST>
1

>  <SCORE.INTER.POLAR>
0

>  <SCORE.INTER.ROT>
7

>  <SCORE.INTER.SOLV>
15.6571

>  <SCORE.INTER.VDW>
-19.0742

>  <SCORE.INTER.norm>
-0.310475

>  <SCORE.INTRA>
-5.40666

>  <SCORE.INTRA.DIHEDRAL>
-7.52576

>  <SCORE.INTRA.DIHEDRAL.0>
11.2699

>  <SCORE.INTRA.POLAR>
0

>  <SCORE.INTRA.POLAR.0>
0

>  <SCORE.INTRA.REPUL>
0

>  <SCORE.INTRA.REPUL.0>
0

>  <SCORE.INTRA.SOLV>
-1.07997

>  <SCORE.INTRA.SOLV.lig_0>
-48.6447

>  <SCORE.INTRA.VDW>
-1.10379

>  <SCORE.INTRA.VDW.0>
-0.0211724

>  <SCORE.INTRA.norm>
-0.200246

>  <SCORE.RESTR>
0

>  <SCORE.RESTR.CAVITY>
0

>  <SCORE.RESTR.norm>
0

>  <SCORE.SYSTEM>
0

>  <SCORE.SYSTEM.CONST>
0

>  <SCORE.SYSTEM.DIHEDRAL>
0

>  <SCORE.SYSTEM.SOLV>
0

>  <SCORE.SYSTEM.norm>
0

>  <SCORE.heavy>
27

>  <SCORE.norm>
-0.510721

>  <RMSD>
4.884

$$$$
ligand
 OpenBabel11021811483D
libRbt.so/2013.1/901 2013/11/27
 27 29  0  0  0  0  0  0  0  0999 V2000
   46.8399   54.4474   28.0427 N   0  0  0  0  0  0  0  0  0  0  0  0
   46.8540   53.0335   28.3979 C   0  0  2  0  0  0  0  0  0  0  0  0
   45.4382   52.4866   28.4750 C   0  0  0  0  0  0  0  0  0  0  0  0
   44.9153   51.9740   27.4882 O   0  0  0  0  0  0  0  0  0  0  0  0
   47.5918   52.7843   29.7126 C   0  0  0  0  0  0  0  0  0  0  0  0
   49.0295   53.2890   29.7450 C   0  0  0  0  0  0  0  0  0  0  0  0
   49.1956   55.0937   29.6624 S   0  0  2  0  0  0  0  0  0  0  0  0
   50.8660   55.2617   28.9869 C   0  0  0  0  0  0  0  0  0  0  0  0
   49.5042   55.4713   31.4077 C   0  0  0  0  0  0  0  0  0  0  0  0
   48.7894   56.7591   31.7889 C   0  0  1  0  0  0  0  0  0  0  0  0
   47.4058   56.5033   31.8127 O   0  0  0  0  0  0  0  0  0  0  0  0
   49.1169   57.2742   33.1759 C   0  0  1  0  0  0  0  0  0  0  0  0
   50.1068   58.2713   33.1056 O   0  0  0  0  0  0  0  0  0  0  0  0
   47.8009   57.8550   33.6609 C   0  0  1  0  0  0  0  0  0  0  0  0
   47.8634   59.2603   33.6006 O   0  0  0  0  0  0  0  0  0  0  0  0
   46.7256   57.3421   32.7112 C   0  0  2  0  0  0  0  0  0  0  0  0
   44.7963   52.5435   29.5244 O   0  0  0  0  0  0  0  0  0  0  0  0
   45.9483   52.9614   35.5200 N   0  0  0  0  0  0  0  0  0  0  0  0
   47.1125   53.3987   34.9213 C   0  0  0  0  0  0  0  0  0  0  0  0
   47.1324   54.5868   34.2140 N   0  0  0  0  0  0  0  0  0  0  0  0
   46.0118   55.3317   34.0921 C   0  0  0  0  0  0  0  0  0  0  0  0
   44.8324   54.9151   34.6915 C   0  0  0  0  0  0  0  0  0  0  0  0
   44.8024   53.7198   35.4049 C   0  0  0  0  0  0  0  0  0  0  0  0
   43.6785   53.3010   35.9809 N   0  0  0  0  0  0  0  0  0  0  0  0
   43.8866   55.8428   34.4231 N   0  0  0  0  0  0  0  0  0  0  0  0
   44.4424   56.8335   33.6867 C   0  0  0  0  0  0  0  0  0  0  0  0
   45.7615   56.5302   33.4729 N   0  0  0  0  0  0  0  0  0  0  0  0
  2  1  1  1  0  0  0
  2  3  1  0  0  0  0
  2  5  1  0  0  0  0
  3  4  1  0  0  0  0
  3 17  1  0  0  0  0
  5  6  1  0  0  0  0
  7  6  1  1  0  0  0
  7  8  1  0  0  0  0
  7  9  1  0  0  0  0
 10  9  1  1  0  0  0
 10 11  1  0  0  0  0
 10 12  1  0  0  0  0
 11 16  1  0  0  0  0
 12 13  1  6  0  0  0
 12 14  1  0  0  0  0
 14 15  1  6  0  0  0
 14 16  1  0  0  0  0
 16 27  1  1  0  0  0
 18 19  2  0  0  0  0
 18 23  1  0  0  0  0
 19 20  1  0  0  0  0
 20 21  2  0  0  0  0
 21 22  1  0  0  0  0
 21 27  1  0  0  0  0
 22 23  2  0  0  0  0
 22 25  1  0  0  0  0
 23 24  1  0  0  0  0
 25 26  2  0  0  0  0
 26 27  1  0  0  0  0
M  END
>  <CHROM.1>
91.88815062,-56.64615822,66.35249562,-155.63908204,-141.73655475,70.76779538
47.85009011,47.05788060,55.09586570,31.94711947,1.26209837,-0.67616935,-2.13308381

>  <Name>
ligand

>  <RI>
0

>  <Rbt.Current_Directory>
/home/itssahil/PROJECTS/Mol_Feturizer/New_Systems/rnas/3GX7

>  <Rbt.Executable>
rbdock ($Id: //depot/dev/client3/rdock/2013.1/src/exe/rbdock.cxx#4 $)

>  <Rbt.Library>
libRbt.so (2013.1, Build901 2013/11/27)

>  <Rbt.Parameter_File>
/export/apps/rDock/src/rDock_2013.1_src/data/scripts/dock_solv.prm

>  <Rbt.Receptor>
prm/pocket_docking_5.prm

>  <SCORE>
-16.2478

>  <SCORE.INTER>
-13.3612

>  <SCORE.INTER.CONST>
1

>  <SCORE.INTER.POLAR>
0

>  <SCORE.INTER.ROT>
7

>  <SCORE.INTER.SOLV>
9.68602

>  <SCORE.INTER.VDW>
-20.4028

>  <SCORE.INTER.norm>
-0.494859

>  <SCORE.INTRA>
-2.89343

>  <SCORE.INTRA.DIHEDRAL>
-1.16508

>  <SCORE.INTRA.DIHEDRAL.0>
11.2699

>  <SCORE.INTRA.POLAR>
0

>  <SCORE.INTRA.POLAR.0>
0

>  <SCORE.INTRA.REPUL>
0

>  <SCORE.INTRA.REPUL.0>
0

>  <SCORE.INTRA.SOLV>
1.4577

>  <SCORE.INTRA.SOLV.lig_0>
-48.6447

>  <SCORE.INTRA.VDW>
-3.03974

>  <SCORE.INTRA.VDW.0>
-0.0211724

>  <SCORE.INTRA.norm>
-0.107164

>  <SCORE.RESTR>
0.00682115

>  <SCORE.RESTR.CAVITY>
0.00682115

>  <SCORE.RESTR.norm>
0.000252635

>  <SCORE.SYSTEM>
0

>  <SCORE.SYSTEM.CONST>
0

>  <SCORE.SYSTEM.DIHEDRAL>
0

>  <SCORE.SYSTEM.SOLV>
0

>  <SCORE.SYSTEM.norm>
0

>  <SCORE.heavy>
27

>  <SCORE.norm>
-0.60177

>  <RMSD>
4.894

$$$$
ligand
 OpenBabel11021811483D
libRbt.so/2013.1/901 2013/11/27
 27 29  0  0  0  0  0  0  0  0999 V2000
   48.3481   54.7066   26.4842 N   0  0  0  0  0  0  0  0  0  0  0  0
   48.4863   56.0704   26.9806 C   0  0  2  0  0  0  0  0  0  0  0  0
   48.7786   56.0703   28.4720 C   0  0  0  0  0  0  0  0  0  0  0  0
   48.6891   55.0318   29.1227 O   0  0  0  0  0  0  0  0  0  0  0  0
   47.2468   56.9129   26.6826 C   0  0  0  0  0  0  0  0  0  0  0  0
   45.9717   56.4405   27.3708 C   0  0  0  0  0  0  0  0  0  0  0  0
   45.8772   56.8416   29.1376 S   0  0  2  0  0  0  0  0  0  0  0  0
   44.1170   56.5770   29.4638 C   0  0  0  0  0  0  0  0  0  0  0  0
   45.9322   58.6513   29.0629 C   0  0  0  0  0  0  0  0  0  0  0  0
   46.2770   59.2119   30.4346 C   0  0  1  0  0  0  0  0  0  0  0  0
   45.2368   58.8762   31.3209 O   0  0  0  0  0  0  0  0  0  0  0  0
   47.5278   58.6260   31.0581 C   0  0  1  0  0  0  0  0  0  0  0  0
   48.6279   59.4741   30.8356 O   0  0  0  0  0  0  0  0  0  0  0  0
   47.1910   58.5573   32.5366 C   0  0  1  0  0  0  0  0  0  0  0  0
   47.8653   59.5906   33.2149 O   0  0  0  0  0  0  0  0  0  0  0  0
   45.6851   58.7603   32.6472 C   0  0  2  0  0  0  0  0  0  0  0  0
   49.1133   57.1052   29.0493 O   0  0  0  0  0  0  0  0  0  0  0  0
   46.5376   54.2729   35.2587 N   0  0  0  0  0  0  0  0  0  0  0  0
   47.4609   55.2144   34.8513 C   0  0  0  0  0  0  0  0  0  0  0  0
   47.0527   56.3449   34.1673 N   0  0  0  0  0  0  0  0  0  0  0  0
   45.7466   56.5397   33.8814 C   0  0  0  0  0  0  0  0  0  0  0  0
   44.8007   55.6102   34.2875 C   0  0  0  0  0  0  0  0  0  0  0  0
   45.2023   54.4684   34.9758 C   0  0  0  0  0  0  0  0  0  0  0  0
   44.3097   53.5627   35.3673 N   0  0  0  0  0  0  0  0  0  0  0  0
   43.5895   56.0559   33.8856 N   0  0  0  0  0  0  0  0  0  0  0  0
   43.7479   57.2426   33.2537 C   0  0  0  0  0  0  0  0  0  0  0  0
   45.0819   57.5561   33.2429 N   0  0  0  0  0  0  0  0  0  0  0  0
  2  1  1  1  0  0  0
  2  3  1  0  0  0  0
  2  5  1  0  0  0  0
  3  4  1  0  0  0  0
  3 17  1  0  0  0  0
  5  6  1  0  0  0  0
  7  6  1  6  0  0  0
  7  8  1  0  0  0  0
  7  9  1  0  0  0  0
 10  9  1  6  0  0  0
 10 11  1  0  0  0  0
 10 12  1  0  0  0  0
 11 16  1  0  0  0  0
 12 13  1  1  0  0  0
 12 14  1  0  0  0  0
 14 15  1  1  0  0  0
 14 16  1  0  0  0  0
 16 27  1  6  0  0  0
 18 19  2  0  0  0  0
 18 23  1  0  0  0  0
 19 20  1  0  0  0  0
 20 21  2  0  0  0  0
 21 22  1  0  0  0  0
 21 27  1  0  0  0  0
 22 23  2  0  0  0  0
 22 25  1  0  0  0  0
 23 24  1  0  0  0  0
 25 26  2  0  0  0  0
 26 27  1  0  0  0  0
M  END
>  <CHROM.1>
-9.90842930,63.80691460,75.98977571,164.48676973,-163.35082920,-63.98959064
127.66715440,46.47489583,56.87077222,31.19558441,0.18397736,-1.23661883,-2.81839280

>  <Name>
ligand

>  <RI>
0

>  <Rbt.Current_Directory>
/home/itssahil/PROJECTS/Mol_Feturizer/New_Systems/rnas/3GX7

>  <Rbt.Executable>
rbdock ($Id: //depot/dev/client3/rdock/2013.1/src/exe/rbdock.cxx#4 $)

>  <Rbt.Library>
libRbt.so (2013.1, Build901 2013/11/27)

>  <Rbt.Parameter_File>
/export/apps/rDock/src/rDock_2013.1_src/data/scripts/dock_solv.prm

>  <Rbt.Receptor>
prm/pocket_docking_6.prm

>  <SCORE>
-17.0779

>  <SCORE.INTER>
-11.694

>  <SCORE.INTER.CONST>
1

>  <SCORE.INTER.POLAR>
0

>  <SCORE.INTER.ROT>
7

>  <SCORE.INTER.SOLV>
11.3579

>  <SCORE.INTER.VDW>
-19.8486

>  <SCORE.INTER.norm>
-0.43311

>  <SCORE.INTRA>
-5.38394

>  <SCORE.INTRA.DIHEDRAL>
-5.34109

>  <SCORE.INTRA.DIHEDRAL.0>
11.2699

>  <SCORE.INTRA.POLAR>
0

>  <SCORE.INTRA.POLAR.0>
0

>  <SCORE.INTRA.REPUL>
0

>  <SCORE.INTRA.REPUL.0>
0

>  <SCORE.INTRA.SOLV>
0.371253

>  <SCORE.INTRA.SOLV.lig_0>
-48.6447

>  <SCORE.INTRA.VDW>
-2.89902

>  <SCORE.INTRA.VDW.0>
-0.0211724

>  <SCORE.INTRA.norm>
-0.199405

>  <SCORE.RESTR>
0

>  <SCORE.RESTR.CAVITY>
0

>  <SCORE.RESTR.norm>
0

>  <SCORE.SYSTEM>
0

>  <SCORE.SYSTEM.CONST>
0

>  <SCORE.SYSTEM.DIHEDRAL>
0

>  <SCORE.SYSTEM.SOLV>
0

>  <SCORE.SYSTEM.norm>
0

>  <SCORE.heavy>
27

>  <SCORE.norm>
-0.632515

>  <RMSD>
4.895

$$$$
ligand
 OpenBabel11021811483D
libRbt.so/2013.1/901 2013/11/27
 27 29  0  0  0  0  0  0  0  0999 V2000
   47.0142   58.6150   27.0827 N   0  0  0  0  0  0  0  0  0  0  0  0
   47.9600   58.4957   28.1857 C   0  0  2  0  0  0  0  0  0  0  0  0
   48.6196   57.1266   28.1798 C   0  0  0  0  0  0  0  0  0  0  0  0
   47.9800   56.1273   28.4993 O   0  0  0  0  0  0  0  0  0  0  0  0
   47.2954   58.7591   29.5362 C   0  0  0  0  0  0  0  0  0  0  0  0
   48.2613   58.9198   30.7040 C   0  0  0  0  0  0  0  0  0  0  0  0
   47.5185   58.6518   32.3374 S   0  0  2  0  0  0  0  0  0  0  0  0
   48.9731   58.7681   33.4076 C   0  0  0  0  0  0  0  0  0  0  0  0
   47.2810   56.8558   32.2949 C   0  0  0  0  0  0  0  0  0  0  0  0
   46.6742   56.3866   33.6089 C   0  0  1  0  0  0  0  0  0  0  0  0
   45.2981   56.6804   33.5873 O   0  0  0  0  0  0  0  0  0  0  0  0
   46.7523   54.8910   33.8401 C   0  0  1  0  0  0  0  0  0  0  0  0
   47.8549   54.5798   34.6564 O   0  0  0  0  0  0  0  0  0  0  0  0
   45.4492   54.5710   34.5499 C   0  0  1  0  0  0  0  0  0  0  0  0
   45.7064   54.3540   35.9171 O   0  0  0  0  0  0  0  0  0  0  0  0
   44.5521   55.7905   34.3778 C   0  0  2  0  0  0  0  0  0  0  0  0
   49.7993   56.9962   27.8515 O   0  0  0  0  0  0  0  0  0  0  0  0
   41.8486   56.2323   29.8857 N   0  0  0  0  0  0  0  0  0  0  0  0
   43.0525   56.8180   30.2209 C   0  0  0  0  0  0  0  0  0  0  0  0
   43.6216   56.5885   31.4602 N   0  0  0  0  0  0  0  0  0  0  0  0
   43.0040   55.7950   32.3626 C   0  0  0  0  0  0  0  0  0  0  0  0
   41.7970   55.1903   32.0444 C   0  0  0  0  0  0  0  0  0  0  0  0
   41.2159   55.4162   30.7995 C   0  0  0  0  0  0  0  0  0  0  0  0
   40.0552   54.8499   30.4793 N   0  0  0  0  0  0  0  0  0  0  0  0
   41.4150   54.4522   33.1105 N   0  0  0  0  0  0  0  0  0  0  0  0
   42.3535   54.5655   34.0796 C   0  0  0  0  0  0  0  0  0  0  0  0
   43.3462   55.3963   33.6300 N   0  0  0  0  0  0  0  0  0  0  0  0
  2  1  1  6  0  0  0
  2  3  1  0  0  0  0
  2  5  1  0  0  0  0
  3  4  1  0  0  0  0
  3 17  1  0  0  0  0
  5  6  1  0  0  0  0
  7  6  1  6  0  0  0
  7  8  1  0  0  0  0
  7  9  1  0  0  0  0
 10  9  1  6  0  0  0
 10 11  1  0  0  0  0
 10 12  1  0  0  0  0
 11 16  1  0  0  0  0
 12 13  1  1  0  0  0
 12 14  1  0  0  0  0
 14 15  1  1  0  0  0
 14 16  1  0  0  0  0
 16 27  1  6  0  0  0
 18 19  2  0  0  0  0
 18 23  1  0  0  0  0
 19 20  1  0  0  0  0
 20 21  2  0  0  0  0
 21 22  1  0  0  0  0
 21 27  1  0  0  0  0
 22 23  2  0  0  0  0
 22 25  1  0  0  0  0
 23 24  1  0  0  0  0
 25 26  2  0  0  0  0
 26 27  1  0  0  0  0
M  END
>  <CHROM.1>
-71.76579179,-168.68603972,-159.62421343,174.81646063,179.02106306,78.13313276
1.34112375,45.56951473,56.48327598,31.76993727,0.60891620,-0.29714837,-1.26614408

>  <Name>
ligand

>  <RI>
0

>  <Rbt.Current_Directory>
/home/itssahil/PROJECTS/Mol_Feturizer/New_Systems/rnas/3GX7

>  <Rbt.Executable>
rbdock ($Id: //depot/dev/client3/rdock/2013.1/src/exe/rbdock.cxx#4 $)

>  <Rbt.Library>
libRbt.so (2013.1, Build901 2013/11/27)

>  <Rbt.Parameter_File>
/export/apps/rDock/src/rDock_2013.1_src/data/scripts/dock_solv.prm

>  <Rbt.Receptor>
prm/pocket_docking_8.prm

>  <SCORE>
-18.0191

>  <SCORE.INTER>
-12.363

>  <SCORE.INTER.CONST>
1

>  <SCORE.INTER.POLAR>
0

>  <SCORE.INTER.ROT>
7

>  <SCORE.INTER.SOLV>
14.4931

>  <SCORE.INTER.VDW>
-21.3397

>  <SCORE.INTER.norm>
-0.45789

>  <SCORE.INTRA>
-5.65606

>  <SCORE.INTRA.DIHEDRAL>
-4.92009

>  <SCORE.INTRA.DIHEDRAL.0>
11.2699

>  <SCORE.INTRA.POLAR>
0

>  <SCORE.INTRA.POLAR.0>
0

>  <SCORE.INTRA.REPUL>
0

>  <SCORE.INTRA.REPUL.0>
0

>  <SCORE.INTRA.SOLV>
-1.08271

>  <SCORE.INTRA.SOLV.lig_0>
-48.6447

>  <SCORE.INTRA.VDW>
-2.65466

>  <SCORE.INTRA.VDW.0>
-0.0211724

>  <SCORE.INTRA.norm>
-0.209484

>  <SCORE.RESTR>
0

>  <SCORE.RESTR.CAVITY>
0

>  <SCORE.RESTR.norm>
0

>  <SCORE.SYSTEM>
0

>  <SCORE.SYSTEM.CONST>
0

>  <SCORE.SYSTEM.DIHEDRAL>
0

>  <SCORE.SYSTEM.SOLV>
0

>  <SCORE.SYSTEM.norm>
0

>  <SCORE.heavy>
27

>  <SCORE.norm>
-0.667374

>  <RMSD>
4.897

$$$$
ligand
 OpenBabel11021811483D
libRbt.so/2013.1/901 2013/11/27
 27 29  0  0  0  0  0  0  0  0999 V2000
   47.9434   53.6352   27.8058 N   0  0  0  0  0  0  0  0  0  0  0  0
   46.5330   53.9859   27.6907 C   0  0  2  0  0  0  0  0  0  0  0  0
   45.7351   52.8194   27.1320 C   0  0  0  0  0  0  0  0  0  0  0  0
   45.9104   52.4438   25.9753 O   0  0  0  0  0  0  0  0  0  0  0  0
   46.3247   55.2319   26.8309 C   0  0  0  0  0  0  0  0  0  0  0  0
   47.0318   56.4836   27.3367 C   0  0  0  0  0  0  0  0  0  0  0  0
   46.6210   56.9425   29.0432 S   0  0  2  0  0  0  0  0  0  0  0  0
   44.8779   57.3987   28.8738 C   0  0  0  0  0  0  0  0  0  0  0  0
   47.3859   58.5829   29.1312 C   0  0  0  0  0  0  0  0  0  0  0  0
   47.5058   59.0166   30.5845 C   0  0  1  0  0  0  0  0  0  0  0  0
   46.2137   59.0509   31.1410 O   0  0  0  0  0  0  0  0  0  0  0  0
   48.2865   58.0612   31.4644 C   0  0  1  0  0  0  0  0  0  0  0  0
   49.6161   58.4996   31.6021 O   0  0  0  0  0  0  0  0  0  0  0  0
   47.5578   58.1248   32.7946 C   0  0  1  0  0  0  0  0  0  0  0  0
   48.3154   58.8887   33.7029 O   0  0  0  0  0  0  0  0  0  0  0  0
   46.2245   58.8110   32.5251 C   0  0  2  0  0  0  0  0  0  0  0  0
   44.9069   52.2309   27.8278 O   0  0  0  0  0  0  0  0  0  0  0  0
   44.8774   54.2813   34.8383 N   0  0  0  0  0  0  0  0  0  0  0  0
   46.1285   54.8573   34.7484 C   0  0  0  0  0  0  0  0  0  0  0  0
   46.2983   56.0641   34.0950 N   0  0  0  0  0  0  0  0  0  0  0  0
   45.2444   56.6920   33.5287 C   0  0  0  0  0  0  0  0  0  0  0  0
   43.9769   56.1350   33.6130 C   0  0  0  0  0  0  0  0  0  0  0  0
   43.7964   54.9198   34.2682 C   0  0  0  0  0  0  0  0  0  0  0  0
   42.5891   54.3672   34.3532 N   0  0  0  0  0  0  0  0  0  0  0  0
   43.1206   56.9677   32.9802 N   0  0  0  0  0  0  0  0  0  0  0  0
   43.8117   58.0351   32.5156 C   0  0  0  0  0  0  0  0  0  0  0  0
   45.1318   57.8781   32.8482 N   0  0  0  0  0  0  0  0  0  0  0  0
  2  1  1  6  0  0  0
  2  3  1  0  0  0  0
  2  5  1  0  0  0  0
  3  4  1  0  0  0  0
  3 17  1  0  0  0  0
  5  6  1  0  0  0  0
  7  6  1  6  0  0  0
  7  8  1  0  0  0  0
  7  9  1  0  0  0  0
 10  9  1  6  0  0  0
 10 11  1  0  0  0  0
 10 12  1  0  0  0  0
 11 16  1  0  0  0  0
 12 13  1  1  0  0  0
 12 14  1  0  0  0  0
 14 15  1  1  0  0  0
 14 16  1  0  0  0  0
 16 27  1  6  0  0  0
 18 19  2  0  0  0  0
 18 23  1  0  0  0  0
 19 20  1  0  0  0  0
 20 21  2  0  0  0  0
 21 22  1  0  0  0  0
 21 27  1  0  0  0  0
 22 23  2  0  0  0  0
 22 25  1  0  0  0  0
 23 24  1  0  0  0  0
 25 26  2  0  0  0  0
 26 27  1  0  0  0  0
M  END
>  <CHROM.1>
-67.00228412,-59.00307380,-55.62743021,-66.82540807,-164.49228556,-59.65127125
125.95929978,46.07189053,56.34740449,30.90962784,1.41075836,-0.89770575,-2.12483907

>  <Name>
ligand

>  <RI>
0

>  <Rbt.Current_Directory>
/home/itssahil/PROJECTS/Mol_Feturizer/New_Systems/rnas/3GX7

>  <Rbt.Executable>
rbdock ($Id: //depot/dev/client3/rdock/2013.1/src/exe/rbdock.cxx#4 $)

>  <Rbt.Library>
libRbt.so (2013.1, Build901 2013/11/27)

>  <Rbt.Parameter_File>
/export/apps/rDock/src/rDock_2013.1_src/data/scripts/dock_solv.prm

>  <Rbt.Receptor>
prm/pocket_docking_5.prm

>  <SCORE>
-17.4896

>  <SCORE.INTER>
-12.5606

>  <SCORE.INTER.CONST>
1

>  <SCORE.INTER.POLAR>
0

>  <SCORE.INTER.ROT>
7

>  <SCORE.INTER.SOLV>
10.4675

>  <SCORE.INTER.VDW>
-20.1296

>  <SCORE.INTER.norm>
-0.465209

>  <SCORE.INTRA>
-4.92899

>  <SCORE.INTRA.DIHEDRAL>
-6.55328

>  <SCORE.INTRA.DIHEDRAL.0>
11.2699

>  <SCORE.INTRA.POLAR>
0

>  <SCORE.INTRA.POLAR.0>
0

>  <SCORE.INTRA.REPUL>
0

>  <SCORE.INTRA.REPUL.0>
0

>  <SCORE.INTRA.SOLV>
0.518511

>  <SCORE.INTRA.SOLV.lig_0>
-48.6447

>  <SCORE.INTRA.VDW>
-1.9116

>  <SCORE.INTRA.VDW.0>
-0.0211724

>  <SCORE.INTRA.norm>
-0.182555

>  <SCORE.RESTR>
0

>  <SCORE.RESTR.CAVITY>
0

>  <SCORE.RESTR.norm>
0

>  <SCORE.SYSTEM>
0

>  <SCORE.SYSTEM.CONST>
0

>  <SCORE.SYSTEM.DIHEDRAL>
0

>  <SCORE.SYSTEM.SOLV>
0

>  <SCORE.SYSTEM.norm>
0

>  <SCORE.heavy>
27

>  <SCORE.norm>
-0.647764

>  <RMSD>
4.901

$$$$
ligand
 OpenBabel11021811483D
libRbt.so/2013.1/901 2013/11/27
 27 29  0  0  0  0  0  0  0  0999 V2000
   45.9760   58.0048   29.3062 N   0  0  0  0  0  0  0  0  0  0  0  0
   47.2791   57.9522   28.6545 C   0  0  2  0  0  0  0  0  0  0  0  0
   47.6533   56.5176   28.3207 C   0  0  0  0  0  0  0  0  0  0  0  0
   46.8049   55.6295   28.3573 O   0  0  0  0  0  0  0  0  0  0  0  0
   48.3686   58.6003   29.5077 C   0  0  0  0  0  0  0  0  0  0  0  0
   48.5319   58.0015   30.8997 C   0  0  0  0  0  0  0  0  0  0  0  0
   47.4293   58.7063   32.1562 S   0  0  2  0  0  0  0  0  0  0  0  0
   48.0106   60.4192   32.2121 C   0  0  0  0  0  0  0  0  0  0  0  0
   48.1916   58.0482   33.6627 C   0  0  0  0  0  0  0  0  0  0  0  0
   47.6970   56.6312   33.9119 C   0  0  1  0  0  0  0  0  0  0  0  0
   47.3289   56.0701   32.6750 O   0  0  0  0  0  0  0  0  0  0  0  0
   48.7423   55.6891   34.4743 C   0  0  1  0  0  0  0  0  0  0  0  0
   48.6118   55.5926   35.8717 O   0  0  0  0  0  0  0  0  0  0  0  0
   48.4212   54.3623   33.8104 C   0  0  1  0  0  0  0  0  0  0  0  0
   47.7899   53.5172   34.7431 O   0  0  0  0  0  0  0  0  0  0  0  0
   47.4681   54.6723   32.6629 C   0  0  2  0  0  0  0  0  0  0  0  0
   48.8066   56.2238   28.0046 O   0  0  0  0  0  0  0  0  0  0  0  0
   46.8418   52.2692   28.0243 N   0  0  0  0  0  0  0  0  0  0  0  0
   45.9118   52.4465   29.0286 C   0  0  0  0  0  0  0  0  0  0  0  0
   46.2562   53.1085   30.1928 N   0  0  0  0  0  0  0  0  0  0  0  0
   47.5090   53.5836   30.3670 C   0  0  0  0  0  0  0  0  0  0  0  0
   48.4578   53.4231   29.3680 C   0  0  0  0  0  0  0  0  0  0  0  0
   48.1204   52.7570   28.1928 C   0  0  0  0  0  0  0  0  0  0  0  0
   49.0193   52.5878   27.2265 N   0  0  0  0  0  0  0  0  0  0  0  0
   49.6045   53.9966   29.7962 N   0  0  0  0  0  0  0  0  0  0  0  0
   49.3973   54.5233   31.0260 C   0  0  0  0  0  0  0  0  0  0  0  0
   48.1009   54.2747   31.3939 N   0  0  0  0  0  0  0  0  0  0  0  0
  2  1  1  1  0  0  0
  2  3  1  0  0  0  0
  2  5  1  0  0  0  0
  3  4  1  0  0  0  0
  3 17  1  0  0  0  0
  5  6  1  0  0  0  0
  7  6  1  6  0  0  0
  7  8  1  0  0  0  0
  7  9  1  0  0  0  0
 10  9  1  6  0  0  0
 10 11  1  0  0  0  0
 10 12  1  0  0  0  0
 11 16  1  0  0  0  0
 12 13  1  1  0  0  0
 12 14  1  0  0  0  0
 14 15  1  1  0  0  0
 14 16  1  0  0  0  0
 16 27  1  6  0  0  0
 18 19  2  0  0  0  0
 18 23  1  0  0  0  0
 19 20  1  0  0  0  0
 20 21  2  0  0  0  0
 21 22  1  0  0  0  0
 21 27  1  0  0  0  0
 22 23  2  0  0  0  0
 22 25  1  0  0  0  0
 23 24  1  0  0  0  0
 25 26  2  0  0  0  0
 26 27  1  0  0  0  0
M  END
>  <CHROM.1>
14.23905002,57.34038943,-86.11480671,-64.11922463,-83.10099422,26.31623213
-111.17916811,47.84450487,55.67254475,30.99536842,0.99543677,-1.48530099
0.33722245

>  <Name>
ligand

>  <RI>
0

>  <Rbt.Current_Directory>
/home/itssahil/PROJECTS/Mol_Feturizer/New_Systems/rnas/3GX7

>  <Rbt.Executable>
rbdock ($Id: //depot/dev/client3/rdock/2013.1/src/exe/rbdock.cxx#4 $)

>  <Rbt.Library>
libRbt.so (2013.1, Build901 2013/11/27)

>  <Rbt.Parameter_File>
/export/apps/rDock/src/rDock_2013.1_src/data/scripts/dock_solv.prm

>  <Rbt.Receptor>
prm/pocket_docking_2.prm

>  <SCORE>
-13.1393

>  <SCORE.INTER>
-10.8774

>  <SCORE.INTER.CONST>
1

>  <SCORE.INTER.POLAR>
0

>  <SCORE.INTER.ROT>
7

>  <SCORE.INTER.SOLV>
10.0074

>  <SCORE.INTER.VDW>
-18.8541

>  <SCORE.INTER.norm>
-0.402866

>  <SCORE.INTRA>
-3.81627

>  <SCORE.INTRA.DIHEDRAL>
-2.10047

>  <SCORE.INTRA.DIHEDRAL.0>
11.2699

>  <SCORE.INTRA.POLAR>
0

>  <SCORE.INTRA.POLAR.0>
0

>  <SCORE.INTRA.REPUL>
0

>  <SCORE.INTRA.REPUL.0>
0

>  <SCORE.INTRA.SOLV>
1.55243

>  <SCORE.INTRA.SOLV.lig_0>
-48.6447

>  <SCORE.INTRA.VDW>
-3.54225

>  <SCORE.INTRA.VDW.0>
-0.0211724

>  <SCORE.INTRA.norm>
-0.141343

>  <SCORE.RESTR>
1.5543

>  <SCORE.RESTR.CAVITY>
1.5543

>  <SCORE.RESTR.norm>
0.0575667

>  <SCORE.SYSTEM>
0

>  <SCORE.SYSTEM.CONST>
0

>  <SCORE.SYSTEM.DIHEDRAL>
0

>  <SCORE.SYSTEM.SOLV>
0

>  <SCORE.SYSTEM.norm>
0

>  <SCORE.heavy>
27

>  <SCORE.norm>
-0.486643

>  <RMSD>
4.926

$$$$
ligand
 OpenBabel11021811483D
libRbt.so/2013.1/901 2013/11/27
 27 29  0  0  0  0  0  0  0  0999 V2000
   47.0682   53.0419   28.0483 N   0  0  0  0  0  0  0  0  0  0  0  0
   48.1652   53.3878   28.9441 C   0  0  2  0  0  0  0  0  0  0  0  0
   47.6312   53.9126   30.2667 C   0  0  0  0  0  0  0  0  0  0  0  0
   48.3962   54.1306   31.2032 O   0  0  0  0  0  0  0  0  0  0  0  0
   49.1153   54.4052   28.3140 C   0  0  0  0  0  0  0  0  0  0  0  0
   48.4298   55.5516   27.5801 C   0  0  0  0  0  0  0  0  0  0  0  0
   47.3664   56.5852   28.6253 S   0  0  2  0  0  0  0  0  0  0  0  0
   47.0265   57.9735   27.5154 C   0  0  0  0  0  0  0  0  0  0  0  0
   48.6078   57.3290   29.7159 C   0  0  0  0  0  0  0  0  0  0  0  0
   47.9166   58.1126   30.8218 C   0  0  1  0  0  0  0  0  0  0  0  0
   47.2697   57.1963   31.6716 O   0  0  0  0  0  0  0  0  0  0  0  0
   48.8544   58.8894   31.7238 C   0  0  1  0  0  0  0  0  0  0  0  0
   48.9259   60.2330   31.3133 O   0  0  0  0  0  0  0  0  0  0  0  0
   48.2071   58.7780   33.0923 C   0  0  1  0  0  0  0  0  0  0  0  0
   47.5887   60.0013   33.4144 O   0  0  0  0  0  0  0  0  0  0  0  0
   47.1579   57.6783   32.9863 C   0  0  2  0  0  0  0  0  0  0  0  0
   46.4291   54.1316   30.4192 O   0  0  0  0  0  0  0  0  0  0  0  0
   45.9733   52.8560   34.7261 N   0  0  0  0  0  0  0  0  0  0  0  0
   45.3375   53.5928   33.7474 C   0  0  0  0  0  0  0  0  0  0  0  0
   45.7906   54.8569   33.4174 N   0  0  0  0  0  0  0  0  0  0  0  0
   46.8560   55.3917   34.0533 C   0  0  0  0  0  0  0  0  0  0  0  0
   47.5147   54.6664   35.0351 C   0  0  0  0  0  0  0  0  0  0  0  0
   47.0652   53.3931   35.3747 C   0  0  0  0  0  0  0  0  0  0  0  0
   47.6804   52.6854   36.3186 N   0  0  0  0  0  0  0  0  0  0  0  0
   48.5368   55.4256   35.4890 N   0  0  0  0  0  0  0  0  0  0  0  0
   48.5459   56.5973   34.8108 C   0  0  0  0  0  0  0  0  0  0  0  0
   47.5080   56.5911   33.9160 N   0  0  0  0  0  0  0  0  0  0  0  0
  2  1  1  6  0  0  0
  2  3  1  0  0  0  0
  2  5  1  0  0  0  0
  3  4  1  0  0  0  0
  3 17  1  0  0  0  0
  5  6  1  0  0  0  0
  7  6  1  6  0  0  0
  7  8  1  0  0  0  0
  7  9  1  0  0  0  0
 10  9  1  6  0  0  0
 10 11  1  0  0  0  0
 10 12  1  0  0  0  0
 11 16  1  0  0  0  0
 12 13  1  6  0  0  0
 12 14  1  0  0  0  0
 14 15  1  6  0  0  0
 14 16  1  0  0  0  0
 16 27  1  1  0  0  0
 18 19  2  0  0  0  0
 18 23  1  0  0  0  0
 19 20  1  0  0  0  0
 20 21  2  0  0  0  0
 21 22  1  0  0  0  0
 21 27  1  0  0  0  0
 22 23  2  0  0  0  0
 22 25  1  0  0  0  0
 23 24  1  0  0  0  0
 25 26  2  0  0  0  0
 26 27  1  0  0  0  0
M  END
>  <CHROM.1>
172.62995649,43.39227244,61.28179993,169.08079130,-172.43518969,68.73806391
-61.93695785,47.59023604,55.92188882,31.71769376,0.93206202,-1.38149219,-1.90665787

>  <Name>
ligand

>  <RI>
0

>  <Rbt.Current_Directory>
/home/itssahil/PROJECTS/Mol_Feturizer/New_Systems/rnas/3GX7

>  <Rbt.Executable>
rbdock ($Id: //depot/dev/client3/rdock/2013.1/src/exe/rbdock.cxx#4 $)

>  <Rbt.Library>
libRbt.so (2013.1, Build901 2013/11/27)

>  <Rbt.Parameter_File>
/export/apps/rDock/src/rDock_2013.1_src/data/scripts/dock_solv.prm

>  <Rbt.Receptor>
prm/pocket_docking_2.prm

>  <SCORE>
-9.34327

>  <SCORE.INTER>
-4.23208

>  <SCORE.INTER.CONST>
1

>  <SCORE.INTER.POLAR>
0

>  <SCORE.INTER.ROT>
7

>  <SCORE.INTER.SOLV>
16.7021

>  <SCORE.INTER.VDW>
-16.6554

>  <SCORE.INTER.norm>
-0.156744

>  <SCORE.INTRA>
-6.52074

>  <SCORE.INTRA.DIHEDRAL>
-6.05582

>  <SCORE.INTRA.DIHEDRAL.0>
11.2699

>  <SCORE.INTRA.POLAR>
0

>  <SCORE.INTRA.POLAR.0>
0

>  <SCORE.INTRA.REPUL>
0

>  <SCORE.INTRA.REPUL.0>
0

>  <SCORE.INTRA.SOLV>
0.604781

>  <SCORE.INTRA.SOLV.lig_0>
-48.6447

>  <SCORE.INTRA.VDW>
-3.79522

>  <SCORE.INTRA.VDW.0>
-0.0211724

>  <SCORE.INTRA.norm>
-0.241509

>  <SCORE.RESTR>
1.40955

>  <SCORE.RESTR.CAVITY>
1.40955

>  <SCORE.RESTR.norm>
0.0522055

>  <SCORE.SYSTEM>
0

>  <SCORE.SYSTEM.CONST>
0

>  <SCORE.SYSTEM.DIHEDRAL>
0

>  <SCORE.SYSTEM.SOLV>
0

>  <SCORE.SYSTEM.norm>
0

>  <SCORE.heavy>
27

>  <SCORE.norm>
-0.346047

>  <RMSD>
4.944

$$$$
ligand
 OpenBabel11021811483D
libRbt.so/2013.1/901 2013/11/27
 27 29  0  0  0  0  0  0  0  0999 V2000
   49.9384   52.7602   28.0181 N   0  0  0  0  0  0  0  0  0  0  0  0
   48.4999   52.5491   28.1271 C   0  0  2  0  0  0  0  0  0  0  0  0
   47.9102   52.1734   26.7778 C   0  0  0  0  0  0  0  0  0  0  0  0
   46.7183   52.3624   26.5461 O   0  0  0  0  0  0  0  0  0  0  0  0
   47.7863   53.7748   28.6957 C   0  0  0  0  0  0  0  0  0  0  0  0
   47.9760   55.0556   27.8919 C   0  0  0  0  0  0  0  0  0  0  0  0
   47.3633   56.5548   28.7095 S   0  0  2  0  0  0  0  0  0  0  0  0
   47.9669   57.8387   27.5860 C   0  0  0  0  0  0  0  0  0  0  0  0
   48.5646   56.7029   30.0581 C   0  0  0  0  0  0  0  0  0  0  0  0
   48.1582   57.8383   30.9857 C   0  0  1  0  0  0  0  0  0  0  0  0
   46.8159   57.6414   31.3597 O   0  0  0  0  0  0  0  0  0  0  0  0
   48.9256   57.8900   32.2914 C   0  0  1  0  0  0  0  0  0  0  0  0
   49.9762   58.8214   32.2041 O   0  0  0  0  0  0  0  0  0  0  0  0
   47.8852   58.3444   33.2991 C   0  0  1  0  0  0  0  0  0  0  0  0
   48.1093   59.6970   33.6199 O   0  0  0  0  0  0  0  0  0  0  0  0
   46.5297   58.1897   32.6210 C   0  0  2  0  0  0  0  0  0  0  0  0
   48.6149   51.6801   25.8966 O   0  0  0  0  0  0  0  0  0  0  0  0
   46.4204   53.5072   35.0183 N   0  0  0  0  0  0  0  0  0  0  0  0
   47.4753   54.1079   34.3615 C   0  0  0  0  0  0  0  0  0  0  0  0
   47.3214   55.3546   33.7833 N   0  0  0  0  0  0  0  0  0  0  0  0
   46.1351   55.9983   33.8457 C   0  0  0  0  0  0  0  0  0  0  0  0
   45.0635   55.4166   34.5068 C   0  0  0  0  0  0  0  0  0  0  0  0
   45.2087   54.1613   35.0913 C   0  0  0  0  0  0  0  0  0  0  0  0
   44.1898   53.5850   35.7237 N   0  0  0  0  0  0  0  0  0  0  0  0
   44.0198   56.2719   34.4269 N   0  0  0  0  0  0  0  0  0  0  0  0
   44.4106   57.3765   33.7488 C   0  0  0  0  0  0  0  0  0  0  0  0
   45.7216   57.2213   33.3813 N   0  0  0  0  0  0  0  0  0  0  0  0
  2  1  1  6  0  0  0
  2  3  1  0  0  0  0
  2  5  1  0  0  0  0
  3  4  1  0  0  0  0
  3 17  1  0  0  0  0
  5  6  1  0  0  0  0
  7  6  1  6  0  0  0
  7  8  1  0  0  0  0
  7  9  1  0  0  0  0
 10  9  1  6  0  0  0
 10 11  1  0  0  0  0
 10 12  1  0  0  0  0
 11 16  1  0  0  0  0
 12 13  1  6  0  0  0
 12 14  1  0  0  0  0
 14 15  1  6  0  0  0
 14 16  1  0  0  0  0
 16 27  1  1  0  0  0
 18 19  2  0  0  0  0
 18 23  1  0  0  0  0
 19 20  1  0  0  0  0
 20 21  2  0  0  0  0
 21 22  1  0  0  0  0
 21 27  1  0  0  0  0
 22 23  2  0  0  0  0
 22 25  1  0  0  0  0
 23 24  1  0  0  0  0
 25 26  2  0  0  0  0
 26 27  1  0  0  0  0
M  END
>  <CHROM.1>
-156.86179241,58.48930551,-170.33651990,172.38973942,-174.12708849,51.92251841
67.19488219,47.23205000,55.72640233,31.20372551,0.98847849,-1.07260722,-2.50714582

>  <Name>
ligand

>  <RI>
0

>  <Rbt.Current_Directory>
/home/itssahil/PROJECTS/Mol_Feturizer/New_Systems/rnas/3GX7

>  <Rbt.Executable>
rbdock ($Id: //depot/dev/client3/rdock/2013.1/src/exe/rbdock.cxx#4 $)

>  <Rbt.Library>
libRbt.so (2013.1, Build901 2013/11/27)

>  <Rbt.Parameter_File>
/export/apps/rDock/src/rDock_2013.1_src/data/scripts/dock_solv.prm

>  <Rbt.Receptor>
prm/pocket_docking_4.prm

>  <SCORE>
-16.1684

>  <SCORE.INTER>
-10.662

>  <SCORE.INTER.CONST>
1

>  <SCORE.INTER.POLAR>
0

>  <SCORE.INTER.ROT>
7

>  <SCORE.INTER.SOLV>
11.3135

>  <SCORE.INTER.VDW>
-19.1459

>  <SCORE.INTER.norm>
-0.394891

>  <SCORE.INTRA>
-5.50975

>  <SCORE.INTRA.DIHEDRAL>
-6.95976

>  <SCORE.INTRA.DIHEDRAL.0>
11.2699

>  <SCORE.INTRA.POLAR>
0

>  <SCORE.INTRA.POLAR.0>
0

>  <SCORE.INTRA.REPUL>
0

>  <SCORE.INTRA.REPUL.0>
0

>  <SCORE.INTRA.SOLV>
-0.339824

>  <SCORE.INTRA.SOLV.lig_0>
-48.6447

>  <SCORE.INTRA.VDW>
-1.85996

>  <SCORE.INTRA.VDW.0>
-0.0211724

>  <SCORE.INTRA.norm>
-0.204065

>  <SCORE.RESTR>
0.00337577

>  <SCORE.RESTR.CAVITY>
0.00337577

>  <SCORE.RESTR.norm>
0.000125028

>  <SCORE.SYSTEM>
0

>  <SCORE.SYSTEM.CONST>
0

>  <SCORE.SYSTEM.DIHEDRAL>
0

>  <SCORE.SYSTEM.SOLV>
0

>  <SCORE.SYSTEM.norm>
0

>  <SCORE.heavy>
27

>  <SCORE.norm>
-0.59883

>  <RMSD>
4.952

$$$$
ligand
 OpenBabel11021811483D
libRbt.so/2013.1/901 2013/11/27
 27 29  0  0  0  0  0  0  0  0999 V2000
   48.4013   52.0303   29.7594 N   0  0  0  0  0  0  0  0  0  0  0  0
   48.8085   53.3831   30.1191 C   0  0  2  0  0  0  0  0  0  0  0  0
   49.0004   53.5028   31.6220 C   0  0  0  0  0  0  0  0  0  0  0  0
   49.8743   54.2347   32.0806 O   0  0  0  0  0  0  0  0  0  0  0  0
   47.8086   54.4284   29.6266 C   0  0  0  0  0  0  0  0  0  0  0  0
   48.2666   55.8739   29.7798 C   0  0  0  0  0  0  0  0  0  0  0  0
   47.0518   57.1092   29.2416 S   0  0  2  0  0  0  0  0  0  0  0  0
   46.9986   56.7959   27.4601 C   0  0  0  0  0  0  0  0  0  0  0  0
   48.0712   58.6068   29.2846 C   0  0  0  0  0  0  0  0  0  0  0  0
   48.0808   59.1815   30.6932 C   0  0  1  0  0  0  0  0  0  0  0  0
   46.7491   59.2786   31.1375 O   0  0  0  0  0  0  0  0  0  0  0  0
   48.7754   58.3132   31.7228 C   0  0  1  0  0  0  0  0  0  0  0  0
   50.0958   58.7551   31.9237 O   0  0  0  0  0  0  0  0  0  0  0  0
   47.9440   58.5126   32.9771 C   0  0  1  0  0  0  0  0  0  0  0  0
   48.6374   59.3581   33.8642 O   0  0  0  0  0  0  0  0  0  0  0  0
   46.6461   59.1768   32.5348 C   0  0  2  0  0  0  0  0  0  0  0  0
   48.2831   52.8747   32.4014 O   0  0  0  0  0  0  0  0  0  0  0  0
   45.1621   54.5423   34.5355 N   0  0  0  0  0  0  0  0  0  0  0  0
   46.4400   55.0457   34.3991 C   0  0  0  0  0  0  0  0  0  0  0  0
   46.6445   56.2956   33.8440 N   0  0  0  0  0  0  0  0  0  0  0  0
   45.5980   57.0378   33.4202 C   0  0  0  0  0  0  0  0  0  0  0  0
   44.3047   56.5549   33.5541 C   0  0  0  0  0  0  0  0  0  0  0  0
   44.0890   55.2971   34.1110 C   0  0  0  0  0  0  0  0  0  0  0  0
   42.8559   54.8147   34.2411 N   0  0  0  0  0  0  0  0  0  0  0  0
   43.4641   57.4946   33.0669 N   0  0  0  0  0  0  0  0  0  0  0  0
   44.1914   58.5560   32.6460 C   0  0  0  0  0  0  0  0  0  0  0  0
   45.5182   58.2871   32.8587 N   0  0  0  0  0  0  0  0  0  0  0  0
  2  1  1  1  0  0  0
  2  3  1  0  0  0  0
  2  5  1  0  0  0  0
  3  4  1  0  0  0  0
  3 17  1  0  0  0  0
  5  6  1  0  0  0  0
  7  6  1  1  0  0  0
  7  8  1  0  0  0  0
  7  9  1  0  0  0  0
 10  9  1  6  0  0  0
 10 11  1  0  0  0  0
 10 12  1  0  0  0  0
 11 16  1  0  0  0  0
 12 13  1  1  0  0  0
 12 14  1  0  0  0  0
 14 15  1  1  0  0  0
 14 16  1  0  0  0  0
 16 27  1  6  0  0  0
 18 19  2  0  0  0  0
 18 23  1  0  0  0  0
 19 20  1  0  0  0  0
 20 21  2  0  0  0  0
 21 22  1  0  0  0  0
 21 27  1  0  0  0  0
 22 23  2  0  0  0  0
 22 25  1  0  0  0  0
 23 24  1  0  0  0  0
 25 26  2  0  0  0  0
 26 27  1  0  0  0  0
M  END
>  <CHROM.1>
145.49686338,-171.25001900,-178.13963725,-66.75153344,-84.91183791,-50.11926896
111.49564737,47.03173126,56.53346196,31.79332104,0.33129198,-0.80215380,3.06689163

>  <Name>
ligand

>  <RI>
0

>  <Rbt.Current_Directory>
/home/itssahil/PROJECTS/Mol_Feturizer/New_Systems/rnas/3GX7

>  <Rbt.Executable>
rbdock ($Id: //depot/dev/client3/rdock/2013.1/src/exe/rbdock.cxx#4 $)

>  <Rbt.Library>
libRbt.so (2013.1, Build901 2013/11/27)

>  <Rbt.Parameter_File>
/export/apps/rDock/src/rDock_2013.1_src/data/scripts/dock_solv.prm

>  <Rbt.Receptor>
prm/pocket_docking_5.prm

>  <SCORE>
-18.6137

>  <SCORE.INTER>
-12.6432

>  <SCORE.INTER.CONST>
1

>  <SCORE.INTER.POLAR>
0

>  <SCORE.INTER.ROT>
7

>  <SCORE.INTER.SOLV>
16.6703

>  <SCORE.INTER.VDW>
-22.2522

>  <SCORE.INTER.norm>
-0.468265

>  <SCORE.INTRA>
-5.9705

>  <SCORE.INTRA.DIHEDRAL>
-6.68908

>  <SCORE.INTRA.DIHEDRAL.0>
11.2699

>  <SCORE.INTRA.POLAR>
0

>  <SCORE.INTRA.POLAR.0>
0

>  <SCORE.INTRA.REPUL>
0

>  <SCORE.INTRA.REPUL.0>
0

>  <SCORE.INTRA.SOLV>
-0.781389

>  <SCORE.INTRA.SOLV.lig_0>
-48.6447

>  <SCORE.INTRA.VDW>
-2.23526

>  <SCORE.INTRA.VDW.0>
-0.0211724

>  <SCORE.INTRA.norm>
-0.22113

>  <SCORE.RESTR>
0

>  <SCORE.RESTR.CAVITY>
0

>  <SCORE.RESTR.norm>
0

>  <SCORE.SYSTEM>
0

>  <SCORE.SYSTEM.CONST>
0

>  <SCORE.SYSTEM.DIHEDRAL>
0

>  <SCORE.SYSTEM.SOLV>
0

>  <SCORE.SYSTEM.norm>
0

>  <SCORE.heavy>
27

>  <SCORE.norm>
-0.689395

>  <RMSD>
4.955

$$$$
ligand
 OpenBabel11021811483D
libRbt.so/2013.1/901 2013/11/27
 27 29  0  0  0  0  0  0  0  0999 V2000
   48.5520   55.4963   28.8002 N   0  0  0  0  0  0  0  0  0  0  0  0
   48.4003   55.4670   27.3505 C   0  0  2  0  0  0  0  0  0  0  0  0
   49.7568   55.5354   26.6687 C   0  0  0  0  0  0  0  0  0  0  0  0
   49.8570   55.3269   25.4619 O   0  0  0  0  0  0  0  0  0  0  0  0
   47.4970   56.5933   26.8500 C   0  0  0  0  0  0  0  0  0  0  0  0
   46.0576   56.5274   27.3464 C   0  0  0  0  0  0  0  0  0  0  0  0
   45.8462   56.9452   29.0992 S   0  0  2  0  0  0  0  0  0  0  0  0
   44.0565   56.7579   29.2910 C   0  0  0  0  0  0  0  0  0  0  0  0
   45.9841   58.7504   29.0213 C   0  0  0  0  0  0  0  0  0  0  0  0
   46.3027   59.3014   30.4031 C   0  0  1  0  0  0  0  0  0  0  0  0
   45.2474   58.9567   31.2679 O   0  0  0  0  0  0  0  0  0  0  0  0
   47.5434   58.7137   31.0448 C   0  0  1  0  0  0  0  0  0  0  0  0
   48.6453   59.5660   30.8486 O   0  0  0  0  0  0  0  0  0  0  0  0
   47.1801   58.6331   32.5164 C   0  0  1  0  0  0  0  0  0  0  0  0
   47.8395   59.6628   33.2145 O   0  0  0  0  0  0  0  0  0  0  0  0
   45.6719   58.8318   32.6011 C   0  0  2  0  0  0  0  0  0  0  0  0
   50.7726   55.8046   27.3106 O   0  0  0  0  0  0  0  0  0  0  0  0
   46.4900   54.3185   35.1789 N   0  0  0  0  0  0  0  0  0  0  0  0
   47.4186   55.2640   34.7930 C   0  0  0  0  0  0  0  0  0  0  0  0
   47.0194   56.4013   34.1151 N   0  0  0  0  0  0  0  0  0  0  0  0
   45.7172   56.5991   33.8138 C   0  0  0  0  0  0  0  0  0  0  0  0
   44.7660   55.6656   34.1982 C   0  0  0  0  0  0  0  0  0  0  0  0
   45.1586   54.5170   34.8803 C   0  0  0  0  0  0  0  0  0  0  0  0
   44.2610   53.6075   35.2509 N   0  0  0  0  0  0  0  0  0  0  0  0
   43.5603   56.1154   33.7848 N   0  0  0  0  0  0  0  0  0  0  0  0
   43.7270   57.3084   33.1669 C   0  0  0  0  0  0  0  0  0  0  0  0
   45.0609   57.6218   33.1768 N   0  0  0  0  0  0  0  0  0  0  0  0
  2  1  1  1  0  0  0
  2  3  1  0  0  0  0
  2  5  1  0  0  0  0
  3  4  1  0  0  0  0
  3 17  1  0  0  0  0
  5  6  1  0  0  0  0
  7  6  1  6  0  0  0
  7  8  1  0  0  0  0
  7  9  1  0  0  0  0
 10  9  1  6  0  0  0
 10 11  1  0  0  0  0
 10 12  1  0  0  0  0
 11 16  1  0  0  0  0
 12 13  1  1  0  0  0
 12 14  1  0  0  0  0
 14 15  1  1  0  0  0
 14 16  1  0  0  0  0
 16 27  1  6  0  0  0
 18 19  2  0  0  0  0
 18 23  1  0  0  0  0
 19 20  1  0  0  0  0
 20 21  2  0  0  0  0
 21 22  1  0  0  0  0
 21 27  1  0  0  0  0
 22 23  2  0  0  0  0
 22 25  1  0  0  0  0
 23 24  1  0  0  0  0
 25 26  2  0  0  0  0
 26 27  1  0  0  0  0
M  END
>  <CHROM.1>
169.29913908,-63.10384750,72.23916152,179.91351834,-161.08759487,-61.03597240
127.32439896,46.62332360,56.87117408,30.97556635,-0.40373045,-1.09372837
2.71750635

>  <Name>
ligand

>  <RI>
0

>  <Rbt.Current_Directory>
/home/itssahil/PROJECTS/Mol_Feturizer/New_Systems/rnas/3GX7

>  <Rbt.Executable>
rbdock ($Id: //depot/dev/client3/rdock/2013.1/src/exe/rbdock.cxx#4 $)

>  <Rbt.Library>
libRbt.so (2013.1, Build901 2013/11/27)

>  <Rbt.Parameter_File>
/export/apps/rDock/src/rDock_2013.1_src/data/scripts/dock_solv.prm

>  <Rbt.Receptor>
prm/pocket_docking_6.prm

>  <SCORE>
-16.5665

>  <SCORE.INTER>
-12.3238

>  <SCORE.INTER.CONST>
1

>  <SCORE.INTER.POLAR>
0

>  <SCORE.INTER.ROT>
7

>  <SCORE.INTER.SOLV>
11.3374

>  <SCORE.INTER.VDW>
-20.2617

>  <SCORE.INTER.norm>
-0.456437

>  <SCORE.INTRA>
-4.24976

>  <SCORE.INTRA.DIHEDRAL>
-5.45997

>  <SCORE.INTRA.DIHEDRAL.0>
11.2699

>  <SCORE.INTRA.POLAR>
0

>  <SCORE.INTRA.POLAR.0>
0

>  <SCORE.INTRA.REPUL>
0

>  <SCORE.INTRA.REPUL.0>
0

>  <SCORE.INTRA.SOLV>
1.78853

>  <SCORE.INTRA.SOLV.lig_0>
-48.6447

>  <SCORE.INTRA.VDW>
-2.41404

>  <SCORE.INTRA.VDW.0>
-0.0211724

>  <SCORE.INTRA.norm>
-0.157398

>  <SCORE.RESTR>
0.0070703

>  <SCORE.RESTR.CAVITY>
0.0070703

>  <SCORE.RESTR.norm>
0.000261863

>  <SCORE.SYSTEM>
0

>  <SCORE.SYSTEM.CONST>
0

>  <SCORE.SYSTEM.DIHEDRAL>
0

>  <SCORE.SYSTEM.SOLV>
0

>  <SCORE.SYSTEM.norm>
0

>  <SCORE.heavy>
27

>  <SCORE.norm>
-0.613574

>  <RMSD>
4.962

$$$$
ligand
 OpenBabel11021811483D
libRbt.so/2013.1/901 2013/11/27
 27 29  0  0  0  0  0  0  0  0999 V2000
   45.6569   56.6891   28.8624 N   0  0  0  0  0  0  0  0  0  0  0  0
   46.2262   58.0290   28.7845 C   0  0  2  0  0  0  0  0  0  0  0  0
   47.6095   57.9874   28.1566 C   0  0  0  0  0  0  0  0  0  0  0  0
   48.3211   58.9892   28.1537 O   0  0  0  0  0  0  0  0  0  0  0  0
   46.2852   58.7027   30.1548 C   0  0  0  0  0  0  0  0  0  0  0  0
   47.0976   57.9513   31.2027 C   0  0  0  0  0  0  0  0  0  0  0  0
   47.0552   58.6894   32.8594 S   0  0  2  0  0  0  0  0  0  0  0  0
   47.9927   60.2134   32.5885 C   0  0  0  0  0  0  0  0  0  0  0  0
   48.3029   57.6772   33.6976 C   0  0  0  0  0  0  0  0  0  0  0  0
   47.7233   56.3072   34.0166 C   0  0  1  0  0  0  0  0  0  0  0  0
   47.1902   55.7684   32.8309 O   0  0  0  0  0  0  0  0  0  0  0  0
   48.7402   55.2875   34.4882 C   0  0  1  0  0  0  0  0  0  0  0  0
   48.7419   55.2128   35.8930 O   0  0  0  0  0  0  0  0  0  0  0  0
   48.2492   53.9862   33.8802 C   0  0  1  0  0  0  0  0  0  0  0  0
   47.6480   53.2026   34.8837 O   0  0  0  0  0  0  0  0  0  0  0  0
   47.2149   54.3639   32.8272 C   0  0  2  0  0  0  0  0  0  0  0  0
   48.0400   56.9524   27.6470 O   0  0  0  0  0  0  0  0  0  0  0  0
   45.8443   52.6019   28.0627 N   0  0  0  0  0  0  0  0  0  0  0  0
   45.0222   52.9524   29.1145 C   0  0  0  0  0  0  0  0  0  0  0  0
   45.5624   53.3987   30.3066 N   0  0  0  0  0  0  0  0  0  0  0  0
   46.9015   53.4903   30.4615 C   0  0  0  0  0  0  0  0  0  0  0  0
   47.7464   53.1502   29.4154 C   0  0  0  0  0  0  0  0  0  0  0  0
   47.2117   52.6989   28.2117 C   0  0  0  0  0  0  0  0  0  0  0  0
   48.0069   52.3619   27.1996 N   0  0  0  0  0  0  0  0  0  0  0  0
   49.0166   53.3457   29.8346 N   0  0  0  0  0  0  0  0  0  0  0  0
   48.9908   53.8113   31.1055 C   0  0  0  0  0  0  0  0  0  0  0  0
   47.6845   53.9062   31.5086 N   0  0  0  0  0  0  0  0  0  0  0  0
  2  1  1  1  0  0  0
  2  3  1  0  0  0  0
  2  5  1  0  0  0  0
  3  4  1  0  0  0  0
  3 17  1  0  0  0  0
  5  6  1  0  0  0  0
  7  6  1  6  0  0  0
  7  8  1  0  0  0  0
  7  9  1  0  0  0  0
 10  9  1  6  0  0  0
 10 11  1  0  0  0  0
 10 12  1  0  0  0  0
 11 16  1  0  0  0  0
 12 13  1  1  0  0  0
 12 14  1  0  0  0  0
 14 15  1  1  0  0  0
 14 16  1  0  0  0  0
 16 27  1  6  0  0  0
 18 19  2  0  0  0  0
 18 23  1  0  0  0  0
 19 20  1  0  0  0  0
 20 21  2  0  0  0  0
 21 22  1  0  0  0  0
 21 27  1  0  0  0  0
 22 23  2  0  0  0  0
 22 25  1  0  0  0  0
 23 24  1  0  0  0  0
 25 26  2  0  0  0  0
 26 27  1  0  0  0  0
M  END
>  <CHROM.1>
-170.96147126,58.66559984,-175.43612749,-68.82568132,-75.84513544,52.67388079
-97.94552495,47.41251214,55.69034310,31.10817975,2.57562871,1.40637393,-3.11892723

>  <Name>
ligand

>  <RI>
0

>  <Rbt.Current_Directory>
/home/itssahil/PROJECTS/Mol_Feturizer/New_Systems/rnas/3GX7

>  <Rbt.Executable>
rbdock ($Id: //depot/dev/client3/rdock/2013.1/src/exe/rbdock.cxx#4 $)

>  <Rbt.Library>
libRbt.so (2013.1, Build901 2013/11/27)

>  <Rbt.Parameter_File>
/export/apps/rDock/src/rDock_2013.1_src/data/scripts/dock_solv.prm

>  <Rbt.Receptor>
prm/pocket_docking_3.prm

>  <SCORE>
-17.632

>  <SCORE.INTER>
-12.4838

>  <SCORE.INTER.CONST>
1

>  <SCORE.INTER.POLAR>
0

>  <SCORE.INTER.ROT>
7

>  <SCORE.INTER.SOLV>
12.9401

>  <SCORE.INTER.VDW>
-20.9026

>  <SCORE.INTER.norm>
-0.462364

>  <SCORE.INTRA>
-5.19213

>  <SCORE.INTRA.DIHEDRAL>
-7.65779

>  <SCORE.INTRA.DIHEDRAL.0>
11.2699

>  <SCORE.INTRA.POLAR>
0

>  <SCORE.INTRA.POLAR.0>
0

>  <SCORE.INTRA.REPUL>
0

>  <SCORE.INTRA.REPUL.0>
0

>  <SCORE.INTRA.SOLV>
0.163632

>  <SCORE.INTRA.SOLV.lig_0>
-48.6447

>  <SCORE.INTRA.VDW>
-1.44506

>  <SCORE.INTRA.VDW.0>
-0.0211724

>  <SCORE.INTRA.norm>
-0.192301

>  <SCORE.RESTR>
0.0439177

>  <SCORE.RESTR.CAVITY>
0.0439177

>  <SCORE.RESTR.norm>
0.00162658

>  <SCORE.SYSTEM>
0

>  <SCORE.SYSTEM.CONST>
0

>  <SCORE.SYSTEM.DIHEDRAL>
0

>  <SCORE.SYSTEM.SOLV>
0

>  <SCORE.SYSTEM.norm>
0

>  <SCORE.heavy>
27

>  <SCORE.norm>
-0.653038

>  <RMSD>
4.967

$$$$
ligand
 OpenBabel11021811483D
libRbt.so/2013.1/901 2013/11/27
 27 29  0  0  0  0  0  0  0  0999 V2000
   49.5579   54.5071   28.9446 N   0  0  0  0  0  0  0  0  0  0  0  0
   48.4647   55.4637   29.0687 C   0  0  2  0  0  0  0  0  0  0  0  0
   48.0616   55.6303   30.5245 C   0  0  0  0  0  0  0  0  0  0  0  0
   47.3318   54.8031   31.0658 O   0  0  0  0  0  0  0  0  0  0  0  0
   47.2559   55.0590   28.2261 C   0  0  0  0  0  0  0  0  0  0  0  0
   46.1193   56.0740   28.2090 C   0  0  0  0  0  0  0  0  0  0  0  0
   46.5510   57.6750   27.4729 S   0  0  2  0  0  0  0  0  0  0  0  0
   47.9929   57.2254   26.4761 C   0  0  0  0  0  0  0  0  0  0  0  0
   47.3598   58.4735   28.8844 C   0  0  0  0  0  0  0  0  0  0  0  0
   46.3102   58.9334   29.8852 C   0  0  1  0  0  0  0  0  0  0  0  0
   45.7762   57.7949   30.5168 O   0  0  0  0  0  0  0  0  0  0  0  0
   46.8482   59.7913   31.0126 C   0  0  1  0  0  0  0  0  0  0  0  0
   46.6496   61.1543   30.7269 O   0  0  0  0  0  0  0  0  0  0  0  0
   46.0199   59.3658   32.2114 C   0  0  1  0  0  0  0  0  0  0  0  0
   45.0664   60.3626   32.4942 O   0  0  0  0  0  0  0  0  0  0  0  0
   45.3174   58.0733   31.8150 C   0  0  2  0  0  0  0  0  0  0  0  0
   48.4620   56.5901   31.1840 O   0  0  0  0  0  0  0  0  0  0  0  0
   49.0544   56.3750   35.1066 N   0  0  0  0  0  0  0  0  0  0  0  0
   49.0106   57.5597   34.3997 C   0  0  0  0  0  0  0  0  0  0  0  0
   47.9393   57.8418   33.5720 N   0  0  0  0  0  0  0  0  0  0  0  0
   46.9252   56.9593   33.4373 C   0  0  0  0  0  0  0  0  0  0  0  0
   46.9448   55.7658   34.1437 C   0  0  0  0  0  0  0  0  0  0  0  0
   48.0197   55.4726   34.9788 C   0  0  0  0  0  0  0  0  0  0  0  0
   48.0588   54.3297   35.6589 N   0  0  0  0  0  0  0  0  0  0  0  0
   45.8169   55.0881   33.8345 N   0  0  0  0  0  0  0  0  0  0  0  0
   45.0860   55.8280   32.9678 C   0  0  0  0  0  0  0  0  0  0  0  0
   45.7613   56.9925   32.7115 N   0  0  0  0  0  0  0  0  0  0  0  0
  2  1  1  1  0  0  0
  2  3  1  0  0  0  0
  2  5  1  0  0  0  0
  3  4  1  0  0  0  0
  3 17  1  0  0  0  0
  5  6  1  0  0  0  0
  7  6  1  1  0  0  0
  7  8  1  0  0  0  0
  7  9  1  0  0  0  0
 10  9  1  6  0  0  0
 10 11  1  0  0  0  0
 10 12  1  0  0  0  0
 11 16  1  0  0  0  0
 12 13  1  6  0  0  0
 12 14  1  0  0  0  0
 14 15  1  6  0  0  0
 14 16  1  0  0  0  0
 16 27  1  1  0  0  0
 18 19  2  0  0  0  0
 18 23  1  0  0  0  0
 19 20  1  0  0  0  0
 20 21  2  0  0  0  0
 21 22  1  0  0  0  0
 21 27  1  0  0  0  0
 22 23  2  0  0  0  0
 22 25  1  0  0  0  0
 23 24  1  0  0  0  0
 25 26  2  0  0  0  0
 26 27  1  0  0  0  0
M  END
>  <CHROM.1>
-80.22855818,-174.87564916,63.19664672,20.88872938,-75.95582903,71.63541645
91.29573282,47.06687932,57.07534503,31.20783820,-1.71316414,-1.15849156,1.62405869

>  <Name>
ligand

>  <RI>
0

>  <Rbt.Current_Directory>
/home/itssahil/PROJECTS/Mol_Feturizer/New_Systems/rnas/3GX7

>  <Rbt.Executable>
rbdock ($Id: //depot/dev/client3/rdock/2013.1/src/exe/rbdock.cxx#4 $)

>  <Rbt.Library>
libRbt.so (2013.1, Build901 2013/11/27)

>  <Rbt.Parameter_File>
/export/apps/rDock/src/rDock_2013.1_src/data/scripts/dock_solv.prm

>  <Rbt.Receptor>
prm/pocket_docking_2.prm

>  <SCORE>
-11.8599

>  <SCORE.INTER>
-8.09109

>  <SCORE.INTER.CONST>
1

>  <SCORE.INTER.POLAR>
0

>  <SCORE.INTER.ROT>
7

>  <SCORE.INTER.SOLV>
13.0444

>  <SCORE.INTER.VDW>
-18.0089

>  <SCORE.INTER.norm>
-0.29967

>  <SCORE.INTRA>
-4.59045

>  <SCORE.INTRA.DIHEDRAL>
-5.10432

>  <SCORE.INTRA.DIHEDRAL.0>
11.2699

>  <SCORE.INTRA.POLAR>
0

>  <SCORE.INTRA.POLAR.0>
0

>  <SCORE.INTRA.REPUL>
0

>  <SCORE.INTRA.REPUL.0>
0

>  <SCORE.INTRA.SOLV>
0.061412

>  <SCORE.INTRA.SOLV.lig_0>
-48.6447

>  <SCORE.INTRA.VDW>
-2.069

>  <SCORE.INTRA.VDW.0>
-0.0211724

>  <SCORE.INTRA.norm>
-0.170017

>  <SCORE.RESTR>
0.821612

>  <SCORE.RESTR.CAVITY>
0.821612

>  <SCORE.RESTR.norm>
0.0304301

>  <SCORE.SYSTEM>
0

>  <SCORE.SYSTEM.CONST>
0

>  <SCORE.SYSTEM.DIHEDRAL>
0

>  <SCORE.SYSTEM.SOLV>
0

>  <SCORE.SYSTEM.norm>
0

>  <SCORE.heavy>
27

>  <SCORE.norm>
-0.439257

>  <RMSD>
4.978

$$$$
ligand
 OpenBabel11021811483D
libRbt.so/2013.1/901 2013/11/27
 27 29  0  0  0  0  0  0  0  0999 V2000
   46.7112   58.7205   28.0176 N   0  0  0  0  0  0  0  0  0  0  0  0
   47.9108   58.1373   28.6061 C   0  0  2  0  0  0  0  0  0  0  0  0
   47.9090   56.6267   28.4390 C   0  0  0  0  0  0  0  0  0  0  0  0
   48.8539   56.0606   27.8945 O   0  0  0  0  0  0  0  0  0  0  0  0
   48.0591   58.5081   30.0810 C   0  0  0  0  0  0  0  0  0  0  0  0
   46.7831   58.3797   30.9044 C   0  0  0  0  0  0  0  0  0  0  0  0
   46.8951   59.0698   32.5785 S   0  0  2  0  0  0  0  0  0  0  0  0
   47.7957   60.6077   32.2644 C   0  0  0  0  0  0  0  0  0  0  0  0
   48.2213   58.0431   33.2647 C   0  0  0  0  0  0  0  0  0  0  0  0
   47.6232   56.8340   33.9681 C   0  0  1  0  0  0  0  0  0  0  0  0
   46.6617   56.2604   33.1156 O   0  0  0  0  0  0  0  0  0  0  0  0
   48.6097   55.7194   34.2529 C   0  0  1  0  0  0  0  0  0  0  0  0
   49.0750   55.8054   35.5776 O   0  0  0  0  0  0  0  0  0  0  0  0
   47.7905   54.4575   34.0506 C   0  0  1  0  0  0  0  0  0  0  0  0
   47.4728   53.9041   35.3057 O   0  0  0  0  0  0  0  0  0  0  0  0
   46.5152   54.8801   33.3320 C   0  0  2  0  0  0  0  0  0  0  0  0
   46.9671   55.9478   28.8492 O   0  0  0  0  0  0  0  0  0  0  0  0
   49.1421   53.5333   28.9766 N   0  0  0  0  0  0  0  0  0  0  0  0
   49.6048   54.2319   30.0734 C   0  0  0  0  0  0  0  0  0  0  0  0
   48.7645   54.4993   31.1386 N   0  0  0  0  0  0  0  0  0  0  0  0
   47.4776   54.0882   31.1174 C   0  0  0  0  0  0  0  0  0  0  0  0
   46.9932   53.3785   30.0286 C   0  0  0  0  0  0  0  0  0  0  0  0
   47.8316   53.1052   28.9511 C   0  0  0  0  0  0  0  0  0  0  0  0
   47.3825   52.4315   27.8953 N   0  0  0  0  0  0  0  0  0  0  0  0
   45.6965   53.0861   30.2742 N   0  0  0  0  0  0  0  0  0  0  0  0
   45.3599   53.5787   31.4895 C   0  0  0  0  0  0  0  0  0  0  0  0
   46.4553   54.2039   32.0251 N   0  0  0  0  0  0  0  0  0  0  0  0
  2  1  1  1  0  0  0
  2  3  1  0  0  0  0
  2  5  1  0  0  0  0
  3  4  1  0  0  0  0
  3 17  1  0  0  0  0
  5  6  1  0  0  0  0
  7  6  1  6  0  0  0
  7  8  1  0  0  0  0
  7  9  1  0  0  0  0
 10  9  1  6  0  0  0
 10 11  1  0  0  0  0
 10 12  1  0  0  0  0
 11 16  1  0  0  0  0
 12 13  1  1  0  0  0
 12 14  1  0  0  0  0
 14 15  1  1  0  0  0
 14 16  1  0  0  0  0
 16 27  1  6  0  0  0
 18 19  2  0  0  0  0
 18 23  1  0  0  0  0
 19 20  1  0  0  0  0
 20 21  2  0  0  0  0
 21 22  1  0  0  0  0
 21 27  1  0  0  0  0
 22 23  2  0  0  0  0
 22 25  1  0  0  0  0
 23 24  1  0  0  0  0
 25 26  2  0  0  0  0
 26 27  1  0  0  0  0
M  END
>  <CHROM.1>
124.72806386,45.21559132,-170.64124606,42.08225777,-92.45188087,47.50721050
67.89089584,47.55134501,55.91676185,31.30890174,-1.30164823,1.56105759,0.71595496

>  <Name>
ligand

>  <RI>
0

>  <Rbt.Current_Directory>
/home/itssahil/PROJECTS/Mol_Feturizer/New_Systems/rnas/3GX7

>  <Rbt.Executable>
rbdock ($Id: //depot/dev/client3/rdock/2013.1/src/exe/rbdock.cxx#4 $)

>  <Rbt.Library>
libRbt.so (2013.1, Build901 2013/11/27)

>  <Rbt.Parameter_File>
/export/apps/rDock/src/rDock_2013.1_src/data/scripts/dock_solv.prm

>  <Rbt.Receptor>
prm/pocket_docking_2.prm

>  <SCORE>
-10.2042

>  <SCORE.INTER>
-4.95244

>  <SCORE.INTER.CONST>
1

>  <SCORE.INTER.POLAR>
0

>  <SCORE.INTER.ROT>
7

>  <SCORE.INTER.SOLV>
15.5687

>  <SCORE.INTER.VDW>
-16.7579

>  <SCORE.INTER.norm>
-0.183424

>  <SCORE.INTRA>
-5.8345

>  <SCORE.INTRA.DIHEDRAL>
-4.62748

>  <SCORE.INTRA.DIHEDRAL.0>
11.2699

>  <SCORE.INTRA.POLAR>
0

>  <SCORE.INTRA.POLAR.0>
0

>  <SCORE.INTRA.REPUL>
0

>  <SCORE.INTRA.REPUL.0>
0

>  <SCORE.INTRA.SOLV>
0.226779

>  <SCORE.INTRA.SOLV.lig_0>
-48.6447

>  <SCORE.INTRA.VDW>
-3.63415

>  <SCORE.INTRA.VDW.0>
-0.0211724

>  <SCORE.INTRA.norm>
-0.216093

>  <SCORE.RESTR>
0.582694

>  <SCORE.RESTR.CAVITY>
0.582694

>  <SCORE.RESTR.norm>
0.0215813

>  <SCORE.SYSTEM>
0

>  <SCORE.SYSTEM.CONST>
0

>  <SCORE.SYSTEM.DIHEDRAL>
0

>  <SCORE.SYSTEM.SOLV>
0

>  <SCORE.SYSTEM.norm>
0

>  <SCORE.heavy>
27

>  <SCORE.norm>
-0.377935

>  <RMSD>
4.983

$$$$
ligand
 OpenBabel11021811483D
libRbt.so/2013.1/901 2013/11/27
 27 29  0  0  0  0  0  0  0  0999 V2000
   50.3358   55.0776   22.4667 N   0  0  0  0  0  0  0  0  0  0  0  0
   51.0198   53.9261   23.0425 C   0  0  2  0  0  0  0  0  0  0  0  0
   50.8177   52.6945   22.1752 C   0  0  0  0  0  0  0  0  0  0  0  0
   51.7345   51.8932   22.0106 O   0  0  0  0  0  0  0  0  0  0  0  0
   50.5613   53.6488   24.4735 C   0  0  0  0  0  0  0  0  0  0  0  0
   51.3036   52.5177   25.1752 C   0  0  0  0  0  0  0  0  0  0  0  0
   50.6820   52.1248   26.8337 S   0  0  2  0  0  0  0  0  0  0  0  0
   48.9073   51.9693   26.5155 C   0  0  0  0  0  0  0  0  0  0  0  0
   50.7390   53.7664   27.5990 C   0  0  0  0  0  0  0  0  0  0  0  0
   50.4435   53.6502   29.0869 C   0  0  1  0  0  0  0  0  0  0  0  0
   50.6452   54.9126   29.6751 O   0  0  0  0  0  0  0  0  0  0  0  0
   49.0097   53.2879   29.4177 C   0  0  1  0  0  0  0  0  0  0  0  0
   48.8977   51.9062   29.6569 O   0  0  0  0  0  0  0  0  0  0  0  0
   48.7245   54.0783   30.6819 C   0  0  1  0  0  0  0  0  0  0  0  0
   48.7390   53.2066   31.7876 O   0  0  0  0  0  0  0  0  0  0  0  0
   49.8448   55.1024   30.8138 C   0  0  2  0  0  0  0  0  0  0  0  0
   49.7352   52.4779   21.6297 O   0  0  0  0  0  0  0  0  0  0  0  0
   48.7028   59.4835   33.4944 N   0  0  0  0  0  0  0  0  0  0  0  0
   49.3044   58.3303   33.9560 C   0  0  0  0  0  0  0  0  0  0  0  0
   49.5277   57.2666   33.1009 N   0  0  0  0  0  0  0  0  0  0  0  0
   49.1531   57.3379   31.8047 C   0  0  0  0  0  0  0  0  0  0  0  0
   48.5533   58.4897   31.3176 C   0  0  0  0  0  0  0  0  0  0  0  0
   48.3236   59.5655   32.1712 C   0  0  0  0  0  0  0  0  0  0  0  0
   47.7434   60.6758   31.7231 N   0  0  0  0  0  0  0  0  0  0  0  0
   48.2975   58.2945   30.0047 N   0  0  0  0  0  0  0  0  0  0  0  0
   48.7322   57.0616   29.6531 C   0  0  0  0  0  0  0  0  0  0  0  0
   49.2657   56.4554   30.7602 N   0  0  0  0  0  0  0  0  0  0  0  0
  2  1  1  6  0  0  0
  2  3  1  0  0  0  0
  2  5  1  0  0  0  0
  3  4  1  0  0  0  0
  3 17  1  0  0  0  0
  5  6  1  0  0  0  0
  7  6  1  6  0  0  0
  7  8  1  0  0  0  0
  7  9  1  0  0  0  0
 10  9  1  6  0  0  0
 10 11  1  0  0  0  0
 10 12  1  0  0  0  0
 11 16  1  0  0  0  0
 12 13  1  1  0  0  0
 12 14  1  0  0  0  0
 14 15  1  1  0  0  0
 14 16  1  0  0  0  0
 16 27  1  6  0  0  0
 18 19  2  0  0  0  0
 18 23  1  0  0  0  0
 19 20  1  0  0  0  0
 20 21  2  0  0  0  0
 21 22  1  0  0  0  0
 21 27  1  0  0  0  0
 22 23  2  0  0  0  0
 22 25  1  0  0  0  0
 23 24  1  0  0  0  0
 25 26  2  0  0  0  0
 26 27  1  0  0  0  0
M  END
>  <CHROM.1>
141.75875884,-175.93744266,-176.25946929,49.87493945,-171.83542974,173.38836913
-137.45633392,49.68813955,54.89901912,28.37968589,0.16757648,1.38303997,-0.72430864

>  <Name>
ligand

>  <RI>
0

>  <Rbt.Current_Directory>
/home/itssahil/PROJECTS/Mol_Feturizer/New_Systems/rnas/3GX7

>  <Rbt.Executable>
rbdock ($Id: //depot/dev/client3/rdock/2013.1/src/exe/rbdock.cxx#4 $)

>  <Rbt.Library>
libRbt.so (2013.1, Build901 2013/11/27)

>  <Rbt.Parameter_File>
/export/apps/rDock/src/rDock_2013.1_src/data/scripts/dock_solv.prm

>  <Rbt.Receptor>
prm/blind_docking_100.prm

>  <SCORE>
-15.9595

>  <SCORE.INTER>
-10.9682

>  <SCORE.INTER.CONST>
1

>  <SCORE.INTER.POLAR>
0

>  <SCORE.INTER.ROT>
7

>  <SCORE.INTER.SOLV>
19.8017

>  <SCORE.INTER.VDW>
-22.1794

>  <SCORE.INTER.norm>
-0.406231

>  <SCORE.INTRA>
-4.99125

>  <SCORE.INTRA.DIHEDRAL>
-7.10963

>  <SCORE.INTRA.DIHEDRAL.0>
11.2699

>  <SCORE.INTRA.POLAR>
0

>  <SCORE.INTRA.POLAR.0>
0

>  <SCORE.INTRA.REPUL>
0

>  <SCORE.INTRA.REPUL.0>
0

>  <SCORE.INTRA.SOLV>
-0.840125

>  <SCORE.INTRA.SOLV.lig_0>
-48.6447

>  <SCORE.INTRA.VDW>
-1.01637

>  <SCORE.INTRA.VDW.0>
-0.0211724

>  <SCORE.INTRA.norm>
-0.184861

>  <SCORE.RESTR>
0

>  <SCORE.RESTR.CAVITY>
0

>  <SCORE.RESTR.norm>
0

>  <SCORE.SYSTEM>
0

>  <SCORE.SYSTEM.CONST>
0

>  <SCORE.SYSTEM.DIHEDRAL>
0

>  <SCORE.SYSTEM.SOLV>
0

>  <SCORE.SYSTEM.norm>
0

>  <SCORE.heavy>
27

>  <SCORE.norm>
-0.591092

>  <RMSD>
4.986

$$$$
ligand
 OpenBabel11021811483D
libRbt.so/2013.1/901 2013/11/27
 27 29  0  0  0  0  0  0  0  0999 V2000
   48.1230   52.4616   27.6959 N   0  0  0  0  0  0  0  0  0  0  0  0
   47.2627   53.3482   28.4700 C   0  0  2  0  0  0  0  0  0  0  0  0
   46.8943   52.7104   29.7994 C   0  0  0  0  0  0  0  0  0  0  0  0
   45.9497   53.1430   30.4555 O   0  0  0  0  0  0  0  0  0  0  0  0
   46.0015   53.7338   27.6984 C   0  0  0  0  0  0  0  0  0  0  0  0
   46.1532   54.9486   26.7907 C   0  0  0  0  0  0  0  0  0  0  0  0
   45.9496   56.5446   27.6289 S   0  0  2  0  0  0  0  0  0  0  0  0
   47.1593   57.5610   26.7467 C   0  0  0  0  0  0  0  0  0  0  0  0
   46.8491   56.2197   29.1681 C   0  0  0  0  0  0  0  0  0  0  0  0
   47.0075   57.5131   29.9534 C   0  0  1  0  0  0  0  0  0  0  0  0
   46.6448   57.2631   31.2899 O   0  0  0  0  0  0  0  0  0  0  0  0
   48.4276   58.0372   30.0239 C   0  0  1  0  0  0  0  0  0  0  0  0
   48.6311   59.0297   29.0480 O   0  0  0  0  0  0  0  0  0  0  0  0
   48.5216   58.6267   31.4196 C   0  0  1  0  0  0  0  0  0  0  0  0
   48.4729   60.0313   31.3345 O   0  0  0  0  0  0  0  0  0  0  0  0
   47.3121   58.1112   32.1893 C   0  0  2  0  0  0  0  0  0  0  0  0
   47.5304   51.7509   30.2364 O   0  0  0  0  0  0  0  0  0  0  0  0
   46.6233   53.7448   35.0431 N   0  0  0  0  0  0  0  0  0  0  0  0
   45.9057   54.1705   33.9436 C   0  0  0  0  0  0  0  0  0  0  0  0
   46.2299   55.3577   33.3129 N   0  0  0  0  0  0  0  0  0  0  0  0
   47.2474   56.1211   33.7684 C   0  0  0  0  0  0  0  0  0  0  0  0
   47.9866   55.7092   34.8673 C   0  0  0  0  0  0  0  0  0  0  0  0
   47.6670   54.5158   35.5094 C   0  0  0  0  0  0  0  0  0  0  0  0
   48.3608   54.1082   36.5690 N   0  0  0  0  0  0  0  0  0  0  0  0
   48.9367   56.6433   35.0953 N   0  0  0  0  0  0  0  0  0  0  0  0
   48.8232   57.6189   34.1636 C   0  0  0  0  0  0  0  0  0  0  0  0
   47.7785   57.3088   33.3328 N   0  0  0  0  0  0  0  0  0  0  0  0
  2  1  1  6  0  0  0
  2  3  1  0  0  0  0
  2  5  1  0  0  0  0
  3  4  1  0  0  0  0
  3 17  1  0  0  0  0
  5  6  1  0  0  0  0
  7  6  1  6  0  0  0
  7  8  1  0  0  0  0
  7  9  1  0  0  0  0
 10  9  1  6  0  0  0
 10 11  1  0  0  0  0
 10 12  1  0  0  0  0
 11 16  1  0  0  0  0
 12 13  1  6  0  0  0
 12 14  1  0  0  0  0
 14 15  1  6  0  0  0
 14 16  1  0  0  0  0
 16 27  1  1  0  0  0
 18 19  2  0  0  0  0
 18 23  1  0  0  0  0
 19 20  1  0  0  0  0
 20 21  2  0  0  0  0
 21 22  1  0  0  0  0
 21 27  1  0  0  0  0
 22 23  2  0  0  0  0
 22 25  1  0  0  0  0
 23 24  1  0  0  0  0
 25 26  2  0  0  0  0
 26 27  1  0  0  0  0
M  END
>  <CHROM.1>
-163.23547980,-86.82754304,-83.54918973,144.22251378,170.84226489,132.58794049
-24.47759190,47.28032831,55.84407612,31.05128351,2.21656051,-1.33320167,-0.97395517

>  <Name>
ligand

>  <RI>
0

>  <Rbt.Current_Directory>
/home/itssahil/PROJECTS/Mol_Feturizer/New_Systems/rnas/3GX7

>  <Rbt.Executable>
rbdock ($Id: //depot/dev/client3/rdock/2013.1/src/exe/rbdock.cxx#4 $)

>  <Rbt.Library>
libRbt.so (2013.1, Build901 2013/11/27)

>  <Rbt.Parameter_File>
/export/apps/rDock/src/rDock_2013.1_src/data/scripts/dock_solv.prm

>  <Rbt.Receptor>
prm/pocket_docking_2.prm

>  <SCORE>
-6.22987

>  <SCORE.INTER>
-8.10259

>  <SCORE.INTER.CONST>
1

>  <SCORE.INTER.POLAR>
0

>  <SCORE.INTER.ROT>
7

>  <SCORE.INTER.SOLV>
17.6194

>  <SCORE.INTER.VDW>
-19.5415

>  <SCORE.INTER.norm>
-0.300096

>  <SCORE.INTRA>
0.334019

>  <SCORE.INTRA.DIHEDRAL>
2.71483

>  <SCORE.INTRA.DIHEDRAL.0>
11.2699

>  <SCORE.INTRA.POLAR>
0

>  <SCORE.INTRA.POLAR.0>
0

>  <SCORE.INTRA.REPUL>
0

>  <SCORE.INTRA.REPUL.0>
0

>  <SCORE.INTRA.SOLV>
0.0269433

>  <SCORE.INTRA.SOLV.lig_0>
-48.6447

>  <SCORE.INTRA.VDW>
-1.03687

>  <SCORE.INTRA.VDW.0>
-0.0211724

>  <SCORE.INTRA.norm>
0.0123711

>  <SCORE.RESTR>
1.53869

>  <SCORE.RESTR.CAVITY>
1.53869

>  <SCORE.RESTR.norm>
0.0569886

>  <SCORE.SYSTEM>
0

>  <SCORE.SYSTEM.CONST>
0

>  <SCORE.SYSTEM.DIHEDRAL>
0

>  <SCORE.SYSTEM.SOLV>
0

>  <SCORE.SYSTEM.norm>
0

>  <SCORE.heavy>
27

>  <SCORE.norm>
-0.230736

>  <RMSD>
4.988

$$$$
ligand
 OpenBabel11021811483D
libRbt.so/2013.1/901 2013/11/27
 27 29  0  0  0  0  0  0  0  0999 V2000
   49.0688   53.2515   26.2218 N   0  0  0  0  0  0  0  0  0  0  0  0
   48.7584   54.2797   27.2077 C   0  0  2  0  0  0  0  0  0  0  0  0
   47.2574   54.3767   27.4257 C   0  0  0  0  0  0  0  0  0  0  0  0
   46.7765   54.1728   28.5378 O   0  0  0  0  0  0  0  0  0  0  0  0
   49.3260   55.6409   26.8083 C   0  0  0  0  0  0  0  0  0  0  0  0
   49.2976   56.6940   27.9096 C   0  0  0  0  0  0  0  0  0  0  0  0
   47.6351   57.2507   28.3759 S   0  0  2  0  0  0  0  0  0  0  0  0
   47.1552   58.1915   26.9064 C   0  0  0  0  0  0  0  0  0  0  0  0
   48.0514   58.5998   29.5119 C   0  0  0  0  0  0  0  0  0  0  0  0
   46.7864   59.1174   30.1803 C   0  0  1  0  0  0  0  0  0  0  0  0
   46.0823   58.0160   30.7013 O   0  0  0  0  0  0  0  0  0  0  0  0
   47.0287   60.0258   31.3688 C   0  0  1  0  0  0  0  0  0  0  0  0
   46.9402   61.3745   30.9788 O   0  0  0  0  0  0  0  0  0  0  0  0
   45.9070   59.6672   32.3266 C   0  0  1  0  0  0  0  0  0  0  0  0
   44.9338   60.6845   32.3035 O   0  0  0  0  0  0  0  0  0  0  0  0
   45.3058   58.3623   31.8196 C   0  0  2  0  0  0  0  0  0  0  0  0
   46.5025   54.6649   26.4965 O   0  0  0  0  0  0  0  0  0  0  0  0
   48.7150   55.4638   34.5874 N   0  0  0  0  0  0  0  0  0  0  0  0
   48.9850   56.4177   33.6270 C   0  0  0  0  0  0  0  0  0  0  0  0
   47.9528   57.0867   32.9952 N   0  0  0  0  0  0  0  0  0  0  0  0
   46.6664   56.8108   33.3027 C   0  0  0  0  0  0  0  0  0  0  0  0
   46.3720   55.8611   34.2698 C   0  0  0  0  0  0  0  0  0  0  0  0
   47.4046   55.1817   34.9107 C   0  0  0  0  0  0  0  0  0  0  0  0
   47.1410   54.2628   35.8361 N   0  0  0  0  0  0  0  0  0  0  0  0
   45.0266   55.7961   34.3839 N   0  0  0  0  0  0  0  0  0  0  0  0
   44.4717   56.6864   33.5282 C   0  0  0  0  0  0  0  0  0  0  0  0
   45.4773   57.3238   32.8497 N   0  0  0  0  0  0  0  0  0  0  0  0
  2  1  1  6  0  0  0
  2  3  1  0  0  0  0
  2  5  1  0  0  0  0
  3  4  1  0  0  0  0
  3 17  1  0  0  0  0
  5  6  1  0  0  0  0
  7  6  1  6  0  0  0
  7  8  1  0  0  0  0
  7  9  1  0  0  0  0
 10  9  1  1  0  0  0
 10 11  1  0  0  0  0
 10 12  1  0  0  0  0
 11 16  1  0  0  0  0
 12 13  1  6  0  0  0
 12 14  1  0  0  0  0
 14 15  1  6  0  0  0
 14 16  1  0  0  0  0
 16 27  1  1  0  0  0
 18 19  2  0  0  0  0
 18 23  1  0  0  0  0
 19 20  1  0  0  0  0
 20 21  2  0  0  0  0
 21 22  1  0  0  0  0
 21 27  1  0  0  0  0
 22 23  2  0  0  0  0
 22 25  1  0  0  0  0
 23 24  1  0  0  0  0
 25 26  2  0  0  0  0
 26 27  1  0  0  0  0
M  END
>  <CHROM.1>
119.71396016,-167.89449301,-68.07482157,-70.15434249,-172.80499356,50.31412775
49.14124690,47.09090493,56.91828772,30.72717665,-0.68902120,-1.26064615,2.17048843

>  <Name>
ligand

>  <RI>
0

>  <Rbt.Current_Directory>
/home/itssahil/PROJECTS/Mol_Feturizer/New_Systems/rnas/3GX7

>  <Rbt.Executable>
rbdock ($Id: //depot/dev/client3/rdock/2013.1/src/exe/rbdock.cxx#4 $)

>  <Rbt.Library>
libRbt.so (2013.1, Build901 2013/11/27)

>  <Rbt.Parameter_File>
/export/apps/rDock/src/rDock_2013.1_src/data/scripts/dock_solv.prm

>  <Rbt.Receptor>
prm/pocket_docking_4.prm

>  <SCORE>
-17.8907

>  <SCORE.INTER>
-10.8885

>  <SCORE.INTER.CONST>
1

>  <SCORE.INTER.POLAR>
0

>  <SCORE.INTER.ROT>
7

>  <SCORE.INTER.SOLV>
12.856

>  <SCORE.INTER.VDW>
-19.811

>  <SCORE.INTER.norm>
-0.403276

>  <SCORE.INTRA>
-7.00223

>  <SCORE.INTRA.DIHEDRAL>
-6.32029

>  <SCORE.INTRA.DIHEDRAL.0>
11.2699

>  <SCORE.INTRA.POLAR>
0

>  <SCORE.INTRA.POLAR.0>
0

>  <SCORE.INTRA.REPUL>
0

>  <SCORE.INTRA.REPUL.0>
0

>  <SCORE.INTRA.SOLV>
-0.907631

>  <SCORE.INTRA.SOLV.lig_0>
-48.6447

>  <SCORE.INTRA.VDW>
-3.38827

>  <SCORE.INTRA.VDW.0>
-0.0211724

>  <SCORE.INTRA.norm>
-0.259342

>  <SCORE.RESTR>
0

>  <SCORE.RESTR.CAVITY>
0

>  <SCORE.RESTR.norm>
0

>  <SCORE.SYSTEM>
0

>  <SCORE.SYSTEM.CONST>
0

>  <SCORE.SYSTEM.DIHEDRAL>
0

>  <SCORE.SYSTEM.SOLV>
0

>  <SCORE.SYSTEM.norm>
0

>  <SCORE.heavy>
27

>  <SCORE.norm>
-0.662618

>  <RMSD>
5.004

$$$$
ligand
 OpenBabel11021811483D
libRbt.so/2013.1/901 2013/11/27
 27 29  0  0  0  0  0  0  0  0999 V2000
   46.6273   54.1416   30.0164 N   0  0  0  0  0  0  0  0  0  0  0  0
   46.4788   53.4805   28.7256 C   0  0  2  0  0  0  0  0  0  0  0  0
   47.7509   52.7356   28.3559 C   0  0  0  0  0  0  0  0  0  0  0  0
   48.5747   52.4457   29.2203 O   0  0  0  0  0  0  0  0  0  0  0  0
   46.1011   54.4667   27.6212 C   0  0  0  0  0  0  0  0  0  0  0  0
   47.0784   55.6207   27.4324 C   0  0  0  0  0  0  0  0  0  0  0  0
   46.7571   57.0597   28.4895 S   0  0  2  0  0  0  0  0  0  0  0  0
   47.4557   58.3945   27.4869 C   0  0  0  0  0  0  0  0  0  0  0  0
   48.0662   56.8532   29.7253 C   0  0  0  0  0  0  0  0  0  0  0  0
   47.8678   57.8520   30.8557 C   0  0  1  0  0  0  0  0  0  0  0  0
   46.6158   57.6026   31.4479 O   0  0  0  0  0  0  0  0  0  0  0  0
   48.8683   57.7294   31.9872 C   0  0  1  0  0  0  0  0  0  0  0  0
   49.9047   58.6670   31.8268 O   0  0  0  0  0  0  0  0  0  0  0  0
   48.0469   58.0408   33.2252 C   0  0  1  0  0  0  0  0  0  0  0  0
   48.3583   59.3384   33.6746 O   0  0  0  0  0  0  0  0  0  0  0  0
   46.5848   57.9750   32.8021 C   0  0  2  0  0  0  0  0  0  0  0  0
   47.9736   52.4076   27.1901 O   0  0  0  0  0  0  0  0  0  0  0  0
   47.0275   53.2103   34.9896 N   0  0  0  0  0  0  0  0  0  0  0  0
   47.9831   53.9261   34.2972 C   0  0  0  0  0  0  0  0  0  0  0  0
   47.6871   55.1764   33.7858 N   0  0  0  0  0  0  0  0  0  0  0  0
   46.4572   55.7111   33.9493 C   0  0  0  0  0  0  0  0  0  0  0  0
   45.4836   55.0126   34.6480 C   0  0  0  0  0  0  0  0  0  0  0  0
   45.7720   53.7527   35.1658 C   0  0  0  0  0  0  0  0  0  0  0  0
   44.8486   53.0653   35.8328 N   0  0  0  0  0  0  0  0  0  0  0  0
   44.3683   55.7761   34.6704 N   0  0  0  0  0  0  0  0  0  0  0  0
   44.6196   56.9364   34.0197 C   0  0  0  0  0  0  0  0  0  0  0  0
   45.9124   56.9107   33.5662 N   0  0  0  0  0  0  0  0  0  0  0  0
  2  1  1  1  0  0  0
  2  3  1  0  0  0  0
  2  5  1  0  0  0  0
  3  4  1  0  0  0  0
  3 17  1  0  0  0  0
  5  6  1  0  0  0  0
  7  6  1  6  0  0  0
  7  8  1  0  0  0  0
  7  9  1  0  0  0  0
 10  9  1  6  0  0  0
 10 11  1  0  0  0  0
 10 12  1  0  0  0  0
 11 16  1  0  0  0  0
 12 13  1  6  0  0  0
 12 14  1  0  0  0  0
 14 15  1  6  0  0  0
 14 16  1  0  0  0  0
 16 27  1  1  0  0  0
 18 19  2  0  0  0  0
 18 23  1  0  0  0  0
 19 20  1  0  0  0  0
 20 21  2  0  0  0  0
 21 22  1  0  0  0  0
 21 27  1  0  0  0  0
 22 23  2  0  0  0  0
 22 25  1  0  0  0  0
 23 24  1  0  0  0  0
 25 26  2  0  0  0  0
 26 27  1  0  0  0  0
M  END
>  <CHROM.1>
19.22606255,57.28137562,-87.25865458,-152.85655598,-171.65950890,60.44552947
77.78474859,47.04538008,55.80860306,31.43160427,0.91343734,-1.28667371,-2.29035077

>  <Name>
ligand

>  <RI>
0

>  <Rbt.Current_Directory>
/home/itssahil/PROJECTS/Mol_Feturizer/New_Systems/rnas/3GX7

>  <Rbt.Executable>
rbdock ($Id: //depot/dev/client3/rdock/2013.1/src/exe/rbdock.cxx#4 $)

>  <Rbt.Library>
libRbt.so (2013.1, Build901 2013/11/27)

>  <Rbt.Parameter_File>
/export/apps/rDock/src/rDock_2013.1_src/data/scripts/dock_solv.prm

>  <Rbt.Receptor>
prm/pocket_docking_3.prm

>  <SCORE>
-11.7031

>  <SCORE.INTER>
-9.99697

>  <SCORE.INTER.CONST>
1

>  <SCORE.INTER.POLAR>
0

>  <SCORE.INTER.ROT>
7

>  <SCORE.INTER.SOLV>
12.1086

>  <SCORE.INTER.VDW>
-18.9675

>  <SCORE.INTER.norm>
-0.370258

>  <SCORE.INTRA>
-2.21705

>  <SCORE.INTRA.DIHEDRAL>
-2.16415

>  <SCORE.INTRA.DIHEDRAL.0>
11.2699

>  <SCORE.INTRA.POLAR>
0

>  <SCORE.INTRA.POLAR.0>
0

>  <SCORE.INTRA.REPUL>
0.0593858

>  <SCORE.INTRA.REPUL.0>
0

>  <SCORE.INTRA.SOLV>
2.42463

>  <SCORE.INTRA.SOLV.lig_0>
-48.6447

>  <SCORE.INTRA.VDW>
-2.64422

>  <SCORE.INTRA.VDW.0>
-0.0211724

>  <SCORE.INTRA.norm>
-0.082113

>  <SCORE.RESTR>
0.510898

>  <SCORE.RESTR.CAVITY>
0.510898

>  <SCORE.RESTR.norm>
0.0189222

>  <SCORE.SYSTEM>
0

>  <SCORE.SYSTEM.CONST>
0

>  <SCORE.SYSTEM.DIHEDRAL>
0

>  <SCORE.SYSTEM.SOLV>
0

>  <SCORE.SYSTEM.norm>
0

>  <SCORE.heavy>
27

>  <SCORE.norm>
-0.433449

>  <RMSD>
5.005

$$$$
ligand
 OpenBabel11021811483D
libRbt.so/2013.1/901 2013/11/27
 27 29  0  0  0  0  0  0  0  0999 V2000
   50.5558   53.1754   28.3903 N   0  0  0  0  0  0  0  0  0  0  0  0
   50.8448   54.4438   29.0485 C   0  0  2  0  0  0  0  0  0  0  0  0
   49.9591   54.6272   30.2698 C   0  0  0  0  0  0  0  0  0  0  0  0
   49.8880   55.7199   30.8274 O   0  0  0  0  0  0  0  0  0  0  0  0
   50.6876   55.6281   28.0959 C   0  0  0  0  0  0  0  0  0  0  0  0
   49.3252   55.7293   27.4204 C   0  0  0  0  0  0  0  0  0  0  0  0
   48.0183   56.4326   28.4638 S   0  0  2  0  0  0  0  0  0  0  0  0
   46.6132   56.4184   27.3234 C   0  0  0  0  0  0  0  0  0  0  0  0
   48.4701   58.1867   28.4115 C   0  0  0  0  0  0  0  0  0  0  0  0
   47.8591   58.9103   29.6022 C   0  0  1  0  0  0  0  0  0  0  0  0
   46.4622   58.7508   29.5441 O   0  0  0  0  0  0  0  0  0  0  0  0
   48.2618   58.3525   30.9524 C   0  0  1  0  0  0  0  0  0  0  0  0
   49.3172   59.1062   31.4974 O   0  0  0  0  0  0  0  0  0  0  0  0
   47.0045   58.5022   31.7897 C   0  0  1  0  0  0  0  0  0  0  0  0
   47.1642   59.5829   32.6780 O   0  0  0  0  0  0  0  0  0  0  0  0
   45.8689   58.7937   30.8167 C   0  0  2  0  0  0  0  0  0  0  0  0
   49.2973   53.6894   30.7157 O   0  0  0  0  0  0  0  0  0  0  0  0
   43.3066   55.4542   33.9736 N   0  0  0  0  0  0  0  0  0  0  0  0
   44.2528   56.3992   34.3151 C   0  0  0  0  0  0  0  0  0  0  0  0
   44.8278   57.1972   33.3431 N   0  0  0  0  0  0  0  0  0  0  0  0
   44.4779   57.0579   32.0455 C   0  0  0  0  0  0  0  0  0  0  0  0
   43.5239   56.1196   31.6804 C   0  0  0  0  0  0  0  0  0  0  0  0
   42.9401   55.3110   32.6520 C   0  0  0  0  0  0  0  0  0  0  0  0
   42.0282   54.4010   32.3195 N   0  0  0  0  0  0  0  0  0  0  0  0
   43.3598   56.2020   30.3412 N   0  0  0  0  0  0  0  0  0  0  0  0
   44.1713   57.1730   29.8602 C   0  0  0  0  0  0  0  0  0  0  0  0
   44.8721   57.7134   30.9064 N   0  0  0  0  0  0  0  0  0  0  0  0
  2  1  1  6  0  0  0
  2  3  1  0  0  0  0
  2  5  1  0  0  0  0
  3  4  1  0  0  0  0
  3 17  1  0  0  0  0
  5  6  1  0  0  0  0
  7  6  1  6  0  0  0
  7  8  1  0  0  0  0
  7  9  1  0  0  0  0
 10  9  1  6  0  0  0
 10 11  1  0  0  0  0
 10 12  1  0  0  0  0
 11 16  1  0  0  0  0
 12 13  1  1  0  0  0
 12 14  1  0  0  0  0
 14 15  1  1  0  0  0
 14 16  1  0  0  0  0
 16 27  1  6  0  0  0
 18 19  2  0  0  0  0
 18 23  1  0  0  0  0
 19 20  1  0  0  0  0
 20 21  2  0  0  0  0
 21 22  1  0  0  0  0
 21 27  1  0  0  0  0
 22 23  2  0  0  0  0
 22 25  1  0  0  0  0
 23 24  1  0  0  0  0
 25 26  2  0  0  0  0
 26 27  1  0  0  0  0
M  END
>  <CHROM.1>
-167.70234155,55.60082593,78.96348944,178.80103702,-158.79083820,-58.92440453
151.47950712,46.93295844,56.64259968,30.50769972,0.20066650,-0.52153175,-2.98914712

>  <Name>
ligand

>  <RI>
0

>  <Rbt.Current_Directory>
/home/itssahil/PROJECTS/Mol_Feturizer/New_Systems/rnas/3GX7

>  <Rbt.Executable>
rbdock ($Id: //depot/dev/client3/rdock/2013.1/src/exe/rbdock.cxx#4 $)

>  <Rbt.Library>
libRbt.so (2013.1, Build901 2013/11/27)

>  <Rbt.Parameter_File>
/export/apps/rDock/src/rDock_2013.1_src/data/scripts/dock_solv.prm

>  <Rbt.Receptor>
prm/pocket_docking_5.prm

>  <SCORE>
-14.4173

>  <SCORE.INTER>
-9.03966

>  <SCORE.INTER.CONST>
1

>  <SCORE.INTER.POLAR>
0

>  <SCORE.INTER.ROT>
7

>  <SCORE.INTER.SOLV>
8.90472

>  <SCORE.INTER.VDW>
-17.2613

>  <SCORE.INTER.norm>
-0.334802

>  <SCORE.INTRA>
-5.37761

>  <SCORE.INTRA.DIHEDRAL>
-4.48314

>  <SCORE.INTRA.DIHEDRAL.0>
11.2699

>  <SCORE.INTRA.POLAR>
0

>  <SCORE.INTRA.POLAR.0>
0

>  <SCORE.INTRA.REPUL>
0

>  <SCORE.INTRA.REPUL.0>
0

>  <SCORE.INTRA.SOLV>
0.399859

>  <SCORE.INTRA.SOLV.lig_0>
-48.6447

>  <SCORE.INTRA.VDW>
-3.33597

>  <SCORE.INTRA.VDW.0>
-0.0211724

>  <SCORE.INTRA.norm>
-0.199171

>  <SCORE.RESTR>
0

>  <SCORE.RESTR.CAVITY>
0

>  <SCORE.RESTR.norm>
0

>  <SCORE.SYSTEM>
0

>  <SCORE.SYSTEM.CONST>
0

>  <SCORE.SYSTEM.DIHEDRAL>
0

>  <SCORE.SYSTEM.SOLV>
0

>  <SCORE.SYSTEM.norm>
0

>  <SCORE.heavy>
27

>  <SCORE.norm>
-0.533973

>  <RMSD>
5.012

$$$$
ligand
 OpenBabel11021811483D
libRbt.so/2013.1/901 2013/11/27
 27 29  0  0  0  0  0  0  0  0999 V2000
   48.4809   52.8242   27.0796 N   0  0  0  0  0  0  0  0  0  0  0  0
   47.3980   53.6601   26.5756 C   0  0  2  0  0  0  0  0  0  0  0  0
   46.6512   52.9522   25.4572 C   0  0  0  0  0  0  0  0  0  0  0  0
   45.4259   52.8645   25.4864 O   0  0  0  0  0  0  0  0  0  0  0  0
   47.9043   55.0205   26.0980 C   0  0  0  0  0  0  0  0  0  0  0  0
   48.5654   55.8714   27.1758 C   0  0  0  0  0  0  0  0  0  0  0  0
   47.4241   56.5202   28.4279 S   0  0  2  0  0  0  0  0  0  0  0  0
   46.9195   58.0825   27.6667 C   0  0  0  0  0  0  0  0  0  0  0  0
   48.6056   57.1201   29.6640 C   0  0  0  0  0  0  0  0  0  0  0  0
   47.8661   57.8800   30.7551 C   0  0  1  0  0  0  0  0  0  0  0  0
   47.2490   56.9419   31.6033 O   0  0  0  0  0  0  0  0  0  0  0  0
   48.7569   58.7036   31.6633 C   0  0  1  0  0  0  0  0  0  0  0  0
   48.7745   60.0462   31.2437 O   0  0  0  0  0  0  0  0  0  0  0  0
   48.0971   58.5731   33.0242 C   0  0  1  0  0  0  0  0  0  0  0  0
   47.4214   59.7701   33.3291 O   0  0  0  0  0  0  0  0  0  0  0  0
   47.0989   57.4275   32.9129 C   0  0  2  0  0  0  0  0  0  0  0  0
   47.2587   52.4614   24.5051 O   0  0  0  0  0  0  0  0  0  0  0  0
   45.4601   53.3961   35.8703 N   0  0  0  0  0  0  0  0  0  0  0  0
   44.7108   54.2176   35.0525 C   0  0  0  0  0  0  0  0  0  0  0  0
   45.3155   55.2387   34.3426 N   0  0  0  0  0  0  0  0  0  0  0  0
   46.6458   55.4518   34.4456 C   0  0  0  0  0  0  0  0  0  0  0  0
   47.4194   54.6340   35.2559 C   0  0  0  0  0  0  0  0  0  0  0  0
   46.8192   53.6039   35.9752 C   0  0  0  0  0  0  0  0  0  0  0  0
   47.5443   52.8138   36.7627 N   0  0  0  0  0  0  0  0  0  0  0  0
   48.6994   55.0584   35.1633 N   0  0  0  0  0  0  0  0  0  0  0  0
   48.7516   56.1070   34.3087 C   0  0  0  0  0  0  0  0  0  0  0  0
   47.4842   56.3632   33.8551 N   0  0  0  0  0  0  0  0  0  0  0  0
  2  1  1  6  0  0  0
  2  3  1  0  0  0  0
  2  5  1  0  0  0  0
  3  4  1  0  0  0  0
  3 17  1  0  0  0  0
  5  6  1  0  0  0  0
  7  6  1  6  0  0  0
  7  8  1  0  0  0  0
  7  9  1  0  0  0  0
 10  9  1  6  0  0  0
 10 11  1  0  0  0  0
 10 12  1  0  0  0  0
 11 16  1  0  0  0  0
 12 13  1  6  0  0  0
 12 14  1  0  0  0  0
 14 15  1  6  0  0  0
 14 16  1  0  0  0  0
 16 27  1  1  0  0  0
 18 19  2  0  0  0  0
 18 23  1  0  0  0  0
 19 20  1  0  0  0  0
 20 21  2  0  0  0  0
 21 22  1  0  0  0  0
 21 27  1  0  0  0  0
 22 23  2  0  0  0  0
 22 25  1  0  0  0  0
 23 24  1  0  0  0  0
 25 26  2  0  0  0  0
 26 27  1  0  0  0  0
M  END
>  <CHROM.1>
129.47939767,-61.42559418,-70.18865885,-88.91996252,172.86159747,77.01426377
-93.55214967,47.36958293,55.76930986,30.99312228,1.48426331,-1.30077547,-1.79461019

>  <Name>
ligand

>  <RI>
0

>  <Rbt.Current_Directory>
/home/itssahil/PROJECTS/Mol_Feturizer/New_Systems/rnas/3GX7

>  <Rbt.Executable>
rbdock ($Id: //depot/dev/client3/rdock/2013.1/src/exe/rbdock.cxx#4 $)

>  <Rbt.Library>
libRbt.so (2013.1, Build901 2013/11/27)

>  <Rbt.Parameter_File>
/export/apps/rDock/src/rDock_2013.1_src/data/scripts/dock_solv.prm

>  <Rbt.Receptor>
prm/pocket_docking_5.prm

>  <SCORE>
-14.7209

>  <SCORE.INTER>
-9.83546

>  <SCORE.INTER.CONST>
1

>  <SCORE.INTER.POLAR>
0

>  <SCORE.INTER.ROT>
7

>  <SCORE.INTER.SOLV>
15.1116

>  <SCORE.INTER.VDW>
-19.8608

>  <SCORE.INTER.norm>
-0.364276

>  <SCORE.INTRA>
-4.88547

>  <SCORE.INTRA.DIHEDRAL>
-5.5967

>  <SCORE.INTRA.DIHEDRAL.0>
11.2699

>  <SCORE.INTRA.POLAR>
0

>  <SCORE.INTRA.POLAR.0>
0

>  <SCORE.INTRA.REPUL>
0

>  <SCORE.INTRA.REPUL.0>
0

>  <SCORE.INTRA.SOLV>
-0.0514524

>  <SCORE.INTRA.SOLV.lig_0>
-48.6447

>  <SCORE.INTRA.VDW>
-2.06139

>  <SCORE.INTRA.VDW.0>
-0.0211724

>  <SCORE.INTRA.norm>
-0.180943

>  <SCORE.RESTR>
0

>  <SCORE.RESTR.CAVITY>
0

>  <SCORE.RESTR.norm>
0

>  <SCORE.SYSTEM>
0

>  <SCORE.SYSTEM.CONST>
0

>  <SCORE.SYSTEM.DIHEDRAL>
0

>  <SCORE.SYSTEM.SOLV>
0

>  <SCORE.SYSTEM.norm>
0

>  <SCORE.heavy>
27

>  <SCORE.norm>
-0.54522

>  <RMSD>
5.044

$$$$
ligand
 OpenBabel11021811483D
libRbt.so/2013.1/901 2013/11/27
 27 29  0  0  0  0  0  0  0  0999 V2000
   47.4935   53.7055   27.8012 N   0  0  0  0  0  0  0  0  0  0  0  0
   47.1556   52.8128   28.9031 C   0  0  2  0  0  0  0  0  0  0  0  0
   45.7385   53.0723   29.3871 C   0  0  0  0  0  0  0  0  0  0  0  0
   45.0312   52.1419   29.7665 O   0  0  0  0  0  0  0  0  0  0  0  0
   48.1438   52.9393   30.0616 C   0  0  0  0  0  0  0  0  0  0  0  0
   48.0974   54.2720   30.7995 C   0  0  0  0  0  0  0  0  0  0  0  0
   48.5968   55.7024   29.8016 S   0  0  2  0  0  0  0  0  0  0  0  0
   50.3199   55.2895   29.4341 C   0  0  0  0  0  0  0  0  0  0  0  0
   48.8234   56.9427   31.1032 C   0  0  0  0  0  0  0  0  0  0  0  0
   47.8484   58.0916   30.8935 C   0  0  1  0  0  0  0  0  0  0  0  0
   46.5700   57.5479   30.6693 O   0  0  0  0  0  0  0  0  0  0  0  0
   47.6821   59.0033   32.0926 C   0  0  1  0  0  0  0  0  0  0  0  0
   48.4929   60.1445   31.9548 O   0  0  0  0  0  0  0  0  0  0  0  0
   46.2118   59.3791   32.0540 C   0  0  1  0  0  0  0  0  0  0  0  0
   46.0825   60.6997   31.5831 O   0  0  0  0  0  0  0  0  0  0  0  0
   45.5440   58.4140   31.0824 C   0  0  2  0  0  0  0  0  0  0  0  0
   45.2796   54.2147   29.4117 O   0  0  0  0  0  0  0  0  0  0  0  0
   41.1273   55.5767   30.7274 N   0  0  0  0  0  0  0  0  0  0  0  0
   41.8263   56.2020   29.7148 C   0  0  0  0  0  0  0  0  0  0  0  0
   42.9789   56.9129   29.9952 N   0  0  0  0  0  0  0  0  0  0  0  0
   43.4322   57.0122   31.2641 C   0  0  0  0  0  0  0  0  0  0  0  0
   42.7496   56.3859   32.2964 C   0  0  0  0  0  0  0  0  0  0  0  0
   41.5877   55.6687   32.0239 C   0  0  0  0  0  0  0  0  0  0  0  0
   40.9162   55.0670   33.0022 N   0  0  0  0  0  0  0  0  0  0  0  0
   43.4211   56.6359   33.4426 N   0  0  0  0  0  0  0  0  0  0  0  0
   44.5104   57.3871   33.1562 C   0  0  0  0  0  0  0  0  0  0  0  0
   44.5307   57.6291   31.8075 N   0  0  0  0  0  0  0  0  0  0  0  0
  2  1  1  6  0  0  0
  2  3  1  0  0  0  0
  2  5  1  0  0  0  0
  3  4  1  0  0  0  0
  3 17  1  0  0  0  0
  5  6  1  0  0  0  0
  7  6  1  1  0  0  0
  7  8  1  0  0  0  0
  7  9  1  0  0  0  0
 10  9  1  1  0  0  0
 10 11  1  0  0  0  0
 10 12  1  0  0  0  0
 11 16  1  0  0  0  0
 12 13  1  6  0  0  0
 12 14  1  0  0  0  0
 14 15  1  6  0  0  0
 14 16  1  0  0  0  0
 16 27  1  1  0  0  0
 18 19  2  0  0  0  0
 18 23  1  0  0  0  0
 19 20  1  0  0  0  0
 20 21  2  0  0  0  0
 21 22  1  0  0  0  0
 21 27  1  0  0  0  0
 22 23  2  0  0  0  0
 22 25  1  0  0  0  0
 23 24  1  0  0  0  0
 25 26  2  0  0  0  0
 26 27  1  0  0  0  0
M  END
>  <CHROM.1>
143.88995656,67.76149028,-65.09026897,-62.85304226,-117.97465117,48.02286220
-90.09495227,45.78693718,56.23612298,30.82327324,0.27526416,-0.21414104,-2.73937754

>  <Name>
ligand

>  <RI>
0

>  <Rbt.Current_Directory>
/home/itssahil/PROJECTS/Mol_Feturizer/New_Systems/rnas/3GX7

>  <Rbt.Executable>
rbdock ($Id: //depot/dev/client3/rdock/2013.1/src/exe/rbdock.cxx#4 $)

>  <Rbt.Library>
libRbt.so (2013.1, Build901 2013/11/27)

>  <Rbt.Parameter_File>
/export/apps/rDock/src/rDock_2013.1_src/data/scripts/dock_solv.prm

>  <Rbt.Receptor>
prm/pocket_docking_8.prm

>  <SCORE>
-15.3022

>  <SCORE.INTER>
-12.1857

>  <SCORE.INTER.CONST>
1

>  <SCORE.INTER.POLAR>
0

>  <SCORE.INTER.ROT>
7

>  <SCORE.INTER.SOLV>
10.1707

>  <SCORE.INTER.VDW>
-19.7807

>  <SCORE.INTER.norm>
-0.451323

>  <SCORE.INTRA>
-3.1165

>  <SCORE.INTRA.DIHEDRAL>
-3.15772

>  <SCORE.INTRA.DIHEDRAL.0>
11.2699

>  <SCORE.INTRA.POLAR>
0

>  <SCORE.INTRA.POLAR.0>
0

>  <SCORE.INTRA.REPUL>
0

>  <SCORE.INTRA.REPUL.0>
0

>  <SCORE.INTRA.SOLV>
1.55407

>  <SCORE.INTRA.SOLV.lig_0>
-48.6447

>  <SCORE.INTRA.VDW>
-2.31467

>  <SCORE.INTRA.VDW.0>
-0.0211724

>  <SCORE.INTRA.norm>
-0.115426

>  <SCORE.RESTR>
0

>  <SCORE.RESTR.CAVITY>
0

>  <SCORE.RESTR.norm>
0

>  <SCORE.SYSTEM>
0

>  <SCORE.SYSTEM.CONST>
0

>  <SCORE.SYSTEM.DIHEDRAL>
0

>  <SCORE.SYSTEM.SOLV>
0

>  <SCORE.SYSTEM.norm>
0

>  <SCORE.heavy>
27

>  <SCORE.norm>
-0.566749

>  <RMSD>
5.048

$$$$
ligand
 OpenBabel11021811483D
libRbt.so/2013.1/901 2013/11/27
 27 29  0  0  0  0  0  0  0  0999 V2000
   44.6322   58.7166   32.8095 N   0  0  0  0  0  0  0  0  0  0  0  0
   45.8459   59.4322   32.4350 C   0  0  2  0  0  0  0  0  0  0  0  0
   45.5038   60.7348   31.7308 C   0  0  0  0  0  0  0  0  0  0  0  0
   46.3463   61.3116   31.0473 O   0  0  0  0  0  0  0  0  0  0  0  0
   46.7618   58.5794   31.5582 C   0  0  0  0  0  0  0  0  0  0  0  0
   46.0936   57.9834   30.3249 C   0  0  0  0  0  0  0  0  0  0  0  0
   47.1295   56.8189   29.3964 S   0  0  2  0  0  0  0  0  0  0  0  0
   45.9867   56.2932   28.0954 C   0  0  0  0  0  0  0  0  0  0  0  0
   47.0651   55.3797   30.4957 C   0  0  0  0  0  0  0  0  0  0  0  0
   47.8695   55.6597   31.7563 C   0  0  1  0  0  0  0  0  0  0  0  0
   46.9675   55.8678   32.8162 O   0  0  0  0  0  0  0  0  0  0  0  0
   48.7495   54.5123   32.2097 C   0  0  1  0  0  0  0  0  0  0  0  0
   50.0693   54.7021   31.7613 O   0  0  0  0  0  0  0  0  0  0  0  0
   48.6794   54.5856   33.7243 C   0  0  1  0  0  0  0  0  0  0  0  0
   49.8813   55.1270   34.2190 O   0  0  0  0  0  0  0  0  0  0  0  0
   47.5166   55.5115   34.0592 C   0  0  2  0  0  0  0  0  0  0  0  0
   44.3801   61.2289   31.8294 O   0  0  0  0  0  0  0  0  0  0  0  0
   42.4214   54.2995   34.5629 N   0  0  0  0  0  0  0  0  0  0  0  0
   43.0168   55.1227   33.6286 C   0  0  0  0  0  0  0  0  0  0  0  0
   44.3841   55.3292   33.6478 N   0  0  0  0  0  0  0  0  0  0  0  0
   45.1547   54.7353   34.5853 C   0  0  0  0  0  0  0  0  0  0  0  0
   44.5785   53.8984   35.5295 C   0  0  0  0  0  0  0  0  0  0  0  0
   43.2027   53.6851   35.5186 C   0  0  0  0  0  0  0  0  0  0  0  0
   42.6317   52.8909   36.4206 N   0  0  0  0  0  0  0  0  0  0  0  0
   45.5683   53.4364   36.3257 N   0  0  0  0  0  0  0  0  0  0  0  0
   46.7472   53.9474   35.8991 C   0  0  0  0  0  0  0  0  0  0  0  0
   46.5065   54.7561   34.8193 N   0  0  0  0  0  0  0  0  0  0  0  0
  2  1  1  6  0  0  0
  2  3  1  0  0  0  0
  2  5  1  0  0  0  0
  3  4  1  0  0  0  0
  3 17  1  0  0  0  0
  5  6  1  0  0  0  0
  7  6  1  1  0  0  0
  7  8  1  0  0  0  0
  7  9  1  0  0  0  0
 10  9  1  6  0  0  0
 10 11  1  0  0  0  0
 10 12  1  0  0  0  0
 11 16  1  0  0  0  0
 12 13  1  1  0  0  0
 12 14  1  0  0  0  0
 14 15  1  6  0  0  0
 14 16  1  0  0  0  0
 16 27  1  1  0  0  0
 18 19  2  0  0  0  0
 18 23  1  0  0  0  0
 19 20  1  0  0  0  0
 20 21  2  0  0  0  0
 21 22  1  0  0  0  0
 21 27  1  0  0  0  0
 22 23  2  0  0  0  0
 22 25  1  0  0  0  0
 23 24  1  0  0  0  0
 25 26  2  0  0  0  0
 26 27  1  0  0  0  0
M  END
>  <CHROM.1>
-161.57200068,53.12785933,-173.19555106,177.54622732,-71.04648097,106.68834837
-18.53665253,46.16989523,56.19282232,32.76709316,1.33094891,0.47648074,-0.64925582

>  <Name>
ligand

>  <RI>
0

>  <Rbt.Current_Directory>
/home/itssahil/PROJECTS/Mol_Feturizer/New_Systems/rnas/3GX7

>  <Rbt.Executable>
rbdock ($Id: //depot/dev/client3/rdock/2013.1/src/exe/rbdock.cxx#4 $)

>  <Rbt.Library>
libRbt.so (2013.1, Build901 2013/11/27)

>  <Rbt.Parameter_File>
/export/apps/rDock/src/rDock_2013.1_src/data/scripts/dock_solv.prm

>  <Rbt.Receptor>
prm/pocket_docking_7.prm

>  <SCORE>
-13.5959

>  <SCORE.INTER>
-10.2623

>  <SCORE.INTER.CONST>
1

>  <SCORE.INTER.POLAR>
0

>  <SCORE.INTER.ROT>
7

>  <SCORE.INTER.SOLV>
11.9922

>  <SCORE.INTER.VDW>
-19.1056

>  <SCORE.INTER.norm>
-0.380085

>  <SCORE.INTRA>
-3.33359

>  <SCORE.INTRA.DIHEDRAL>
-2.98256

>  <SCORE.INTRA.DIHEDRAL.0>
11.2699

>  <SCORE.INTRA.POLAR>
0

>  <SCORE.INTRA.POLAR.0>
0

>  <SCORE.INTRA.REPUL>
0

>  <SCORE.INTRA.REPUL.0>
0

>  <SCORE.INTRA.SOLV>
0.69195

>  <SCORE.INTRA.SOLV.lig_0>
-48.6447

>  <SCORE.INTRA.VDW>
-2.18829

>  <SCORE.INTRA.VDW.0>
-0.0211724

>  <SCORE.INTRA.norm>
-0.123466

>  <SCORE.RESTR>
0

>  <SCORE.RESTR.CAVITY>
0

>  <SCORE.RESTR.norm>
0

>  <SCORE.SYSTEM>
0

>  <SCORE.SYSTEM.CONST>
0

>  <SCORE.SYSTEM.DIHEDRAL>
0

>  <SCORE.SYSTEM.SOLV>
0

>  <SCORE.SYSTEM.norm>
0

>  <SCORE.heavy>
27

>  <SCORE.norm>
-0.503552

>  <RMSD>
5.054

$$$$
ligand
 OpenBabel11021811483D
libRbt.so/2013.1/901 2013/11/27
 27 29  0  0  0  0  0  0  0  0999 V2000
   48.0554   52.2516   28.2797 N   0  0  0  0  0  0  0  0  0  0  0  0
   47.6945   53.6462   28.5039 C   0  0  2  0  0  0  0  0  0  0  0  0
   47.1678   53.8426   29.9159 C   0  0  0  0  0  0  0  0  0  0  0  0
   46.0174   53.5183   30.2008 O   0  0  0  0  0  0  0  0  0  0  0  0
   46.6716   54.1408   27.4822 C   0  0  0  0  0  0  0  0  0  0  0  0
   47.0123   55.4757   26.8305 C   0  0  0  0  0  0  0  0  0  0  0  0
   46.2740   56.9199   27.6431 S   0  0  2  0  0  0  0  0  0  0  0  0
   47.2088   58.2682   26.8794 C   0  0  0  0  0  0  0  0  0  0  0  0
   47.0836   56.8305   29.2619 C   0  0  0  0  0  0  0  0  0  0  0  0
   46.1401   57.3478   30.3375 C   0  0  1  0  0  0  0  0  0  0  0  0
   46.1986   56.4676   31.4339 O   0  0  0  0  0  0  0  0  0  0  0  0
   46.5124   58.7036   30.9028 C   0  0  1  0  0  0  0  0  0  0  0  0
   45.7673   59.7170   30.2727 O   0  0  0  0  0  0  0  0  0  0  0  0
   46.1390   58.5934   32.3700 C   0  0  1  0  0  0  0  0  0  0  0  0
   44.9498   59.3108   32.6015 O   0  0  0  0  0  0  0  0  0  0  0  0
   45.9144   57.1125   32.6491 C   0  0  2  0  0  0  0  0  0  0  0  0
   47.8837   54.3234   30.7950 O   0  0  0  0  0  0  0  0  0  0  0  0
   47.1996   53.3850   36.1329 N   0  0  0  0  0  0  0  0  0  0  0  0
   46.0979   53.4374   35.3031 C   0  0  0  0  0  0  0  0  0  0  0  0
   45.9194   54.5055   34.4432 N   0  0  0  0  0  0  0  0  0  0  0  0
   46.8156   55.5161   34.4089 C   0  0  0  0  0  0  0  0  0  0  0  0
   47.9338   55.4807   35.2288 C   0  0  0  0  0  0  0  0  0  0  0  0
   48.1215   54.4097   36.0985 C   0  0  0  0  0  0  0  0  0  0  0  0
   49.1846   54.3622   36.8971 N   0  0  0  0  0  0  0  0  0  0  0  0
   48.6571   56.5959   34.9834 N   0  0  0  0  0  0  0  0  0  0  0  0
   48.0328   57.3199   34.0248 C   0  0  0  0  0  0  0  0  0  0  0  0
   46.8878   56.6623   33.6583 N   0  0  0  0  0  0  0  0  0  0  0  0
  2  1  1  6  0  0  0
  2  3  1  0  0  0  0
  2  5  1  0  0  0  0
  3  4  1  0  0  0  0
  3 17  1  0  0  0  0
  5  6  1  0  0  0  0
  7  6  1  6  0  0  0
  7  8  1  0  0  0  0
  7  9  1  0  0  0  0
 10  9  1  6  0  0  0
 10 11  1  0  0  0  0
 10 12  1  0  0  0  0
 11 16  1  0  0  0  0
 12 13  1  6  0  0  0
 12 14  1  0  0  0  0
 14 15  1  6  0  0  0
 14 16  1  0  0  0  0
 16 27  1  1  0  0  0
 18 19  2  0  0  0  0
 18 23  1  0  0  0  0
 19 20  1  0  0  0  0
 20 21  2  0  0  0  0
 21 22  1  0  0  0  0
 21 27  1  0  0  0  0
 22 23  2  0  0  0  0
 22 25  1  0  0  0  0
 23 24  1  0  0  0  0
 25 26  2  0  0  0  0
 26 27  1  0  0  0  0
M  END
>  <CHROM.1>
-78.33231856,-131.70847175,-93.91675420,166.52371279,-147.29611124,135.69668844
-83.25171126,46.88874410,55.94410973,31.47548578,-2.00018683,-1.31966846
1.31049978

>  <Name>
ligand

>  <RI>
0

>  <Rbt.Current_Directory>
/home/itssahil/PROJECTS/Mol_Feturizer/New_Systems/rnas/3GX7

>  <Rbt.Executable>
rbdock ($Id: //depot/dev/client3/rdock/2013.1/src/exe/rbdock.cxx#4 $)

>  <Rbt.Library>
libRbt.so (2013.1, Build901 2013/11/27)

>  <Rbt.Parameter_File>
/export/apps/rDock/src/rDock_2013.1_src/data/scripts/dock_solv.prm

>  <Rbt.Receptor>
prm/pocket_docking_2.prm

>  <SCORE>
-2.92866

>  <SCORE.INTER>
-4.03436

>  <SCORE.INTER.CONST>
1

>  <SCORE.INTER.POLAR>
0

>  <SCORE.INTER.ROT>
7

>  <SCORE.INTER.SOLV>
20.6703

>  <SCORE.INTER.VDW>
-17.8463

>  <SCORE.INTER.norm>
-0.149421

>  <SCORE.INTRA>
0.49968

>  <SCORE.INTRA.DIHEDRAL>
8.28089

>  <SCORE.INTRA.DIHEDRAL.0>
11.2699

>  <SCORE.INTRA.POLAR>
0

>  <SCORE.INTRA.POLAR.0>
0

>  <SCORE.INTRA.REPUL>
0

>  <SCORE.INTRA.REPUL.0>
0

>  <SCORE.INTRA.SOLV>
-0.66027

>  <SCORE.INTRA.SOLV.lig_0>
-48.6447

>  <SCORE.INTRA.VDW>
-3.31063

>  <SCORE.INTRA.VDW.0>
-0.0211724

>  <SCORE.INTRA.norm>
0.0185067

>  <SCORE.RESTR>
0.606017

>  <SCORE.RESTR.CAVITY>
0.606017

>  <SCORE.RESTR.norm>
0.0224451

>  <SCORE.SYSTEM>
0

>  <SCORE.SYSTEM.CONST>
0

>  <SCORE.SYSTEM.DIHEDRAL>
0

>  <SCORE.SYSTEM.SOLV>
0

>  <SCORE.SYSTEM.norm>
0

>  <SCORE.heavy>
27

>  <SCORE.norm>
-0.108469

>  <RMSD>
5.055

$$$$
ligand
 OpenBabel11021811483D
libRbt.so/2013.1/901 2013/11/27
 27 29  0  0  0  0  0  0  0  0999 V2000
   45.0234   57.4023   32.4226 N   0  0  0  0  0  0  0  0  0  0  0  0
   45.8531   57.8803   31.3233 C   0  0  2  0  0  0  0  0  0  0  0  0
   46.5519   59.1752   31.7037 C   0  0  0  0  0  0  0  0  0  0  0  0
   45.9277   60.0802   32.2524 O   0  0  0  0  0  0  0  0  0  0  0  0
   45.0443   58.0704   30.0408 C   0  0  0  0  0  0  0  0  0  0  0  0
   45.6733   57.4641   28.7921 C   0  0  0  0  0  0  0  0  0  0  0  0
   47.4459   57.1068   28.9400 S   0  0  2  0  0  0  0  0  0  0  0  0
   48.1670   58.6323   28.2859 C   0  0  0  0  0  0  0  0  0  0  0  0
   47.6728   55.9991   27.5239 C   0  0  0  0  0  0  0  0  0  0  0  0
   48.0263   54.6032   28.0150 C   0  0  1  0  0  0  0  0  0  0  0  0
   48.9849   54.7267   29.0379 O   0  0  0  0  0  0  0  0  0  0  0  0
   46.8745   53.8472   28.6461 C   0  0  1  0  0  0  0  0  0  0  0  0
   46.2901   52.9758   27.7090 O   0  0  0  0  0  0  0  0  0  0  0  0
   47.5326   53.0671   29.7698 C   0  0  1  0  0  0  0  0  0  0  0  0
   47.6410   51.7144   29.3943 O   0  0  0  0  0  0  0  0  0  0  0  0
   48.9208   53.6664   29.9572 C   0  0  2  0  0  0  0  0  0  0  0  0
   47.7509   59.3360   31.4736 O   0  0  0  0  0  0  0  0  0  0  0  0
   46.5168   54.3892   34.5813 N   0  0  0  0  0  0  0  0  0  0  0  0
   46.0297   53.7619   33.4525 C   0  0  0  0  0  0  0  0  0  0  0  0
   46.8092   53.6643   32.3144 N   0  0  0  0  0  0  0  0  0  0  0  0
   48.0544   54.1881   32.2885 C   0  0  0  0  0  0  0  0  0  0  0  0
   48.5669   54.8165   33.4138 C   0  0  0  0  0  0  0  0  0  0  0  0
   47.7891   54.9204   34.5640 C   0  0  0  0  0  0  0  0  0  0  0  0
   48.2617   55.5257   35.6506 N   0  0  0  0  0  0  0  0  0  0  0  0
   49.8192   55.2300   33.1174 N   0  0  0  0  0  0  0  0  0  0  0  0
   50.1103   54.8664   31.8462 C   0  0  0  0  0  0  0  0  0  0  0  0
   49.0242   54.2188   31.3185 N   0  0  0  0  0  0  0  0  0  0  0  0
  2  1  1  1  0  0  0
  2  3  1  0  0  0  0
  2  5  1  0  0  0  0
  3  4  1  0  0  0  0
  3 17  1  0  0  0  0
  5  6  1  0  0  0  0
  7  6  1  6  0  0  0
  7  8  1  0  0  0  0
  7  9  1  0  0  0  0
 10  9  1  1  0  0  0
 10 11  1  0  0  0  0
 10 12  1  0  0  0  0
 11 16  1  0  0  0  0
 12 13  1  6  0  0  0
 12 14  1  0  0  0  0
 14 15  1  6  0  0  0
 14 16  1  0  0  0  0
 16 27  1  1  0  0  0
 18 19  2  0  0  0  0
 18 23  1  0  0  0  0
 19 20  1  0  0  0  0
 20 21  2  0  0  0  0
 21 22  1  0  0  0  0
 21 27  1  0  0  0  0
 22 23  2  0  0  0  0
 22 25  1  0  0  0  0
 23 24  1  0  0  0  0
 25 26  2  0  0  0  0
 26 27  1  0  0  0  0
M  END
>  <CHROM.1>
-45.83171345,-132.21543898,-18.28773772,-92.88141762,-113.79082062,-44.12787724
115.02194227,47.40769680,55.70884968,30.86183204,-2.61587763,1.29101671,-1.72097868

>  <Name>
ligand

>  <RI>
0

>  <Rbt.Current_Directory>
/home/itssahil/PROJECTS/Mol_Feturizer/New_Systems/rnas/3GX7

>  <Rbt.Executable>
rbdock ($Id: //depot/dev/client3/rdock/2013.1/src/exe/rbdock.cxx#4 $)

>  <Rbt.Library>
libRbt.so (2013.1, Build901 2013/11/27)

>  <Rbt.Parameter_File>
/export/apps/rDock/src/rDock_2013.1_src/data/scripts/dock_solv.prm

>  <Rbt.Receptor>
prm/pocket_docking_2.prm

>  <SCORE>
1.90077

>  <SCORE.INTER>
0.333094

>  <SCORE.INTER.CONST>
1

>  <SCORE.INTER.POLAR>
0

>  <SCORE.INTER.ROT>
7

>  <SCORE.INTER.SOLV>
13.8548

>  <SCORE.INTER.VDW>
-12.6629

>  <SCORE.INTER.norm>
0.0123368

>  <SCORE.INTRA>
1.05798

>  <SCORE.INTRA.DIHEDRAL>
7.62445

>  <SCORE.INTRA.DIHEDRAL.0>
11.2699

>  <SCORE.INTRA.POLAR>
0

>  <SCORE.INTRA.POLAR.0>
0

>  <SCORE.INTRA.REPUL>
0

>  <SCORE.INTRA.REPUL.0>
0

>  <SCORE.INTRA.SOLV>
-0.319978

>  <SCORE.INTRA.SOLV.lig_0>
-48.6447

>  <SCORE.INTRA.VDW>
-2.59426

>  <SCORE.INTRA.VDW.0>
-0.0211724

>  <SCORE.INTRA.norm>
0.0391844

>  <SCORE.RESTR>
0.509698

>  <SCORE.RESTR.CAVITY>
0.509698

>  <SCORE.RESTR.norm>
0.0188777

>  <SCORE.SYSTEM>
0

>  <SCORE.SYSTEM.CONST>
0

>  <SCORE.SYSTEM.DIHEDRAL>
0

>  <SCORE.SYSTEM.SOLV>
0

>  <SCORE.SYSTEM.norm>
0

>  <SCORE.heavy>
27

>  <SCORE.norm>
0.0703989

>  <RMSD>
5.058

$$$$
ligand
 OpenBabel11021811483D
libRbt.so/2013.1/901 2013/11/27
 27 29  0  0  0  0  0  0  0  0999 V2000
   47.0254   60.8163   31.8500 N   0  0  0  0  0  0  0  0  0  0  0  0
   46.7918   59.3792   31.9248 C   0  0  2  0  0  0  0  0  0  0  0  0
   47.8347   58.7124   32.8065 C   0  0  0  0  0  0  0  0  0  0  0  0
   48.7029   59.3840   33.3587 O   0  0  0  0  0  0  0  0  0  0  0  0
   46.7751   58.7325   30.5404 C   0  0  0  0  0  0  0  0  0  0  0  0
   45.9861   57.4317   30.4514 C   0  0  0  0  0  0  0  0  0  0  0  0
   45.7429   56.8131   28.7634 S   0  0  2  0  0  0  0  0  0  0  0  0
   43.9915   57.1861   28.5020 C   0  0  0  0  0  0  0  0  0  0  0  0
   45.6585   55.0308   29.0800 C   0  0  0  0  0  0  0  0  0  0  0  0
   47.0609   54.4408   29.0729 C   0  0  1  0  0  0  0  0  0  0  0  0
   47.8422   55.1531   30.0016 O   0  0  0  0  0  0  0  0  0  0  0  0
   47.1383   52.9956   29.5220 C   0  0  1  0  0  0  0  0  0  0  0  0
   47.1638   52.1382   28.4070 O   0  0  0  0  0  0  0  0  0  0  0  0
   48.4498   52.9282   30.2834 C   0  0  1  0  0  0  0  0  0  0  0  0
   49.4138   52.2763   29.4908 O   0  0  0  0  0  0  0  0  0  0  0  0
   48.8760   54.3684   30.5391 C   0  0  2  0  0  0  0  0  0  0  0  0
   47.8239   57.4940   32.9852 O   0  0  0  0  0  0  0  0  0  0  0  0
   46.3741   53.9176   35.1457 N   0  0  0  0  0  0  0  0  0  0  0  0
   45.9331   53.5441   33.8923 C   0  0  0  0  0  0  0  0  0  0  0  0
   46.7328   53.7409   32.7814 N   0  0  0  0  0  0  0  0  0  0  0  0
   47.9525   54.3086   32.9058 C   0  0  0  0  0  0  0  0  0  0  0  0
   48.4189   54.6850   34.1567 C   0  0  0  0  0  0  0  0  0  0  0  0
   47.6205   54.4916   35.2808 C   0  0  0  0  0  0  0  0  0  0  0  0
   48.0486   54.8527   36.4877 N   0  0  0  0  0  0  0  0  0  0  0  0
   49.6549   55.2073   33.9929 N   0  0  0  0  0  0  0  0  0  0  0  0
   49.9810   55.1553   32.6800 C   0  0  0  0  0  0  0  0  0  0  0  0
   48.9339   54.6000   31.9923 N   0  0  0  0  0  0  0  0  0  0  0  0
  2  1  1  6  0  0  0
  2  3  1  0  0  0  0
  2  5  1  0  0  0  0
  3  4  1  0  0  0  0
  3 17  1  0  0  0  0
  5  6  1  0  0  0  0
  7  6  1  1  0  0  0
  7  8  1  0  0  0  0
  7  9  1  0  0  0  0
 10  9  1  1  0  0  0
 10 11  1  0  0  0  0
 10 12  1  0  0  0  0
 11 16  1  0  0  0  0
 12 13  1  6  0  0  0
 12 14  1  0  0  0  0
 14 15  1  6  0  0  0
 14 16  1  0  0  0  0
 16 27  1  1  0  0  0
 18 19  2  0  0  0  0
 18 23  1  0  0  0  0
 19 20  1  0  0  0  0
 20 21  2  0  0  0  0
 21 22  1  0  0  0  0
 21 27  1  0  0  0  0
 22 23  2  0  0  0  0
 22 25  1  0  0  0  0
 23 24  1  0  0  0  0
 25 26  2  0  0  0  0
 26 27  1  0  0  0  0
M  END
>  <CHROM.1>
1.23708635,-155.25520265,170.53674679,-106.47513444,-87.06569154,54.92281533
63.25262393,47.39028241,55.62541219,31.52869130,0.78828382,-1.19411928,0.57452142

>  <Name>
ligand

>  <RI>
0

>  <Rbt.Current_Directory>
/home/itssahil/PROJECTS/Mol_Feturizer/New_Systems/rnas/3GX7

>  <Rbt.Executable>
rbdock ($Id: //depot/dev/client3/rdock/2013.1/src/exe/rbdock.cxx#4 $)

>  <Rbt.Library>
libRbt.so (2013.1, Build901 2013/11/27)

>  <Rbt.Parameter_File>
/export/apps/rDock/src/rDock_2013.1_src/data/scripts/dock_solv.prm

>  <Rbt.Receptor>
prm/pocket_docking_3.prm

>  <SCORE>
-11.8645

>  <SCORE.INTER>
-6.575

>  <SCORE.INTER.CONST>
1

>  <SCORE.INTER.POLAR>
0

>  <SCORE.INTER.ROT>
7

>  <SCORE.INTER.SOLV>
20.2858

>  <SCORE.INTER.VDW>
-19.4119

>  <SCORE.INTER.norm>
-0.243519

>  <SCORE.INTRA>
-5.40197

>  <SCORE.INTRA.DIHEDRAL>
-1.59112

>  <SCORE.INTRA.DIHEDRAL.0>
11.2699

>  <SCORE.INTRA.POLAR>
0

>  <SCORE.INTRA.POLAR.0>
0

>  <SCORE.INTRA.REPUL>
0

>  <SCORE.INTRA.REPUL.0>
0

>  <SCORE.INTRA.SOLV>
-0.883472

>  <SCORE.INTRA.SOLV.lig_0>
-48.6447

>  <SCORE.INTRA.VDW>
-4.16468

>  <SCORE.INTRA.VDW.0>
-0.0211724

>  <SCORE.INTRA.norm>
-0.200073

>  <SCORE.RESTR>
0.112522

>  <SCORE.RESTR.CAVITY>
0.112522

>  <SCORE.RESTR.norm>
0.00416746

>  <SCORE.SYSTEM>
0

>  <SCORE.SYSTEM.CONST>
0

>  <SCORE.SYSTEM.DIHEDRAL>
0

>  <SCORE.SYSTEM.SOLV>
0

>  <SCORE.SYSTEM.norm>
0

>  <SCORE.heavy>
27

>  <SCORE.norm>
-0.439424

>  <RMSD>
5.066

$$$$
ligand
 OpenBabel11021811483D
libRbt.so/2013.1/901 2013/11/27
 27 29  0  0  0  0  0  0  0  0999 V2000
   47.9685   52.2429   28.9049 N   0  0  0  0  0  0  0  0  0  0  0  0
   46.9039   53.2232   28.7277 C   0  0  2  0  0  0  0  0  0  0  0  0
   45.6525   52.5606   28.1758 C   0  0  0  0  0  0  0  0  0  0  0  0
   44.6310   52.4980   28.8560 O   0  0  0  0  0  0  0  0  0  0  0  0
   47.3369   54.3763   27.8235 C   0  0  0  0  0  0  0  0  0  0  0  0
   46.3219   55.5062   27.6973 C   0  0  0  0  0  0  0  0  0  0  0  0
   45.8715   56.2922   29.2692 S   0  0  2  0  0  0  0  0  0  0  0  0
   44.9663   57.7471   28.6872 C   0  0  0  0  0  0  0  0  0  0  0  0
   47.4562   57.0464   29.7206 C   0  0  0  0  0  0  0  0  0  0  0  0
   47.2697   57.9477   30.9320 C   0  0  1  0  0  0  0  0  0  0  0  0
   46.7070   57.1800   31.9686 O   0  0  0  0  0  0  0  0  0  0  0  0
   48.5568   58.5020   31.5087 C   0  0  1  0  0  0  0  0  0  0  0  0
   48.7861   59.8043   31.0287 O   0  0  0  0  0  0  0  0  0  0  0  0
   48.3004   58.5166   33.0048 C   0  0  1  0  0  0  0  0  0  0  0  0
   48.0575   59.8395   33.4212 O   0  0  0  0  0  0  0  0  0  0  0  0
   47.0606   57.6627   33.2396 C   0  0  2  0  0  0  0  0  0  0  0  0
   45.6401   52.0821   27.0413 O   0  0  0  0  0  0  0  0  0  0  0  0
   45.3843   53.2879   35.6343 N   0  0  0  0  0  0  0  0  0  0  0  0
   44.6614   54.1661   34.8525 C   0  0  0  0  0  0  0  0  0  0  0  0
   45.2722   55.2764   34.2989 N   0  0  0  0  0  0  0  0  0  0  0  0
   46.5821   55.5216   34.5218 C   0  0  0  0  0  0  0  0  0  0  0  0
   47.3296   54.6486   35.2984 C   0  0  0  0  0  0  0  0  0  0  0  0
   46.7230   53.5286   35.8607 C   0  0  0  0  0  0  0  0  0  0  0  0
   47.4228   52.6839   36.6138 N   0  0  0  0  0  0  0  0  0  0  0  0
   48.5946   55.1228   35.3454 N   0  0  0  0  0  0  0  0  0  0  0  0
   48.6638   56.2574   34.6101 C   0  0  0  0  0  0  0  0  0  0  0  0
   47.4220   56.5179   34.0926 N   0  0  0  0  0  0  0  0  0  0  0  0
  2  1  1  6  0  0  0
  2  3  1  0  0  0  0
  2  5  1  0  0  0  0
  3  4  1  0  0  0  0
  3 17  1  0  0  0  0
  5  6  1  0  0  0  0
  7  6  1  6  0  0  0
  7  8  1  0  0  0  0
  7  9  1  0  0  0  0
 10  9  1  6  0  0  0
 10 11  1  0  0  0  0
 10 12  1  0  0  0  0
 11 16  1  0  0  0  0
 12 13  1  6  0  0  0
 12 14  1  0  0  0  0
 14 15  1  6  0  0  0
 14 16  1  0  0  0  0
 16 27  1  1  0  0  0
 18 19  2  0  0  0  0
 18 23  1  0  0  0  0
 19 20  1  0  0  0  0
 20 21  2  0  0  0  0
 21 22  1  0  0  0  0
 21 27  1  0  0  0  0
 22 23  2  0  0  0  0
 22 25  1  0  0  0  0
 23 24  1  0  0  0  0
 25 26  2  0  0  0  0
 26 27  1  0  0  0  0
M  END
>  <CHROM.1>
113.91605160,-174.51015155,58.60721835,168.70837314,171.77288952,56.10370104
-65.94814967,46.81678153,55.62888779,31.67109903,2.16290108,-1.27225292,-1.24189530

>  <Name>
ligand

>  <RI>
0

>  <Rbt.Current_Directory>
/home/itssahil/PROJECTS/Mol_Feturizer/New_Systems/rnas/3GX7

>  <Rbt.Executable>
rbdock ($Id: //depot/dev/client3/rdock/2013.1/src/exe/rbdock.cxx#4 $)

>  <Rbt.Library>
libRbt.so (2013.1, Build901 2013/11/27)

>  <Rbt.Parameter_File>
/export/apps/rDock/src/rDock_2013.1_src/data/scripts/dock_solv.prm

>  <Rbt.Receptor>
prm/pocket_docking_4.prm

>  <SCORE>
-14.2229

>  <SCORE.INTER>
-8.10215

>  <SCORE.INTER.CONST>
1

>  <SCORE.INTER.POLAR>
0

>  <SCORE.INTER.ROT>
7

>  <SCORE.INTER.SOLV>
18.3343

>  <SCORE.INTER.VDW>
-19.7795

>  <SCORE.INTER.norm>
-0.30008

>  <SCORE.INTRA>
-6.12079

>  <SCORE.INTRA.DIHEDRAL>
-7.91691

>  <SCORE.INTRA.DIHEDRAL.0>
11.2699

>  <SCORE.INTRA.POLAR>
0

>  <SCORE.INTRA.POLAR.0>
0

>  <SCORE.INTRA.REPUL>
0

>  <SCORE.INTRA.REPUL.0>
0

>  <SCORE.INTRA.SOLV>
-0.975603

>  <SCORE.INTRA.SOLV.lig_0>
-48.6447

>  <SCORE.INTRA.VDW>
-1.67454

>  <SCORE.INTRA.VDW.0>
-0.0211724

>  <SCORE.INTRA.norm>
-0.226696

>  <SCORE.RESTR>
0

>  <SCORE.RESTR.CAVITY>
0

>  <SCORE.RESTR.norm>
0

>  <SCORE.SYSTEM>
0

>  <SCORE.SYSTEM.CONST>
0

>  <SCORE.SYSTEM.DIHEDRAL>
0

>  <SCORE.SYSTEM.SOLV>
0

>  <SCORE.SYSTEM.norm>
0

>  <SCORE.heavy>
27

>  <SCORE.norm>
-0.526776

>  <RMSD>
5.073

$$$$
ligand
 OpenBabel11021811483D
libRbt.so/2013.1/901 2013/11/27
 27 29  0  0  0  0  0  0  0  0999 V2000
   47.8162   58.8795   27.9102 N   0  0  0  0  0  0  0  0  0  0  0  0
   47.2726   58.0723   28.9958 C   0  0  2  0  0  0  0  0  0  0  0  0
   45.7559   58.0191   28.9158 C   0  0  0  0  0  0  0  0  0  0  0  0
   45.1076   59.0440   28.7177 O   0  0  0  0  0  0  0  0  0  0  0  0
   47.7143   58.5880   30.3647 C   0  0  0  0  0  0  0  0  0  0  0  0
   47.9692   57.5039   31.4050 C   0  0  0  0  0  0  0  0  0  0  0  0
   48.3317   58.1283   33.0693 S   0  0  2  0  0  0  0  0  0  0  0  0
   49.9280   58.9373   32.8006 C   0  0  0  0  0  0  0  0  0  0  0  0
   48.8675   56.5987   33.8801 C   0  0  0  0  0  0  0  0  0  0  0  0
   47.7109   56.0028   34.6686 C   0  0  1  0  0  0  0  0  0  0  0  0
   46.5467   56.1023   33.8843 O   0  0  0  0  0  0  0  0  0  0  0  0
   47.8525   54.5255   34.9748 C   0  0  1  0  0  0  0  0  0  0  0  0
   48.3580   54.3422   36.2748 O   0  0  0  0  0  0  0  0  0  0  0  0
   46.4316   54.0016   34.8706 C   0  0  1  0  0  0  0  0  0  0  0  0
   45.9247   53.7739   36.1643 O   0  0  0  0  0  0  0  0  0  0  0  0
   45.6192   55.0892   34.1790 C   0  0  2  0  0  0  0  0  0  0  0  0
   45.1546   56.9519   29.0426 O   0  0  0  0  0  0  0  0  0  0  0  0
   42.5108   51.5084   31.8987 N   0  0  0  0  0  0  0  0  0  0  0  0
   42.7619   51.6914   33.2435 C   0  0  0  0  0  0  0  0  0  0  0  0
   43.6167   52.6929   33.6661 N   0  0  0  0  0  0  0  0  0  0  0  0
   44.2240   53.5006   32.7692 C   0  0  0  0  0  0  0  0  0  0  0  0
   43.9807   53.3394   31.4132 C   0  0  0  0  0  0  0  0  0  0  0  0
   43.1223   52.3332   30.9782 C   0  0  0  0  0  0  0  0  0  0  0  0
   42.8823   52.1594   29.6811 N   0  0  0  0  0  0  0  0  0  0  0  0
   44.6983   54.2763   30.7541 N   0  0  0  0  0  0  0  0  0  0  0  0
   45.3711   55.0273   31.6575 C   0  0  0  0  0  0  0  0  0  0  0  0
   45.0869   54.5576   32.9130 N   0  0  0  0  0  0  0  0  0  0  0  0
  2  1  1  6  0  0  0
  2  3  1  0  0  0  0
  2  5  1  0  0  0  0
  3  4  1  0  0  0  0
  3 17  1  0  0  0  0
  5  6  1  0  0  0  0
  7  6  1  6  0  0  0
  7  8  1  0  0  0  0
  7  9  1  0  0  0  0
 10  9  1  6  0  0  0
 10 11  1  0  0  0  0
 10 12  1  0  0  0  0
 11 16  1  0  0  0  0
 12 13  1  1  0  0  0
 12 14  1  0  0  0  0
 14 15  1  1  0  0  0
 14 16  1  0  0  0  0
 16 27  1  6  0  0  0
 18 19  2  0  0  0  0
 18 23  1  0  0  0  0
 19 20  1  0  0  0  0
 20 21  2  0  0  0  0
 21 22  1  0  0  0  0
 21 27  1  0  0  0  0
 22 23  2  0  0  0  0
 22 25  1  0  0  0  0
 23 24  1  0  0  0  0
 25 26  2  0  0  0  0
 26 27  1  0  0  0  0
M  END
>  <CHROM.1>
-45.75838409,-144.22824716,-174.20373464,-66.75663573,-97.96568527,42.51288931
175.44667542,46.11717890,55.58838877,32.25111883,0.75256436,-0.75146236,-0.98918998

>  <Name>
ligand

>  <RI>
0

>  <Rbt.Current_Directory>
/home/itssahil/PROJECTS/Mol_Feturizer/New_Systems/rnas/3GX7

>  <Rbt.Executable>
rbdock ($Id: //depot/dev/client3/rdock/2013.1/src/exe/rbdock.cxx#4 $)

>  <Rbt.Library>
libRbt.so (2013.1, Build901 2013/11/27)

>  <Rbt.Parameter_File>
/export/apps/rDock/src/rDock_2013.1_src/data/scripts/dock_solv.prm

>  <Rbt.Receptor>
prm/pocket_docking_6.prm

>  <SCORE>
-12.5075

>  <SCORE.INTER>
-8.74724

>  <SCORE.INTER.CONST>
1

>  <SCORE.INTER.POLAR>
0

>  <SCORE.INTER.ROT>
7

>  <SCORE.INTER.SOLV>
17.0133

>  <SCORE.INTER.VDW>
-19.7692

>  <SCORE.INTER.norm>
-0.323972

>  <SCORE.INTRA>
-3.7603

>  <SCORE.INTRA.DIHEDRAL>
-1.07983

>  <SCORE.INTRA.DIHEDRAL.0>
11.2699

>  <SCORE.INTRA.POLAR>
0

>  <SCORE.INTRA.POLAR.0>
0

>  <SCORE.INTRA.REPUL>
0

>  <SCORE.INTRA.REPUL.0>
0

>  <SCORE.INTRA.SOLV>
-0.907193

>  <SCORE.INTRA.SOLV.lig_0>
-48.6447

>  <SCORE.INTRA.VDW>
-2.76679

>  <SCORE.INTRA.VDW.0>
-0.0211724

>  <SCORE.INTRA.norm>
-0.13927

>  <SCORE.RESTR>
0

>  <SCORE.RESTR.CAVITY>
0

>  <SCORE.RESTR.norm>
0

>  <SCORE.SYSTEM>
0

>  <SCORE.SYSTEM.CONST>
0

>  <SCORE.SYSTEM.DIHEDRAL>
0

>  <SCORE.SYSTEM.SOLV>
0

>  <SCORE.SYSTEM.norm>
0

>  <SCORE.heavy>
27

>  <SCORE.norm>
-0.463242

>  <RMSD>
5.077

$$$$
ligand
 OpenBabel11021811483D
libRbt.so/2013.1/901 2013/11/27
 27 29  0  0  0  0  0  0  0  0999 V2000
   50.2636   53.7094   28.0066 N   0  0  0  0  0  0  0  0  0  0  0  0
   49.0161   53.7227   28.7609 C   0  0  2  0  0  0  0  0  0  0  0  0
   48.8154   52.4029   29.4871 C   0  0  0  0  0  0  0  0  0  0  0  0
   48.0719   52.3374   30.4632 O   0  0  0  0  0  0  0  0  0  0  0  0
   47.8140   54.0253   27.8675 C   0  0  0  0  0  0  0  0  0  0  0  0
   47.4131   55.4945   27.8104 C   0  0  0  0  0  0  0  0  0  0  0  0
   46.8537   56.1839   29.3926 S   0  0  2  0  0  0  0  0  0  0  0  0
   45.1118   55.6932   29.3928 C   0  0  0  0  0  0  0  0  0  0  0  0
   46.7049   57.9346   28.9492 C   0  0  0  0  0  0  0  0  0  0  0  0
   46.6110   58.7782   30.2118 C   0  0  1  0  0  0  0  0  0  0  0  0
   45.4822   58.3570   30.9390 O   0  0  0  0  0  0  0  0  0  0  0  0
   47.7763   58.6144   31.1667 C   0  0  1  0  0  0  0  0  0  0  0  0
   48.7103   59.6496   30.9798 O   0  0  0  0  0  0  0  0  0  0  0  0
   47.1310   58.7120   32.5372 C   0  0  1  0  0  0  0  0  0  0  0  0
   47.4171   59.9722   33.0963 O   0  0  0  0  0  0  0  0  0  0  0  0
   45.6298   58.5696   32.3197 C   0  0  2  0  0  0  0  0  0  0  0  0
   49.3882   51.3809   29.1080 O   0  0  0  0  0  0  0  0  0  0  0  0
   41.7564   55.0503   32.8636 N   0  0  0  0  0  0  0  0  0  0  0  0
   41.8223   56.1233   31.9980 C   0  0  0  0  0  0  0  0  0  0  0  0
   42.9291   56.9523   31.9936 N   0  0  0  0  0  0  0  0  0  0  0  0
   43.9572   56.7289   32.8413 C   0  0  0  0  0  0  0  0  0  0  0  0
   43.9155   55.6522   33.7148 C   0  0  0  0  0  0  0  0  0  0  0  0
   42.8048   54.8126   33.7271 C   0  0  0  0  0  0  0  0  0  0  0  0
   42.7444   53.7791   34.5627 N   0  0  0  0  0  0  0  0  0  0  0  0
   45.0635   55.6589   34.4283 N   0  0  0  0  0  0  0  0  0  0  0  0
   45.8278   56.6980   34.0172 C   0  0  0  0  0  0  0  0  0  0  0  0
   45.1541   57.3718   33.0324 N   0  0  0  0  0  0  0  0  0  0  0  0
  2  1  1  6  0  0  0
  2  3  1  0  0  0  0
  2  5  1  0  0  0  0
  3  4  1  0  0  0  0
  3 17  1  0  0  0  0
  5  6  1  0  0  0  0
  7  6  1  6  0  0  0
  7  8  1  0  0  0  0
  7  9  1  0  0  0  0
 10  9  1  6  0  0  0
 10 11  1  0  0  0  0
 10 12  1  0  0  0  0
 11 16  1  0  0  0  0
 12 13  1  6  0  0  0
 12 14  1  0  0  0  0
 14 15  1  6  0  0  0
 14 16  1  0  0  0  0
 16 27  1  1  0  0  0
 18 19  2  0  0  0  0
 18 23  1  0  0  0  0
 19 20  1  0  0  0  0
 20 21  2  0  0  0  0
 21 22  1  0  0  0  0
 21 27  1  0  0  0  0
 22 23  2  0  0  0  0
 22 25  1  0  0  0  0
 23 24  1  0  0  0  0
 25 26  2  0  0  0  0
 26 27  1  0  0  0  0
M  END
>  <CHROM.1>
158.29488440,-93.96488786,-63.67260446,-84.30730308,-164.65270736,-59.39428022
-50.02652666,46.19175246,56.09827041,31.10811484,0.55557509,-0.66381555,-2.93007765

>  <Name>
ligand

>  <RI>
0

>  <Rbt.Current_Directory>
/home/itssahil/PROJECTS/Mol_Feturizer/New_Systems/rnas/3GX7

>  <Rbt.Executable>
rbdock ($Id: //depot/dev/client3/rdock/2013.1/src/exe/rbdock.cxx#4 $)

>  <Rbt.Library>
libRbt.so (2013.1, Build901 2013/11/27)

>  <Rbt.Parameter_File>
/export/apps/rDock/src/rDock_2013.1_src/data/scripts/dock_solv.prm

>  <Rbt.Receptor>
prm/pocket_docking_7.prm

>  <SCORE>
-13.0934

>  <SCORE.INTER>
-8.79654

>  <SCORE.INTER.CONST>
1

>  <SCORE.INTER.POLAR>
0

>  <SCORE.INTER.ROT>
7

>  <SCORE.INTER.SOLV>
8.39338

>  <SCORE.INTER.VDW>
-16.9288

>  <SCORE.INTER.norm>
-0.325798

>  <SCORE.INTRA>
-4.2969

>  <SCORE.INTRA.DIHEDRAL>
-2.37932

>  <SCORE.INTRA.DIHEDRAL.0>
11.2699

>  <SCORE.INTRA.POLAR>
0

>  <SCORE.INTRA.POLAR.0>
0

>  <SCORE.INTRA.REPUL>
0

>  <SCORE.INTRA.REPUL.0>
0

>  <SCORE.INTRA.SOLV>
-0.275557

>  <SCORE.INTRA.SOLV.lig_0>
-48.6447

>  <SCORE.INTRA.VDW>
-2.96946

>  <SCORE.INTRA.VDW.0>
-0.0211724

>  <SCORE.INTRA.norm>
-0.159144

>  <SCORE.RESTR>
0

>  <SCORE.RESTR.CAVITY>
0

>  <SCORE.RESTR.norm>
0

>  <SCORE.SYSTEM>
0

>  <SCORE.SYSTEM.CONST>
0

>  <SCORE.SYSTEM.DIHEDRAL>
0

>  <SCORE.SYSTEM.SOLV>
0

>  <SCORE.SYSTEM.norm>
0

>  <SCORE.heavy>
27

>  <SCORE.norm>
-0.484942

>  <RMSD>
5.080

$$$$
ligand
 OpenBabel11021811483D
libRbt.so/2013.1/901 2013/11/27
 27 29  0  0  0  0  0  0  0  0999 V2000
   47.1930   52.8058   27.0473 N   0  0  0  0  0  0  0  0  0  0  0  0
   47.0302   54.0635   27.7665 C   0  0  2  0  0  0  0  0  0  0  0  0
   46.5601   53.8098   29.1892 C   0  0  0  0  0  0  0  0  0  0  0  0
   45.6151   53.0549   29.4062 O   0  0  0  0  0  0  0  0  0  0  0  0
   46.0668   55.0084   27.0495 C   0  0  0  0  0  0  0  0  0  0  0  0
   46.2578   56.4849   27.3754 C   0  0  0  0  0  0  0  0  0  0  0  0
   45.9284   56.9226   29.1050 S   0  0  2  0  0  0  0  0  0  0  0  0
   44.1215   56.8335   29.1513 C   0  0  0  0  0  0  0  0  0  0  0  0
   46.1702   58.7172   29.0372 C   0  0  0  0  0  0  0  0  0  0  0  0
   46.4590   59.2497   30.4328 C   0  0  1  0  0  0  0  0  0  0  0  0
   45.3691   58.9248   31.2616 O   0  0  0  0  0  0  0  0  0  0  0  0
   47.6643   58.6266   31.1076 C   0  0  1  0  0  0  0  0  0  0  0  0
   48.7924   59.4528   30.9527 O   0  0  0  0  0  0  0  0  0  0  0  0
   47.2534   58.5440   32.5666 C   0  0  1  0  0  0  0  0  0  0  0  0
   47.9158   59.5518   33.2933 O   0  0  0  0  0  0  0  0  0  0  0  0
   45.7487   58.7794   32.6062 C   0  0  2  0  0  0  0  0  0  0  0  0
   47.1191   54.3502   30.1441 O   0  0  0  0  0  0  0  0  0  0  0  0
   46.3851   54.1901   35.0997 N   0  0  0  0  0  0  0  0  0  0  0  0
   47.3497   55.1096   34.7403 C   0  0  0  0  0  0  0  0  0  0  0  0
   46.9967   56.2734   34.0821 N   0  0  0  0  0  0  0  0  0  0  0  0
   45.7049   56.5230   33.7744 C   0  0  0  0  0  0  0  0  0  0  0  0
   44.7182   55.6163   34.1323 C   0  0  0  0  0  0  0  0  0  0  0  0
   45.0641   54.4413   34.7945 C   0  0  0  0  0  0  0  0  0  0  0  0
   44.1319   53.5569   35.1396 N   0  0  0  0  0  0  0  0  0  0  0  0
   43.5326   56.1165   33.7183 N   0  0  0  0  0  0  0  0  0  0  0  0
   43.7466   57.3147   33.1257 C   0  0  0  0  0  0  0  0  0  0  0  0
   45.0906   57.5806   33.1527 N   0  0  0  0  0  0  0  0  0  0  0  0
  2  1  1  6  0  0  0
  2  3  1  0  0  0  0
  2  5  1  0  0  0  0
  3  4  1  0  0  0  0
  3 17  1  0  0  0  0
  5  6  1  0  0  0  0
  7  6  1  6  0  0  0
  7  8  1  0  0  0  0
  7  9  1  0  0  0  0
 10  9  1  6  0  0  0
 10 11  1  0  0  0  0
 10 12  1  0  0  0  0
 11 16  1  0  0  0  0
 12 13  1  1  0  0  0
 12 14  1  0  0  0  0
 14 15  1  1  0  0  0
 14 16  1  0  0  0  0
 16 27  1  6  0  0  0
 18 19  2  0  0  0  0
 18 23  1  0  0  0  0
 19 20  1  0  0  0  0
 20 21  2  0  0  0  0
 21 22  1  0  0  0  0
 21 27  1  0  0  0  0
 22 23  2  0  0  0  0
 22 25  1  0  0  0  0
 23 24  1  0  0  0  0
 25 26  2  0  0  0  0
 26 27  1  0  0  0  0
M  END
>  <CHROM.1>
-48.48114994,-156.23354616,-64.33125260,-73.88713459,-158.90781589,-59.07163178
125.73595379,46.09164598,56.42034545,31.27788898,1.10034278,-1.31200828,-2.21646756

>  <Name>
ligand

>  <RI>
0

>  <Rbt.Current_Directory>
/home/itssahil/PROJECTS/Mol_Feturizer/New_Systems/rnas/3GX7

>  <Rbt.Executable>
rbdock ($Id: //depot/dev/client3/rdock/2013.1/src/exe/rbdock.cxx#4 $)

>  <Rbt.Library>
libRbt.so (2013.1, Build901 2013/11/27)

>  <Rbt.Parameter_File>
/export/apps/rDock/src/rDock_2013.1_src/data/scripts/dock_solv.prm

>  <Rbt.Receptor>
prm/pocket_docking_4.prm

>  <SCORE>
-15.6278

>  <SCORE.INTER>
-10.4366

>  <SCORE.INTER.CONST>
1

>  <SCORE.INTER.POLAR>
0

>  <SCORE.INTER.ROT>
7

>  <SCORE.INTER.SOLV>
12.9815

>  <SCORE.INTER.VDW>
-19.5516

>  <SCORE.INTER.norm>
-0.386539

>  <SCORE.INTRA>
-5.1912

>  <SCORE.INTRA.DIHEDRAL>
-3.90164

>  <SCORE.INTRA.DIHEDRAL.0>
11.2699

>  <SCORE.INTRA.POLAR>
0

>  <SCORE.INTRA.POLAR.0>
0

>  <SCORE.INTRA.REPUL>
0

>  <SCORE.INTRA.REPUL.0>
0

>  <SCORE.INTRA.SOLV>
-0.673309

>  <SCORE.INTRA.SOLV.lig_0>
-48.6447

>  <SCORE.INTRA.VDW>
-2.90373

>  <SCORE.INTRA.VDW.0>
-0.0211724

>  <SCORE.INTRA.norm>
-0.192267

>  <SCORE.RESTR>
0

>  <SCORE.RESTR.CAVITY>
0

>  <SCORE.RESTR.norm>
0

>  <SCORE.SYSTEM>
0

>  <SCORE.SYSTEM.CONST>
0

>  <SCORE.SYSTEM.DIHEDRAL>
0

>  <SCORE.SYSTEM.SOLV>
0

>  <SCORE.SYSTEM.norm>
0

>  <SCORE.heavy>
27

>  <SCORE.norm>
-0.578806

>  <RMSD>
5.095

$$$$
ligand
 OpenBabel11021811483D
libRbt.so/2013.1/901 2013/11/27
 27 29  0  0  0  0  0  0  0  0999 V2000
   44.6457   52.2975   28.3837 N   0  0  0  0  0  0  0  0  0  0  0  0
   45.4415   52.6250   29.5605 C   0  0  2  0  0  0  0  0  0  0  0  0
   44.5980   53.3586   30.5901 C   0  0  0  0  0  0  0  0  0  0  0  0
   43.4669   52.9632   30.8624 O   0  0  0  0  0  0  0  0  0  0  0  0
   46.6764   53.4499   29.2008 C   0  0  0  0  0  0  0  0  0  0  0  0
   47.6712   53.6421   30.3393 C   0  0  0  0  0  0  0  0  0  0  0  0
   49.0524   54.7529   29.9522 S   0  0  2  0  0  0  0  0  0  0  0  0
   50.3678   53.5640   29.5900 C   0  0  0  0  0  0  0  0  0  0  0  0
   49.5272   55.2741   31.6216 C   0  0  0  0  0  0  0  0  0  0  0  0
   48.8029   56.5623   31.9831 C   0  0  1  0  0  0  0  0  0  0  0  0
   47.4204   56.2998   31.9987 O   0  0  0  0  0  0  0  0  0  0  0  0
   49.1168   57.0942   33.3670 C   0  0  1  0  0  0  0  0  0  0  0  0
   50.1022   58.0954   33.2936 O   0  0  0  0  0  0  0  0  0  0  0  0
   47.7941   57.6734   33.8352 C   0  0  1  0  0  0  0  0  0  0  0  0
   47.8499   59.0783   33.7601 O   0  0  0  0  0  0  0  0  0  0  0  0
   46.7289   57.1447   32.8826 C   0  0  2  0  0  0  0  0  0  0  0  0
   45.0341   54.3539   31.1693 O   0  0  0  0  0  0  0  0  0  0  0  0
   45.9973   52.9070   35.9141 N   0  0  0  0  0  0  0  0  0  0  0  0
   47.1707   53.3607   35.3464 C   0  0  0  0  0  0  0  0  0  0  0  0
   47.1759   54.5046   34.5694 N   0  0  0  0  0  0  0  0  0  0  0  0
   46.0322   55.1892   34.3483 C   0  0  0  0  0  0  0  0  0  0  0  0
   44.8427   54.7555   34.9148 C   0  0  0  0  0  0  0  0  0  0  0  0
   44.8275   53.6043   35.6979 C   0  0  0  0  0  0  0  0  0  0  0  0
   43.6947   53.1696   36.2438 N   0  0  0  0  0  0  0  0  0  0  0  0
   43.8731   55.6216   34.5450 N   0  0  0  0  0  0  0  0  0  0  0  0
   44.4229   56.5914   33.7768 C   0  0  0  0  0  0  0  0  0  0  0  0
   45.7628   56.3363   33.6455 N   0  0  0  0  0  0  0  0  0  0  0  0
  2  1  1  6  0  0  0
  2  3  1  0  0  0  0
  2  5  1  0  0  0  0
  3  4  1  0  0  0  0
  3 17  1  0  0  0  0
  5  6  1  0  0  0  0
  7  6  1  1  0  0  0
  7  8  1  0  0  0  0
  7  9  1  0  0  0  0
 10  9  1  1  0  0  0
 10 11  1  0  0  0  0
 10 12  1  0  0  0  0
 11 16  1  0  0  0  0
 12 13  1  6  0  0  0
 12 14  1  0  0  0  0
 14 15  1  6  0  0  0
 14 16  1  0  0  0  0
 16 27  1  1  0  0  0
 18 19  2  0  0  0  0
 18 23  1  0  0  0  0
 19 20  1  0  0  0  0
 20 21  2  0  0  0  0
 21 22  1  0  0  0  0
 21 27  1  0  0  0  0
 22 23  2  0  0  0  0
 22 25  1  0  0  0  0
 23 24  1  0  0  0  0
 25 26  2  0  0  0  0
 26 27  1  0  0  0  0
M  END
>  <CHROM.1>
44.68244817,-170.70726589,-174.39427161,-100.43479003,-92.77428090,62.97527022
52.17018266,46.75132859,54.98863502,32.45936245,0.96189988,-0.60131980,-2.08495349

>  <Name>
ligand

>  <RI>
0

>  <Rbt.Current_Directory>
/home/itssahil/PROJECTS/Mol_Feturizer/New_Systems/rnas/3GX7

>  <Rbt.Executable>
rbdock ($Id: //depot/dev/client3/rdock/2013.1/src/exe/rbdock.cxx#4 $)

>  <Rbt.Library>
libRbt.so (2013.1, Build901 2013/11/27)

>  <Rbt.Parameter_File>
/export/apps/rDock/src/rDock_2013.1_src/data/scripts/dock_solv.prm

>  <Rbt.Receptor>
prm/pocket_docking_5.prm

>  <SCORE>
-14.7579

>  <SCORE.INTER>
-9.27894

>  <SCORE.INTER.CONST>
1

>  <SCORE.INTER.POLAR>
0

>  <SCORE.INTER.ROT>
7

>  <SCORE.INTER.SOLV>
13.8414

>  <SCORE.INTER.VDW>
-19.0664

>  <SCORE.INTER.norm>
-0.343665

>  <SCORE.INTRA>
-5.48114

>  <SCORE.INTRA.DIHEDRAL>
-3.68834

>  <SCORE.INTRA.DIHEDRAL.0>
11.2699

>  <SCORE.INTRA.POLAR>
0

>  <SCORE.INTRA.POLAR.0>
0

>  <SCORE.INTRA.REPUL>
0

>  <SCORE.INTRA.REPUL.0>
0

>  <SCORE.INTRA.SOLV>
-0.946707

>  <SCORE.INTRA.SOLV.lig_0>
-48.6447

>  <SCORE.INTRA.VDW>
-3.16362

>  <SCORE.INTRA.VDW.0>
-0.0211724

>  <SCORE.INTRA.norm>
-0.203005

>  <SCORE.RESTR>
0.00219135

>  <SCORE.RESTR.CAVITY>
0.00219135

>  <SCORE.RESTR.norm>
8.11612e-05

>  <SCORE.SYSTEM>
0

>  <SCORE.SYSTEM.CONST>
0

>  <SCORE.SYSTEM.DIHEDRAL>
0

>  <SCORE.SYSTEM.SOLV>
0

>  <SCORE.SYSTEM.norm>
0

>  <SCORE.heavy>
27

>  <SCORE.norm>
-0.546589

>  <RMSD>
5.096

$$$$
ligand
 OpenBabel11021811483D
libRbt.so/2013.1/901 2013/11/27
 27 29  0  0  0  0  0  0  0  0999 V2000
   50.4484   52.5269   26.9519 N   0  0  0  0  0  0  0  0  0  0  0  0
   49.9598   53.8247   26.5018 C   0  0  2  0  0  0  0  0  0  0  0  0
   51.1161   54.7129   26.0732 C   0  0  0  0  0  0  0  0  0  0  0  0
   52.0010   55.0098   26.8723 O   0  0  0  0  0  0  0  0  0  0  0  0
   49.1244   54.5215   27.5748 C   0  0  0  0  0  0  0  0  0  0  0  0
   48.5713   55.8831   27.1710 C   0  0  0  0  0  0  0  0  0  0  0  0
   47.4365   56.6224   28.3779 S   0  0  2  0  0  0  0  0  0  0  0  0
   47.1334   58.2415   27.6284 C   0  0  0  0  0  0  0  0  0  0  0  0
   48.6051   57.0764   29.6864 C   0  0  0  0  0  0  0  0  0  0  0  0
   47.8829   57.8627   30.7702 C   0  0  1  0  0  0  0  0  0  0  0  0
   47.2464   56.9463   31.6279 O   0  0  0  0  0  0  0  0  0  0  0  0
   48.7916   58.6759   31.6698 C   0  0  1  0  0  0  0  0  0  0  0  0
   48.8377   60.0136   31.2370 O   0  0  0  0  0  0  0  0  0  0  0  0
   48.1302   58.5729   33.0323 C   0  0  1  0  0  0  0  0  0  0  0  0
   47.4804   59.7870   33.3258 O   0  0  0  0  0  0  0  0  0  0  0  0
   47.1077   57.4478   32.9328 C   0  0  2  0  0  0  0  0  0  0  0  0
   51.1874   55.1437   24.9218 O   0  0  0  0  0  0  0  0  0  0  0  0
   45.4064   53.3985   35.8297 N   0  0  0  0  0  0  0  0  0  0  0  0
   44.6773   54.2155   34.9895 C   0  0  0  0  0  0  0  0  0  0  0  0
   45.2965   55.2426   34.3010 N   0  0  0  0  0  0  0  0  0  0  0  0
   46.6210   55.4659   34.4470 C   0  0  0  0  0  0  0  0  0  0  0  0
   47.3746   54.6527   35.2806 C   0  0  0  0  0  0  0  0  0  0  0  0
   46.7597   53.6167   35.9785 C   0  0  0  0  0  0  0  0  0  0  0  0
   47.4654   52.8308   36.7877 N   0  0  0  0  0  0  0  0  0  0  0  0
   48.6536   55.0872   35.2298 N   0  0  0  0  0  0  0  0  0  0  0  0
   48.7250   56.1378   34.3790 C   0  0  0  0  0  0  0  0  0  0  0  0
   47.4709   56.3849   33.8852 N   0  0  0  0  0  0  0  0  0  0  0  0
  2  1  1  1  0  0  0
  2  3  1  0  0  0  0
  2  5  1  0  0  0  0
  3  4  1  0  0  0  0
  3 17  1  0  0  0  0
  5  6  1  0  0  0  0
  7  6  1  6  0  0  0
  7  8  1  0  0  0  0
  7  9  1  0  0  0  0
 10  9  1  6  0  0  0
 10 11  1  0  0  0  0
 10 12  1  0  0  0  0
 11 16  1  0  0  0  0
 12 13  1  6  0  0  0
 12 14  1  0  0  0  0
 14 15  1  6  0  0  0
 14 16  1  0  0  0  0
 16 27  1  1  0  0  0
 18 19  2  0  0  0  0
 18 23  1  0  0  0  0
 19 20  1  0  0  0  0
 20 21  2  0  0  0  0
 21 22  1  0  0  0  0
 21 27  1  0  0  0  0
 22 23  2  0  0  0  0
 22 25  1  0  0  0  0
 23 24  1  0  0  0  0
 25 26  2  0  0  0  0
 26 27  1  0  0  0  0
M  END
>  <CHROM.1>
-59.87018154,-179.63723654,173.72390550,175.08541563,174.06785887,82.27677560
-90.95328618,48.14141743,56.01525348,31.13183051,-0.31522626,-1.18853956
2.81713531

>  <Name>
ligand

>  <RI>
0

>  <Rbt.Current_Directory>
/home/itssahil/PROJECTS/Mol_Feturizer/New_Systems/rnas/3GX7

>  <Rbt.Executable>
rbdock ($Id: //depot/dev/client3/rdock/2013.1/src/exe/rbdock.cxx#4 $)

>  <Rbt.Library>
libRbt.so (2013.1, Build901 2013/11/27)

>  <Rbt.Parameter_File>
/export/apps/rDock/src/rDock_2013.1_src/data/scripts/dock_solv.prm

>  <Rbt.Receptor>
prm/pocket_docking_8.prm

>  <SCORE>
-14.2412

>  <SCORE.INTER>
-8.81086

>  <SCORE.INTER.CONST>
1

>  <SCORE.INTER.POLAR>
0

>  <SCORE.INTER.ROT>
7

>  <SCORE.INTER.SOLV>
14.0181

>  <SCORE.INTER.VDW>
-18.8133

>  <SCORE.INTER.norm>
-0.326328

>  <SCORE.INTRA>
-5.4303

>  <SCORE.INTRA.DIHEDRAL>
-6.29805

>  <SCORE.INTRA.DIHEDRAL.0>
11.2699

>  <SCORE.INTRA.POLAR>
0

>  <SCORE.INTRA.POLAR.0>
0

>  <SCORE.INTRA.REPUL>
0

>  <SCORE.INTRA.REPUL.0>
0

>  <SCORE.INTRA.SOLV>
-1.14361

>  <SCORE.INTRA.SOLV.lig_0>
-48.6447

>  <SCORE.INTRA.VDW>
-1.70947

>  <SCORE.INTRA.VDW.0>
-0.0211724

>  <SCORE.INTRA.norm>
-0.201122

>  <SCORE.RESTR>
0

>  <SCORE.RESTR.CAVITY>
0

>  <SCORE.RESTR.norm>
0

>  <SCORE.SYSTEM>
0

>  <SCORE.SYSTEM.CONST>
0

>  <SCORE.SYSTEM.DIHEDRAL>
0

>  <SCORE.SYSTEM.SOLV>
0

>  <SCORE.SYSTEM.norm>
0

>  <SCORE.heavy>
27

>  <SCORE.norm>
-0.52745

>  <RMSD>
5.097

$$$$
ligand
 OpenBabel11021811483D
libRbt.so/2013.1/901 2013/11/27
 27 29  0  0  0  0  0  0  0  0999 V2000
   50.5499   53.6388   29.7329 N   0  0  0  0  0  0  0  0  0  0  0  0
   49.9165   54.9339   29.5160 C   0  0  2  0  0  0  0  0  0  0  0  0
   48.7631   55.1350   30.4850 C   0  0  0  0  0  0  0  0  0  0  0  0
   47.6892   54.5676   30.2991 O   0  0  0  0  0  0  0  0  0  0  0  0
   49.4342   55.0973   28.0753 C   0  0  0  0  0  0  0  0  0  0  0  0
   49.1241   56.5315   27.6632 C   0  0  0  0  0  0  0  0  0  0  0  0
   47.5903   57.2008   28.3639 S   0  0  2  0  0  0  0  0  0  0  0  0
   47.2072   58.5139   27.1790 C   0  0  0  0  0  0  0  0  0  0  0  0
   48.2595   58.1773   29.7360 C   0  0  0  0  0  0  0  0  0  0  0  0
   47.1857   59.1114   30.2735 C   0  0  1  0  0  0  0  0  0  0  0  0
   46.0057   58.3664   30.4550 O   0  0  0  0  0  0  0  0  0  0  0  0
   47.4895   59.7027   31.6353 C   0  0  1  0  0  0  0  0  0  0  0  0
   48.0316   60.9935   31.4975 O   0  0  0  0  0  0  0  0  0  0  0  0
   46.1315   59.7581   32.3114 C   0  0  1  0  0  0  0  0  0  0  0  0
   45.6718   61.0889   32.3214 O   0  0  0  0  0  0  0  0  0  0  0  0
   45.1967   58.8924   31.4760 C   0  0  2  0  0  0  0  0  0  0  0  0
   48.8869   55.8627   31.4706 O   0  0  0  0  0  0  0  0  0  0  0  0
   46.4749   54.9865   34.7614 N   0  0  0  0  0  0  0  0  0  0  0  0
   47.3122   55.8921   34.1420 C   0  0  0  0  0  0  0  0  0  0  0  0
   46.7962   56.8608   33.3007 N   0  0  0  0  0  0  0  0  0  0  0  0
   45.4672   56.9293   33.0669 C   0  0  0  0  0  0  0  0  0  0  0  0
   44.6064   56.0339   33.6843 C   0  0  0  0  0  0  0  0  0  0  0  0
   45.1169   55.0546   34.5322 C   0  0  0  0  0  0  0  0  0  0  0  0
   44.3071   54.1831   35.1279 N   0  0  0  0  0  0  0  0  0  0  0  0
   43.3496   56.3341   33.2876 N   0  0  0  0  0  0  0  0  0  0  0  0
   43.3971   57.3987   32.4527 C   0  0  0  0  0  0  0  0  0  0  0  0
   44.7053   57.7794   32.3057 N   0  0  0  0  0  0  0  0  0  0  0  0
  2  1  1  6  0  0  0
  2  3  1  0  0  0  0
  2  5  1  0  0  0  0
  3  4  1  0  0  0  0
  3 17  1  0  0  0  0
  5  6  1  0  0  0  0
  7  6  1  6  0  0  0
  7  8  1  0  0  0  0
  7  9  1  0  0  0  0
 10  9  1  1  0  0  0
 10 11  1  0  0  0  0
 10 12  1  0  0  0  0
 11 16  1  0  0  0  0
 12 13  1  6  0  0  0
 12 14  1  0  0  0  0
 14 15  1  6  0  0  0
 14 16  1  0  0  0  0
 16 27  1  1  0  0  0
 18 19  2  0  0  0  0
 18 23  1  0  0  0  0
 19 20  1  0  0  0  0
 20 21  2  0  0  0  0
 21 22  1  0  0  0  0
 21 27  1  0  0  0  0
 22 23  2  0  0  0  0
 22 25  1  0  0  0  0
 23 24  1  0  0  0  0
 25 26  2  0  0  0  0
 26 27  1  0  0  0  0
M  END
>  <CHROM.1>
-76.66698627,-163.63709727,-73.68947609,-157.13091248,166.18214871,47.61693712
63.61654393,46.91439826,57.05379579,31.24525346,-0.30948459,-0.86882696,2.67508074

>  <Name>
ligand

>  <RI>
0

>  <Rbt.Current_Directory>
/home/itssahil/PROJECTS/Mol_Feturizer/New_Systems/rnas/3GX7

>  <Rbt.Executable>
rbdock ($Id: //depot/dev/client3/rdock/2013.1/src/exe/rbdock.cxx#4 $)

>  <Rbt.Library>
libRbt.so (2013.1, Build901 2013/11/27)

>  <Rbt.Parameter_File>
/export/apps/rDock/src/rDock_2013.1_src/data/scripts/dock_solv.prm

>  <Rbt.Receptor>
prm/pocket_docking_4.prm

>  <SCORE>
-16.8109

>  <SCORE.INTER>
-10.7037

>  <SCORE.INTER.CONST>
1

>  <SCORE.INTER.POLAR>
0

>  <SCORE.INTER.ROT>
7

>  <SCORE.INTER.SOLV>
15.4417

>  <SCORE.INTER.VDW>
-20.5497

>  <SCORE.INTER.norm>
-0.396434

>  <SCORE.INTRA>
-6.10722

>  <SCORE.INTRA.DIHEDRAL>
-3.53753

>  <SCORE.INTRA.DIHEDRAL.0>
11.2699

>  <SCORE.INTRA.POLAR>
0

>  <SCORE.INTRA.POLAR.0>
0

>  <SCORE.INTRA.REPUL>
0

>  <SCORE.INTRA.REPUL.0>
0

>  <SCORE.INTRA.SOLV>
-0.861649

>  <SCORE.INTRA.SOLV.lig_0>
-48.6447

>  <SCORE.INTRA.VDW>
-3.90763

>  <SCORE.INTRA.VDW.0>
-0.0211724

>  <SCORE.INTRA.norm>
-0.226193

>  <SCORE.RESTR>
0

>  <SCORE.RESTR.CAVITY>
0

>  <SCORE.RESTR.norm>
0

>  <SCORE.SYSTEM>
0

>  <SCORE.SYSTEM.CONST>
0

>  <SCORE.SYSTEM.DIHEDRAL>
0

>  <SCORE.SYSTEM.SOLV>
0

>  <SCORE.SYSTEM.norm>
0

>  <SCORE.heavy>
27

>  <SCORE.norm>
-0.622627

>  <RMSD>
5.100

$$$$
ligand
 OpenBabel11021811483D
libRbt.so/2013.1/901 2013/11/27
 27 29  0  0  0  0  0  0  0  0999 V2000
   46.8900   52.6792   27.0940 N   0  0  0  0  0  0  0  0  0  0  0  0
   46.8791   53.9728   27.7664 C   0  0  2  0  0  0  0  0  0  0  0  0
   46.4157   53.8240   29.2061 C   0  0  0  0  0  0  0  0  0  0  0  0
   47.1021   54.2587   30.1280 O   0  0  0  0  0  0  0  0  0  0  0  0
   46.0074   54.9893   27.0305 C   0  0  0  0  0  0  0  0  0  0  0  0
   46.2987   56.4463   27.3696 C   0  0  0  0  0  0  0  0  0  0  0  0
   45.9264   56.9088   29.0839 S   0  0  2  0  0  0  0  0  0  0  0  0
   44.1178   56.8469   29.0791 C   0  0  0  0  0  0  0  0  0  0  0  0
   46.1971   58.6988   29.0031 C   0  0  0  0  0  0  0  0  0  0  0  0
   46.4879   59.2379   30.3957 C   0  0  1  0  0  0  0  0  0  0  0  0
   45.3900   58.9351   31.2224 O   0  0  0  0  0  0  0  0  0  0  0  0
   47.6813   58.6026   31.0804 C   0  0  1  0  0  0  0  0  0  0  0  0
   48.8218   59.4112   30.9238 O   0  0  0  0  0  0  0  0  0  0  0  0
   47.2633   58.5371   32.5382 C   0  0  1  0  0  0  0  0  0  0  0  0
   47.9373   59.5408   33.2599 O   0  0  0  0  0  0  0  0  0  0  0  0
   45.7620   58.7946   32.5698 C   0  0  2  0  0  0  0  0  0  0  0  0
   45.3473   53.2721   29.4710 O   0  0  0  0  0  0  0  0  0  0  0  0
   46.3167   54.2366   35.1391 N   0  0  0  0  0  0  0  0  0  0  0  0
   47.2952   55.1424   34.7823 C   0  0  0  0  0  0  0  0  0  0  0  0
   46.9633   56.2995   34.1017 N   0  0  0  0  0  0  0  0  0  0  0  0
   45.6791   56.5559   33.7694 C   0  0  0  0  0  0  0  0  0  0  0  0
   44.6785   55.6631   34.1242 C   0  0  0  0  0  0  0  0  0  0  0  0
   45.0031   54.4950   34.8088 C   0  0  0  0  0  0  0  0  0  0  0  0
   44.0576   53.6239   35.1513 N   0  0  0  0  0  0  0  0  0  0  0  0
   43.5044   56.1676   33.6838 N   0  0  0  0  0  0  0  0  0  0  0  0
   43.7387   57.3552   33.0775 C   0  0  0  0  0  0  0  0  0  0  0  0
   45.0844   57.6097   33.1226 N   0  0  0  0  0  0  0  0  0  0  0  0
  2  1  1  6  0  0  0
  2  3  1  0  0  0  0
  2  5  1  0  0  0  0
  3  4  1  0  0  0  0
  3 17  1  0  0  0  0
  5  6  1  0  0  0  0
  7  6  1  6  0  0  0
  7  8  1  0  0  0  0
  7  9  1  0  0  0  0
 10  9  1  6  0  0  0
 10 11  1  0  0  0  0
 10 12  1  0  0  0  0
 11 16  1  0  0  0  0
 12 13  1  1  0  0  0
 12 14  1  0  0  0  0
 14 15  1  1  0  0  0
 14 16  1  0  0  0  0
 16 27  1  6  0  0  0
 18 19  2  0  0  0  0
 18 23  1  0  0  0  0
 19 20  1  0  0  0  0
 20 21  2  0  0  0  0
 21 22  1  0  0  0  0
 21 27  1  0  0  0  0
 22 23  2  0  0  0  0
 22 25  1  0  0  0  0
 23 24  1  0  0  0  0
 25 26  2  0  0  0  0
 26 27  1  0  0  0  0
M  END
>  <CHROM.1>
126.26093311,-160.31221717,-65.49640780,-70.03860214,-157.51030175,-58.98271880
126.59594946,46.05150576,56.42661112,31.26705724,1.20035299,-1.28860848,-2.12087954

>  <Name>
ligand

>  <RI>
0

>  <Rbt.Current_Directory>
/home/itssahil/PROJECTS/Mol_Feturizer/New_Systems/rnas/3GX7

>  <Rbt.Executable>
rbdock ($Id: //depot/dev/client3/rdock/2013.1/src/exe/rbdock.cxx#4 $)

>  <Rbt.Library>
libRbt.so (2013.1, Build901 2013/11/27)

>  <Rbt.Parameter_File>
/export/apps/rDock/src/rDock_2013.1_src/data/scripts/dock_solv.prm

>  <Rbt.Receptor>
prm/pocket_docking_5.prm

>  <SCORE>
-15.7215

>  <SCORE.INTER>
-10.3702

>  <SCORE.INTER.CONST>
1

>  <SCORE.INTER.POLAR>
0

>  <SCORE.INTER.ROT>
7

>  <SCORE.INTER.SOLV>
13.5931

>  <SCORE.INTER.VDW>
-19.7112

>  <SCORE.INTER.norm>
-0.384083

>  <SCORE.INTRA>
-5.35129

>  <SCORE.INTRA.DIHEDRAL>
-4.34358

>  <SCORE.INTRA.DIHEDRAL.0>
11.2699

>  <SCORE.INTRA.POLAR>
0

>  <SCORE.INTRA.POLAR.0>
0

>  <SCORE.INTRA.REPUL>
0

>  <SCORE.INTRA.REPUL.0>
0

>  <SCORE.INTRA.SOLV>
-0.689024

>  <SCORE.INTRA.SOLV.lig_0>
-48.6447

>  <SCORE.INTRA.VDW>
-2.83499

>  <SCORE.INTRA.VDW.0>
-0.0211724

>  <SCORE.INTRA.norm>
-0.198196

>  <SCORE.RESTR>
0

>  <SCORE.RESTR.CAVITY>
0

>  <SCORE.RESTR.norm>
0

>  <SCORE.SYSTEM>
0

>  <SCORE.SYSTEM.CONST>
0

>  <SCORE.SYSTEM.DIHEDRAL>
0

>  <SCORE.SYSTEM.SOLV>
0

>  <SCORE.SYSTEM.norm>
0

>  <SCORE.heavy>
27

>  <SCORE.norm>
-0.582279

>  <RMSD>
5.100

$$$$
ligand
 OpenBabel11021811483D
libRbt.so/2013.1/901 2013/11/27
 27 29  0  0  0  0  0  0  0  0999 V2000
   45.7416   58.4693   32.3040 N   0  0  0  0  0  0  0  0  0  0  0  0
   47.0765   58.4597   31.7179 C   0  0  2  0  0  0  0  0  0  0  0  0
   47.6726   59.8577   31.7206 C   0  0  0  0  0  0  0  0  0  0  0  0
   48.8603   60.0263   31.9868 O   0  0  0  0  0  0  0  0  0  0  0  0
   47.0718   57.8873   30.3011 C   0  0  0  0  0  0  0  0  0  0  0  0
   48.4522   57.6920   29.6855 C   0  0  0  0  0  0  0  0  0  0  0  0
   48.4347   57.2001   27.9393 S   0  0  2  0  0  0  0  0  0  0  0  0
   47.2128   58.3509   27.2629 C   0  0  0  0  0  0  0  0  0  0  0  0
   47.4444   55.6858   28.0388 C   0  0  0  0  0  0  0  0  0  0  0  0
   48.3183   54.5298   28.5020 C   0  0  1  0  0  0  0  0  0  0  0  0
   48.6375   54.7356   29.8571 O   0  0  0  0  0  0  0  0  0  0  0  0
   47.6434   53.1737   28.4596 C   0  0  1  0  0  0  0  0  0  0  0  0
   47.9934   52.4905   27.2808 O   0  0  0  0  0  0  0  0  0  0  0  0
   48.1974   52.4610   29.6800 C   0  0  1  0  0  0  0  0  0  0  0  0
   49.1524   51.5113   29.2693 O   0  0  0  0  0  0  0  0  0  0  0  0
   48.8634   53.5285   30.5392 C   0  0  2  0  0  0  0  0  0  0  0  0
   46.9794   60.8395   31.4524 O   0  0  0  0  0  0  0  0  0  0  0  0
   44.5902   55.1142   33.1676 N   0  0  0  0  0  0  0  0  0  0  0  0
   44.8728   55.2625   31.8248 C   0  0  0  0  0  0  0  0  0  0  0  0
   46.0582   54.7794   31.3014 N   0  0  0  0  0  0  0  0  0  0  0  0
   46.9592   54.1633   32.0977 C   0  0  0  0  0  0  0  0  0  0  0  0
   46.6928   53.9969   33.4487 C   0  0  0  0  0  0  0  0  0  0  0  0
   45.5024   54.4808   33.9848 C   0  0  0  0  0  0  0  0  0  0  0  0
   45.2329   54.3362   35.2797 N   0  0  0  0  0  0  0  0  0  0  0  0
   47.7439   53.3471   33.9964 N   0  0  0  0  0  0  0  0  0  0  0  0
   48.6524   53.0894   33.0264 C   0  0  0  0  0  0  0  0  0  0  0  0
   48.1794   53.5904   31.8419 N   0  0  0  0  0  0  0  0  0  0  0  0
  2  1  1  6  0  0  0
  2  3  1  0  0  0  0
  2  5  1  0  0  0  0
  3  4  1  0  0  0  0
  3 17  1  0  0  0  0
  5  6  1  0  0  0  0
  7  6  1  1  0  0  0
  7  8  1  0  0  0  0
  7  9  1  0  0  0  0
 10  9  1  1  0  0  0
 10 11  1  0  0  0  0
 10 12  1  0  0  0  0
 11 16  1  0  0  0  0
 12 13  1  6  0  0  0
 12 14  1  0  0  0  0
 14 15  1  6  0  0  0
 14 16  1  0  0  0  0
 16 27  1  1  0  0  0
 18 19  2  0  0  0  0
 18 23  1  0  0  0  0
 19 20  1  0  0  0  0
 20 21  2  0  0  0  0
 21 22  1  0  0  0  0
 21 27  1  0  0  0  0
 22 23  2  0  0  0  0
 22 25  1  0  0  0  0
 23 24  1  0  0  0  0
 25 26  2  0  0  0  0
 26 27  1  0  0  0  0
M  END
>  <CHROM.1>
140.03085717,-173.09917235,-173.09843925,45.78944355,-80.48553632,70.48126479
37.86514115,47.42775310,55.64169294,30.74876390,1.75348305,1.20069037,-0.16766113

>  <Name>
ligand

>  <RI>
0

>  <Rbt.Current_Directory>
/home/itssahil/PROJECTS/Mol_Feturizer/New_Systems/rnas/3GX7

>  <Rbt.Executable>
rbdock ($Id: //depot/dev/client3/rdock/2013.1/src/exe/rbdock.cxx#4 $)

>  <Rbt.Library>
libRbt.so (2013.1, Build901 2013/11/27)

>  <Rbt.Parameter_File>
/export/apps/rDock/src/rDock_2013.1_src/data/scripts/dock_solv.prm

>  <Rbt.Receptor>
prm/pocket_docking_3.prm

>  <SCORE>
-16.1974

>  <SCORE.INTER>
-9.45203

>  <SCORE.INTER.CONST>
1

>  <SCORE.INTER.POLAR>
0

>  <SCORE.INTER.ROT>
7

>  <SCORE.INTER.SOLV>
12.5721

>  <SCORE.INTER.VDW>
-18.7587

>  <SCORE.INTER.norm>
-0.350075

>  <SCORE.INTRA>
-6.75132

>  <SCORE.INTRA.DIHEDRAL>
-6.83312

>  <SCORE.INTRA.DIHEDRAL.0>
11.2699

>  <SCORE.INTRA.POLAR>
0

>  <SCORE.INTRA.POLAR.0>
0

>  <SCORE.INTRA.REPUL>
0

>  <SCORE.INTRA.REPUL.0>
0

>  <SCORE.INTRA.SOLV>
-0.229566

>  <SCORE.INTRA.SOLV.lig_0>
-48.6447

>  <SCORE.INTRA.VDW>
-3.21998

>  <SCORE.INTRA.VDW.0>
-0.0211724

>  <SCORE.INTRA.norm>
-0.250049

>  <SCORE.RESTR>
0.00599244

>  <SCORE.RESTR.CAVITY>
0.00599244

>  <SCORE.RESTR.norm>
0.000221942

>  <SCORE.SYSTEM>
0

>  <SCORE.SYSTEM.CONST>
0

>  <SCORE.SYSTEM.DIHEDRAL>
0

>  <SCORE.SYSTEM.SOLV>
0

>  <SCORE.SYSTEM.norm>
0

>  <SCORE.heavy>
27

>  <SCORE.norm>
-0.599902

>  <RMSD>
5.102

$$$$
ligand
 OpenBabel11021811483D
libRbt.so/2013.1/901 2013/11/27
 27 29  0  0  0  0  0  0  0  0999 V2000
   47.7381   53.2616   25.2759 N   0  0  0  0  0  0  0  0  0  0  0  0
   47.7185   54.6579   24.8571 C   0  0  2  0  0  0  0  0  0  0  0  0
   48.5812   54.8587   23.6221 C   0  0  0  0  0  0  0  0  0  0  0  0
   49.0752   53.8926   23.0454 O   0  0  0  0  0  0  0  0  0  0  0  0
   48.1689   55.5944   25.9773 C   0  0  0  0  0  0  0  0  0  0  0  0
   49.5882   55.3559   26.4786 C   0  0  0  0  0  0  0  0  0  0  0  0
   50.0005   56.2290   28.0146 S   0  0  2  0  0  0  0  0  0  0  0  0
   51.5893   55.4706   28.4336 C   0  0  0  0  0  0  0  0  0  0  0  0
   48.9070   55.3722   29.1783 C   0  0  0  0  0  0  0  0  0  0  0  0
   47.7975   56.3113   29.6273 C   0  0  1  0  0  0  0  0  0  0  0  0
   46.9015   55.5812   30.4299 O   0  0  0  0  0  0  0  0  0  0  0  0
   48.2599   57.4600   30.5010 C   0  0  1  0  0  0  0  0  0  0  0  0
   48.4353   58.6220   29.7277 O   0  0  0  0  0  0  0  0  0  0  0  0
   47.1216   57.6374   31.4893 C   0  0  1  0  0  0  0  0  0  0  0  0
   46.3761   58.7793   31.1389 O   0  0  0  0  0  0  0  0  0  0  0  0
   46.2501   56.3931   31.3733 C   0  0  2  0  0  0  0  0  0  0  0  0
   48.7944   55.9873   23.1782 O   0  0  0  0  0  0  0  0  0  0  0  0
   49.0496   54.9449   35.5863 N   0  0  0  0  0  0  0  0  0  0  0  0
   49.4701   55.6628   34.4850 C   0  0  0  0  0  0  0  0  0  0  0  0
   48.5879   55.9542   33.4607 N   0  0  0  0  0  0  0  0  0  0  0  0
   47.3052   55.5336   33.5194 C   0  0  0  0  0  0  0  0  0  0  0  0
   46.8591   54.8169   34.6200 C   0  0  0  0  0  0  0  0  0  0  0  0
   47.7403   54.5181   35.6557 C   0  0  0  0  0  0  0  0  0  0  0  0
   47.3319   53.8258   36.7160 N   0  0  0  0  0  0  0  0  0  0  0  0
   45.5510   54.5382   34.4245 N   0  0  0  0  0  0  0  0  0  0  0  0
   45.1622   55.0714   33.2423 C   0  0  0  0  0  0  0  0  0  0  0  0
   46.2406   55.6925   32.6686 N   0  0  0  0  0  0  0  0  0  0  0  0
  2  1  1  1  0  0  0
  2  3  1  0  0  0  0
  2  5  1  0  0  0  0
  3  4  1  0  0  0  0
  3 17  1  0  0  0  0
  5  6  1  0  0  0  0
  7  6  1  6  0  0  0
  7  8  1  0  0  0  0
  7  9  1  0  0  0  0
 10  9  1  1  0  0  0
 10 11  1  0  0  0  0
 10 12  1  0  0  0  0
 11 16  1  0  0  0  0
 12 13  1  6  0  0  0
 12 14  1  0  0  0  0
 14 15  1  6  0  0  0
 14 16  1  0  0  0  0
 16 27  1  1  0  0  0
 18 19  2  0  0  0  0
 18 23  1  0  0  0  0
 19 20  1  0  0  0  0
 20 21  2  0  0  0  0
 21 22  1  0  0  0  0
 21 27  1  0  0  0  0
 22 23  2  0  0  0  0
 22 25  1  0  0  0  0
 23 24  1  0  0  0  0
 25 26  2  0  0  0  0
 26 27  1  0  0  0  0
M  END
>  <CHROM.1>
6.77013368,60.62296885,-168.22665263,169.95028934,-110.26702572,174.68858069
74.77043086,48.07172478,55.68783852,30.00930458,1.07520279,-1.21133488,-2.05886229

>  <Name>
ligand

>  <RI>
0

>  <Rbt.Current_Directory>
/home/itssahil/PROJECTS/Mol_Feturizer/New_Systems/rnas/3GX7

>  <Rbt.Executable>
rbdock ($Id: //depot/dev/client3/rdock/2013.1/src/exe/rbdock.cxx#4 $)

>  <Rbt.Library>
libRbt.so (2013.1, Build901 2013/11/27)

>  <Rbt.Parameter_File>
/export/apps/rDock/src/rDock_2013.1_src/data/scripts/dock_solv.prm

>  <Rbt.Receptor>
prm/pocket_docking_6.prm

>  <SCORE>
-11.6339

>  <SCORE.INTER>
-7.09959

>  <SCORE.INTER.CONST>
1

>  <SCORE.INTER.POLAR>
0

>  <SCORE.INTER.ROT>
7

>  <SCORE.INTER.SOLV>
10.3121

>  <SCORE.INTER.VDW>
-16.4371

>  <SCORE.INTER.norm>
-0.262948

>  <SCORE.INTRA>
-4.53426

>  <SCORE.INTRA.DIHEDRAL>
-4.04796

>  <SCORE.INTRA.DIHEDRAL.0>
11.2699

>  <SCORE.INTRA.POLAR>
0

>  <SCORE.INTRA.POLAR.0>
0

>  <SCORE.INTRA.REPUL>
0

>  <SCORE.INTRA.REPUL.0>
0

>  <SCORE.INTRA.SOLV>
-0.227198

>  <SCORE.INTRA.SOLV.lig_0>
-48.6447

>  <SCORE.INTRA.VDW>
-2.39668

>  <SCORE.INTRA.VDW.0>
-0.0211724

>  <SCORE.INTRA.norm>
-0.167936

>  <SCORE.RESTR>
0

>  <SCORE.RESTR.CAVITY>
0

>  <SCORE.RESTR.norm>
0

>  <SCORE.SYSTEM>
0

>  <SCORE.SYSTEM.CONST>
0

>  <SCORE.SYSTEM.DIHEDRAL>
0

>  <SCORE.SYSTEM.SOLV>
0

>  <SCORE.SYSTEM.norm>
0

>  <SCORE.heavy>
27

>  <SCORE.norm>
-0.430883

>  <RMSD>
5.112

$$$$
ligand
 OpenBabel11021811483D
libRbt.so/2013.1/901 2013/11/27
 27 29  0  0  0  0  0  0  0  0999 V2000
   46.5053   59.9459   30.1316 N   0  0  0  0  0  0  0  0  0  0  0  0
   46.5089   60.5602   31.4537 C   0  0  2  0  0  0  0  0  0  0  0  0
   47.7460   60.1460   32.2333 C   0  0  0  0  0  0  0  0  0  0  0  0
   48.8668   60.3316   31.7650 O   0  0  0  0  0  0  0  0  0  0  0  0
   45.2455   60.2199   32.2428 C   0  0  0  0  0  0  0  0  0  0  0  0
   44.6909   58.8228   31.9912 C   0  0  0  0  0  0  0  0  0  0  0  0
   45.9247   57.4958   32.0821 S   0  0  2  0  0  0  0  0  0  0  0  0
   45.0168   56.1208   31.3338 C   0  0  0  0  0  0  0  0  0  0  0  0
   45.8019   57.0584   33.8364 C   0  0  0  0  0  0  0  0  0  0  0  0
   46.9816   56.1826   34.2313 C   0  0  1  0  0  0  0  0  0  0  0  0
   46.8825   54.9680   33.5275 O   0  0  0  0  0  0  0  0  0  0  0  0
   48.3374   56.7449   33.8541 C   0  0  1  0  0  0  0  0  0  0  0  0
   48.9192   57.3979   34.9560 O   0  0  0  0  0  0  0  0  0  0  0  0
   49.1401   55.5146   33.4716 C   0  0  1  0  0  0  0  0  0  0  0  0
   50.0428   55.2085   34.5080 O   0  0  0  0  0  0  0  0  0  0  0  0
   48.1381   54.3791   33.3040 C   0  0  2  0  0  0  0  0  0  0  0  0
   47.6461   59.6243   33.3443 O   0  0  0  0  0  0  0  0  0  0  0  0
   48.6545   55.6863   28.2337 N   0  0  0  0  0  0  0  0  0  0  0  0
   48.6631   56.5163   29.3365 C   0  0  0  0  0  0  0  0  0  0  0  0
   48.5112   55.9931   30.6075 N   0  0  0  0  0  0  0  0  0  0  0  0
   48.3444   54.6645   30.7873 C   0  0  0  0  0  0  0  0  0  0  0  0
   48.3398   53.8110   29.6940 C   0  0  0  0  0  0  0  0  0  0  0  0
   48.4911   54.3286   28.4103 C   0  0  0  0  0  0  0  0  0  0  0  0
   48.4825   53.5258   27.3493 N   0  0  0  0  0  0  0  0  0  0  0  0
   48.1701   52.5526   30.1574 N   0  0  0  0  0  0  0  0  0  0  0  0
   48.0831   52.5919   31.5078 C   0  0  0  0  0  0  0  0  0  0  0  0
   48.1894   53.8965   31.9137 N   0  0  0  0  0  0  0  0  0  0  0  0
  2  1  1  6  0  0  0
  2  3  1  0  0  0  0
  2  5  1  0  0  0  0
  3  4  1  0  0  0  0
  3 17  1  0  0  0  0
  5  6  1  0  0  0  0
  7  6  1  1  0  0  0
  7  8  1  0  0  0  0
  7  9  1  0  0  0  0
 10  9  1  6  0  0  0
 10 11  1  0  0  0  0
 10 12  1  0  0  0  0
 11 16  1  0  0  0  0
 12 13  1  1  0  0  0
 12 14  1  0  0  0  0
 14 15  1  1  0  0  0
 14 16  1  0  0  0  0
 16 27  1  6  0  0  0
 18 19  2  0  0  0  0
 18 23  1  0  0  0  0
 19 20  1  0  0  0  0
 20 21  2  0  0  0  0
 21 22  1  0  0  0  0
 21 27  1  0  0  0  0
 22 23  2  0  0  0  0
 22 25  1  0  0  0  0
 23 24  1  0  0  0  0
 25 26  2  0  0  0  0
 26 27  1  0  0  0  0
M  END
>  <CHROM.1>
55.44679598,34.61189079,48.46274711,-166.21137375,-166.62465880,-65.09722410
75.32902552,47.55432782,56.56084315,31.80124537,2.51096065,-1.22257447,1.31338188

>  <Name>
ligand

>  <RI>
0

>  <Rbt.Current_Directory>
/home/itssahil/PROJECTS/Mol_Feturizer/New_Systems/rnas/3GX7

>  <Rbt.Executable>
rbdock ($Id: //depot/dev/client3/rdock/2013.1/src/exe/rbdock.cxx#4 $)

>  <Rbt.Library>
libRbt.so (2013.1, Build901 2013/11/27)

>  <Rbt.Parameter_File>
/export/apps/rDock/src/rDock_2013.1_src/data/scripts/dock_solv.prm

>  <Rbt.Receptor>
prm/pocket_docking_2.prm

>  <SCORE>
-12.6259

>  <SCORE.INTER>
-9.48775

>  <SCORE.INTER.CONST>
1

>  <SCORE.INTER.POLAR>
0

>  <SCORE.INTER.ROT>
7

>  <SCORE.INTER.SOLV>
12.1736

>  <SCORE.INTER.VDW>
-18.6497

>  <SCORE.INTER.norm>
-0.351398

>  <SCORE.INTRA>
-4.43578

>  <SCORE.INTRA.DIHEDRAL>
-2.74178

>  <SCORE.INTRA.DIHEDRAL.0>
11.2699

>  <SCORE.INTRA.POLAR>
0

>  <SCORE.INTRA.POLAR.0>
0

>  <SCORE.INTRA.REPUL>
0

>  <SCORE.INTRA.REPUL.0>
0

>  <SCORE.INTRA.SOLV>
1.64022

>  <SCORE.INTRA.SOLV.lig_0>
-48.6447

>  <SCORE.INTRA.VDW>
-3.885

>  <SCORE.INTRA.VDW.0>
-0.0211724

>  <SCORE.INTRA.norm>
-0.164288

>  <SCORE.RESTR>
1.29764

>  <SCORE.RESTR.CAVITY>
1.29764

>  <SCORE.RESTR.norm>
0.0480608

>  <SCORE.SYSTEM>
0

>  <SCORE.SYSTEM.CONST>
0

>  <SCORE.SYSTEM.DIHEDRAL>
0

>  <SCORE.SYSTEM.SOLV>
0

>  <SCORE.SYSTEM.norm>
0

>  <SCORE.heavy>
27

>  <SCORE.norm>
-0.467626

>  <RMSD>
5.116

$$$$
ligand
 OpenBabel11021811483D
libRbt.so/2013.1/901 2013/11/27
 27 29  0  0  0  0  0  0  0  0999 V2000
   48.0045   53.5883   27.2261 N   0  0  0  0  0  0  0  0  0  0  0  0
   49.3851   53.1204   27.2042 C   0  0  2  0  0  0  0  0  0  0  0  0
   49.6107   52.1722   26.0382 C   0  0  0  0  0  0  0  0  0  0  0  0
   50.4772   52.4121   25.2007 O   0  0  0  0  0  0  0  0  0  0  0  0
   49.7792   52.4486   28.5188 C   0  0  0  0  0  0  0  0  0  0  0  0
   50.1267   53.4096   29.6494 C   0  0  0  0  0  0  0  0  0  0  0  0
   48.8552   54.6569   29.9943 S   0  0  2  0  0  0  0  0  0  0  0  0
   49.3490   55.9827   28.8658 C   0  0  0  0  0  0  0  0  0  0  0  0
   49.4660   55.3163   31.5678 C   0  0  0  0  0  0  0  0  0  0  0  0
   48.7235   56.5995   31.9100 C   0  0  1  0  0  0  0  0  0  0  0  0
   47.3463   56.3133   31.9493 O   0  0  0  0  0  0  0  0  0  0  0  0
   49.0453   57.1677   33.2775 C   0  0  1  0  0  0  0  0  0  0  0  0
   50.0118   58.1841   33.1692 O   0  0  0  0  0  0  0  0  0  0  0  0
   47.7185   57.7341   33.7498 C   0  0  1  0  0  0  0  0  0  0  0  0
   47.7485   59.1377   33.6428 O   0  0  0  0  0  0  0  0  0  0  0  0
   46.6510   57.1657   32.8231 C   0  0  2  0  0  0  0  0  0  0  0  0
   48.9350   51.1498   25.9167 O   0  0  0  0  0  0  0  0  0  0  0  0
   46.0104   52.9214   35.8661 N   0  0  0  0  0  0  0  0  0  0  0  0
   47.1652   53.3734   35.2600 C   0  0  0  0  0  0  0  0  0  0  0  0
   47.1473   54.5195   34.4864 N   0  0  0  0  0  0  0  0  0  0  0  0
   45.9988   55.2080   34.3062 C   0  0  0  0  0  0  0  0  0  0  0  0
   44.8280   54.7761   34.9117 C   0  0  0  0  0  0  0  0  0  0  0  0
   44.8361   53.6227   35.6917 C   0  0  0  0  0  0  0  0  0  0  0  0
   43.7212   53.1897   36.2746 N   0  0  0  0  0  0  0  0  0  0  0  0
   43.8489   55.6460   34.5774 N   0  0  0  0  0  0  0  0  0  0  0  0
   44.3751   56.6164   33.7936 C   0  0  0  0  0  0  0  0  0  0  0  0
   45.7091   56.3579   33.6161 N   0  0  0  0  0  0  0  0  0  0  0  0
  2  1  1  1  0  0  0
  2  3  1  0  0  0  0
  2  5  1  0  0  0  0
  3  4  1  0  0  0  0
  3 17  1  0  0  0  0
  5  6  1  0  0  0  0
  7  6  1  6  0  0  0
  7  8  1  0  0  0  0
  7  9  1  0  0  0  0
 10  9  1  1  0  0  0
 10 11  1  0  0  0  0
 10 12  1  0  0  0  0
 11 16  1  0  0  0  0
 12 13  1  6  0  0  0
 12 14  1  0  0  0  0
 14 15  1  6  0  0  0
 14 16  1  0  0  0  0
 16 27  1  1  0  0  0
 18 19  2  0  0  0  0
 18 23  1  0  0  0  0
 19 20  1  0  0  0  0
 20 21  2  0  0  0  0
 21 22  1  0  0  0  0
 21 27  1  0  0  0  0
 22 23  2  0  0  0  0
 22 25  1  0  0  0  0
 23 24  1  0  0  0  0
 25 26  2  0  0  0  0
 26 27  1  0  0  0  0
M  END
>  <CHROM.1>
122.78947423,-79.46992703,53.29748143,-88.79113664,167.51008360,57.14514532
49.94877613,47.72055852,54.92290418,31.64679449,0.85709332,-0.87361691,-2.48269556

>  <Name>
ligand

>  <RI>
0

>  <Rbt.Current_Directory>
/home/itssahil/PROJECTS/Mol_Feturizer/New_Systems/rnas/3GX7

>  <Rbt.Executable>
rbdock ($Id: //depot/dev/client3/rdock/2013.1/src/exe/rbdock.cxx#4 $)

>  <Rbt.Library>
libRbt.so (2013.1, Build901 2013/11/27)

>  <Rbt.Parameter_File>
/export/apps/rDock/src/rDock_2013.1_src/data/scripts/dock_solv.prm

>  <Rbt.Receptor>
prm/pocket_docking_5.prm

>  <SCORE>
-16.0095

>  <SCORE.INTER>
-11.4172

>  <SCORE.INTER.CONST>
1

>  <SCORE.INTER.POLAR>
0

>  <SCORE.INTER.ROT>
7

>  <SCORE.INTER.SOLV>
8.91908

>  <SCORE.INTER.VDW>
-18.8512

>  <SCORE.INTER.norm>
-0.422859

>  <SCORE.INTRA>
-4.5923

>  <SCORE.INTRA.DIHEDRAL>
-5.33625

>  <SCORE.INTRA.DIHEDRAL.0>
11.2699

>  <SCORE.INTRA.POLAR>
0

>  <SCORE.INTRA.POLAR.0>
0

>  <SCORE.INTRA.REPUL>
0

>  <SCORE.INTRA.REPUL.0>
0

>  <SCORE.INTRA.SOLV>
1.78368

>  <SCORE.INTRA.SOLV.lig_0>
-48.6447

>  <SCORE.INTRA.VDW>
-2.81602

>  <SCORE.INTRA.VDW.0>
-0.0211724

>  <SCORE.INTRA.norm>
-0.170085

>  <SCORE.RESTR>
0

>  <SCORE.RESTR.CAVITY>
0

>  <SCORE.RESTR.norm>
0

>  <SCORE.SYSTEM>
0

>  <SCORE.SYSTEM.CONST>
0

>  <SCORE.SYSTEM.DIHEDRAL>
0

>  <SCORE.SYSTEM.SOLV>
0

>  <SCORE.SYSTEM.norm>
0

>  <SCORE.heavy>
27

>  <SCORE.norm>
-0.592944

>  <RMSD>
5.117

$$$$
ligand
 OpenBabel11021811483D
libRbt.so/2013.1/901 2013/11/27
 27 29  0  0  0  0  0  0  0  0999 V2000
   49.5205   53.9948   31.0907 N   0  0  0  0  0  0  0  0  0  0  0  0
   49.0062   54.4802   29.8158 C   0  0  2  0  0  0  0  0  0  0  0  0
   48.8927   53.3415   28.8157 C   0  0  0  0  0  0  0  0  0  0  0  0
   47.8570   53.1779   28.1751 O   0  0  0  0  0  0  0  0  0  0  0  0
   49.8696   55.6042   29.2448 C   0  0  0  0  0  0  0  0  0  0  0  0
   49.2712   56.3217   28.0406 C   0  0  0  0  0  0  0  0  0  0  0  0
   47.6073   56.9910   28.3137 S   0  0  2  0  0  0  0  0  0  0  0  0
   47.3398   57.9049   26.7749 C   0  0  0  0  0  0  0  0  0  0  0  0
   47.9874   58.3533   29.4466 C   0  0  0  0  0  0  0  0  0  0  0  0
   46.7225   58.7858   30.1728 C   0  0  1  0  0  0  0  0  0  0  0  0
   46.1436   57.6472   30.7635 O   0  0  0  0  0  0  0  0  0  0  0  0
   46.9529   59.7485   31.3202 C   0  0  1  0  0  0  0  0  0  0  0  0
   46.7296   61.0722   30.8996 O   0  0  0  0  0  0  0  0  0  0  0  0
   45.9203   59.3293   32.3508 C   0  0  1  0  0  0  0  0  0  0  0  0
   44.8651   60.2615   32.3566 O   0  0  0  0  0  0  0  0  0  0  0  0
   45.4040   57.9637   31.9152 C   0  0  2  0  0  0  0  0  0  0  0  0
   49.8344   52.5704   28.6283 O   0  0  0  0  0  0  0  0  0  0  0  0
   49.1572   55.7917   34.8951 N   0  0  0  0  0  0  0  0  0  0  0  0
   49.2867   56.7837   33.9443 C   0  0  0  0  0  0  0  0  0  0  0  0
   48.1799   57.2362   33.2495 N   0  0  0  0  0  0  0  0  0  0  0  0
   46.9587   56.7086   33.4854 C   0  0  0  0  0  0  0  0  0  0  0  0
   46.8041   55.7157   34.4415 C   0  0  0  0  0  0  0  0  0  0  0  0
   47.9127   55.2531   35.1455 C   0  0  0  0  0  0  0  0  0  0  0  0
   47.7845   54.2967   36.0614 N   0  0  0  0  0  0  0  0  0  0  0  0
   45.4943   55.3838   34.4793 N   0  0  0  0  0  0  0  0  0  0  0  0
   44.8234   56.1490   33.5864 C   0  0  0  0  0  0  0  0  0  0  0  0
   45.7192   56.9764   32.9614 N   0  0  0  0  0  0  0  0  0  0  0  0
  2  1  1  1  0  0  0
  2  3  1  0  0  0  0
  2  5  1  0  0  0  0
  3  4  1  0  0  0  0
  3 17  1  0  0  0  0
  5  6  1  0  0  0  0
  7  6  1  6  0  0  0
  7  8  1  0  0  0  0
  7  9  1  0  0  0  0
 10  9  1  1  0  0  0
 10 11  1  0  0  0  0
 10 12  1  0  0  0  0
 11 16  1  0  0  0  0
 12 13  1  6  0  0  0
 12 14  1  0  0  0  0
 14 15  1  6  0  0  0
 14 16  1  0  0  0  0
 16 27  1  1  0  0  0
 18 19  2  0  0  0  0
 18 23  1  0  0  0  0
 19 20  1  0  0  0  0
 20 21  2  0  0  0  0
 21 22  1  0  0  0  0
 21 27  1  0  0  0  0
 22 23  2  0  0  0  0
 22 25  1  0  0  0  0
 23 24  1  0  0  0  0
 25 26  2  0  0  0  0
 26 27  1  0  0  0  0
M  END
>  <CHROM.1>
131.10318084,-170.10947867,54.70341413,173.68040763,-161.63327910,53.03776965
58.64122715,47.48836041,56.62793299,31.25282170,-0.74114762,-1.07952387,1.95266324

>  <Name>
ligand

>  <RI>
0

>  <Rbt.Current_Directory>
/home/itssahil/PROJECTS/Mol_Feturizer/New_Systems/rnas/3GX7

>  <Rbt.Executable>
rbdock ($Id: //depot/dev/client3/rdock/2013.1/src/exe/rbdock.cxx#4 $)

>  <Rbt.Library>
libRbt.so (2013.1, Build901 2013/11/27)

>  <Rbt.Parameter_File>
/export/apps/rDock/src/rDock_2013.1_src/data/scripts/dock_solv.prm

>  <Rbt.Receptor>
prm/pocket_docking_4.prm

>  <SCORE>
-17.9941

>  <SCORE.INTER>
-10.9833

>  <SCORE.INTER.CONST>
1

>  <SCORE.INTER.POLAR>
0

>  <SCORE.INTER.ROT>
7

>  <SCORE.INTER.SOLV>
15.7722

>  <SCORE.INTER.VDW>
-20.8462

>  <SCORE.INTER.norm>
-0.406788

>  <SCORE.INTRA>
-7.01077

>  <SCORE.INTRA.DIHEDRAL>
-5.67702

>  <SCORE.INTRA.DIHEDRAL.0>
11.2699

>  <SCORE.INTRA.POLAR>
0

>  <SCORE.INTRA.POLAR.0>
0

>  <SCORE.INTRA.REPUL>
0

>  <SCORE.INTRA.REPUL.0>
0

>  <SCORE.INTRA.SOLV>
-0.8637

>  <SCORE.INTRA.SOLV.lig_0>
-48.6447

>  <SCORE.INTRA.VDW>
-3.74041

>  <SCORE.INTRA.VDW.0>
-0.0211724

>  <SCORE.INTRA.norm>
-0.259658

>  <SCORE.RESTR>
0

>  <SCORE.RESTR.CAVITY>
0

>  <SCORE.RESTR.norm>
0

>  <SCORE.SYSTEM>
0

>  <SCORE.SYSTEM.CONST>
0

>  <SCORE.SYSTEM.DIHEDRAL>
0

>  <SCORE.SYSTEM.SOLV>
0

>  <SCORE.SYSTEM.norm>
0

>  <SCORE.heavy>
27

>  <SCORE.norm>
-0.666446

>  <RMSD>
5.119

$$$$
ligand
 OpenBabel11021811483D
libRbt.so/2013.1/901 2013/11/27
 27 29  0  0  0  0  0  0  0  0999 V2000
   45.1577   57.9301   30.0712 N   0  0  0  0  0  0  0  0  0  0  0  0
   46.2905   58.8010   29.7815 C   0  0  2  0  0  0  0  0  0  0  0  0
   47.2293   58.1439   28.7832 C   0  0  0  0  0  0  0  0  0  0  0  0
   48.1724   58.7735   28.3097 O   0  0  0  0  0  0  0  0  0  0  0  0
   47.0501   59.1875   31.0497 C   0  0  0  0  0  0  0  0  0  0  0  0
   47.6587   58.0170   31.8127 C   0  0  0  0  0  0  0  0  0  0  0  0
   48.0584   58.3747   33.5458 S   0  0  2  0  0  0  0  0  0  0  0  0
   49.6152   59.2799   33.3672 C   0  0  0  0  0  0  0  0  0  0  0  0
   48.6753   56.7558   34.0773 C   0  0  0  0  0  0  0  0  0  0  0  0
   47.5036   55.8333   34.3790 C   0  0  1  0  0  0  0  0  0  0  0  0
   46.6794   55.7825   33.2396 O   0  0  0  0  0  0  0  0  0  0  0  0
   47.8894   54.3928   34.6485 C   0  0  1  0  0  0  0  0  0  0  0  0
   47.9623   54.1575   36.0335 O   0  0  0  0  0  0  0  0  0  0  0  0
   46.7564   53.5974   34.0258 C   0  0  1  0  0  0  0  0  0  0  0  0
   45.9195   53.1053   35.0456 O   0  0  0  0  0  0  0  0  0  0  0  0
   45.9820   54.5670   33.1418 C   0  0  2  0  0  0  0  0  0  0  0  0
   47.0640   56.9736   28.4377 O   0  0  0  0  0  0  0  0  0  0  0  0
   49.0477   52.7321   29.2793 N   0  0  0  0  0  0  0  0  0  0  0  0
   49.4083   53.0828   30.5645 C   0  0  0  0  0  0  0  0  0  0  0  0
   48.4596   53.5524   31.4544 N   0  0  0  0  0  0  0  0  0  0  0  0
   47.1690   53.6822   31.0763 C   0  0  0  0  0  0  0  0  0  0  0  0
   46.7828   53.3290   29.7918 C   0  0  0  0  0  0  0  0  0  0  0  0
   47.7311   52.8561   28.8886 C   0  0  0  0  0  0  0  0  0  0  0  0
   47.3802   52.5188   27.6503 N   0  0  0  0  0  0  0  0  0  0  0  0
   45.4524   53.5452   29.6901 N   0  0  0  0  0  0  0  0  0  0  0  0
   44.9928   54.0089   30.8760 C   0  0  0  0  0  0  0  0  0  0  0  0
   46.0470   54.0996   31.7467 N   0  0  0  0  0  0  0  0  0  0  0  0
  2  1  1  1  0  0  0
  2  3  1  0  0  0  0
  2  5  1  0  0  0  0
  3  4  1  0  0  0  0
  3 17  1  0  0  0  0
  5  6  1  0  0  0  0
  7  6  1  6  0  0  0
  7  8  1  0  0  0  0
  7  9  1  0  0  0  0
 10  9  1  6  0  0  0
 10 11  1  0  0  0  0
 10 12  1  0  0  0  0
 11 16  1  0  0  0  0
 12 13  1  1  0  0  0
 12 14  1  0  0  0  0
 14 15  1  1  0  0  0
 14 16  1  0  0  0  0
 16 27  1  6  0  0  0
 18 19  2  0  0  0  0
 18 23  1  0  0  0  0
 19 20  1  0  0  0  0
 20 21  2  0  0  0  0
 21 22  1  0  0  0  0
 21 27  1  0  0  0  0
 22 23  2  0  0  0  0
 22 25  1  0  0  0  0
 23 24  1  0  0  0  0
 25 26  2  0  0  0  0
 26 27  1  0  0  0  0
M  END
>  <CHROM.1>
172.65776923,61.31893873,-160.42997400,-78.99325098,-80.03689178,55.21443756
66.92000007,47.31078880,55.64007747,31.65213258,-0.10762081,-1.44919826,-0.94939908

>  <Name>
ligand

>  <RI>
0

>  <Rbt.Current_Directory>
/home/itssahil/PROJECTS/Mol_Feturizer/New_Systems/rnas/3GX7

>  <Rbt.Executable>
rbdock ($Id: //depot/dev/client3/rdock/2013.1/src/exe/rbdock.cxx#4 $)

>  <Rbt.Library>
libRbt.so (2013.1, Build901 2013/11/27)

>  <Rbt.Parameter_File>
/export/apps/rDock/src/rDock_2013.1_src/data/scripts/dock_solv.prm

>  <Rbt.Receptor>
prm/pocket_docking_3.prm

>  <SCORE>
-17.8538

>  <SCORE.INTER>
-12.0338

>  <SCORE.INTER.CONST>
1

>  <SCORE.INTER.POLAR>
0

>  <SCORE.INTER.ROT>
7

>  <SCORE.INTER.SOLV>
12.7381

>  <SCORE.INTER.VDW>
-20.5352

>  <SCORE.INTER.norm>
-0.445697

>  <SCORE.INTRA>
-5.81995

>  <SCORE.INTRA.DIHEDRAL>
-5.99079

>  <SCORE.INTRA.DIHEDRAL.0>
11.2699

>  <SCORE.INTRA.POLAR>
0

>  <SCORE.INTRA.POLAR.0>
0

>  <SCORE.INTRA.REPUL>
0

>  <SCORE.INTRA.REPUL.0>
0

>  <SCORE.INTRA.SOLV>
-0.116863

>  <SCORE.INTRA.SOLV.lig_0>
-48.6447

>  <SCORE.INTRA.VDW>
-2.76612

>  <SCORE.INTRA.VDW.0>
-0.0211724

>  <SCORE.INTRA.norm>
-0.215554

>  <SCORE.RESTR>
0

>  <SCORE.RESTR.CAVITY>
0

>  <SCORE.RESTR.norm>
0

>  <SCORE.SYSTEM>
0

>  <SCORE.SYSTEM.CONST>
0

>  <SCORE.SYSTEM.DIHEDRAL>
0

>  <SCORE.SYSTEM.SOLV>
0

>  <SCORE.SYSTEM.norm>
0

>  <SCORE.heavy>
27

>  <SCORE.norm>
-0.66125

>  <RMSD>
5.124

$$$$
ligand
 OpenBabel11021811483D
libRbt.so/2013.1/901 2013/11/27
 27 29  0  0  0  0  0  0  0  0999 V2000
   47.5209   52.2701   25.7223 N   0  0  0  0  0  0  0  0  0  0  0  0
   47.6445   52.6679   27.1194 C   0  0  2  0  0  0  0  0  0  0  0  0
   46.3028   52.5661   27.8259 C   0  0  0  0  0  0  0  0  0  0  0  0
   45.2563   52.6568   27.1883 O   0  0  0  0  0  0  0  0  0  0  0  0
   48.2135   54.0789   27.2611 C   0  0  0  0  0  0  0  0  0  0  0  0
   48.4834   54.5189   28.6951 C   0  0  0  0  0  0  0  0  0  0  0  0
   49.4463   56.0492   28.8442 S   0  0  2  0  0  0  0  0  0  0  0  0
   51.1047   55.4631   28.4185 C   0  0  0  0  0  0  0  0  0  0  0  0
   49.5893   56.1683   30.6468 C   0  0  0  0  0  0  0  0  0  0  0  0
   48.5753   57.1707   31.1774 C   0  0  1  0  0  0  0  0  0  0  0  0
   47.4011   56.4720   31.5142 O   0  0  0  0  0  0  0  0  0  0  0  0
   48.9931   57.8735   32.4534 C   0  0  1  0  0  0  0  0  0  0  0  0
   49.5435   59.1342   32.1590 O   0  0  0  0  0  0  0  0  0  0  0  0
   47.6926   58.0198   33.2225 C   0  0  1  0  0  0  0  0  0  0  0  0
   47.2564   59.3564   33.1470 O   0  0  0  0  0  0  0  0  0  0  0  0
   46.6822   57.1049   32.5417 C   0  0  2  0  0  0  0  0  0  0  0  0
   46.2426   52.3870   29.0427 O   0  0  0  0  0  0  0  0  0  0  0  0
   48.0374   54.0090   36.5744 N   0  0  0  0  0  0  0  0  0  0  0  0
   48.8223   54.9141   35.8891 C   0  0  0  0  0  0  0  0  0  0  0  0
   48.2933   55.6488   34.8437 N   0  0  0  0  0  0  0  0  0  0  0  0
   47.0043   55.4853   34.4732 C   0  0  0  0  0  0  0  0  0  0  0  0
   46.1953   54.5864   35.1525 C   0  0  0  0  0  0  0  0  0  0  0  0
   46.7192   53.8417   36.2058 C   0  0  0  0  0  0  0  0  0  0  0  0
   45.9599   52.9699   36.8644 N   0  0  0  0  0  0  0  0  0  0  0  0
   44.9677   54.6331   34.5886 N   0  0  0  0  0  0  0  0  0  0  0  0
   44.9809   55.5442   33.5873 C   0  0  0  0  0  0  0  0  0  0  0  0
   46.2386   56.0815   33.5034 N   0  0  0  0  0  0  0  0  0  0  0  0
  2  1  1  6  0  0  0
  2  3  1  0  0  0  0
  2  5  1  0  0  0  0
  3  4  1  0  0  0  0
  3 17  1  0  0  0  0
  5  6  1  0  0  0  0
  7  6  1  1  0  0  0
  7  8  1  0  0  0  0
  7  9  1  0  0  0  0
 10  9  1  1  0  0  0
 10 11  1  0  0  0  0
 10 12  1  0  0  0  0
 11 16  1  0  0  0  0
 12 13  1  6  0  0  0
 12 14  1  0  0  0  0
 14 15  1  6  0  0  0
 14 16  1  0  0  0  0
 16 27  1  1  0  0  0
 18 19  2  0  0  0  0
 18 23  1  0  0  0  0
 19 20  1  0  0  0  0
 20 21  2  0  0  0  0
 21 22  1  0  0  0  0
 21 27  1  0  0  0  0
 22 23  2  0  0  0  0
 22 25  1  0  0  0  0
 23 24  1  0  0  0  0
 25 26  2  0  0  0  0
 26 27  1  0  0  0  0
M  END
>  <CHROM.1>
-25.69631270,-175.00112908,168.78328018,-74.87338014,-100.59599645,92.18508941
78.32000231,47.63460680,55.31049629,31.56903086,1.38836180,-0.97393971,-1.96067399

>  <Name>
ligand

>  <RI>
0

>  <Rbt.Current_Directory>
/home/itssahil/PROJECTS/Mol_Feturizer/New_Systems/rnas/3GX7

>  <Rbt.Executable>
rbdock ($Id: //depot/dev/client3/rdock/2013.1/src/exe/rbdock.cxx#4 $)

>  <Rbt.Library>
libRbt.so (2013.1, Build901 2013/11/27)

>  <Rbt.Parameter_File>
/export/apps/rDock/src/rDock_2013.1_src/data/scripts/dock_solv.prm

>  <Rbt.Receptor>
prm/pocket_docking_5.prm

>  <SCORE>
-13.8119

>  <SCORE.INTER>
-9.84586

>  <SCORE.INTER.CONST>
1

>  <SCORE.INTER.POLAR>
0

>  <SCORE.INTER.ROT>
7

>  <SCORE.INTER.SOLV>
13.7751

>  <SCORE.INTER.VDW>
-19.4223

>  <SCORE.INTER.norm>
-0.364661

>  <SCORE.INTRA>
-3.96608

>  <SCORE.INTRA.DIHEDRAL>
-2.05769

>  <SCORE.INTRA.DIHEDRAL.0>
11.2699

>  <SCORE.INTRA.POLAR>
0

>  <SCORE.INTRA.POLAR.0>
0

>  <SCORE.INTRA.REPUL>
0

>  <SCORE.INTRA.REPUL.0>
0

>  <SCORE.INTRA.SOLV>
-1.11525

>  <SCORE.INTRA.SOLV.lig_0>
-48.6447

>  <SCORE.INTRA.VDW>
-2.37961

>  <SCORE.INTRA.VDW.0>
-0.0211724

>  <SCORE.INTRA.norm>
-0.146892

>  <SCORE.RESTR>
0

>  <SCORE.RESTR.CAVITY>
0

>  <SCORE.RESTR.norm>
0

>  <SCORE.SYSTEM>
0

>  <SCORE.SYSTEM.CONST>
0

>  <SCORE.SYSTEM.DIHEDRAL>
0

>  <SCORE.SYSTEM.SOLV>
0

>  <SCORE.SYSTEM.norm>
0

>  <SCORE.heavy>
27

>  <SCORE.norm>
-0.511553

>  <RMSD>
5.129

$$$$
ligand
 OpenBabel11021811483D
libRbt.so/2013.1/901 2013/11/27
 27 29  0  0  0  0  0  0  0  0999 V2000
   48.5829   54.5986   27.3204 N   0  0  0  0  0  0  0  0  0  0  0  0
   47.2503   54.1574   27.7141 C   0  0  2  0  0  0  0  0  0  0  0  0
   47.0564   52.6851   27.3908 C   0  0  0  0  0  0  0  0  0  0  0  0
   47.9504   52.0469   26.8399 O   0  0  0  0  0  0  0  0  0  0  0  0
   46.1555   54.9946   27.0542 C   0  0  0  0  0  0  0  0  0  0  0  0
   46.2243   56.4875   27.3527 C   0  0  0  0  0  0  0  0  0  0  0  0
   45.9947   56.9169   29.1003 S   0  0  2  0  0  0  0  0  0  0  0  0
   44.2033   56.7295   29.2752 C   0  0  0  0  0  0  0  0  0  0  0  0
   46.1322   58.7216   29.0118 C   0  0  0  0  0  0  0  0  0  0  0  0
   46.4189   59.2836   30.3962 C   0  0  1  0  0  0  0  0  0  0  0  0
   45.3408   58.9512   31.2375 O   0  0  0  0  0  0  0  0  0  0  0  0
   47.6406   58.6962   31.0737 C   0  0  1  0  0  0  0  0  0  0  0  0
   48.7509   59.5418   30.8974 O   0  0  0  0  0  0  0  0  0  0  0  0
   47.2404   58.6303   32.5365 C   0  0  1  0  0  0  0  0  0  0  0  0
   47.8870   59.6633   33.2417 O   0  0  0  0  0  0  0  0  0  0  0  0
   45.7315   58.8364   32.5819 C   0  0  2  0  0  0  0  0  0  0  0  0
   46.0069   52.1090   27.6786 O   0  0  0  0  0  0  0  0  0  0  0  0
   46.4725   54.3140   35.1670 N   0  0  0  0  0  0  0  0  0  0  0  0
   47.4158   55.2477   34.7885 C   0  0  0  0  0  0  0  0  0  0  0  0
   47.0364   56.3897   34.1071 N   0  0  0  0  0  0  0  0  0  0  0  0
   45.7392   56.6036   33.7954 C   0  0  0  0  0  0  0  0  0  0  0  0
   44.7734   55.6822   34.1722 C   0  0  0  0  0  0  0  0  0  0  0  0
   45.1461   54.5290   34.8577 C   0  0  0  0  0  0  0  0  0  0  0  0
   44.2342   53.6308   35.2212 N   0  0  0  0  0  0  0  0  0  0  0  0
   43.5767   56.1469   33.7490 N   0  0  0  0  0  0  0  0  0  0  0  0
   43.7633   57.3375   33.1322 C   0  0  0  0  0  0  0  0  0  0  0  0
   45.1009   57.6342   33.1529 N   0  0  0  0  0  0  0  0  0  0  0  0
  2  1  1  6  0  0  0
  2  3  1  0  0  0  0
  2  5  1  0  0  0  0
  3  4  1  0  0  0  0
  3 17  1  0  0  0  0
  5  6  1  0  0  0  0
  7  6  1  6  0  0  0
  7  8  1  0  0  0  0
  7  9  1  0  0  0  0
 10  9  1  6  0  0  0
 10 11  1  0  0  0  0
 10 12  1  0  0  0  0
 11 16  1  0  0  0  0
 12 13  1  1  0  0  0
 12 14  1  0  0  0  0
 14 15  1  1  0  0  0
 14 16  1  0  0  0  0
 16 27  1  6  0  0  0
 18 19  2  0  0  0  0
 18 23  1  0  0  0  0
 19 20  1  0  0  0  0
 20 21  2  0  0  0  0
 21 22  1  0  0  0  0
 21 27  1  0  0  0  0
 22 23  2  0  0  0  0
 22 25  1  0  0  0  0
 23 24  1  0  0  0  0
 25 26  2  0  0  0  0
 26 27  1  0  0  0  0
M  END
>  <CHROM.1>
-1.67409355,-58.41581317,-63.39797645,-76.55204495,-161.79659925,-61.39846707
126.14912241,46.23431275,56.35927896,31.03052804,-0.91953473,1.30454299,0.53509372

>  <Name>
ligand

>  <RI>
0

>  <Rbt.Current_Directory>
/home/itssahil/PROJECTS/Mol_Feturizer/New_Systems/rnas/3GX7

>  <Rbt.Executable>
rbdock ($Id: //depot/dev/client3/rdock/2013.1/src/exe/rbdock.cxx#4 $)

>  <Rbt.Library>
libRbt.so (2013.1, Build901 2013/11/27)

>  <Rbt.Parameter_File>
/export/apps/rDock/src/rDock_2013.1_src/data/scripts/dock_solv.prm

>  <Rbt.Receptor>
prm/pocket_docking_5.prm

>  <SCORE>
-17.0483

>  <SCORE.INTER>
-12.3091

>  <SCORE.INTER.CONST>
1

>  <SCORE.INTER.POLAR>
0

>  <SCORE.INTER.ROT>
7

>  <SCORE.INTER.SOLV>
11.3327

>  <SCORE.INTER.VDW>
-20.2503

>  <SCORE.INTER.norm>
-0.455893

>  <SCORE.INTRA>
-4.73914

>  <SCORE.INTRA.DIHEDRAL>
-6.08689

>  <SCORE.INTRA.DIHEDRAL.0>
11.2699

>  <SCORE.INTRA.POLAR>
0

>  <SCORE.INTRA.POLAR.0>
0

>  <SCORE.INTRA.REPUL>
0

>  <SCORE.INTRA.REPUL.0>
0

>  <SCORE.INTRA.SOLV>
0.435799

>  <SCORE.INTRA.SOLV.lig_0>
-48.6447

>  <SCORE.INTRA.VDW>
-1.91359

>  <SCORE.INTRA.VDW.0>
-0.0211724

>  <SCORE.INTRA.norm>
-0.175524

>  <SCORE.RESTR>
0

>  <SCORE.RESTR.CAVITY>
0

>  <SCORE.RESTR.norm>
0

>  <SCORE.SYSTEM>
0

>  <SCORE.SYSTEM.CONST>
0

>  <SCORE.SYSTEM.DIHEDRAL>
0

>  <SCORE.SYSTEM.SOLV>
0

>  <SCORE.SYSTEM.norm>
0

>  <SCORE.heavy>
27

>  <SCORE.norm>
-0.631417

>  <RMSD>
5.135

$$$$
ligand
 OpenBabel11021811483D
libRbt.so/2013.1/901 2013/11/27
 27 29  0  0  0  0  0  0  0  0999 V2000
   49.9091   53.1414   28.4346 N   0  0  0  0  0  0  0  0  0  0  0  0
   49.8770   53.8945   29.6825 C   0  0  2  0  0  0  0  0  0  0  0  0
   48.4795   53.8820   30.2797 C   0  0  0  0  0  0  0  0  0  0  0  0
   48.3119   54.1183   31.4738 O   0  0  0  0  0  0  0  0  0  0  0  0
   50.3603   55.3315   29.4925 C   0  0  0  0  0  0  0  0  0  0  0  0
   49.6476   56.1057   28.3901 C   0  0  0  0  0  0  0  0  0  0  0  0
   48.0128   56.7416   28.8532 S   0  0  2  0  0  0  0  0  0  0  0  0
   47.6416   57.8145   27.4439 C   0  0  0  0  0  0  0  0  0  0  0  0
   48.4841   57.9753   30.0940 C   0  0  0  0  0  0  0  0  0  0  0  0
   47.2725   58.8155   30.4691 C   0  0  1  0  0  0  0  0  0  0  0  0
   46.1924   57.9463   30.7105 O   0  0  0  0  0  0  0  0  0  0  0  0
   47.4296   59.6108   31.7494 C   0  0  1  0  0  0  0  0  0  0  0  0
   47.8046   60.9352   31.4590 O   0  0  0  0  0  0  0  0  0  0  0  0
   46.0446   59.5667   32.3692 C   0  0  1  0  0  0  0  0  0  0  0  0
   45.4152   60.8132   32.1884 O   0  0  0  0  0  0  0  0  0  0  0  0
   45.2728   58.4830   31.6268 C   0  0  2  0  0  0  0  0  0  0  0  0
   47.4962   53.6406   29.5789 O   0  0  0  0  0  0  0  0  0  0  0  0
   46.9555   54.6967   34.8697 N   0  0  0  0  0  0  0  0  0  0  0  0
   47.7069   55.5429   34.0795 C   0  0  0  0  0  0  0  0  0  0  0  0
   47.0888   56.4874   33.2805 N   0  0  0  0  0  0  0  0  0  0  0  0
   45.7418   56.5898   33.2558 C   0  0  0  0  0  0  0  0  0  0  0  0
   44.9673   55.7546   34.0472 C   0  0  0  0  0  0  0  0  0  0  0  0
   45.5806   54.8000   34.8542 C   0  0  0  0  0  0  0  0  0  0  0  0
   44.8534   53.9858   35.6149 N   0  0  0  0  0  0  0  0  0  0  0  0
   43.6716   56.0781   33.8384 N   0  0  0  0  0  0  0  0  0  0  0  0
   43.6133   57.0996   32.9519 C   0  0  0  0  0  0  0  0  0  0  0  0
   44.8909   57.4281   32.5808 N   0  0  0  0  0  0  0  0  0  0  0  0
  2  1  1  6  0  0  0
  2  3  1  0  0  0  0
  2  5  1  0  0  0  0
  3  4  1  0  0  0  0
  3 17  1  0  0  0  0
  5  6  1  0  0  0  0
  7  6  1  6  0  0  0
  7  8  1  0  0  0  0
  7  9  1  0  0  0  0
 10  9  1  1  0  0  0
 10 11  1  0  0  0  0
 10 12  1  0  0  0  0
 11 16  1  0  0  0  0
 12 13  1  6  0  0  0
 12 14  1  0  0  0  0
 14 15  1  6  0  0  0
 14 16  1  0  0  0  0
 16 27  1  1  0  0  0
 18 19  2  0  0  0  0
 18 23  1  0  0  0  0
 19 20  1  0  0  0  0
 20 21  2  0  0  0  0
 21 22  1  0  0  0  0
 21 27  1  0  0  0  0
 22 23  2  0  0  0  0
 22 25  1  0  0  0  0
 23 24  1  0  0  0  0
 25 26  2  0  0  0  0
 26 27  1  0  0  0  0
M  END
>  <CHROM.1>
159.45083777,53.35009924,78.74017121,170.33741677,170.61523859,47.14554061
48.12281151,47.06800157,56.61108524,31.42014367,-0.05375161,-0.91316519,2.74053249

>  <Name>
ligand

>  <RI>
0

>  <Rbt.Current_Directory>
/home/itssahil/PROJECTS/Mol_Feturizer/New_Systems/rnas/3GX7

>  <Rbt.Executable>
rbdock ($Id: //depot/dev/client3/rdock/2013.1/src/exe/rbdock.cxx#4 $)

>  <Rbt.Library>
libRbt.so (2013.1, Build901 2013/11/27)

>  <Rbt.Parameter_File>
/export/apps/rDock/src/rDock_2013.1_src/data/scripts/dock_solv.prm

>  <Rbt.Receptor>
prm/pocket_docking_4.prm

>  <SCORE>
-18.3674

>  <SCORE.INTER>
-11.5859

>  <SCORE.INTER.CONST>
1

>  <SCORE.INTER.POLAR>
0

>  <SCORE.INTER.ROT>
7

>  <SCORE.INTER.SOLV>
12.0154

>  <SCORE.INTER.VDW>
-19.9957

>  <SCORE.INTER.norm>
-0.429108

>  <SCORE.INTRA>
-6.7815

>  <SCORE.INTRA.DIHEDRAL>
-6.13997

>  <SCORE.INTRA.DIHEDRAL.0>
11.2699

>  <SCORE.INTRA.POLAR>
0

>  <SCORE.INTRA.POLAR.0>
0

>  <SCORE.INTRA.REPUL>
0

>  <SCORE.INTRA.REPUL.0>
0

>  <SCORE.INTRA.SOLV>
0.191586

>  <SCORE.INTRA.SOLV.lig_0>
-48.6447

>  <SCORE.INTRA.VDW>
-3.80731

>  <SCORE.INTRA.VDW.0>
-0.0211724

>  <SCORE.INTRA.norm>
-0.251167

>  <SCORE.RESTR>
0

>  <SCORE.RESTR.CAVITY>
0

>  <SCORE.RESTR.norm>
0

>  <SCORE.SYSTEM>
0

>  <SCORE.SYSTEM.CONST>
0

>  <SCORE.SYSTEM.DIHEDRAL>
0

>  <SCORE.SYSTEM.SOLV>
0

>  <SCORE.SYSTEM.norm>
0

>  <SCORE.heavy>
27

>  <SCORE.norm>
-0.680274

>  <RMSD>
5.136

$$$$
ligand
 OpenBabel11021811483D
libRbt.so/2013.1/901 2013/11/27
 27 29  0  0  0  0  0  0  0  0999 V2000
   47.0477   55.4480   26.1352 N   0  0  0  0  0  0  0  0  0  0  0  0
   48.1928   54.6378   25.7376 C   0  0  2  0  0  0  0  0  0  0  0  0
   47.8105   53.1686   25.6669 C   0  0  0  0  0  0  0  0  0  0  0  0
   48.2690   52.4490   24.7827 O   0  0  0  0  0  0  0  0  0  0  0  0
   49.3815   54.8324   26.6778 C   0  0  0  0  0  0  0  0  0  0  0  0
   49.1020   54.5023   28.1392 C   0  0  0  0  0  0  0  0  0  0  0  0
   50.5113   54.7612   29.2520 S   0  0  2  0  0  0  0  0  0  0  0  0
   51.5966   53.3967   28.7670 C   0  0  0  0  0  0  0  0  0  0  0  0
   49.8281   54.1080   30.7981 C   0  0  0  0  0  0  0  0  0  0  0  0
   48.6480   54.9609   31.2392 C   0  0  1  0  0  0  0  0  0  0  0  0
   48.0885   54.3756   32.3902 O   0  0  0  0  0  0  0  0  0  0  0  0
   49.0114   56.3724   31.6541 C   0  0  1  0  0  0  0  0  0  0  0  0
   48.7936   57.2659   30.5895 O   0  0  0  0  0  0  0  0  0  0  0  0
   48.0627   56.6621   32.8031 C   0  0  1  0  0  0  0  0  0  0  0  0
   47.0427   57.5240   32.3570 O   0  0  0  0  0  0  0  0  0  0  0  0
   47.4659   55.3235   33.2193 C   0  0  2  0  0  0  0  0  0  0  0  0
   47.0422   52.6763   26.4938 O   0  0  0  0  0  0  0  0  0  0  0  0
   46.1464   52.9231   37.7117 N   0  0  0  0  0  0  0  0  0  0  0  0
   45.4562   52.9415   36.5166 C   0  0  0  0  0  0  0  0  0  0  0  0
   45.9579   53.6327   35.4290 N   0  0  0  0  0  0  0  0  0  0  0  0
   47.1257   54.3058   35.5229 C   0  0  0  0  0  0  0  0  0  0  0  0
   47.8397   54.2950   36.7120 C   0  0  0  0  0  0  0  0  0  0  0  0
   47.3420   53.6026   37.8127 C   0  0  0  0  0  0  0  0  0  0  0  0
   48.0098   53.5868   38.9633 N   0  0  0  0  0  0  0  0  0  0  0  0
   48.9595   55.0283   36.5240 N   0  0  0  0  0  0  0  0  0  0  0  0
   48.9744   55.4849   35.2496 C   0  0  0  0  0  0  0  0  0  0  0  0
   47.8421   55.0447   34.6156 N   0  0  0  0  0  0  0  0  0  0  0  0
  2  1  1  1  0  0  0
  2  3  1  0  0  0  0
  2  5  1  0  0  0  0
  3  4  1  0  0  0  0
  3 17  1  0  0  0  0
  5  6  1  0  0  0  0
  7  6  1  6  0  0  0
  7  8  1  0  0  0  0
  7  9  1  0  0  0  0
 10  9  1  1  0  0  0
 10 11  1  0  0  0  0
 10 12  1  0  0  0  0
 11 16  1  0  0  0  0
 12 13  1  6  0  0  0
 12 14  1  0  0  0  0
 14 15  1  6  0  0  0
 14 16  1  0  0  0  0
 16 27  1  1  0  0  0
 18 19  2  0  0  0  0
 18 23  1  0  0  0  0
 19 20  1  0  0  0  0
 20 21  2  0  0  0  0
 21 22  1  0  0  0  0
 21 27  1  0  0  0  0
 22 23  2  0  0  0  0
 22 25  1  0  0  0  0
 23 24  1  0  0  0  0
 25 26  2  0  0  0  0
 26 27  1  0  0  0  0
M  END
>  <CHROM.1>
142.03683271,58.39578898,-179.08297564,-71.44844589,-64.05805123,176.15536114
-95.16981915,48.26338563,54.58581477,31.64953264,1.36105116,-0.84699779,-1.73916619

>  <Name>
ligand

>  <RI>
0

>  <Rbt.Current_Directory>
/home/itssahil/PROJECTS/Mol_Feturizer/New_Systems/rnas/3GX7

>  <Rbt.Executable>
rbdock ($Id: //depot/dev/client3/rdock/2013.1/src/exe/rbdock.cxx#4 $)

>  <Rbt.Library>
libRbt.so (2013.1, Build901 2013/11/27)

>  <Rbt.Parameter_File>
/export/apps/rDock/src/rDock_2013.1_src/data/scripts/dock_solv.prm

>  <Rbt.Receptor>
prm/pocket_docking_6.prm

>  <SCORE>
-17.3923

>  <SCORE.INTER>
-11.3629

>  <SCORE.INTER.CONST>
1

>  <SCORE.INTER.POLAR>
0

>  <SCORE.INTER.ROT>
7

>  <SCORE.INTER.SOLV>
12.4403

>  <SCORE.INTER.VDW>
-19.9887

>  <SCORE.INTER.norm>
-0.420849

>  <SCORE.INTRA>
-6.02934

>  <SCORE.INTRA.DIHEDRAL>
-7.96933

>  <SCORE.INTRA.DIHEDRAL.0>
11.2699

>  <SCORE.INTRA.POLAR>
0

>  <SCORE.INTRA.POLAR.0>
0

>  <SCORE.INTRA.REPUL>
0

>  <SCORE.INTRA.REPUL.0>
0

>  <SCORE.INTRA.SOLV>
-0.239038

>  <SCORE.INTRA.SOLV.lig_0>
-48.6447

>  <SCORE.INTRA.VDW>
-1.92515

>  <SCORE.INTRA.VDW.0>
-0.0211724

>  <SCORE.INTRA.norm>
-0.223309

>  <SCORE.RESTR>
0

>  <SCORE.RESTR.CAVITY>
0

>  <SCORE.RESTR.norm>
0

>  <SCORE.SYSTEM>
0

>  <SCORE.SYSTEM.CONST>
0

>  <SCORE.SYSTEM.DIHEDRAL>
0

>  <SCORE.SYSTEM.SOLV>
0

>  <SCORE.SYSTEM.norm>
0

>  <SCORE.heavy>
27

>  <SCORE.norm>
-0.644158

>  <RMSD>
5.139

$$$$
ligand
 OpenBabel11021811483D
libRbt.so/2013.1/901 2013/11/27
 27 29  0  0  0  0  0  0  0  0999 V2000
   48.7026   53.4736   31.4894 N   0  0  0  0  0  0  0  0  0  0  0  0
   47.9279   53.9324   30.3427 C   0  0  2  0  0  0  0  0  0  0  0  0
   47.3612   52.7513   29.5722 C   0  0  0  0  0  0  0  0  0  0  0  0
   48.1004   52.0343   28.9020 O   0  0  0  0  0  0  0  0  0  0  0  0
   48.7552   54.8228   29.4167 C   0  0  0  0  0  0  0  0  0  0  0  0
   48.4014   56.3043   29.4695 C   0  0  0  0  0  0  0  0  0  0  0  0
   46.6324   56.6626   29.2854 S   0  0  2  0  0  0  0  0  0  0  0  0
   46.3709   56.2518   27.5424 C   0  0  0  0  0  0  0  0  0  0  0  0
   46.6754   58.4720   29.1967 C   0  0  0  0  0  0  0  0  0  0  0  0
   46.7246   59.0542   30.6014 C   0  0  1  0  0  0  0  0  0  0  0  0
   45.8325   58.3262   31.4104 O   0  0  0  0  0  0  0  0  0  0  0  0
   48.0693   58.9282   31.2886 C   0  0  1  0  0  0  0  0  0  0  0  0
   48.7984   60.1243   31.1586 O   0  0  0  0  0  0  0  0  0  0  0  0
   47.7058   58.6740   32.7403 C   0  0  1  0  0  0  0  0  0  0  0  0
   47.9260   59.8477   33.4864 O   0  0  0  0  0  0  0  0  0  0  0  0
   46.2247   58.3172   32.7593 C   0  0  2  0  0  0  0  0  0  0  0  0
   46.1581   52.4918   29.6108 O   0  0  0  0  0  0  0  0  0  0  0  0
   48.3006   54.5080   35.7368 N   0  0  0  0  0  0  0  0  0  0  0  0
   48.8102   55.7639   35.4761 C   0  0  0  0  0  0  0  0  0  0  0  0
   48.1217   56.6435   34.6608 N   0  0  0  0  0  0  0  0  0  0  0  0
   46.9455   56.2834   34.1018 C   0  0  0  0  0  0  0  0  0  0  0  0
   46.4111   55.0289   34.3558 C   0  0  0  0  0  0  0  0  0  0  0  0
   47.0976   54.1363   35.1747 C   0  0  0  0  0  0  0  0  0  0  0  0
   46.6036   52.9263   35.4240 N   0  0  0  0  0  0  0  0  0  0  0  0
   45.2386   54.9405   33.6890 N   0  0  0  0  0  0  0  0  0  0  0  0
   45.0168   56.1066   33.0380 C   0  0  0  0  0  0  0  0  0  0  0  0
   46.0681   56.9502   33.2845 N   0  0  0  0  0  0  0  0  0  0  0  0
  2  1  1  1  0  0  0
  2  3  1  0  0  0  0
  2  5  1  0  0  0  0
  3  4  1  0  0  0  0
  3 17  1  0  0  0  0
  5  6  1  0  0  0  0
  7  6  1  6  0  0  0
  7  8  1  0  0  0  0
  7  9  1  0  0  0  0
 10  9  1  6  0  0  0
 10 11  1  0  0  0  0
 10 12  1  0  0  0  0
 11 16  1  0  0  0  0
 12 13  1  1  0  0  0
 12 14  1  0  0  0  0
 14 15  1  1  0  0  0
 14 16  1  0  0  0  0
 16 27  1  6  0  0  0
 18 19  2  0  0  0  0
 18 23  1  0  0  0  0
 19 20  1  0  0  0  0
 20 21  2  0  0  0  0
 21 22  1  0  0  0  0
 21 27  1  0  0  0  0
 22 23  2  0  0  0  0
 22 25  1  0  0  0  0
 23 24  1  0  0  0  0
 25 26  2  0  0  0  0
 26 27  1  0  0  0  0
M  END
>  <CHROM.1>
-71.77933056,-106.95549645,-50.49553478,-70.29911852,-83.17045967,-41.92952415
137.77896630,47.20299651,56.11659947,31.76244790,-2.87522113,-1.57079633
0.00000000

>  <Name>
ligand

>  <RI>
0

>  <Rbt.Current_Directory>
/home/itssahil/PROJECTS/Mol_Feturizer/New_Systems/rnas/3GX7

>  <Rbt.Executable>
rbdock ($Id: //depot/dev/client3/rdock/2013.1/src/exe/rbdock.cxx#4 $)

>  <Rbt.Library>
libRbt.so (2013.1, Build901 2013/11/27)

>  <Rbt.Parameter_File>
/export/apps/rDock/src/rDock_2013.1_src/data/scripts/dock_solv.prm

>  <Rbt.Receptor>
prm/pocket_docking_2.prm

>  <SCORE>
-7.3604

>  <SCORE.INTER>
-5.52922

>  <SCORE.INTER.CONST>
1

>  <SCORE.INTER.POLAR>
0

>  <SCORE.INTER.ROT>
7

>  <SCORE.INTER.SOLV>
16.4459

>  <SCORE.INTER.VDW>
-17.4348

>  <SCORE.INTER.norm>
-0.204786

>  <SCORE.INTRA>
-3.53517

>  <SCORE.INTRA.DIHEDRAL>
-0.85499

>  <SCORE.INTRA.DIHEDRAL.0>
11.2699

>  <SCORE.INTRA.POLAR>
0

>  <SCORE.INTRA.POLAR.0>
0

>  <SCORE.INTRA.REPUL>
0

>  <SCORE.INTRA.REPUL.0>
0

>  <SCORE.INTRA.SOLV>
-0.255714

>  <SCORE.INTRA.SOLV.lig_0>
-48.6447

>  <SCORE.INTRA.VDW>
-2.97982

>  <SCORE.INTRA.VDW.0>
-0.0211724

>  <SCORE.INTRA.norm>
-0.130932

>  <SCORE.RESTR>
1.70399

>  <SCORE.RESTR.CAVITY>
1.70399

>  <SCORE.RESTR.norm>
0.0631107

>  <SCORE.SYSTEM>
0

>  <SCORE.SYSTEM.CONST>
0

>  <SCORE.SYSTEM.DIHEDRAL>
0

>  <SCORE.SYSTEM.SOLV>
0

>  <SCORE.SYSTEM.norm>
0

>  <SCORE.heavy>
27

>  <SCORE.norm>
-0.272608

>  <RMSD>
5.142

$$$$
ligand
 OpenBabel11021811483D
libRbt.so/2013.1/901 2013/11/27
 27 29  0  0  0  0  0  0  0  0999 V2000
   49.2625   53.5730   28.4017 N   0  0  0  0  0  0  0  0  0  0  0  0
   48.6253   54.2057   27.2531 C   0  0  2  0  0  0  0  0  0  0  0  0
   48.5739   53.2478   26.0744 C   0  0  0  0  0  0  0  0  0  0  0  0
   49.4846   52.4447   25.8861 O   0  0  0  0  0  0  0  0  0  0  0  0
   49.3296   55.5016   26.8539 C   0  0  0  0  0  0  0  0  0  0  0  0
   49.2760   56.6076   27.9010 C   0  0  0  0  0  0  0  0  0  0  0  0
   47.6019   57.1684   28.3184 S   0  0  2  0  0  0  0  0  0  0  0  0
   47.1609   58.0957   26.8282 C   0  0  0  0  0  0  0  0  0  0  0  0
   47.9884   58.5279   29.4525 C   0  0  0  0  0  0  0  0  0  0  0  0
   46.7222   58.9774   30.1661 C   0  0  1  0  0  0  0  0  0  0  0  0
   46.1070   57.8426   30.7266 O   0  0  0  0  0  0  0  0  0  0  0  0
   46.9563   59.9138   31.3343 C   0  0  1  0  0  0  0  0  0  0  0  0
   46.7711   61.2497   30.9343 O   0  0  0  0  0  0  0  0  0  0  0  0
   45.8973   59.5010   32.3405 C   0  0  1  0  0  0  0  0  0  0  0  0
   44.8643   60.4579   32.3462 O   0  0  0  0  0  0  0  0  0  0  0  0
   45.3562   58.1561   31.8718 C   0  0  2  0  0  0  0  0  0  0  0  0
   47.6206   53.2574   25.2949 O   0  0  0  0  0  0  0  0  0  0  0  0
   49.0269   55.7351   34.7612 N   0  0  0  0  0  0  0  0  0  0  0  0
   49.1983   56.7249   33.8146 C   0  0  0  0  0  0  0  0  0  0  0  0
   48.1079   57.2497   33.1453 N   0  0  0  0  0  0  0  0  0  0  0  0
   46.8615   56.7959   33.4020 C   0  0  0  0  0  0  0  0  0  0  0  0
   46.6651   55.8067   34.3544 C   0  0  0  0  0  0  0  0  0  0  0  0
   47.7570   55.2717   35.0328 C   0  0  0  0  0  0  0  0  0  0  0  0
   47.5884   54.3176   35.9447 N   0  0  0  0  0  0  0  0  0  0  0  0
   45.3385   55.5552   34.4162 N   0  0  0  0  0  0  0  0  0  0  0  0
   44.6983   56.3670   33.5421 C   0  0  0  0  0  0  0  0  0  0  0  0
   45.6308   57.1430   32.9048 N   0  0  0  0  0  0  0  0  0  0  0  0
  2  1  1  1  0  0  0
  2  3  1  0  0  0  0
  2  5  1  0  0  0  0
  3  4  1  0  0  0  0
  3 17  1  0  0  0  0
  5  6  1  0  0  0  0
  7  6  1  6  0  0  0
  7  8  1  0  0  0  0
  7  9  1  0  0  0  0
 10  9  1  1  0  0  0
 10 11  1  0  0  0  0
 10 12  1  0  0  0  0
 11 16  1  0  0  0  0
 12 13  1  6  0  0  0
 12 14  1  0  0  0  0
 14 15  1  6  0  0  0
 14 16  1  0  0  0  0
 16 27  1  1  0  0  0
 18 19  2  0  0  0  0
 18 23  1  0  0  0  0
 19 20  1  0  0  0  0
 20 21  2  0  0  0  0
 21 22  1  0  0  0  0
 21 27  1  0  0  0  0
 22 23  2  0  0  0  0
 22 25  1  0  0  0  0
 23 24  1  0  0  0  0
 25 26  2  0  0  0  0
 26 27  1  0  0  0  0
M  END
>  <CHROM.1>
-34.54236178,-64.14472422,-61.23472004,-72.67993695,-168.29498551,51.68244849
55.59362763,47.36225839,56.70331380,30.63467467,-0.76685853,-1.19900000,1.94578481

>  <Name>
ligand

>  <RI>
0

>  <Rbt.Current_Directory>
/home/itssahil/PROJECTS/Mol_Feturizer/New_Systems/rnas/3GX7

>  <Rbt.Executable>
rbdock ($Id: //depot/dev/client3/rdock/2013.1/src/exe/rbdock.cxx#4 $)

>  <Rbt.Library>
libRbt.so (2013.1, Build901 2013/11/27)

>  <Rbt.Parameter_File>
/export/apps/rDock/src/rDock_2013.1_src/data/scripts/dock_solv.prm

>  <Rbt.Receptor>
prm/pocket_docking_8.prm

>  <SCORE>
-17.5666

>  <SCORE.INTER>
-11.3078

>  <SCORE.INTER.CONST>
1

>  <SCORE.INTER.POLAR>
0

>  <SCORE.INTER.ROT>
7

>  <SCORE.INTER.SOLV>
12.4394

>  <SCORE.INTER.VDW>
-19.9516

>  <SCORE.INTER.norm>
-0.418807

>  <SCORE.INTRA>
-6.2588

>  <SCORE.INTRA.DIHEDRAL>
-6.64995

>  <SCORE.INTRA.DIHEDRAL.0>
11.2699

>  <SCORE.INTRA.POLAR>
0

>  <SCORE.INTRA.POLAR.0>
0

>  <SCORE.INTRA.REPUL>
0

>  <SCORE.INTRA.REPUL.0>
0

>  <SCORE.INTRA.SOLV>
0.115855

>  <SCORE.INTRA.SOLV.lig_0>
-48.6447

>  <SCORE.INTRA.VDW>
-2.99175

>  <SCORE.INTRA.VDW.0>
-0.0211724

>  <SCORE.INTRA.norm>
-0.231807

>  <SCORE.RESTR>
0

>  <SCORE.RESTR.CAVITY>
0

>  <SCORE.RESTR.norm>
0

>  <SCORE.SYSTEM>
0

>  <SCORE.SYSTEM.CONST>
0

>  <SCORE.SYSTEM.DIHEDRAL>
0

>  <SCORE.SYSTEM.SOLV>
0

>  <SCORE.SYSTEM.norm>
0

>  <SCORE.heavy>
27

>  <SCORE.norm>
-0.650614

>  <RMSD>
5.146

$$$$
ligand
 OpenBabel11021811483D
libRbt.so/2013.1/901 2013/11/27
 27 29  0  0  0  0  0  0  0  0999 V2000
   48.7874   54.8134   28.2545 N   0  0  0  0  0  0  0  0  0  0  0  0
   49.6873   55.8314   28.7830 C   0  0  2  0  0  0  0  0  0  0  0  0
   51.1088   55.2998   28.8635 C   0  0  0  0  0  0  0  0  0  0  0  0
   51.3202   54.1412   29.2137 O   0  0  0  0  0  0  0  0  0  0  0  0
   49.2320   56.3388   30.1506 C   0  0  0  0  0  0  0  0  0  0  0  0
   49.1141   55.2642   31.2248 C   0  0  0  0  0  0  0  0  0  0  0  0
   48.1529   55.7589   32.6818 S   0  0  2  0  0  0  0  0  0  0  0  0
   49.4141   56.6100   33.6616 C   0  0  0  0  0  0  0  0  0  0  0  0
   48.0607   54.1775   33.5619 C   0  0  0  0  0  0  0  0  0  0  0  0
   47.1857   54.3274   34.7974 C   0  0  1  0  0  0  0  0  0  0  0  0
   45.9722   54.9235   34.4069 O   0  0  0  0  0  0  0  0  0  0  0  0
   46.7878   53.0188   35.4498 C   0  0  1  0  0  0  0  0  0  0  0  0
   47.6396   52.7338   36.5325 O   0  0  0  0  0  0  0  0  0  0  0  0
   45.3716   53.2764   35.9319 C   0  0  1  0  0  0  0  0  0  0  0  0
   45.3830   53.4636   37.3273 O   0  0  0  0  0  0  0  0  0  0  0  0
   44.9047   54.5516   35.2410 C   0  0  2  0  0  0  0  0  0  0  0  0
   52.0676   56.0169   28.5754 O   0  0  0  0  0  0  0  0  0  0  0  0
   41.7739   56.1633   31.3315 N   0  0  0  0  0  0  0  0  0  0  0  0
   42.8644   56.8103   31.8765 C   0  0  0  0  0  0  0  0  0  0  0  0
   43.5767   56.2317   32.9110 N   0  0  0  0  0  0  0  0  0  0  0  0
   43.2109   55.0297   33.4079 C   0  0  0  0  0  0  0  0  0  0  0  0
   42.1226   54.3583   32.8706 C   0  0  0  0  0  0  0  0  0  0  0  0
   41.3988   54.9334   31.8295 C   0  0  0  0  0  0  0  0  0  0  0  0
   40.3480   54.3070   31.3062 N   0  0  0  0  0  0  0  0  0  0  0  0
   41.9907   53.1909   33.5392 N   0  0  0  0  0  0  0  0  0  0  0  0
   42.9720   53.1057   34.4680 C   0  0  0  0  0  0  0  0  0  0  0  0
   43.7375   54.2401   34.3988 N   0  0  0  0  0  0  0  0  0  0  0  0
  2  1  1  1  0  0  0
  2  3  1  0  0  0  0
  2  5  1  0  0  0  0
  3  4  1  0  0  0  0
  3 17  1  0  0  0  0
  5  6  1  0  0  0  0
  7  6  1  6  0  0  0
  7  8  1  0  0  0  0
  7  9  1  0  0  0  0
 10  9  1  6  0  0  0
 10 11  1  0  0  0  0
 10 12  1  0  0  0  0
 11 16  1  0  0  0  0
 12 13  1  1  0  0  0
 12 14  1  0  0  0  0
 14 15  1  1  0  0  0
 14 16  1  0  0  0  0
 16 27  1  6  0  0  0
 18 19  2  0  0  0  0
 18 23  1  0  0  0  0
 19 20  1  0  0  0  0
 20 21  2  0  0  0  0
 21 22  1  0  0  0  0
 21 27  1  0  0  0  0
 22 23  2  0  0  0  0
 22 25  1  0  0  0  0
 23 24  1  0  0  0  0
 25 26  2  0  0  0  0
 26 27  1  0  0  0  0
M  END
>  <CHROM.1>
-39.04075615,58.43930125,-163.78743357,-84.57695942,-175.58812628,50.72697048
-50.99491284,46.30364818,54.81460909,32.70148987,0.51676996,0.01824134,-1.26514271

>  <Name>
ligand

>  <RI>
0

>  <Rbt.Current_Directory>
/home/itssahil/PROJECTS/Mol_Feturizer/New_Systems/rnas/3GX7

>  <Rbt.Executable>
rbdock ($Id: //depot/dev/client3/rdock/2013.1/src/exe/rbdock.cxx#4 $)

>  <Rbt.Library>
libRbt.so (2013.1, Build901 2013/11/27)

>  <Rbt.Parameter_File>
/export/apps/rDock/src/rDock_2013.1_src/data/scripts/dock_solv.prm

>  <Rbt.Receptor>
prm/pocket_docking_7.prm

>  <SCORE>
-16.4138

>  <SCORE.INTER>
-11.7135

>  <SCORE.INTER.CONST>
1

>  <SCORE.INTER.POLAR>
0

>  <SCORE.INTER.ROT>
7

>  <SCORE.INTER.SOLV>
6.51458

>  <SCORE.INTER.VDW>
-18.2472

>  <SCORE.INTER.norm>
-0.433834

>  <SCORE.INTRA>
-4.70031

>  <SCORE.INTRA.DIHEDRAL>
-5.68442

>  <SCORE.INTRA.DIHEDRAL.0>
11.2699

>  <SCORE.INTRA.POLAR>
0

>  <SCORE.INTRA.POLAR.0>
0

>  <SCORE.INTRA.REPUL>
0

>  <SCORE.INTRA.REPUL.0>
0

>  <SCORE.INTRA.SOLV>
-0.377415

>  <SCORE.INTRA.SOLV.lig_0>
-48.6447

>  <SCORE.INTRA.VDW>
-1.66939

>  <SCORE.INTRA.VDW.0>
-0.0211724

>  <SCORE.INTRA.norm>
-0.174086

>  <SCORE.RESTR>
0

>  <SCORE.RESTR.CAVITY>
0

>  <SCORE.RESTR.norm>
0

>  <SCORE.SYSTEM>
0

>  <SCORE.SYSTEM.CONST>
0

>  <SCORE.SYSTEM.DIHEDRAL>
0

>  <SCORE.SYSTEM.SOLV>
0

>  <SCORE.SYSTEM.norm>
0

>  <SCORE.heavy>
27

>  <SCORE.norm>
-0.607919

>  <RMSD>
5.150

$$$$
ligand
 OpenBabel11021811483D
libRbt.so/2013.1/901 2013/11/27
 27 29  0  0  0  0  0  0  0  0999 V2000
   48.1418   53.4471   27.0745 N   0  0  0  0  0  0  0  0  0  0  0  0
   47.7612   54.5388   26.1863 C   0  0  2  0  0  0  0  0  0  0  0  0
   47.5914   54.0360   24.7622 C   0  0  0  0  0  0  0  0  0  0  0  0
   47.1421   52.9123   24.5493 O   0  0  0  0  0  0  0  0  0  0  0  0
   48.7712   55.6847   26.2278 C   0  0  0  0  0  0  0  0  0  0  0  0
   48.9566   56.3246   27.5985 C   0  0  0  0  0  0  0  0  0  0  0  0
   47.4696   57.1235   28.2634 S   0  0  2  0  0  0  0  0  0  0  0  0
   47.2488   58.4845   27.0913 C   0  0  0  0  0  0  0  0  0  0  0  0
   48.1815   58.0122   29.6731 C   0  0  0  0  0  0  0  0  0  0  0  0
   47.1584   58.9878   30.2352 C   0  0  1  0  0  0  0  0  0  0  0  0
   45.9497   58.2938   30.4297 O   0  0  0  0  0  0  0  0  0  0  0  0
   47.5093   59.5534   31.5966 C   0  0  1  0  0  0  0  0  0  0  0  0
   48.1054   60.8203   31.4604 O   0  0  0  0  0  0  0  0  0  0  0  0
   46.1658   59.6625   32.2948 C   0  0  1  0  0  0  0  0  0  0  0  0
   45.7653   61.0121   32.3227 O   0  0  0  0  0  0  0  0  0  0  0  0
   45.1808   58.8459   31.4676 C   0  0  2  0  0  0  0  0  0  0  0  0
   47.8953   54.7451   23.8024 O   0  0  0  0  0  0  0  0  0  0  0  0
   46.3295   54.9238   34.7815 N   0  0  0  0  0  0  0  0  0  0  0  0
   47.1950   55.8066   34.1677 C   0  0  0  0  0  0  0  0  0  0  0  0
   46.7113   56.7839   33.3172 N   0  0  0  0  0  0  0  0  0  0  0  0
   45.3870   56.8834   33.0688 C   0  0  0  0  0  0  0  0  0  0  0  0
   44.4984   56.0114   33.6803 C   0  0  0  0  0  0  0  0  0  0  0  0
   44.9761   55.0236   34.5375 C   0  0  0  0  0  0  0  0  0  0  0  0
   44.1392   54.1742   35.1276 N   0  0  0  0  0  0  0  0  0  0  0  0
   43.2534   56.3401   33.2689 N   0  0  0  0  0  0  0  0  0  0  0  0
   43.3355   57.3999   32.4305 C   0  0  0  0  0  0  0  0  0  0  0  0
   44.6539   57.7484   32.2963 N   0  0  0  0  0  0  0  0  0  0  0  0
  2  1  1  1  0  0  0
  2  3  1  0  0  0  0
  2  5  1  0  0  0  0
  3  4  1  0  0  0  0
  3 17  1  0  0  0  0
  5  6  1  0  0  0  0
  7  6  1  6  0  0  0
  7  8  1  0  0  0  0
  7  9  1  0  0  0  0
 10  9  1  1  0  0  0
 10 11  1  0  0  0  0
 10 12  1  0  0  0  0
 11 16  1  0  0  0  0
 12 13  1  6  0  0  0
 12 14  1  0  0  0  0
 14 15  1  6  0  0  0
 14 16  1  0  0  0  0
 16 27  1  1  0  0  0
 18 19  2  0  0  0  0
 18 23  1  0  0  0  0
 19 20  1  0  0  0  0
 20 21  2  0  0  0  0
 21 22  1  0  0  0  0
 21 27  1  0  0  0  0
 22 23  2  0  0  0  0
 22 25  1  0  0  0  0
 23 24  1  0  0  0  0
 25 26  2  0  0  0  0
 26 27  1  0  0  0  0
M  END
>  <CHROM.1>
34.92306740,-59.96641953,-62.94415779,-66.07861686,168.83817895,49.78981005
65.64566717,46.58576052,56.84759229,30.22480061,0.71499749,-1.15567655,-2.66853719

>  <Name>
ligand

>  <RI>
0

>  <Rbt.Current_Directory>
/home/itssahil/PROJECTS/Mol_Feturizer/New_Systems/rnas/3GX7

>  <Rbt.Executable>
rbdock ($Id: //depot/dev/client3/rdock/2013.1/src/exe/rbdock.cxx#4 $)

>  <Rbt.Library>
libRbt.so (2013.1, Build901 2013/11/27)

>  <Rbt.Parameter_File>
/export/apps/rDock/src/rDock_2013.1_src/data/scripts/dock_solv.prm

>  <Rbt.Receptor>
prm/pocket_docking_7.prm

>  <SCORE>
-17.6597

>  <SCORE.INTER>
-12.3262

>  <SCORE.INTER.CONST>
1

>  <SCORE.INTER.POLAR>
0

>  <SCORE.INTER.ROT>
7

>  <SCORE.INTER.SOLV>
11.7561

>  <SCORE.INTER.VDW>
-20.4028

>  <SCORE.INTER.norm>
-0.456524

>  <SCORE.INTRA>
-5.33353

>  <SCORE.INTRA.DIHEDRAL>
-7.69733

>  <SCORE.INTRA.DIHEDRAL.0>
11.2699

>  <SCORE.INTRA.POLAR>
0

>  <SCORE.INTRA.POLAR.0>
0

>  <SCORE.INTRA.REPUL>
0

>  <SCORE.INTRA.REPUL.0>
0

>  <SCORE.INTRA.SOLV>
0.197438

>  <SCORE.INTRA.SOLV.lig_0>
-48.6447

>  <SCORE.INTRA.VDW>
-1.58359

>  <SCORE.INTRA.VDW.0>
-0.0211724

>  <SCORE.INTRA.norm>
-0.197538

>  <SCORE.RESTR>
0

>  <SCORE.RESTR.CAVITY>
0

>  <SCORE.RESTR.norm>
0

>  <SCORE.SYSTEM>
0

>  <SCORE.SYSTEM.CONST>
0

>  <SCORE.SYSTEM.DIHEDRAL>
0

>  <SCORE.SYSTEM.SOLV>
0

>  <SCORE.SYSTEM.norm>
0

>  <SCORE.heavy>
27

>  <SCORE.norm>
-0.654063

>  <RMSD>
5.153

$$$$
ligand
 OpenBabel11021811483D
libRbt.so/2013.1/901 2013/11/27
 27 29  0  0  0  0  0  0  0  0999 V2000
   47.9468   59.1131   30.2982 N   0  0  0  0  0  0  0  0  0  0  0  0
   46.6192   59.6432   30.5842 C   0  0  2  0  0  0  0  0  0  0  0  0
   46.6862   60.6909   31.6830 C   0  0  0  0  0  0  0  0  0  0  0  0
   47.6742   60.7671   32.4096 O   0  0  0  0  0  0  0  0  0  0  0  0
   45.6347   58.5379   30.9638 C   0  0  0  0  0  0  0  0  0  0  0  0
   45.9602   57.8096   32.2623 C   0  0  0  0  0  0  0  0  0  0  0  0
   45.2990   56.1233   32.3654 S   0  0  2  0  0  0  0  0  0  0  0  0
   43.5235   56.4497   32.4911 C   0  0  0  0  0  0  0  0  0  0  0  0
   45.6864   55.7278   34.0909 C   0  0  0  0  0  0  0  0  0  0  0  0
   47.1549   55.3496   34.2140 C   0  0  1  0  0  0  0  0  0  0  0  0
   47.3744   54.1859   33.4538 O   0  0  0  0  0  0  0  0  0  0  0  0
   48.1185   56.3742   33.6499 C   0  0  1  0  0  0  0  0  0  0  0  0
   48.6175   57.1938   34.6786 O   0  0  0  0  0  0  0  0  0  0  0  0
   49.2269   55.5288   33.0491 C   0  0  1  0  0  0  0  0  0  0  0  0
   50.3549   55.5762   33.8905 O   0  0  0  0  0  0  0  0  0  0  0  0
   48.6931   54.1036   32.9766 C   0  0  2  0  0  0  0  0  0  0  0  0
   45.7577   61.4803   31.8594 O   0  0  0  0  0  0  0  0  0  0  0  0
   45.6649   52.8380   28.8642 N   0  0  0  0  0  0  0  0  0  0  0  0
   45.2718   53.2198   30.1310 C   0  0  0  0  0  0  0  0  0  0  0  0
   46.2155   53.5173   31.0970 N   0  0  0  0  0  0  0  0  0  0  0  0
   47.5346   53.4307   30.8173 C   0  0  0  0  0  0  0  0  0  0  0  0
   47.9523   53.0560   29.5488 C   0  0  0  0  0  0  0  0  0  0  0  0
   47.0094   52.7537   28.5700 C   0  0  0  0  0  0  0  0  0  0  0  0
   47.3916   52.3860   27.3498 N   0  0  0  0  0  0  0  0  0  0  0  0
   49.3040   53.0637   29.5438 N   0  0  0  0  0  0  0  0  0  0  0  0
   49.7436   53.4459   30.7659 C   0  0  0  0  0  0  0  0  0  0  0  0
   48.6566   53.6769   31.5676 N   0  0  0  0  0  0  0  0  0  0  0  0
  2  1  1  1  0  0  0
  2  3  1  0  0  0  0
  2  5  1  0  0  0  0
  3  4  1  0  0  0  0
  3 17  1  0  0  0  0
  5  6  1  0  0  0  0
  7  6  1  1  0  0  0
  7  8  1  0  0  0  0
  7  9  1  0  0  0  0
 10  9  1  6  0  0  0
 10 11  1  0  0  0  0
 10 12  1  0  0  0  0
 11 16  1  0  0  0  0
 12 13  1  1  0  0  0
 12 14  1  0  0  0  0
 14 15  1  1  0  0  0
 14 16  1  0  0  0  0
 16 27  1  6  0  0  0
 18 19  2  0  0  0  0
 18 23  1  0  0  0  0
 19 20  1  0  0  0  0
 20 21  2  0  0  0  0
 21 22  1  0  0  0  0
 21 27  1  0  0  0  0
 22 23  2  0  0  0  0
 22 25  1  0  0  0  0
 23 24  1  0  0  0  0
 25 26  2  0  0  0  0
 26 27  1  0  0  0  0
M  END
>  <CHROM.1>
-17.04492986,64.88916171,-154.77552627,-69.20476452,-79.00818285,-62.99070657
1.61391758,47.13084991,55.88587666,31.70427802,1.79335834,-0.85293944,0.50871120

>  <Name>
ligand

>  <RI>
0

>  <Rbt.Current_Directory>
/home/itssahil/PROJECTS/Mol_Feturizer/New_Systems/rnas/3GX7

>  <Rbt.Executable>
rbdock ($Id: //depot/dev/client3/rdock/2013.1/src/exe/rbdock.cxx#4 $)

>  <Rbt.Library>
libRbt.so (2013.1, Build901 2013/11/27)

>  <Rbt.Parameter_File>
/export/apps/rDock/src/rDock_2013.1_src/data/scripts/dock_solv.prm

>  <Rbt.Receptor>
prm/pocket_docking_3.prm

>  <SCORE>
-16.5297

>  <SCORE.INTER>
-11.5049

>  <SCORE.INTER.CONST>
1

>  <SCORE.INTER.POLAR>
0

>  <SCORE.INTER.ROT>
7

>  <SCORE.INTER.SOLV>
17.1137

>  <SCORE.INTER.VDW>
-21.6412

>  <SCORE.INTER.norm>
-0.426107

>  <SCORE.INTRA>
-5.08048

>  <SCORE.INTRA.DIHEDRAL>
-5.57316

>  <SCORE.INTRA.DIHEDRAL.0>
11.2699

>  <SCORE.INTRA.POLAR>
0

>  <SCORE.INTRA.POLAR.0>
0

>  <SCORE.INTRA.REPUL>
0

>  <SCORE.INTRA.REPUL.0>
0

>  <SCORE.INTRA.SOLV>
0.233751

>  <SCORE.INTRA.SOLV.lig_0>
-48.6447

>  <SCORE.INTRA.VDW>
-2.41077

>  <SCORE.INTRA.VDW.0>
-0.0211724

>  <SCORE.INTRA.norm>
-0.188166

>  <SCORE.RESTR>
0.0556248

>  <SCORE.RESTR.CAVITY>
0.0556248

>  <SCORE.RESTR.norm>
0.00206018

>  <SCORE.SYSTEM>
0

>  <SCORE.SYSTEM.CONST>
0

>  <SCORE.SYSTEM.DIHEDRAL>
0

>  <SCORE.SYSTEM.SOLV>
0

>  <SCORE.SYSTEM.norm>
0

>  <SCORE.heavy>
27

>  <SCORE.norm>
-0.612212

>  <RMSD>
5.160

$$$$
ligand
 OpenBabel11021811483D
libRbt.so/2013.1/901 2013/11/27
 27 29  0  0  0  0  0  0  0  0999 V2000
   46.7092   53.2523   26.4136 N   0  0  0  0  0  0  0  0  0  0  0  0
   46.9859   54.1976   27.4884 C   0  0  2  0  0  0  0  0  0  0  0  0
   47.0854   53.4771   28.8228 C   0  0  0  0  0  0  0  0  0  0  0  0
   47.9149   53.8285   29.6585 O   0  0  0  0  0  0  0  0  0  0  0  0
   45.9332   55.3030   27.5591 C   0  0  0  0  0  0  0  0  0  0  0  0
   46.2462   56.4225   28.5446 C   0  0  0  0  0  0  0  0  0  0  0  0
   47.2741   57.7554   27.8678 S   0  0  2  0  0  0  0  0  0  0  0  0
   48.7905   56.8562   27.4593 C   0  0  0  0  0  0  0  0  0  0  0  0
   47.7814   58.5829   29.3980 C   0  0  0  0  0  0  0  0  0  0  0  0
   46.5541   59.0996   30.1339 C   0  0  1  0  0  0  0  0  0  0  0  0
   45.8819   57.9980   30.6952 O   0  0  0  0  0  0  0  0  0  0  0  0
   46.8595   60.0111   31.3053 C   0  0  1  0  0  0  0  0  0  0  0  0
   46.7468   61.3588   30.9180 O   0  0  0  0  0  0  0  0  0  0  0  0
   45.7929   59.6525   32.3242 C   0  0  1  0  0  0  0  0  0  0  0  0
   44.8178   60.6678   32.3525 O   0  0  0  0  0  0  0  0  0  0  0  0
   45.1675   58.3453   31.8538 C   0  0  2  0  0  0  0  0  0  0  0  0
   46.3364   52.5367   29.0893 O   0  0  0  0  0  0  0  0  0  0  0  0
   48.7348   55.6422   34.6199 N   0  0  0  0  0  0  0  0  0  0  0  0
   48.9503   56.6210   33.6709 C   0  0  0  0  0  0  0  0  0  0  0  0
   47.8820   57.2293   33.0376 N   0  0  0  0  0  0  0  0  0  0  0  0
   46.6136   56.8687   33.3324 C   0  0  0  0  0  0  0  0  0  0  0  0
   46.3735   55.8925   34.2880 C   0  0  0  0  0  0  0  0  0  0  0  0
   47.4428   55.2738   34.9303 C   0  0  0  0  0  0  0  0  0  0  0  0
   47.2318   54.3306   35.8446 N   0  0  0  0  0  0  0  0  0  0  0  0
   45.0343   55.7407   34.3909 N   0  0  0  0  0  0  0  0  0  0  0  0
   44.4299   56.6024   33.5396 C   0  0  0  0  0  0  0  0  0  0  0  0
   45.3975   57.3095   32.8751 N   0  0  0  0  0  0  0  0  0  0  0  0
  2  1  1  6  0  0  0
  2  3  1  0  0  0  0
  2  5  1  0  0  0  0
  3  4  1  0  0  0  0
  3 17  1  0  0  0  0
  5  6  1  0  0  0  0
  7  6  1  1  0  0  0
  7  8  1  0  0  0  0
  7  9  1  0  0  0  0
 10  9  1  1  0  0  0
 10 11  1  0  0  0  0
 10 12  1  0  0  0  0
 11 16  1  0  0  0  0
 12 13  1  6  0  0  0
 12 14  1  0  0  0  0
 14 15  1  6  0  0  0
 14 16  1  0  0  0  0
 16 27  1  1  0  0  0
 18 19  2  0  0  0  0
 18 23  1  0  0  0  0
 19 20  1  0  0  0  0
 20 21  2  0  0  0  0
 21 22  1  0  0  0  0
 21 27  1  0  0  0  0
 22 23  2  0  0  0  0
 22 25  1  0  0  0  0
 23 24  1  0  0  0  0
 25 26  2  0  0  0  0
 26 27  1  0  0  0  0
M  END
>  <CHROM.1>
142.06026791,-172.82211684,86.51573279,-61.98544053,-61.03675120,73.10860664
54.22674158,46.72714552,56.77059176,30.96846571,-0.81514949,-1.42991228,1.94672541

>  <Name>
ligand

>  <RI>
0

>  <Rbt.Current_Directory>
/home/itssahil/PROJECTS/Mol_Feturizer/New_Systems/rnas/3GX7

>  <Rbt.Executable>
rbdock ($Id: //depot/dev/client3/rdock/2013.1/src/exe/rbdock.cxx#4 $)

>  <Rbt.Library>
libRbt.so (2013.1, Build901 2013/11/27)

>  <Rbt.Parameter_File>
/export/apps/rDock/src/rDock_2013.1_src/data/scripts/dock_solv.prm

>  <Rbt.Receptor>
prm/pocket_docking_3.prm

>  <SCORE>
-15.0257

>  <SCORE.INTER>
-10.5642

>  <SCORE.INTER.CONST>
1

>  <SCORE.INTER.POLAR>
0

>  <SCORE.INTER.ROT>
7

>  <SCORE.INTER.SOLV>
14.5684

>  <SCORE.INTER.VDW>
-20.1656

>  <SCORE.INTER.norm>
-0.391268

>  <SCORE.INTRA>
-4.4615

>  <SCORE.INTRA.DIHEDRAL>
-4.78853

>  <SCORE.INTRA.DIHEDRAL.0>
11.2699

>  <SCORE.INTRA.POLAR>
0

>  <SCORE.INTRA.POLAR.0>
0

>  <SCORE.INTRA.REPUL>
0

>  <SCORE.INTRA.REPUL.0>
0

>  <SCORE.INTRA.SOLV>
-0.50717

>  <SCORE.INTRA.SOLV.lig_0>
-48.6447

>  <SCORE.INTRA.VDW>
-1.81365

>  <SCORE.INTRA.VDW.0>
-0.0211724

>  <SCORE.INTRA.norm>
-0.165241

>  <SCORE.RESTR>
0

>  <SCORE.RESTR.CAVITY>
0

>  <SCORE.RESTR.norm>
0

>  <SCORE.SYSTEM>
0

>  <SCORE.SYSTEM.CONST>
0

>  <SCORE.SYSTEM.DIHEDRAL>
0

>  <SCORE.SYSTEM.SOLV>
0

>  <SCORE.SYSTEM.norm>
0

>  <SCORE.heavy>
27

>  <SCORE.norm>
-0.556509

>  <RMSD>
5.163

$$$$
ligand
 OpenBabel11021811483D
libRbt.so/2013.1/901 2013/11/27
 27 29  0  0  0  0  0  0  0  0999 V2000
   47.8821   54.1432   28.7350 N   0  0  0  0  0  0  0  0  0  0  0  0
   49.2670   54.1191   28.2803 C   0  0  2  0  0  0  0  0  0  0  0  0
   50.2193   54.1089   29.4646 C   0  0  0  0  0  0  0  0  0  0  0  0
   49.9003   54.6449   30.5233 O   0  0  0  0  0  0  0  0  0  0  0  0
   49.5827   55.2937   27.3553 C   0  0  0  0  0  0  0  0  0  0  0  0
   49.4396   56.6690   27.9960 C   0  0  0  0  0  0  0  0  0  0  0  0
   47.7325   57.1438   28.3856 S   0  0  2  0  0  0  0  0  0  0  0  0
   47.2367   57.9621   26.8495 C   0  0  0  0  0  0  0  0  0  0  0  0
   48.0300   58.5825   29.4465 C   0  0  0  0  0  0  0  0  0  0  0  0
   46.7421   58.9725   30.1563 C   0  0  1  0  0  0  0  0  0  0  0  0
   46.1856   57.8124   30.7263 O   0  0  0  0  0  0  0  0  0  0  0  0
   46.9274   59.9294   31.3167 C   0  0  1  0  0  0  0  0  0  0  0  0
   46.6743   61.2507   30.9055 O   0  0  0  0  0  0  0  0  0  0  0  0
   45.8905   59.4713   32.3262 C   0  0  1  0  0  0  0  0  0  0  0  0
   44.8099   60.3740   32.3239 O   0  0  0  0  0  0  0  0  0  0  0  0
   45.4192   58.0966   31.8688 C   0  0  2  0  0  0  0  0  0  0  0  0
   51.3195   53.5615   29.3847 O   0  0  0  0  0  0  0  0  0  0  0  0
   49.2315   55.7098   34.5989 N   0  0  0  0  0  0  0  0  0  0  0  0
   49.3559   56.6728   33.6180 C   0  0  0  0  0  0  0  0  0  0  0  0
   48.2328   57.1924   33.0007 N   0  0  0  0  0  0  0  0  0  0  0  0
   46.9995   56.7595   33.3427 C   0  0  0  0  0  0  0  0  0  0  0  0
   46.8505   55.7977   34.3309 C   0  0  0  0  0  0  0  0  0  0  0  0
   47.9754   55.2680   34.9575 C   0  0  0  0  0  0  0  0  0  0  0  0
   47.8521   54.3398   35.9027 N   0  0  0  0  0  0  0  0  0  0  0  0
   45.5274   55.5628   34.4778 N   0  0  0  0  0  0  0  0  0  0  0  0
   44.8444   56.3589   33.6220 C   0  0  0  0  0  0  0  0  0  0  0  0
   45.7448   57.1076   32.9102 N   0  0  0  0  0  0  0  0  0  0  0  0
  2  1  1  1  0  0  0
  2  3  1  0  0  0  0
  2  5  1  0  0  0  0
  3  4  1  0  0  0  0
  3 17  1  0  0  0  0
  5  6  1  0  0  0  0
  7  6  1  6  0  0  0
  7  8  1  0  0  0  0
  7  9  1  0  0  0  0
 10  9  1  1  0  0  0
 10 11  1  0  0  0  0
 10 12  1  0  0  0  0
 11 16  1  0  0  0  0
 12 13  1  6  0  0  0
 12 14  1  0  0  0  0
 14 15  1  6  0  0  0
 14 16  1  0  0  0  0
 16 27  1  1  0  0  0
 18 19  2  0  0  0  0
 18 23  1  0  0  0  0
 19 20  1  0  0  0  0
 20 21  2  0  0  0  0
 21 22  1  0  0  0  0
 21 27  1  0  0  0  0
 22 23  2  0  0  0  0
 22 25  1  0  0  0  0
 23 24  1  0  0  0  0
 25 26  2  0  0  0  0
 26 27  1  0  0  0  0
M  END
>  <CHROM.1>
-29.77325311,62.30322169,-68.89674634,-89.77365751,-167.29342884,48.90148930
50.56989548,47.64028798,56.82579423,31.14827859,-0.68809170,-0.93840473,1.97627769

>  <Name>
ligand

>  <RI>
0

>  <Rbt.Current_Directory>
/home/itssahil/PROJECTS/Mol_Feturizer/New_Systems/rnas/3GX7

>  <Rbt.Executable>
rbdock ($Id: //depot/dev/client3/rdock/2013.1/src/exe/rbdock.cxx#4 $)

>  <Rbt.Library>
libRbt.so (2013.1, Build901 2013/11/27)

>  <Rbt.Parameter_File>
/export/apps/rDock/src/rDock_2013.1_src/data/scripts/dock_solv.prm

>  <Rbt.Receptor>
prm/pocket_docking_4.prm

>  <SCORE>
-18.0569

>  <SCORE.INTER>
-12.8369

>  <SCORE.INTER.CONST>
1

>  <SCORE.INTER.POLAR>
0

>  <SCORE.INTER.ROT>
7

>  <SCORE.INTER.SOLV>
12.7556

>  <SCORE.INTER.VDW>
-21.0765

>  <SCORE.INTER.norm>
-0.475441

>  <SCORE.INTRA>
-5.22389

>  <SCORE.INTRA.DIHEDRAL>
-4.9735

>  <SCORE.INTRA.DIHEDRAL.0>
11.2699

>  <SCORE.INTRA.POLAR>
0

>  <SCORE.INTRA.POLAR.0>
0

>  <SCORE.INTRA.REPUL>
0

>  <SCORE.INTRA.REPUL.0>
0

>  <SCORE.INTRA.SOLV>
1.28932

>  <SCORE.INTRA.SOLV.lig_0>
-48.6447

>  <SCORE.INTRA.VDW>
-3.3818

>  <SCORE.INTRA.VDW.0>
-0.0211724

>  <SCORE.INTRA.norm>
-0.193478

>  <SCORE.RESTR>
0.00390593

>  <SCORE.RESTR.CAVITY>
0.00390593

>  <SCORE.RESTR.norm>
0.000144664

>  <SCORE.SYSTEM>
0

>  <SCORE.SYSTEM.CONST>
0

>  <SCORE.SYSTEM.DIHEDRAL>
0

>  <SCORE.SYSTEM.SOLV>
0

>  <SCORE.SYSTEM.norm>
0

>  <SCORE.heavy>
27

>  <SCORE.norm>
-0.668774

>  <RMSD>
5.165

$$$$
ligand
 OpenBabel11021811483D
libRbt.so/2013.1/901 2013/11/27
 27 29  0  0  0  0  0  0  0  0999 V2000
   48.9030   53.4216   27.9506 N   0  0  0  0  0  0  0  0  0  0  0  0
   48.1966   54.2027   26.9425 C   0  0  2  0  0  0  0  0  0  0  0  0
   47.9349   53.3645   25.7021 C   0  0  0  0  0  0  0  0  0  0  0  0
   48.8054   52.6174   25.2618 O   0  0  0  0  0  0  0  0  0  0  0  0
   48.9573   55.4752   26.5725 C   0  0  0  0  0  0  0  0  0  0  0  0
   49.1393   56.4669   27.7153 C   0  0  0  0  0  0  0  0  0  0  0  0
   47.5921   57.1446   28.3772 S   0  0  2  0  0  0  0  0  0  0  0  0
   47.2276   58.4367   27.1637 C   0  0  0  0  0  0  0  0  0  0  0  0
   48.2349   58.1455   29.7443 C   0  0  0  0  0  0  0  0  0  0  0  0
   47.1334   59.0452   30.2845 C   0  0  1  0  0  0  0  0  0  0  0  0
   46.0049   58.2476   30.5501 O   0  0  0  0  0  0  0  0  0  0  0  0
   47.4586   59.7162   31.6038 C   0  0  1  0  0  0  0  0  0  0  0  0
   47.9222   61.0261   31.3845 O   0  0  0  0  0  0  0  0  0  0  0  0
   46.1281   59.7308   32.3344 C   0  0  1  0  0  0  0  0  0  0  0  0
   45.5960   61.0340   32.3037 O   0  0  0  0  0  0  0  0  0  0  0  0
   45.2098   58.7774   31.5799 C   0  0  2  0  0  0  0  0  0  0  0  0
   46.8491   53.4162   25.1234 O   0  0  0  0  0  0  0  0  0  0  0  0
   46.8488   54.9544   34.8020 N   0  0  0  0  0  0  0  0  0  0  0  0
   47.6111   55.8509   34.0807 C   0  0  0  0  0  0  0  0  0  0  0  0
   47.0039   56.7972   33.2756 N   0  0  0  0  0  0  0  0  0  0  0  0
   45.6574   56.8524   33.1773 C   0  0  0  0  0  0  0  0  0  0  0  0
   44.8716   55.9659   33.8987 C   0  0  0  0  0  0  0  0  0  0  0  0
   45.4740   55.0091   34.7113 C   0  0  0  0  0  0  0  0  0  0  0  0
   44.7364   54.1463   35.4053 N   0  0  0  0  0  0  0  0  0  0  0  0
   43.5784   56.2495   33.6260 N   0  0  0  0  0  0  0  0  0  0  0  0
   43.5317   57.2953   32.7676 C   0  0  0  0  0  0  0  0  0  0  0  0
   44.8148   57.6805   32.4796 N   0  0  0  0  0  0  0  0  0  0  0  0
  2  1  1  1  0  0  0
  2  3  1  0  0  0  0
  2  5  1  0  0  0  0
  3  4  1  0  0  0  0
  3 17  1  0  0  0  0
  5  6  1  0  0  0  0
  7  6  1  6  0  0  0
  7  8  1  0  0  0  0
  7  9  1  0  0  0  0
 10  9  1  1  0  0  0
 10 11  1  0  0  0  0
 10 12  1  0  0  0  0
 11 16  1  0  0  0  0
 12 13  1  6  0  0  0
 12 14  1  0  0  0  0
 14 15  1  6  0  0  0
 14 16  1  0  0  0  0
 16 27  1  1  0  0  0
 18 19  2  0  0  0  0
 18 23  1  0  0  0  0
 19 20  1  0  0  0  0
 20 21  2  0  0  0  0
 21 22  1  0  0  0  0
 21 27  1  0  0  0  0
 22 23  2  0  0  0  0
 22 25  1  0  0  0  0
 23 24  1  0  0  0  0
 25 26  2  0  0  0  0
 26 27  1  0  0  0  0
M  END
>  <CHROM.1>
-42.05900253,-62.86780813,-62.92513413,-80.79881159,168.50487554,51.16794459
58.99702062,46.79482292,56.75553792,30.48468671,0.46215758,-1.18926654,-3.03751908

>  <Name>
ligand

>  <RI>
0

>  <Rbt.Current_Directory>
/home/itssahil/PROJECTS/Mol_Feturizer/New_Systems/rnas/3GX7

>  <Rbt.Executable>
rbdock ($Id: //depot/dev/client3/rdock/2013.1/src/exe/rbdock.cxx#4 $)

>  <Rbt.Library>
libRbt.so (2013.1, Build901 2013/11/27)

>  <Rbt.Parameter_File>
/export/apps/rDock/src/rDock_2013.1_src/data/scripts/dock_solv.prm

>  <Rbt.Receptor>
prm/pocket_docking_5.prm

>  <SCORE>
-18.0529

>  <SCORE.INTER>
-11.7298

>  <SCORE.INTER.CONST>
1

>  <SCORE.INTER.POLAR>
0

>  <SCORE.INTER.ROT>
7

>  <SCORE.INTER.SOLV>
11.788

>  <SCORE.INTER.VDW>
-20.0158

>  <SCORE.INTER.norm>
-0.434435

>  <SCORE.INTRA>
-6.32318

>  <SCORE.INTRA.DIHEDRAL>
-7.30341

>  <SCORE.INTRA.DIHEDRAL.0>
11.2699

>  <SCORE.INTRA.POLAR>
0

>  <SCORE.INTRA.POLAR.0>
0

>  <SCORE.INTRA.REPUL>
0

>  <SCORE.INTRA.REPUL.0>
0

>  <SCORE.INTRA.SOLV>
0.136301

>  <SCORE.INTRA.SOLV.lig_0>
-48.6447

>  <SCORE.INTRA.VDW>
-2.73963

>  <SCORE.INTRA.VDW.0>
-0.0211724

>  <SCORE.INTRA.norm>
-0.234192

>  <SCORE.RESTR>
0

>  <SCORE.RESTR.CAVITY>
0

>  <SCORE.RESTR.norm>
0

>  <SCORE.SYSTEM>
0

>  <SCORE.SYSTEM.CONST>
0

>  <SCORE.SYSTEM.DIHEDRAL>
0

>  <SCORE.SYSTEM.SOLV>
0

>  <SCORE.SYSTEM.norm>
0

>  <SCORE.heavy>
27

>  <SCORE.norm>
-0.668627

>  <RMSD>
5.168

$$$$
ligand
 OpenBabel11021811483D
libRbt.so/2013.1/901 2013/11/27
 27 29  0  0  0  0  0  0  0  0999 V2000
   46.5439   55.9081   28.3453 N   0  0  0  0  0  0  0  0  0  0  0  0
   46.7244   57.0218   27.4219 C   0  0  2  0  0  0  0  0  0  0  0  0
   47.6956   56.6471   26.3145 C   0  0  0  0  0  0  0  0  0  0  0  0
   48.8670   56.3856   26.5775 O   0  0  0  0  0  0  0  0  0  0  0  0
   47.1988   58.2847   28.1393 C   0  0  0  0  0  0  0  0  0  0  0  0
   46.3041   58.7443   29.2843 C   0  0  0  0  0  0  0  0  0  0  0  0
   46.5825   57.8752   30.8523 S   0  0  2  0  0  0  0  0  0  0  0  0
   45.6612   58.9246   32.0034 C   0  0  0  0  0  0  0  0  0  0  0  0
   48.2799   58.3959   31.2150 C   0  0  0  0  0  0  0  0  0  0  0  0
   49.1785   57.1738   31.3307 C   0  0  1  0  0  0  0  0  0  0  0  0
   48.9700   56.5929   32.5954 O   0  0  0  0  0  0  0  0  0  0  0  0
   48.8728   56.0710   30.3374 C   0  0  1  0  0  0  0  0  0  0  0  0
   49.7398   56.1543   29.2327 O   0  0  0  0  0  0  0  0  0  0  0  0
   49.1264   54.7993   31.1266 C   0  0  1  0  0  0  0  0  0  0  0  0
   50.3478   54.2329   30.7143 O   0  0  0  0  0  0  0  0  0  0  0  0
   49.2129   55.2093   32.5915 C   0  0  2  0  0  0  0  0  0  0  0  0
   47.3249   56.5950   25.1414 O   0  0  0  0  0  0  0  0  0  0  0  0
   47.3328   53.9049   37.3294 N   0  0  0  0  0  0  0  0  0  0  0  0
   48.4863   54.6005   37.0283 C   0  0  0  0  0  0  0  0  0  0  0  0
   48.8275   54.8542   35.7125 N   0  0  0  0  0  0  0  0  0  0  0  0
   48.0418   54.4182   34.7035 C   0  0  0  0  0  0  0  0  0  0  0  0
   46.8743   53.7235   34.9830 C   0  0  0  0  0  0  0  0  0  0  0  0
   46.5230   53.4625   36.3048 C   0  0  0  0  0  0  0  0  0  0  0  0
   45.4103   52.7918   36.5916 N   0  0  0  0  0  0  0  0  0  0  0  0
   46.2846   53.4226   33.8045 N   0  0  0  0  0  0  0  0  0  0  0  0
   47.0402   53.9206   32.7977 C   0  0  0  0  0  0  0  0  0  0  0  0
   48.1348   54.5414   33.3402 N   0  0  0  0  0  0  0  0  0  0  0  0
  2  1  1  1  0  0  0
  2  3  1  0  0  0  0
  2  5  1  0  0  0  0
  3  4  1  0  0  0  0
  3 17  1  0  0  0  0
  5  6  1  0  0  0  0
  7  6  1  6  0  0  0
  7  8  1  0  0  0  0
  7  9  1  0  0  0  0
 10  9  1  6  0  0  0
 10 11  1  0  0  0  0
 10 12  1  0  0  0  0
 11 16  1  0  0  0  0
 12 13  1  6  0  0  0
 12 14  1  0  0  0  0
 14 15  1  6  0  0  0
 14 16  1  0  0  0  0
 16 27  1  1  0  0  0
 18 19  2  0  0  0  0
 18 23  1  0  0  0  0
 19 20  1  0  0  0  0
 20 21  2  0  0  0  0
 21 22  1  0  0  0  0
 21 27  1  0  0  0  0
 22 23  2  0  0  0  0
 22 25  1  0  0  0  0
 23 24  1  0  0  0  0
 25 26  2  0  0  0  0
 26 27  1  0  0  0  0
M  END
>  <CHROM.1>
-63.65774663,-55.71464052,81.88341695,167.40960192,-121.27299879,-78.18568293
-81.24510484,47.73402765,55.87758173,31.53906908,1.52448232,0.80258202,-1.16649531

>  <Name>
ligand

>  <RI>
0

>  <Rbt.Current_Directory>
/home/itssahil/PROJECTS/Mol_Feturizer/New_Systems/rnas/3GX7

>  <Rbt.Executable>
rbdock ($Id: //depot/dev/client3/rdock/2013.1/src/exe/rbdock.cxx#4 $)

>  <Rbt.Library>
libRbt.so (2013.1, Build901 2013/11/27)

>  <Rbt.Parameter_File>
/export/apps/rDock/src/rDock_2013.1_src/data/scripts/dock_solv.prm

>  <Rbt.Receptor>
prm/pocket_docking_3.prm

>  <SCORE>
-13.5967

>  <SCORE.INTER>
-12.1688

>  <SCORE.INTER.CONST>
1

>  <SCORE.INTER.POLAR>
0

>  <SCORE.INTER.ROT>
7

>  <SCORE.INTER.SOLV>
12.8142

>  <SCORE.INTER.VDW>
-20.6506

>  <SCORE.INTER.norm>
-0.450696

>  <SCORE.INTRA>
-1.47147

>  <SCORE.INTRA.DIHEDRAL>
-1.06903

>  <SCORE.INTRA.DIHEDRAL.0>
11.2699

>  <SCORE.INTRA.POLAR>
0

>  <SCORE.INTRA.POLAR.0>
0

>  <SCORE.INTRA.REPUL>
0

>  <SCORE.INTRA.REPUL.0>
0

>  <SCORE.INTRA.SOLV>
3.97701

>  <SCORE.INTRA.SOLV.lig_0>
-48.6447

>  <SCORE.INTRA.VDW>
-2.92545

>  <SCORE.INTRA.VDW.0>
-0.0211724

>  <SCORE.INTRA.norm>
-0.0544988

>  <SCORE.RESTR>
0.0435862

>  <SCORE.RESTR.CAVITY>
0.0435862

>  <SCORE.RESTR.norm>
0.0016143

>  <SCORE.SYSTEM>
0

>  <SCORE.SYSTEM.CONST>
0

>  <SCORE.SYSTEM.DIHEDRAL>
0

>  <SCORE.SYSTEM.SOLV>
0

>  <SCORE.SYSTEM.norm>
0

>  <SCORE.heavy>
27

>  <SCORE.norm>
-0.50358

>  <RMSD>
5.172

$$$$
ligand
 OpenBabel11021811483D
libRbt.so/2013.1/901 2013/11/27
 27 29  0  0  0  0  0  0  0  0999 V2000
   45.4626   58.4358   31.5669 N   0  0  0  0  0  0  0  0  0  0  0  0
   46.1373   57.8945   30.3933 C   0  0  2  0  0  0  0  0  0  0  0  0
   45.1644   57.1059   29.5325 C   0  0  0  0  0  0  0  0  0  0  0  0
   45.5550   56.5348   28.5170 O   0  0  0  0  0  0  0  0  0  0  0  0
   47.3337   57.0242   30.7757 C   0  0  0  0  0  0  0  0  0  0  0  0
   48.4616   57.7634   31.4857 C   0  0  0  0  0  0  0  0  0  0  0  0
   48.1388   58.1291   33.2331 S   0  0  2  0  0  0  0  0  0  0  0  0
   49.5507   59.1867   33.6367 C   0  0  0  0  0  0  0  0  0  0  0  0
   48.6643   56.5703   33.9932 C   0  0  0  0  0  0  0  0  0  0  0  0
   47.4438   55.7313   34.3411 C   0  0  1  0  0  0  0  0  0  0  0  0
   46.5714   55.7453   33.2370 O   0  0  0  0  0  0  0  0  0  0  0  0
   47.7374   54.2656   34.5904 C   0  0  1  0  0  0  0  0  0  0  0  0
   47.8507   54.0180   35.9705 O   0  0  0  0  0  0  0  0  0  0  0  0
   46.5259   53.5558   34.0135 C   0  0  1  0  0  0  0  0  0  0  0  0
   45.6993   53.1184   35.0660 O   0  0  0  0  0  0  0  0  0  0  0  0
   45.7862   54.5827   33.1651 C   0  0  2  0  0  0  0  0  0  0  0  0
   43.9748   57.0225   29.8397 O   0  0  0  0  0  0  0  0  0  0  0  0
   48.5006   52.3792   29.2331 N   0  0  0  0  0  0  0  0  0  0  0  0
   48.9307   52.6703   30.5118 C   0  0  0  0  0  0  0  0  0  0  0  0
   48.0714   53.2568   31.4229 N   0  0  0  0  0  0  0  0  0  0  0  0
   46.8024   53.5604   31.0722 C   0  0  0  0  0  0  0  0  0  0  0  0
   46.3467   53.2702   29.7948 C   0  0  0  0  0  0  0  0  0  0  0  0
   47.2048   52.6805   28.8703 C   0  0  0  0  0  0  0  0  0  0  0  0
   46.7871   52.4011   27.6384 N   0  0  0  0  0  0  0  0  0  0  0  0
   45.0554   53.6629   29.7215 N   0  0  0  0  0  0  0  0  0  0  0  0
   44.6859   54.1763   30.9184 C   0  0  0  0  0  0  0  0  0  0  0  0
   45.7601   54.1197   31.7673 N   0  0  0  0  0  0  0  0  0  0  0  0
  2  1  1  1  0  0  0
  2  3  1  0  0  0  0
  2  5  1  0  0  0  0
  3  4  1  0  0  0  0
  3 17  1  0  0  0  0
  5  6  1  0  0  0  0
  7  6  1  6  0  0  0
  7  8  1  0  0  0  0
  7  9  1  0  0  0  0
 10  9  1  6  0  0  0
 10 11  1  0  0  0  0
 10 12  1  0  0  0  0
 11 16  1  0  0  0  0
 12 13  1  1  0  0  0
 12 14  1  0  0  0  0
 14 15  1  1  0  0  0
 14 16  1  0  0  0  0
 16 27  1  6  0  0  0
 18 19  2  0  0  0  0
 18 23  1  0  0  0  0
 19 20  1  0  0  0  0
 20 21  2  0  0  0  0
 21 22  1  0  0  0  0
 21 27  1  0  0  0  0
 22 23  2  0  0  0  0
 22 25  1  0  0  0  0
 23 24  1  0  0  0  0
 25 26  2  0  0  0  0
 26 27  1  0  0  0  0
M  END
>  <CHROM.1>
-177.70578617,-64.03088007,76.89963668,-172.19093065,-101.92348274,45.83902574
70.74095532,46.87824596,55.33277966,31.76834106,0.57975182,-1.25216856,-0.01630243

>  <Name>
ligand

>  <RI>
0

>  <Rbt.Current_Directory>
/home/itssahil/PROJECTS/Mol_Feturizer/New_Systems/rnas/3GX7

>  <Rbt.Executable>
rbdock ($Id: //depot/dev/client3/rdock/2013.1/src/exe/rbdock.cxx#4 $)

>  <Rbt.Library>
libRbt.so (2013.1, Build901 2013/11/27)

>  <Rbt.Parameter_File>
/export/apps/rDock/src/rDock_2013.1_src/data/scripts/dock_solv.prm

>  <Rbt.Receptor>
prm/pocket_docking_4.prm

>  <SCORE>
-15.0461

>  <SCORE.INTER>
-9.40344

>  <SCORE.INTER.CONST>
1

>  <SCORE.INTER.POLAR>
0

>  <SCORE.INTER.ROT>
7

>  <SCORE.INTER.SOLV>
12.5682

>  <SCORE.INTER.VDW>
-18.725

>  <SCORE.INTER.norm>
-0.348275

>  <SCORE.INTRA>
-5.64265

>  <SCORE.INTRA.DIHEDRAL>
-3.02141

>  <SCORE.INTRA.DIHEDRAL.0>
11.2699

>  <SCORE.INTRA.POLAR>
0

>  <SCORE.INTRA.POLAR.0>
0

>  <SCORE.INTRA.REPUL>
0

>  <SCORE.INTRA.REPUL.0>
0

>  <SCORE.INTRA.SOLV>
2.29182

>  <SCORE.INTRA.SOLV.lig_0>
-48.6447

>  <SCORE.INTRA.VDW>
-5.27785

>  <SCORE.INTRA.VDW.0>
-0.0211724

>  <SCORE.INTRA.norm>
-0.208987

>  <SCORE.RESTR>
0

>  <SCORE.RESTR.CAVITY>
0

>  <SCORE.RESTR.norm>
0

>  <SCORE.SYSTEM>
0

>  <SCORE.SYSTEM.CONST>
0

>  <SCORE.SYSTEM.DIHEDRAL>
0

>  <SCORE.SYSTEM.SOLV>
0

>  <SCORE.SYSTEM.norm>
0

>  <SCORE.heavy>
27

>  <SCORE.norm>
-0.557262

>  <RMSD>
5.176

$$$$
ligand
 OpenBabel11021811483D
libRbt.so/2013.1/901 2013/11/27
 27 29  0  0  0  0  0  0  0  0999 V2000
   49.6474   53.7149   30.6379 N   0  0  0  0  0  0  0  0  0  0  0  0
   49.0506   54.4850   29.5534 C   0  0  2  0  0  0  0  0  0  0  0  0
   48.8434   53.6113   28.3273 C   0  0  0  0  0  0  0  0  0  0  0  0
   49.6786   52.7641   28.0195 O   0  0  0  0  0  0  0  0  0  0  0  0
   49.8907   55.7104   29.1963 C   0  0  0  0  0  0  0  0  0  0  0  0
   49.2811   56.6162   28.1329 C   0  0  0  0  0  0  0  0  0  0  0  0
   47.6245   57.2379   28.5337 S   0  0  2  0  0  0  0  0  0  0  0  0
   47.2718   58.2581   27.0812 C   0  0  0  0  0  0  0  0  0  0  0  0
   48.0430   58.5190   29.7450 C   0  0  0  0  0  0  0  0  0  0  0  0
   46.7696   59.1657   30.2695 C   0  0  1  0  0  0  0  0  0  0  0  0
   45.9091   58.1449   30.7141 O   0  0  0  0  0  0  0  0  0  0  0  0
   46.9692   60.0629   31.4744 C   0  0  1  0  0  0  0  0  0  0  0  0
   47.0555   61.4084   31.0726 O   0  0  0  0  0  0  0  0  0  0  0  0
   45.7207   59.8278   32.3051 C   0  0  1  0  0  0  0  0  0  0  0  0
   44.8597   60.9340   32.1725 O   0  0  0  0  0  0  0  0  0  0  0  0
   45.0535   58.5802   31.7398 C   0  0  2  0  0  0  0  0  0  0  0  0
   47.8373   53.7341   27.6279 O   0  0  0  0  0  0  0  0  0  0  0  0
   47.6224   54.6533   34.1199 N   0  0  0  0  0  0  0  0  0  0  0  0
   48.0548   55.4535   33.0818 C   0  0  0  0  0  0  0  0  0  0  0  0
   47.2364   56.4467   32.5757 N   0  0  0  0  0  0  0  0  0  0  0  0
   46.0000   56.6424   33.0841 C   0  0  0  0  0  0  0  0  0  0  0  0
   45.5475   55.8547   34.1323 C   0  0  0  0  0  0  0  0  0  0  0  0
   46.3641   54.8517   34.6478 C   0  0  0  0  0  0  0  0  0  0  0  0
   45.9442   54.0820   35.6486 N   0  0  0  0  0  0  0  0  0  0  0  0
   44.3001   56.2693   34.4474 N   0  0  0  0  0  0  0  0  0  0  0  0
   43.9648   57.3014   33.6380 C   0  0  0  0  0  0  0  0  0  0  0  0
   45.0101   57.5445   32.7859 N   0  0  0  0  0  0  0  0  0  0  0  0
  2  1  1  1  0  0  0
  2  3  1  0  0  0  0
  2  5  1  0  0  0  0
  3  4  1  0  0  0  0
  3 17  1  0  0  0  0
  5  6  1  0  0  0  0
  7  6  1  6  0  0  0
  7  8  1  0  0  0  0
  7  9  1  0  0  0  0
 10  9  1  1  0  0  0
 10 11  1  0  0  0  0
 10 12  1  0  0  0  0
 11 16  1  0  0  0  0
 12 13  1  6  0  0  0
 12 14  1  0  0  0  0
 14 15  1  6  0  0  0
 14 16  1  0  0  0  0
 16 27  1  1  0  0  0
 18 19  2  0  0  0  0
 18 23  1  0  0  0  0
 19 20  1  0  0  0  0
 20 21  2  0  0  0  0
 21 22  1  0  0  0  0
 21 27  1  0  0  0  0
 22 23  2  0  0  0  0
 22 25  1  0  0  0  0
 23 24  1  0  0  0  0
 25 26  2  0  0  0  0
 26 27  1  0  0  0  0
M  END
>  <CHROM.1>
-38.22414383,-176.08345774,56.74179531,179.27662185,-178.16082369,52.17414346
27.70177924,47.07150538,56.79309264,31.06972736,-0.04281427,-1.02377319,2.50128244

>  <Name>
ligand

>  <RI>
0

>  <Rbt.Current_Directory>
/home/itssahil/PROJECTS/Mol_Feturizer/New_Systems/rnas/3GX7

>  <Rbt.Executable>
rbdock ($Id: //depot/dev/client3/rdock/2013.1/src/exe/rbdock.cxx#4 $)

>  <Rbt.Library>
libRbt.so (2013.1, Build901 2013/11/27)

>  <Rbt.Parameter_File>
/export/apps/rDock/src/rDock_2013.1_src/data/scripts/dock_solv.prm

>  <Rbt.Receptor>
prm/pocket_docking_4.prm

>  <SCORE>
-18.0885

>  <SCORE.INTER>
-10.3566

>  <SCORE.INTER.CONST>
1

>  <SCORE.INTER.POLAR>
0

>  <SCORE.INTER.ROT>
7

>  <SCORE.INTER.SOLV>
16.622

>  <SCORE.INTER.VDW>
-20.7117

>  <SCORE.INTER.norm>
-0.383578

>  <SCORE.INTRA>
-7.73187

>  <SCORE.INTRA.DIHEDRAL>
-7.31948

>  <SCORE.INTRA.DIHEDRAL.0>
11.2699

>  <SCORE.INTRA.POLAR>
0

>  <SCORE.INTRA.POLAR.0>
0

>  <SCORE.INTRA.REPUL>
0

>  <SCORE.INTRA.REPUL.0>
0

>  <SCORE.INTRA.SOLV>
-0.528511

>  <SCORE.INTRA.SOLV.lig_0>
-48.6447

>  <SCORE.INTRA.VDW>
-3.80788

>  <SCORE.INTRA.VDW.0>
-0.0211724

>  <SCORE.INTRA.norm>
-0.286366

>  <SCORE.RESTR>
0

>  <SCORE.RESTR.CAVITY>
0

>  <SCORE.RESTR.norm>
0

>  <SCORE.SYSTEM>
0

>  <SCORE.SYSTEM.CONST>
0

>  <SCORE.SYSTEM.DIHEDRAL>
0

>  <SCORE.SYSTEM.SOLV>
0

>  <SCORE.SYSTEM.norm>
0

>  <SCORE.heavy>
27

>  <SCORE.norm>
-0.669943

>  <RMSD>
5.180

$$$$
ligand
 OpenBabel11021811483D
libRbt.so/2013.1/901 2013/11/27
 27 29  0  0  0  0  0  0  0  0999 V2000
   48.7707   53.4903   27.8438 N   0  0  0  0  0  0  0  0  0  0  0  0
   48.2514   54.4015   26.8311 C   0  0  2  0  0  0  0  0  0  0  0  0
   48.1132   53.6930   25.4937 C   0  0  0  0  0  0  0  0  0  0  0  0
   47.6434   54.2829   24.5236 O   0  0  0  0  0  0  0  0  0  0  0  0
   49.1245   55.6468   26.6846 C   0  0  0  0  0  0  0  0  0  0  0  0
   49.1796   56.5385   27.9193 C   0  0  0  0  0  0  0  0  0  0  0  0
   47.5705   57.1839   28.4539 S   0  0  2  0  0  0  0  0  0  0  0  0
   47.2129   58.3706   27.1352 C   0  0  0  0  0  0  0  0  0  0  0  0
   48.0943   58.3061   29.7767 C   0  0  0  0  0  0  0  0  0  0  0  0
   46.8977   59.0978   30.2827 C   0  0  1  0  0  0  0  0  0  0  0  0
   45.8700   58.1889   30.5960 O   0  0  0  0  0  0  0  0  0  0  0  0
   47.1471   59.8652   31.5654 C   0  0  1  0  0  0  0  0  0  0  0  0
   47.4551   61.2077   31.2795 O   0  0  0  0  0  0  0  0  0  0  0  0
   45.8260   59.7615   32.3060 C   0  0  1  0  0  0  0  0  0  0  0  0
   45.1464   60.9915   32.2175 O   0  0  0  0  0  0  0  0  0  0  0  0
   45.0221   58.6728   31.6061 C   0  0  2  0  0  0  0  0  0  0  0  0
   48.4728   52.5229   25.3596 O   0  0  0  0  0  0  0  0  0  0  0  0
   47.1158   55.0341   34.7779 N   0  0  0  0  0  0  0  0  0  0  0  0
   47.7688   55.9486   33.9764 C   0  0  0  0  0  0  0  0  0  0  0  0
   47.0494   56.8385   33.2000 N   0  0  0  0  0  0  0  0  0  0  0  0
   45.6984   56.8201   33.2085 C   0  0  0  0  0  0  0  0  0  0  0  0
   45.0214   55.9145   34.0118 C   0  0  0  0  0  0  0  0  0  0  0  0
   45.7372   55.0141   34.7964 C   0  0  0  0  0  0  0  0  0  0  0  0
   45.1047   54.1338   35.5679 N   0  0  0  0  0  0  0  0  0  0  0  0
   43.6972   56.1219   33.8368 N   0  0  0  0  0  0  0  0  0  0  0  0
   43.5260   57.1390   32.9599 C   0  0  0  0  0  0  0  0  0  0  0  0
   44.7596   57.5827   32.5608 N   0  0  0  0  0  0  0  0  0  0  0  0
  2  1  1  1  0  0  0
  2  3  1  0  0  0  0
  2  5  1  0  0  0  0
  3  4  1  0  0  0  0
  3 17  1  0  0  0  0
  5  6  1  0  0  0  0
  7  6  1  6  0  0  0
  7  8  1  0  0  0  0
  7  9  1  0  0  0  0
 10  9  1  1  0  0  0
 10 11  1  0  0  0  0
 10 12  1  0  0  0  0
 11 16  1  0  0  0  0
 12 13  1  6  0  0  0
 12 14  1  0  0  0  0
 14 15  1  6  0  0  0
 14 16  1  0  0  0  0
 16 27  1  1  0  0  0
 18 19  2  0  0  0  0
 18 23  1  0  0  0  0
 19 20  1  0  0  0  0
 20 21  2  0  0  0  0
 21 22  1  0  0  0  0
 21 27  1  0  0  0  0
 22 23  2  0  0  0  0
 22 25  1  0  0  0  0
 23 24  1  0  0  0  0
 25 26  2  0  0  0  0
 26 27  1  0  0  0  0
M  END
>  <CHROM.1>
177.30486724,-64.22180420,-59.49023901,-70.75288009,173.57743150,51.71321717
53.32459174,46.78404219,56.82071316,30.48301830,0.15935159,-1.21560367,2.96676560

>  <Name>
ligand

>  <RI>
0

>  <Rbt.Current_Directory>
/home/itssahil/PROJECTS/Mol_Feturizer/New_Systems/rnas/3GX7

>  <Rbt.Executable>
rbdock ($Id: //depot/dev/client3/rdock/2013.1/src/exe/rbdock.cxx#4 $)

>  <Rbt.Library>
libRbt.so (2013.1, Build901 2013/11/27)

>  <Rbt.Parameter_File>
/export/apps/rDock/src/rDock_2013.1_src/data/scripts/dock_solv.prm

>  <Rbt.Receptor>
prm/pocket_docking_6.prm

>  <SCORE>
-17.9011

>  <SCORE.INTER>
-11.4929

>  <SCORE.INTER.CONST>
1

>  <SCORE.INTER.POLAR>
0

>  <SCORE.INTER.ROT>
7

>  <SCORE.INTER.SOLV>
12.5148

>  <SCORE.INTER.VDW>
-20.1002

>  <SCORE.INTER.norm>
-0.425662

>  <SCORE.INTRA>
-6.40822

>  <SCORE.INTRA.DIHEDRAL>
-7.77453

>  <SCORE.INTRA.DIHEDRAL.0>
11.2699

>  <SCORE.INTRA.POLAR>
0

>  <SCORE.INTRA.POLAR.0>
0

>  <SCORE.INTRA.REPUL>
0

>  <SCORE.INTRA.REPUL.0>
0

>  <SCORE.INTRA.SOLV>
0.161399

>  <SCORE.INTRA.SOLV.lig_0>
-48.6447

>  <SCORE.INTRA.VDW>
-2.60166

>  <SCORE.INTRA.VDW.0>
-0.0211724

>  <SCORE.INTRA.norm>
-0.237342

>  <SCORE.RESTR>
0

>  <SCORE.RESTR.CAVITY>
0

>  <SCORE.RESTR.norm>
0

>  <SCORE.SYSTEM>
0

>  <SCORE.SYSTEM.CONST>
0

>  <SCORE.SYSTEM.DIHEDRAL>
0

>  <SCORE.SYSTEM.SOLV>
0

>  <SCORE.SYSTEM.norm>
0

>  <SCORE.heavy>
27

>  <SCORE.norm>
-0.663004

>  <RMSD>
5.184

$$$$
ligand
 OpenBabel11021811483D
libRbt.so/2013.1/901 2013/11/27
 27 29  0  0  0  0  0  0  0  0999 V2000
   47.7060   53.6084   30.1099 N   0  0  0  0  0  0  0  0  0  0  0  0
   48.9452   54.2093   30.5882 C   0  0  2  0  0  0  0  0  0  0  0  0
   50.0250   54.1308   29.5216 C   0  0  0  0  0  0  0  0  0  0  0  0
   50.8474   55.0359   29.4020 O   0  0  0  0  0  0  0  0  0  0  0  0
   49.4301   53.5593   31.8833 C   0  0  0  0  0  0  0  0  0  0  0  0
   48.4909   53.7238   33.0723 C   0  0  0  0  0  0  0  0  0  0  0  0
   48.3243   55.4288   33.6694 S   0  0  2  0  0  0  0  0  0  0  0  0
   48.6474   55.2146   35.4370 C   0  0  0  0  0  0  0  0  0  0  0  0
   46.5197   55.5940   33.6798 C   0  0  0  0  0  0  0  0  0  0  0  0
   46.1291   56.9914   33.2224 C   0  0  1  0  0  0  0  0  0  0  0  0
   46.7510   57.2387   31.9845 O   0  0  0  0  0  0  0  0  0  0  0  0
   44.6479   57.1775   32.9613 C   0  0  1  0  0  0  0  0  0  0  0  0
   44.0246   57.7623   34.0787 O   0  0  0  0  0  0  0  0  0  0  0  0
   44.6109   58.1180   31.7703 C   0  0  1  0  0  0  0  0  0  0  0  0
   44.2496   59.4067   32.2074 O   0  0  0  0  0  0  0  0  0  0  0  0
   46.0211   58.1418   31.1939 C   0  0  2  0  0  0  0  0  0  0  0  0
   50.0960   53.1609   28.7662 O   0  0  0  0  0  0  0  0  0  0  0  0
   48.8266   56.5741   27.0280 N   0  0  0  0  0  0  0  0  0  0  0  0
   49.2864   57.0200   28.2506 C   0  0  0  0  0  0  0  0  0  0  0  0
   48.3953   57.3957   29.2390 N   0  0  0  0  0  0  0  0  0  0  0  0
   47.0633   57.3395   29.0196 C   0  0  0  0  0  0  0  0  0  0  0  0
   46.5788   56.8877   27.8010 C   0  0  0  0  0  0  0  0  0  0  0  0
   47.4684   56.5081   26.7994 C   0  0  0  0  0  0  0  0  0  0  0  0
   47.0219   56.0787   25.6219 N   0  0  0  0  0  0  0  0  0  0  0  0
   45.2287   56.9228   27.8585 N   0  0  0  0  0  0  0  0  0  0  0  0
   44.8546   57.3688   29.0808 C   0  0  0  0  0  0  0  0  0  0  0  0
   45.9827   57.6319   29.8129 N   0  0  0  0  0  0  0  0  0  0  0  0
  2  1  1  6  0  0  0
  2  3  1  0  0  0  0
  2  5  1  0  0  0  0
  3  4  1  0  0  0  0
  3 17  1  0  0  0  0
  5  6  1  0  0  0  0
  7  6  1  6  0  0  0
  7  8  1  0  0  0  0
  7  9  1  0  0  0  0
 10  9  1  6  0  0  0
 10 11  1  0  0  0  0
 10 12  1  0  0  0  0
 11 16  1  0  0  0  0
 12 13  1  1  0  0  0
 12 14  1  0  0  0  0
 14 15  1  1  0  0  0
 14 16  1  0  0  0  0
 16 27  1  6  0  0  0
 18 19  2  0  0  0  0
 18 23  1  0  0  0  0
 19 20  1  0  0  0  0
 20 21  2  0  0  0  0
 21 22  1  0  0  0  0
 21 27  1  0  0  0  0
 22 23  2  0  0  0  0
 22 25  1  0  0  0  0
 23 24  1  0  0  0  0
 25 26  2  0  0  0  0
 26 27  1  0  0  0  0
M  END
>  <CHROM.1>
145.12916677,-63.20814458,-66.89367579,-128.75520589,-141.76577113,53.27663025
-57.36748474,47.32306755,56.17970068,30.74588020,-0.98793073,-0.69277224
1.72242077

>  <Name>
ligand

>  <RI>
0

>  <Rbt.Current_Directory>
/home/itssahil/PROJECTS/Mol_Feturizer/New_Systems/rnas/3GX7

>  <Rbt.Executable>
rbdock ($Id: //depot/dev/client3/rdock/2013.1/src/exe/rbdock.cxx#4 $)

>  <Rbt.Library>
libRbt.so (2013.1, Build901 2013/11/27)

>  <Rbt.Parameter_File>
/export/apps/rDock/src/rDock_2013.1_src/data/scripts/dock_solv.prm

>  <Rbt.Receptor>
prm/pocket_docking_4.prm

>  <SCORE>
-13.3132

>  <SCORE.INTER>
-10.0939

>  <SCORE.INTER.CONST>
1

>  <SCORE.INTER.POLAR>
0

>  <SCORE.INTER.ROT>
7

>  <SCORE.INTER.SOLV>
14.6642

>  <SCORE.INTER.VDW>
-19.884

>  <SCORE.INTER.norm>
-0.373849

>  <SCORE.INTRA>
-3.21933

>  <SCORE.INTRA.DIHEDRAL>
0.422486

>  <SCORE.INTRA.DIHEDRAL.0>
11.2699

>  <SCORE.INTRA.POLAR>
0

>  <SCORE.INTRA.POLAR.0>
0

>  <SCORE.INTRA.REPUL>
0

>  <SCORE.INTRA.REPUL.0>
0

>  <SCORE.INTRA.SOLV>
0.56657

>  <SCORE.INTRA.SOLV.lig_0>
-48.6447

>  <SCORE.INTRA.VDW>
-3.71386

>  <SCORE.INTRA.VDW.0>
-0.0211724

>  <SCORE.INTRA.norm>
-0.119234

>  <SCORE.RESTR>
0

>  <SCORE.RESTR.CAVITY>
0

>  <SCORE.RESTR.norm>
0

>  <SCORE.SYSTEM>
0

>  <SCORE.SYSTEM.CONST>
0

>  <SCORE.SYSTEM.DIHEDRAL>
0

>  <SCORE.SYSTEM.SOLV>
0

>  <SCORE.SYSTEM.norm>
0

>  <SCORE.heavy>
27

>  <SCORE.norm>
-0.493083

>  <RMSD>
5.188

$$$$
ligand
 OpenBabel11021811483D
libRbt.so/2013.1/901 2013/11/27
 27 29  0  0  0  0  0  0  0  0999 V2000
   45.9823   54.6306   28.7715 N   0  0  0  0  0  0  0  0  0  0  0  0
   46.1545   53.7026   29.8827 C   0  0  2  0  0  0  0  0  0  0  0  0
   47.2380   52.6847   29.5671 C   0  0  0  0  0  0  0  0  0  0  0  0
   47.5500   52.4501   28.4020 O   0  0  0  0  0  0  0  0  0  0  0  0
   44.8486   52.9943   30.2401 C   0  0  0  0  0  0  0  0  0  0  0  0
   43.9362   53.7715   31.1815 C   0  0  0  0  0  0  0  0  0  0  0  0
   44.7065   54.2475   32.7535 S   0  0  2  0  0  0  0  0  0  0  0  0
   43.2514   54.6663   33.7446 C   0  0  0  0  0  0  0  0  0  0  0  0
   45.3082   55.9039   32.3316 C   0  0  0  0  0  0  0  0  0  0  0  0
   46.6681   56.1355   32.9733 C   0  0  1  0  0  0  0  0  0  0  0  0
   47.5112   55.0674   32.6144 O   0  0  0  0  0  0  0  0  0  0  0  0
   47.3868   57.3806   32.4941 C   0  0  1  0  0  0  0  0  0  0  0  0
   47.1842   58.4398   33.3974 O   0  0  0  0  0  0  0  0  0  0  0  0
   48.8462   56.9637   32.4712 C   0  0  1  0  0  0  0  0  0  0  0  0
   49.5097   57.5358   33.5735 O   0  0  0  0  0  0  0  0  0  0  0  0
   48.8641   55.4446   32.5860 C   0  0  2  0  0  0  0  0  0  0  0  0
   47.8219   52.0846   30.4701 O   0  0  0  0  0  0  0  0  0  0  0  0
   49.8070   56.0818   27.4490 N   0  0  0  0  0  0  0  0  0  0  0  0
   49.1251   56.9232   28.3046 C   0  0  0  0  0  0  0  0  0  0  0  0
   48.9714   56.5909   29.6381 N   0  0  0  0  0  0  0  0  0  0  0  0
   49.4789   55.4353   30.1203 C   0  0  0  0  0  0  0  0  0  0  0  0
   50.1740   54.5781   29.2800 C   0  0  0  0  0  0  0  0  0  0  0  0
   50.3331   54.9038   27.9357 C   0  0  0  0  0  0  0  0  0  0  0  0
   50.9911   54.0906   27.1135 N   0  0  0  0  0  0  0  0  0  0  0  0
   50.5761   53.5188   30.0171 N   0  0  0  0  0  0  0  0  0  0  0  0
   50.1661   53.6946   31.2953 C   0  0  0  0  0  0  0  0  0  0  0  0
   49.4833   54.8800   31.3749 N   0  0  0  0  0  0  0  0  0  0  0  0
  2  1  1  6  0  0  0
  2  3  1  0  0  0  0
  2  5  1  0  0  0  0
  3  4  1  0  0  0  0
  3 17  1  0  0  0  0
  5  6  1  0  0  0  0
  7  6  1  6  0  0  0
  7  8  1  0  0  0  0
  7  9  1  0  0  0  0
 10  9  1  6  0  0  0
 10 11  1  0  0  0  0
 10 12  1  0  0  0  0
 11 16  1  0  0  0  0
 12 13  1  1  0  0  0
 12 14  1  0  0  0  0
 14 15  1  1  0  0  0
 14 16  1  0  0  0  0
 16 27  1  6  0  0  0
 18 19  2  0  0  0  0
 18 23  1  0  0  0  0
 19 20  1  0  0  0  0
 20 21  2  0  0  0  0
 21 22  1  0  0  0  0
 21 27  1  0  0  0  0
 22 23  2  0  0  0  0
 22 25  1  0  0  0  0
 23 24  1  0  0  0  0
 25 26  2  0  0  0  0
 26 27  1  0  0  0  0
M  END
>  <CHROM.1>
-21.85850119,-84.48554564,-56.49393643,-163.81094175,-141.47878820,52.77411428
85.05029060,47.64619983,54.95739539,30.88911271,0.55407890,-0.46471548,-2.31013368

>  <Name>
ligand

>  <RI>
0

>  <Rbt.Current_Directory>
/home/itssahil/PROJECTS/Mol_Feturizer/New_Systems/rnas/3GX7

>  <Rbt.Executable>
rbdock ($Id: //depot/dev/client3/rdock/2013.1/src/exe/rbdock.cxx#4 $)

>  <Rbt.Library>
libRbt.so (2013.1, Build901 2013/11/27)

>  <Rbt.Parameter_File>
/export/apps/rDock/src/rDock_2013.1_src/data/scripts/dock_solv.prm

>  <Rbt.Receptor>
prm/pocket_docking_6.prm

>  <SCORE>
-12.2903

>  <SCORE.INTER>
-6.99023

>  <SCORE.INTER.CONST>
1

>  <SCORE.INTER.POLAR>
0

>  <SCORE.INTER.ROT>
7

>  <SCORE.INTER.SOLV>
6.73913

>  <SCORE.INTER.VDW>
-15.1732

>  <SCORE.INTER.norm>
-0.258897

>  <SCORE.INTRA>
-5.30011

>  <SCORE.INTRA.DIHEDRAL>
-0.355858

>  <SCORE.INTRA.DIHEDRAL.0>
11.2699

>  <SCORE.INTRA.POLAR>
0

>  <SCORE.INTRA.POLAR.0>
0

>  <SCORE.INTRA.REPUL>
0

>  <SCORE.INTRA.REPUL.0>
0

>  <SCORE.INTRA.SOLV>
1.10415

>  <SCORE.INTRA.SOLV.lig_0>
-48.6447

>  <SCORE.INTRA.VDW>
-5.67425

>  <SCORE.INTRA.VDW.0>
-0.0211724

>  <SCORE.INTRA.norm>
-0.1963

>  <SCORE.RESTR>
0

>  <SCORE.RESTR.CAVITY>
0

>  <SCORE.RESTR.norm>
0

>  <SCORE.SYSTEM>
0

>  <SCORE.SYSTEM.CONST>
0

>  <SCORE.SYSTEM.DIHEDRAL>
0

>  <SCORE.SYSTEM.SOLV>
0

>  <SCORE.SYSTEM.norm>
0

>  <SCORE.heavy>
27

>  <SCORE.norm>
-0.455198

>  <RMSD>
5.196

$$$$
ligand
 OpenBabel11021811483D
libRbt.so/2013.1/901 2013/11/27
 27 29  0  0  0  0  0  0  0  0999 V2000
   47.4894   52.6315   30.7103 N   0  0  0  0  0  0  0  0  0  0  0  0
   47.9451   53.7561   29.9021 C   0  0  2  0  0  0  0  0  0  0  0  0
   49.0670   54.5015   30.6061 C   0  0  0  0  0  0  0  0  0  0  0  0
   49.0434   54.6526   31.8253 O   0  0  0  0  0  0  0  0  0  0  0  0
   46.8031   54.7129   29.5629 C   0  0  0  0  0  0  0  0  0  0  0  0
   47.1093   55.7044   28.4467 C   0  0  0  0  0  0  0  0  0  0  0  0
   47.0445   57.4465   28.9490 S   0  0  2  0  0  0  0  0  0  0  0  0
   47.4664   58.2751   27.3964 C   0  0  0  0  0  0  0  0  0  0  0  0
   48.6176   57.5867   29.8376 C   0  0  0  0  0  0  0  0  0  0  0  0
   48.3880   58.2512   31.1868 C   0  0  1  0  0  0  0  0  0  0  0  0
   47.2598   57.6577   31.7829 O   0  0  0  0  0  0  0  0  0  0  0  0
   49.5099   58.0520   32.1859 C   0  0  1  0  0  0  0  0  0  0  0  0
   50.3655   59.1686   32.1888 O   0  0  0  0  0  0  0  0  0  0  0  0
   48.7863   57.9243   33.5143 C   0  0  1  0  0  0  0  0  0  0  0  0
   48.9389   59.1195   34.2428 O   0  0  0  0  0  0  0  0  0  0  0  0
   47.3154   57.7008   33.1859 C   0  0  2  0  0  0  0  0  0  0  0  0
   50.0162   54.9600   29.9696 O   0  0  0  0  0  0  0  0  0  0  0  0
   48.2167   53.9292   36.7421 N   0  0  0  0  0  0  0  0  0  0  0  0
   48.8964   55.1171   36.5637 C   0  0  0  0  0  0  0  0  0  0  0  0
   48.5175   55.9976   35.5670 N   0  0  0  0  0  0  0  0  0  0  0  0
   47.4828   55.7043   34.7491 C   0  0  0  0  0  0  0  0  0  0  0  0
   46.7809   54.5195   34.9149 C   0  0  0  0  0  0  0  0  0  0  0  0
   47.1557   53.6263   35.9151 C   0  0  0  0  0  0  0  0  0  0  0  0
   46.4983   52.4820   36.0845 N   0  0  0  0  0  0  0  0  0  0  0  0
   45.8029   54.4889   33.9823 N   0  0  0  0  0  0  0  0  0  0  0  0
   45.8628   55.6249   33.2484 C   0  0  0  0  0  0  0  0  0  0  0  0
   46.9010   56.3894   33.7125 N   0  0  0  0  0  0  0  0  0  0  0  0
  2  1  1  1  0  0  0
  2  3  1  0  0  0  0
  2  5  1  0  0  0  0
  3  4  1  0  0  0  0
  3 17  1  0  0  0  0
  5  6  1  0  0  0  0
  7  6  1  6  0  0  0
  7  8  1  0  0  0  0
  7  9  1  0  0  0  0
 10  9  1  6  0  0  0
 10 11  1  0  0  0  0
 10 12  1  0  0  0  0
 11 16  1  0  0  0  0
 12 13  1  1  0  0  0
 12 14  1  0  0  0  0
 14 15  1  1  0  0  0
 14 16  1  0  0  0  0
 16 27  1  1  0  0  0
 18 19  2  0  0  0  0
 18 23  1  0  0  0  0
 19 20  1  0  0  0  0
 20 21  2  0  0  0  0
 21 22  1  0  0  0  0
 21 27  1  0  0  0  0
 22 23  2  0  0  0  0
 22 25  1  0  0  0  0
 23 24  1  0  0  0  0
 25 26  2  0  0  0  0
 26 27  1  0  0  0  0
M  END
>  <CHROM.1>
-37.63556624,-165.17412486,-118.36586407,179.55669849,-131.19027905,45.53360466
138.04791069,47.89464768,56.04973395,32.24038012,1.38558706,-1.25198208,-1.38027385

>  <Name>
ligand

>  <RI>
0

>  <Rbt.Current_Directory>
/home/itssahil/PROJECTS/Mol_Feturizer/New_Systems/rnas/3GX7

>  <Rbt.Executable>
rbdock ($Id: //depot/dev/client3/rdock/2013.1/src/exe/rbdock.cxx#4 $)

>  <Rbt.Library>
libRbt.so (2013.1, Build901 2013/11/27)

>  <Rbt.Parameter_File>
/export/apps/rDock/src/rDock_2013.1_src/data/scripts/dock_solv.prm

>  <Rbt.Receptor>
prm/pocket_docking_2.prm

>  <SCORE>
-5.59319

>  <SCORE.INTER>
-3.20899

>  <SCORE.INTER.CONST>
1

>  <SCORE.INTER.POLAR>
0

>  <SCORE.INTER.ROT>
7

>  <SCORE.INTER.SOLV>
19.3009

>  <SCORE.INTER.VDW>
-16.8396

>  <SCORE.INTER.norm>
-0.118851

>  <SCORE.INTRA>
-3.23034

>  <SCORE.INTRA.DIHEDRAL>
3.44706

>  <SCORE.INTRA.DIHEDRAL.0>
11.2699

>  <SCORE.INTRA.POLAR>
0

>  <SCORE.INTRA.POLAR.0>
0

>  <SCORE.INTRA.REPUL>
0

>  <SCORE.INTRA.REPUL.0>
0

>  <SCORE.INTRA.SOLV>
-0.792469

>  <SCORE.INTRA.SOLV.lig_0>
-48.6447

>  <SCORE.INTRA.VDW>
-4.55764

>  <SCORE.INTRA.VDW.0>
-0.0211724

>  <SCORE.INTRA.norm>
-0.119642

>  <SCORE.RESTR>
0.846141

>  <SCORE.RESTR.CAVITY>
0.846141

>  <SCORE.RESTR.norm>
0.0313386

>  <SCORE.SYSTEM>
0

>  <SCORE.SYSTEM.CONST>
0

>  <SCORE.SYSTEM.DIHEDRAL>
0

>  <SCORE.SYSTEM.SOLV>
0

>  <SCORE.SYSTEM.norm>
0

>  <SCORE.heavy>
27

>  <SCORE.norm>
-0.207155

>  <RMSD>
5.215

$$$$
ligand
 OpenBabel11021811483D
libRbt.so/2013.1/901 2013/11/27
 27 29  0  0  0  0  0  0  0  0999 V2000
   46.2742   55.6201   27.9023 N   0  0  0  0  0  0  0  0  0  0  0  0
   46.9386   56.8512   28.3128 C   0  0  2  0  0  0  0  0  0  0  0  0
   48.3815   56.8655   27.8357 C   0  0  0  0  0  0  0  0  0  0  0  0
   49.0628   57.8820   27.9472 O   0  0  0  0  0  0  0  0  0  0  0  0
   46.8778   57.0534   29.8261 C   0  0  0  0  0  0  0  0  0  0  0  0
   47.4567   58.3743   30.3188 C   0  0  0  0  0  0  0  0  0  0  0  0
   47.1903   58.7011   32.0834 S   0  0  2  0  0  0  0  0  0  0  0  0
   47.9468   60.3360   32.2554 C   0  0  0  0  0  0  0  0  0  0  0  0
   48.4851   57.6590   32.8055 C   0  0  0  0  0  0  0  0  0  0  0  0
   47.8930   56.3229   33.2284 C   0  0  1  0  0  0  0  0  0  0  0  0
   47.6081   55.5810   32.0670 O   0  0  0  0  0  0  0  0  0  0  0  0
   48.8298   55.4457   34.0342 C   0  0  1  0  0  0  0  0  0  0  0  0
   48.5683   55.5856   35.4093 O   0  0  0  0  0  0  0  0  0  0  0  0
   48.4978   54.0415   33.5628 C   0  0  1  0  0  0  0  0  0  0  0  0
   47.7393   53.3869   34.5521 O   0  0  0  0  0  0  0  0  0  0  0  0
   47.6709   54.1959   32.2924 C   0  0  2  0  0  0  0  0  0  0  0  0
   48.8907   55.8618   27.3362 O   0  0  0  0  0  0  0  0  0  0  0  0
   51.3382   54.7991   28.5680 N   0  0  0  0  0  0  0  0  0  0  0  0
   50.9167   55.7153   29.5102 C   0  0  0  0  0  0  0  0  0  0  0  0
   49.9305   55.3807   30.4200 N   0  0  0  0  0  0  0  0  0  0  0  0
   49.3602   54.1560   30.3944 C   0  0  0  0  0  0  0  0  0  0  0  0
   49.7734   53.2171   29.4608 C   0  0  0  0  0  0  0  0  0  0  0  0
   50.7651   53.5452   28.5402 C   0  0  0  0  0  0  0  0  0  0  0  0
   51.1692   52.6596   27.6332 N   0  0  0  0  0  0  0  0  0  0  0  0
   49.0545   52.0910   29.6667 N   0  0  0  0  0  0  0  0  0  0  0  0
   48.2152   52.2927   30.7097 C   0  0  0  0  0  0  0  0  0  0  0  0
   48.3933   53.5703   31.1718 N   0  0  0  0  0  0  0  0  0  0  0  0
  2  1  1  1  0  0  0
  2  3  1  0  0  0  0
  2  5  1  0  0  0  0
  3  4  1  0  0  0  0
  3 17  1  0  0  0  0
  5  6  1  0  0  0  0
  7  6  1  6  0  0  0
  7  8  1  0  0  0  0
  7  9  1  0  0  0  0
 10  9  1  6  0  0  0
 10 11  1  0  0  0  0
 10 12  1  0  0  0  0
 11 16  1  0  0  0  0
 12 13  1  1  0  0  0
 12 14  1  0  0  0  0
 14 15  1  1  0  0  0
 14 16  1  0  0  0  0
 16 27  1  6  0  0  0
 18 19  2  0  0  0  0
 18 23  1  0  0  0  0
 19 20  1  0  0  0  0
 20 21  2  0  0  0  0
 21 22  1  0  0  0  0
 21 27  1  0  0  0  0
 22 23  2  0  0  0  0
 22 25  1  0  0  0  0
 23 24  1  0  0  0  0
 25 26  2  0  0  0  0
 26 27  1  0  0  0  0
M  END
>  <CHROM.1>
171.55216183,-175.43449642,172.52796188,-178.07335263,-96.74955889,72.03368487
28.35593583,48.54235292,55.65669181,30.76925836,0.46459636,1.19677634,-1.05242759

>  <Name>
ligand

>  <RI>
0

>  <Rbt.Current_Directory>
/home/itssahil/PROJECTS/Mol_Feturizer/New_Systems/rnas/3GX7

>  <Rbt.Executable>
rbdock ($Id: //depot/dev/client3/rdock/2013.1/src/exe/rbdock.cxx#4 $)

>  <Rbt.Library>
libRbt.so (2013.1, Build901 2013/11/27)

>  <Rbt.Parameter_File>
/export/apps/rDock/src/rDock_2013.1_src/data/scripts/dock_solv.prm

>  <Rbt.Receptor>
prm/pocket_docking_5.prm

>  <SCORE>
-20.34

>  <SCORE.INTER>
-12.5661

>  <SCORE.INTER.CONST>
1

>  <SCORE.INTER.POLAR>
0

>  <SCORE.INTER.ROT>
7

>  <SCORE.INTER.SOLV>
10.0854

>  <SCORE.INTER.VDW>
-20.0058

>  <SCORE.INTER.norm>
-0.46541

>  <SCORE.INTRA>
-7.77391

>  <SCORE.INTRA.DIHEDRAL>
-4.98392

>  <SCORE.INTRA.DIHEDRAL.0>
11.2699

>  <SCORE.INTRA.POLAR>
0

>  <SCORE.INTRA.POLAR.0>
0

>  <SCORE.INTRA.REPUL>
0

>  <SCORE.INTRA.REPUL.0>
0

>  <SCORE.INTRA.SOLV>
-0.808519

>  <SCORE.INTRA.SOLV.lig_0>
-48.6447

>  <SCORE.INTRA.VDW>
-4.8777

>  <SCORE.INTRA.VDW.0>
-0.0211724

>  <SCORE.INTRA.norm>
-0.287923

>  <SCORE.RESTR>
0

>  <SCORE.RESTR.CAVITY>
0

>  <SCORE.RESTR.norm>
0

>  <SCORE.SYSTEM>
0

>  <SCORE.SYSTEM.CONST>
0

>  <SCORE.SYSTEM.DIHEDRAL>
0

>  <SCORE.SYSTEM.SOLV>
0

>  <SCORE.SYSTEM.norm>
0

>  <SCORE.heavy>
27

>  <SCORE.norm>
-0.753333

>  <RMSD>
5.216

$$$$
ligand
 OpenBabel11021811483D
libRbt.so/2013.1/901 2013/11/27
 27 29  0  0  0  0  0  0  0  0999 V2000
   46.3970   52.7487   25.7465 N   0  0  0  0  0  0  0  0  0  0  0  0
   47.4827   53.5744   26.2612 C   0  0  2  0  0  0  0  0  0  0  0  0
   48.7424   52.7456   26.4502 C   0  0  0  0  0  0  0  0  0  0  0  0
   48.6977   51.5201   26.3719 O   0  0  0  0  0  0  0  0  0  0  0  0
   47.1009   54.2659   27.5692 C   0  0  0  0  0  0  0  0  0  0  0  0
   46.0191   55.3313   27.4375 C   0  0  0  0  0  0  0  0  0  0  0  0
   45.5889   56.1631   28.9913 S   0  0  2  0  0  0  0  0  0  0  0  0
   44.3770   57.3774   28.4154 C   0  0  0  0  0  0  0  0  0  0  0  0
   47.0434   57.2225   29.2057 C   0  0  0  0  0  0  0  0  0  0  0  0
   46.7867   58.2288   30.3175 C   0  0  1  0  0  0  0  0  0  0  0  0
   45.7287   57.7472   31.1106 O   0  0  0  0  0  0  0  0  0  0  0  0
   47.9438   58.4148   31.2781 C   0  0  1  0  0  0  0  0  0  0  0  0
   48.6978   59.5476   30.9212 O   0  0  0  0  0  0  0  0  0  0  0  0
   47.2643   58.6209   32.6198 C   0  0  1  0  0  0  0  0  0  0  0  0
   47.3275   59.9838   32.9677 O   0  0  0  0  0  0  0  0  0  0  0  0
   45.8118   58.1984   32.4384 C   0  0  2  0  0  0  0  0  0  0  0  0
   49.8248   53.2863   26.6792 O   0  0  0  0  0  0  0  0  0  0  0  0
   47.6409   53.7762   34.6252 N   0  0  0  0  0  0  0  0  0  0  0  0
   48.2863   54.6305   33.7543 C   0  0  0  0  0  0  0  0  0  0  0  0
   47.6442   55.7574   33.2745 N   0  0  0  0  0  0  0  0  0  0  0  0
   46.3745   56.0336   33.6446 C   0  0  0  0  0  0  0  0  0  0  0  0
   45.7092   55.1928   34.5245 C   0  0  0  0  0  0  0  0  0  0  0  0
   46.3472   54.0553   35.0121 C   0  0  0  0  0  0  0  0  0  0  0  0
   45.7223   53.2338   35.8516 N   0  0  0  0  0  0  0  0  0  0  0  0
   44.4761   55.7072   34.7295 N   0  0  0  0  0  0  0  0  0  0  0  0
   44.3556   56.8515   34.0161 C   0  0  0  0  0  0  0  0  0  0  0  0
   45.5262   57.0672   33.3371 N   0  0  0  0  0  0  0  0  0  0  0  0
  2  1  1  1  0  0  0
  2  3  1  0  0  0  0
  2  5  1  0  0  0  0
  3  4  1  0  0  0  0
  3 17  1  0  0  0  0
  5  6  1  0  0  0  0
  7  6  1  6  0  0  0
  7  8  1  0  0  0  0
  7  9  1  0  0  0  0
 10  9  1  6  0  0  0
 10 11  1  0  0  0  0
 10 12  1  0  0  0  0
 11 16  1  0  0  0  0
 12 13  1  6  0  0  0
 12 14  1  0  0  0  0
 14 15  1  6  0  0  0
 14 16  1  0  0  0  0
 16 27  1  1  0  0  0
 18 19  2  0  0  0  0
 18 23  1  0  0  0  0
 19 20  1  0  0  0  0
 20 21  2  0  0  0  0
 21 22  1  0  0  0  0
 21 27  1  0  0  0  0
 22 23  2  0  0  0  0
 22 25  1  0  0  0  0
 23 24  1  0  0  0  0
 25 26  2  0  0  0  0
 26 27  1  0  0  0  0
M  END
>  <CHROM.1>
-10.93809650,-67.70989999,-179.18125939,177.11245239,168.89182988,19.60875323
76.07026215,46.74690968,55.86784723,30.83112545,-0.33561797,-1.38161969,2.41385232

>  <Name>
ligand

>  <RI>
0

>  <Rbt.Current_Directory>
/home/itssahil/PROJECTS/Mol_Feturizer/New_Systems/rnas/3GX7

>  <Rbt.Executable>
rbdock ($Id: //depot/dev/client3/rdock/2013.1/src/exe/rbdock.cxx#4 $)

>  <Rbt.Library>
libRbt.so (2013.1, Build901 2013/11/27)

>  <Rbt.Parameter_File>
/export/apps/rDock/src/rDock_2013.1_src/data/scripts/dock_solv.prm

>  <Rbt.Receptor>
prm/pocket_docking_4.prm

>  <SCORE>
-9.89686

>  <SCORE.INTER>
-7.1057

>  <SCORE.INTER.CONST>
1

>  <SCORE.INTER.POLAR>
0

>  <SCORE.INTER.ROT>
7

>  <SCORE.INTER.SOLV>
14.0888

>  <SCORE.INTER.VDW>
-17.7001

>  <SCORE.INTER.norm>
-0.263174

>  <SCORE.INTRA>
-2.79116

>  <SCORE.INTRA.DIHEDRAL>
-3.80143

>  <SCORE.INTRA.DIHEDRAL.0>
11.2699

>  <SCORE.INTRA.POLAR>
0

>  <SCORE.INTRA.POLAR.0>
0

>  <SCORE.INTRA.REPUL>
0

>  <SCORE.INTRA.REPUL.0>
0

>  <SCORE.INTRA.SOLV>
-0.319917

>  <SCORE.INTRA.SOLV.lig_0>
-48.6447

>  <SCORE.INTRA.VDW>
-0.730486

>  <SCORE.INTRA.VDW.0>
-0.0211724

>  <SCORE.INTRA.norm>
-0.103376

>  <SCORE.RESTR>
0

>  <SCORE.RESTR.CAVITY>
0

>  <SCORE.RESTR.norm>
0

>  <SCORE.SYSTEM>
0

>  <SCORE.SYSTEM.CONST>
0

>  <SCORE.SYSTEM.DIHEDRAL>
0

>  <SCORE.SYSTEM.SOLV>
0

>  <SCORE.SYSTEM.norm>
0

>  <SCORE.heavy>
27

>  <SCORE.norm>
-0.36655

>  <RMSD>
5.217

$$$$
ligand
 OpenBabel11021811483D
libRbt.so/2013.1/901 2013/11/27
 27 29  0  0  0  0  0  0  0  0999 V2000
   49.2350   53.5106   30.9013 N   0  0  0  0  0  0  0  0  0  0  0  0
   48.7769   54.1455   29.6715 C   0  0  2  0  0  0  0  0  0  0  0  0
   48.6086   53.1148   28.5674 C   0  0  0  0  0  0  0  0  0  0  0  0
   47.7976   53.2997   27.6629 O   0  0  0  0  0  0  0  0  0  0  0  0
   49.7214   55.2583   29.2195 C   0  0  0  0  0  0  0  0  0  0  0  0
   49.1628   56.1698   28.1333 C   0  0  0  0  0  0  0  0  0  0  0  0
   47.6122   57.0024   28.5735 S   0  0  2  0  0  0  0  0  0  0  0  0
   47.4286   58.1558   27.1912 C   0  0  0  0  0  0  0  0  0  0  0  0
   48.2031   58.1260   29.8667 C   0  0  0  0  0  0  0  0  0  0  0  0
   47.0650   59.0258   30.3248 C   0  0  1  0  0  0  0  0  0  0  0  0
   45.9173   58.2299   30.4966 O   0  0  0  0  0  0  0  0  0  0  0  0
   47.2881   59.6880   31.6695 C   0  0  1  0  0  0  0  0  0  0  0  0
   47.7706   60.9978   31.4950 O   0  0  0  0  0  0  0  0  0  0  0  0
   45.9046   59.7023   32.2941 C   0  0  1  0  0  0  0  0  0  0  0  0
   45.3798   61.0072   32.2300 O   0  0  0  0  0  0  0  0  0  0  0  0
   45.0456   58.7561   31.4645 C   0  0  2  0  0  0  0  0  0  0  0  0
   49.2827   52.0843   28.5583 O   0  0  0  0  0  0  0  0  0  0  0  0
   46.4164   54.9259   34.8014 N   0  0  0  0  0  0  0  0  0  0  0  0
   47.2345   55.8269   34.1502 C   0  0  0  0  0  0  0  0  0  0  0  0
   46.6951   56.7745   33.2997 N   0  0  0  0  0  0  0  0  0  0  0  0
   45.3617   56.8266   33.0878 C   0  0  0  0  0  0  0  0  0  0  0  0
   44.5200   55.9357   33.7372 C   0  0  0  0  0  0  0  0  0  0  0  0
   45.0541   54.9776   34.5947 C   0  0  0  0  0  0  0  0  0  0  0  0
   44.2627   54.1105   35.2210 N   0  0  0  0  0  0  0  0  0  0  0  0
   43.2538   56.2170   33.3568 N   0  0  0  0  0  0  0  0  0  0  0  0
   43.2771   57.2657   32.5010 C   0  0  0  0  0  0  0  0  0  0  0  0
   44.5789   57.6550   32.3239 N   0  0  0  0  0  0  0  0  0  0  0  0
  2  1  1  1  0  0  0
  2  3  1  0  0  0  0
  2  5  1  0  0  0  0
  3  4  1  0  0  0  0
  3 17  1  0  0  0  0
  5  6  1  0  0  0  0
  7  6  1  6  0  0  0
  7  8  1  0  0  0  0
  7  9  1  0  0  0  0
 10  9  1  1  0  0  0
 10 11  1  0  0  0  0
 10 12  1  0  0  0  0
 11 16  1  0  0  0  0
 12 13  1  6  0  0  0
 12 14  1  0  0  0  0
 14 15  1  6  0  0  0
 14 16  1  0  0  0  0
 16 27  1  1  0  0  0
 18 19  2  0  0  0  0
 18 23  1  0  0  0  0
 19 20  1  0  0  0  0
 20 21  2  0  0  0  0
 21 22  1  0  0  0  0
 21 27  1  0  0  0  0
 22 23  2  0  0  0  0
 22 25  1  0  0  0  0
 23 24  1  0  0  0  0
 25 26  2  0  0  0  0
 26 27  1  0  0  0  0
M  END
>  <CHROM.1>
152.42519136,-166.93159985,57.80799562,171.29308729,175.63738628,44.75247549
59.51264664,46.78627530,56.66507717,31.09990986,0.26669052,-0.97314982,2.86004928

>  <Name>
ligand

>  <RI>
0

>  <Rbt.Current_Directory>
/home/itssahil/PROJECTS/Mol_Feturizer/New_Systems/rnas/3GX7

>  <Rbt.Executable>
rbdock ($Id: //depot/dev/client3/rdock/2013.1/src/exe/rbdock.cxx#4 $)

>  <Rbt.Library>
libRbt.so (2013.1, Build901 2013/11/27)

>  <Rbt.Parameter_File>
/export/apps/rDock/src/rDock_2013.1_src/data/scripts/dock_solv.prm

>  <Rbt.Receptor>
prm/pocket_docking_4.prm

>  <SCORE>
-18.2609

>  <SCORE.INTER>
-11.5812

>  <SCORE.INTER.CONST>
1

>  <SCORE.INTER.POLAR>
0

>  <SCORE.INTER.ROT>
7

>  <SCORE.INTER.SOLV>
14.1565

>  <SCORE.INTER.VDW>
-20.7063

>  <SCORE.INTER.norm>
-0.428934

>  <SCORE.INTRA>
-6.67966

>  <SCORE.INTRA.DIHEDRAL>
-6.65402

>  <SCORE.INTRA.DIHEDRAL.0>
11.2699

>  <SCORE.INTRA.POLAR>
0

>  <SCORE.INTRA.POLAR.0>
0

>  <SCORE.INTRA.REPUL>
0

>  <SCORE.INTRA.REPUL.0>
0

>  <SCORE.INTRA.SOLV>
-0.827528

>  <SCORE.INTRA.SOLV.lig_0>
-48.6447

>  <SCORE.INTRA.VDW>
-2.93889

>  <SCORE.INTRA.VDW.0>
-0.0211724

>  <SCORE.INTRA.norm>
-0.247395

>  <SCORE.RESTR>
0

>  <SCORE.RESTR.CAVITY>
0

>  <SCORE.RESTR.norm>
0

>  <SCORE.SYSTEM>
0

>  <SCORE.SYSTEM.CONST>
0

>  <SCORE.SYSTEM.DIHEDRAL>
0

>  <SCORE.SYSTEM.SOLV>
0

>  <SCORE.SYSTEM.norm>
0

>  <SCORE.heavy>
27

>  <SCORE.norm>
-0.676329

>  <RMSD>
5.223

$$$$
ligand
 OpenBabel11021811483D
libRbt.so/2013.1/901 2013/11/27
 27 29  0  0  0  0  0  0  0  0999 V2000
   47.4107   59.2343   31.8064 N   0  0  0  0  0  0  0  0  0  0  0  0
   46.4025   58.2070   31.5746 C   0  0  2  0  0  0  0  0  0  0  0  0
   45.6679   58.4627   30.2690 C   0  0  0  0  0  0  0  0  0  0  0  0
   45.4563   59.6122   29.8898 O   0  0  0  0  0  0  0  0  0  0  0  0
   45.4100   58.1121   32.7325 C   0  0  0  0  0  0  0  0  0  0  0  0
   44.3812   56.9952   32.6033 C   0  0  0  0  0  0  0  0  0  0  0  0
   45.0880   55.3261   32.5267 S   0  0  2  0  0  0  0  0  0  0  0  0
   43.5900   54.3108   32.5162 C   0  0  0  0  0  0  0  0  0  0  0  0
   45.6172   55.1185   34.2474 C   0  0  0  0  0  0  0  0  0  0  0  0
   47.1268   54.9378   34.3024 C   0  0  1  0  0  0  0  0  0  0  0  0
   47.4585   53.7846   33.5673 O   0  0  0  0  0  0  0  0  0  0  0  0
   47.9189   56.0563   33.6560 C   0  0  1  0  0  0  0  0  0  0  0  0
   48.3570   56.9712   34.6307 O   0  0  0  0  0  0  0  0  0  0  0  0
   49.0972   55.3392   33.0222 C   0  0  1  0  0  0  0  0  0  0  0  0
   50.2496   55.5630   33.7995 O   0  0  0  0  0  0  0  0  0  0  0  0
   48.7513   53.8553   33.0222 C   0  0  2  0  0  0  0  0  0  0  0  0
   45.2786   57.5263   29.5704 O   0  0  0  0  0  0  0  0  0  0  0  0
   50.5183   54.4895   28.1070 N   0  0  0  0  0  0  0  0  0  0  0  0
   50.8436   55.2172   29.2338 C   0  0  0  0  0  0  0  0  0  0  0  0
   50.2751   54.9071   30.4557 N   0  0  0  0  0  0  0  0  0  0  0  0
   49.3881   53.8935   30.5624 C   0  0  0  0  0  0  0  0  0  0  0  0
   49.0521   53.1442   29.4445 C   0  0  0  0  0  0  0  0  0  0  0  0
   49.6186   53.4497   28.2099 C   0  0  0  0  0  0  0  0  0  0  0  0
   49.3030   52.7462   27.1256 N   0  0  0  0  0  0  0  0  0  0  0  0
   48.1662   52.2009   29.8349 N   0  0  0  0  0  0  0  0  0  0  0  0
   47.9494   52.3284   31.1651 C   0  0  0  0  0  0  0  0  0  0  0  0
   48.7009   53.3753   31.6309 N   0  0  0  0  0  0  0  0  0  0  0  0
  2  1  1  1  0  0  0
  2  3  1  0  0  0  0
  2  5  1  0  0  0  0
  3  4  1  0  0  0  0
  3 17  1  0  0  0  0
  5  6  1  0  0  0  0
  7  6  1  1  0  0  0
  7  8  1  0  0  0  0
  7  9  1  0  0  0  0
 10  9  1  6  0  0  0
 10 11  1  0  0  0  0
 10 12  1  0  0  0  0
 11 16  1  0  0  0  0
 12 13  1  1  0  0  0
 12 14  1  0  0  0  0
 14 15  1  1  0  0  0
 14 16  1  0  0  0  0
 16 27  1  6  0  0  0
 18 19  2  0  0  0  0
 18 23  1  0  0  0  0
 19 20  1  0  0  0  0
 20 21  2  0  0  0  0
 21 22  1  0  0  0  0
 21 27  1  0  0  0  0
 22 23  2  0  0  0  0
 22 25  1  0  0  0  0
 23 24  1  0  0  0  0
 25 26  2  0  0  0  0
 26 27  1  0  0  0  0
M  END
>  <CHROM.1>
-34.01121436,-176.09030312,60.86906122,175.61595885,-117.94197616,-60.60798518
141.06675793,47.49545735,55.43074755,31.56625803,2.94533276,-0.84293261,1.97743557

>  <Name>
ligand

>  <RI>
0

>  <Rbt.Current_Directory>
/home/itssahil/PROJECTS/Mol_Feturizer/New_Systems/rnas/3GX7

>  <Rbt.Executable>
rbdock ($Id: //depot/dev/client3/rdock/2013.1/src/exe/rbdock.cxx#4 $)

>  <Rbt.Library>
libRbt.so (2013.1, Build901 2013/11/27)

>  <Rbt.Parameter_File>
/export/apps/rDock/src/rDock_2013.1_src/data/scripts/dock_solv.prm

>  <Rbt.Receptor>
prm/blind_docking_100.prm

>  <SCORE>
-16.1111

>  <SCORE.INTER>
-11.1567

>  <SCORE.INTER.CONST>
1

>  <SCORE.INTER.POLAR>
0

>  <SCORE.INTER.ROT>
7

>  <SCORE.INTER.SOLV>
8.93648

>  <SCORE.INTER.VDW>
-18.6833

>  <SCORE.INTER.norm>
-0.413212

>  <SCORE.INTRA>
-4.95439

>  <SCORE.INTRA.DIHEDRAL>
-3.93423

>  <SCORE.INTRA.DIHEDRAL.0>
11.2699

>  <SCORE.INTRA.POLAR>
0

>  <SCORE.INTRA.POLAR.0>
0

>  <SCORE.INTRA.REPUL>
0

>  <SCORE.INTRA.REPUL.0>
0

>  <SCORE.INTRA.SOLV>
0.839604

>  <SCORE.INTRA.SOLV.lig_0>
-48.6447

>  <SCORE.INTRA.VDW>
-3.40708

>  <SCORE.INTRA.VDW.0>
-0.0211724

>  <SCORE.INTRA.norm>
-0.183496

>  <SCORE.RESTR>
0

>  <SCORE.RESTR.CAVITY>
0

>  <SCORE.RESTR.norm>
0

>  <SCORE.SYSTEM>
0

>  <SCORE.SYSTEM.CONST>
0

>  <SCORE.SYSTEM.DIHEDRAL>
0

>  <SCORE.SYSTEM.SOLV>
0

>  <SCORE.SYSTEM.norm>
0

>  <SCORE.heavy>
27

>  <SCORE.norm>
-0.596708

>  <RMSD>
5.237

$$$$
ligand
 OpenBabel11021811483D
libRbt.so/2013.1/901 2013/11/27
 27 29  0  0  0  0  0  0  0  0999 V2000
   48.8566   53.6042   28.1182 N   0  0  0  0  0  0  0  0  0  0  0  0
   48.3034   54.4311   27.0525 C   0  0  2  0  0  0  0  0  0  0  0  0
   48.1453   53.6231   25.7751 C   0  0  0  0  0  0  0  0  0  0  0  0
   47.6632   54.1386   24.7693 O   0  0  0  0  0  0  0  0  0  0  0  0
   49.1570   55.6718   26.7937 C   0  0  0  0  0  0  0  0  0  0  0  0
   49.2077   56.6656   27.9480 C   0  0  0  0  0  0  0  0  0  0  0  0
   47.5890   57.2993   28.4672 S   0  0  2  0  0  0  0  0  0  0  0  0
   47.1808   58.3934   27.0847 C   0  0  0  0  0  0  0  0  0  0  0  0
   48.0999   58.5137   29.7114 C   0  0  0  0  0  0  0  0  0  0  0  0
   46.8786   59.2477   30.2447 C   0  0  1  0  0  0  0  0  0  0  0  0
   45.9056   58.2907   30.5876 O   0  0  0  0  0  0  0  0  0  0  0  0
   47.1220   60.0331   31.5176 C   0  0  1  0  0  0  0  0  0  0  0  0
   47.3557   61.3878   31.2187 O   0  0  0  0  0  0  0  0  0  0  0  0
   45.8270   59.8680   32.2920 C   0  0  1  0  0  0  0  0  0  0  0  0
   45.0851   61.0623   32.2161 O   0  0  0  0  0  0  0  0  0  0  0  0
   45.0606   58.7373   31.6172 C   0  0  2  0  0  0  0  0  0  0  0  0
   48.5005   52.4450   25.7259 O   0  0  0  0  0  0  0  0  0  0  0  0
   41.9574   54.8110   33.2416 N   0  0  0  0  0  0  0  0  0  0  0  0
   41.7490   55.6911   32.1990 C   0  0  0  0  0  0  0  0  0  0  0  0
   42.6814   56.6715   31.9134 N   0  0  0  0  0  0  0  0  0  0  0  0
   43.8047   56.7871   32.6553 C   0  0  0  0  0  0  0  0  0  0  0  0
   44.0382   55.9091   33.7033 C   0  0  0  0  0  0  0  0  0  0  0  0
   43.1046   54.9192   33.9989 C   0  0  0  0  0  0  0  0  0  0  0  0
   43.3085   54.0724   35.0046 N   0  0  0  0  0  0  0  0  0  0  0  0
   45.2251   56.2406   34.2588 N   0  0  0  0  0  0  0  0  0  0  0  0
   45.7473   57.2896   33.5809 C   0  0  0  0  0  0  0  0  0  0  0  0
   44.8767   57.6404   32.5825 N   0  0  0  0  0  0  0  0  0  0  0  0
  2  1  1  1  0  0  0
  2  3  1  0  0  0  0
  2  5  1  0  0  0  0
  3  4  1  0  0  0  0
  3 17  1  0  0  0  0
  5  6  1  0  0  0  0
  7  6  1  6  0  0  0
  7  8  1  0  0  0  0
  7  9  1  0  0  0  0
 10  9  1  1  0  0  0
 10 11  1  0  0  0  0
 10 12  1  0  0  0  0
 11 16  1  0  0  0  0
 12 13  1  6  0  0  0
 12 14  1  0  0  0  0
 14 15  1  6  0  0  0
 14 16  1  0  0  0  0
 16 27  1  1  0  0  0
 18 19  2  0  0  0  0
 18 23  1  0  0  0  0
 19 20  1  0  0  0  0
 20 21  2  0  0  0  0
 21 22  1  0  0  0  0
 21 27  1  0  0  0  0
 22 23  2  0  0  0  0
 22 25  1  0  0  0  0
 23 24  1  0  0  0  0
 25 26  2  0  0  0  0
 26 27  1  0  0  0  0
M  END
>  <CHROM.1>
178.28682872,-65.23988131,-58.02229616,-72.23746572,176.79373042,48.81023498
-99.17675366,46.15556061,56.85130535,30.33767480,0.59443121,-0.87491146,-2.73320998

>  <Name>
ligand

>  <RI>
0

>  <Rbt.Current_Directory>
/home/itssahil/PROJECTS/Mol_Feturizer/New_Systems/rnas/3GX7

>  <Rbt.Executable>
rbdock ($Id: //depot/dev/client3/rdock/2013.1/src/exe/rbdock.cxx#4 $)

>  <Rbt.Library>
libRbt.so (2013.1, Build901 2013/11/27)

>  <Rbt.Parameter_File>
/export/apps/rDock/src/rDock_2013.1_src/data/scripts/dock_solv.prm

>  <Rbt.Receptor>
prm/pocket_docking_5.prm

>  <SCORE>
-17.6731

>  <SCORE.INTER>
-12.4215

>  <SCORE.INTER.CONST>
1

>  <SCORE.INTER.POLAR>
0

>  <SCORE.INTER.ROT>
7

>  <SCORE.INTER.SOLV>
11.8589

>  <SCORE.INTER.VDW>
-20.5007

>  <SCORE.INTER.norm>
-0.460057

>  <SCORE.INTRA>
-5.28092

>  <SCORE.INTRA.DIHEDRAL>
-7.43163

>  <SCORE.INTRA.DIHEDRAL.0>
11.2699

>  <SCORE.INTRA.POLAR>
0

>  <SCORE.INTRA.POLAR.0>
0

>  <SCORE.INTRA.REPUL>
0

>  <SCORE.INTRA.REPUL.0>
0

>  <SCORE.INTRA.SOLV>
0.101388

>  <SCORE.INTRA.SOLV.lig_0>
-48.6447

>  <SCORE.INTRA.VDW>
-1.6158

>  <SCORE.INTRA.VDW.0>
-0.0211724

>  <SCORE.INTRA.norm>
-0.19559

>  <SCORE.RESTR>
0.0293791

>  <SCORE.RESTR.CAVITY>
0.0293791

>  <SCORE.RESTR.norm>
0.00108812

>  <SCORE.SYSTEM>
0

>  <SCORE.SYSTEM.CONST>
0

>  <SCORE.SYSTEM.DIHEDRAL>
0

>  <SCORE.SYSTEM.SOLV>
0

>  <SCORE.SYSTEM.norm>
0

>  <SCORE.heavy>
27

>  <SCORE.norm>
-0.654559

>  <RMSD>
5.237

$$$$
ligand
 OpenBabel11021811483D
libRbt.so/2013.1/901 2013/11/27
 27 29  0  0  0  0  0  0  0  0999 V2000
   48.0019   54.4720   25.7337 N   0  0  0  0  0  0  0  0  0  0  0  0
   47.6995   54.3107   27.1507 C   0  0  2  0  0  0  0  0  0  0  0  0
   47.8419   52.8558   27.5663 C   0  0  0  0  0  0  0  0  0  0  0  0
   48.7419   52.5126   28.3292 O   0  0  0  0  0  0  0  0  0  0  0  0
   46.3041   54.8277   27.4973 C   0  0  0  0  0  0  0  0  0  0  0  0
   46.0351   54.9929   28.9883 C   0  0  0  0  0  0  0  0  0  0  0  0
   46.0433   53.4427   29.9308 S   0  0  2  0  0  0  0  0  0  0  0  0
   44.3847   52.8098   29.5792 C   0  0  0  0  0  0  0  0  0  0  0  0
   45.8051   54.0824   31.6095 C   0  0  0  0  0  0  0  0  0  0  0  0
   47.0524   54.8302   32.0561 C   0  0  1  0  0  0  0  0  0  0  0  0
   46.8410   55.2938   33.3679 O   0  0  0  0  0  0  0  0  0  0  0  0
   48.3024   53.9774   32.1382 C   0  0  1  0  0  0  0  0  0  0  0  0
   49.0724   54.1254   30.9703 O   0  0  0  0  0  0  0  0  0  0  0  0
   49.0376   54.5368   33.3427 C   0  0  1  0  0  0  0  0  0  0  0  0
   50.1258   55.3144   32.9024 O   0  0  0  0  0  0  0  0  0  0  0  0
   48.0406   55.4147   34.0887 C   0  0  2  0  0  0  0  0  0  0  0  0
   47.0582   52.0016   27.1510 O   0  0  0  0  0  0  0  0  0  0  0  0
   45.0249   52.4022   37.1732 N   0  0  0  0  0  0  0  0  0  0  0  0
   44.8591   52.6913   35.8339 C   0  0  0  0  0  0  0  0  0  0  0  0
   45.7587   53.5118   35.1782 N   0  0  0  0  0  0  0  0  0  0  0  0
   46.8072   54.0481   35.8405 C   0  0  0  0  0  0  0  0  0  0  0  0
   46.9974   53.7653   37.1850 C   0  0  0  0  0  0  0  0  0  0  0  0
   46.0963   52.9410   37.8538 C   0  0  0  0  0  0  0  0  0  0  0  0
   46.2590   52.6642   39.1450 N   0  0  0  0  0  0  0  0  0  0  0  0
   48.1134   54.4140   37.5861 N   0  0  0  0  0  0  0  0  0  0  0  0
   48.6345   55.0816   36.5300 C   0  0  0  0  0  0  0  0  0  0  0  0
   47.8344   54.8643   35.4390 N   0  0  0  0  0  0  0  0  0  0  0  0
  2  1  1  6  0  0  0
  2  3  1  0  0  0  0
  2  5  1  0  0  0  0
  3  4  1  0  0  0  0
  3 17  1  0  0  0  0
  5  6  1  0  0  0  0
  7  6  1  6  0  0  0
  7  8  1  0  0  0  0
  7  9  1  0  0  0  0
 10  9  1  1  0  0  0
 10 11  1  0  0  0  0
 10 12  1  0  0  0  0
 11 16  1  0  0  0  0
 12 13  1  6  0  0  0
 12 14  1  0  0  0  0
 14 15  1  6  0  0  0
 14 16  1  0  0  0  0
 16 27  1  1  0  0  0
 18 19  2  0  0  0  0
 18 23  1  0  0  0  0
 19 20  1  0  0  0  0
 20 21  2  0  0  0  0
 21 22  1  0  0  0  0
 21 27  1  0  0  0  0
 22 23  2  0  0  0  0
 22 25  1  0  0  0  0
 23 24  1  0  0  0  0
 25 26  2  0  0  0  0
 26 27  1  0  0  0  0
M  END
>  <CHROM.1>
112.14416781,-166.53121843,-64.96379471,-80.54385694,-69.50069630,-179.08758167
16.47697720,47.10992114,53.90782876,32.34737001,-1.52427566,0.46650567,1.54250797

>  <Name>
ligand

>  <RI>
0

>  <Rbt.Current_Directory>
/home/itssahil/PROJECTS/Mol_Feturizer/New_Systems/rnas/3GX7

>  <Rbt.Executable>
rbdock ($Id: //depot/dev/client3/rdock/2013.1/src/exe/rbdock.cxx#4 $)

>  <Rbt.Library>
libRbt.so (2013.1, Build901 2013/11/27)

>  <Rbt.Parameter_File>
/export/apps/rDock/src/rDock_2013.1_src/data/scripts/dock_solv.prm

>  <Rbt.Receptor>
prm/pocket_docking_5.prm

>  <SCORE>
-17.3642

>  <SCORE.INTER>
-9.88533

>  <SCORE.INTER.CONST>
1

>  <SCORE.INTER.POLAR>
0

>  <SCORE.INTER.ROT>
7

>  <SCORE.INTER.SOLV>
10.7644

>  <SCORE.INTER.VDW>
-18.445

>  <SCORE.INTER.norm>
-0.366123

>  <SCORE.INTRA>
-7.50095

>  <SCORE.INTRA.DIHEDRAL>
-6.91122

>  <SCORE.INTRA.DIHEDRAL.0>
11.2699

>  <SCORE.INTRA.POLAR>
0

>  <SCORE.INTRA.POLAR.0>
0

>  <SCORE.INTRA.REPUL>
0

>  <SCORE.INTRA.REPUL.0>
0

>  <SCORE.INTRA.SOLV>
-0.533119

>  <SCORE.INTRA.SOLV.lig_0>
-48.6447

>  <SCORE.INTRA.VDW>
-3.77878

>  <SCORE.INTRA.VDW.0>
-0.0211724

>  <SCORE.INTRA.norm>
-0.277813

>  <SCORE.RESTR>
0.0220391

>  <SCORE.RESTR.CAVITY>
0.0220391

>  <SCORE.RESTR.norm>
0.000816264

>  <SCORE.SYSTEM>
0

>  <SCORE.SYSTEM.CONST>
0

>  <SCORE.SYSTEM.DIHEDRAL>
0

>  <SCORE.SYSTEM.SOLV>
0

>  <SCORE.SYSTEM.norm>
0

>  <SCORE.heavy>
27

>  <SCORE.norm>
-0.64312

>  <RMSD>
5.241

$$$$
ligand
 OpenBabel11021811483D
libRbt.so/2013.1/901 2013/11/27
 27 29  0  0  0  0  0  0  0  0999 V2000
   48.5012   54.2540   31.1552 N   0  0  0  0  0  0  0  0  0  0  0  0
   47.1948   53.8092   30.6850 C   0  0  2  0  0  0  0  0  0  0  0  0
   47.3337   52.5808   29.8011 C   0  0  0  0  0  0  0  0  0  0  0  0
   48.1143   51.6817   30.1047 O   0  0  0  0  0  0  0  0  0  0  0  0
   46.4503   54.9171   29.9412 C   0  0  0  0  0  0  0  0  0  0  0  0
   47.1901   55.4886   28.7376 C   0  0  0  0  0  0  0  0  0  0  0  0
   46.3994   56.9389   27.9873 S   0  0  2  0  0  0  0  0  0  0  0  0
   47.4227   57.1730   26.5132 C   0  0  0  0  0  0  0  0  0  0  0  0
   47.0499   58.2513   29.0543 C   0  0  0  0  0  0  0  0  0  0  0  0
   45.9580   58.7361   29.9962 C   0  0  1  0  0  0  0  0  0  0  0  0
   45.4495   57.6223   30.6900 O   0  0  0  0  0  0  0  0  0  0  0  0
   46.4341   59.6868   31.0760 C   0  0  1  0  0  0  0  0  0  0  0  0
   46.1934   61.0193   30.6945 O   0  0  0  0  0  0  0  0  0  0  0  0
   45.5903   59.3104   32.2804 C   0  0  1  0  0  0  0  0  0  0  0  0
   44.5938   60.2865   32.4724 O   0  0  0  0  0  0  0  0  0  0  0  0
   44.9464   57.9685   31.9551 C   0  0  2  0  0  0  0  0  0  0  0  0
   46.6656   52.4645   28.7732 O   0  0  0  0  0  0  0  0  0  0  0  0
   48.9897   56.1555   34.7921 N   0  0  0  0  0  0  0  0  0  0  0  0
   48.9706   57.2180   33.9115 C   0  0  0  0  0  0  0  0  0  0  0  0
   47.8062   57.5545   33.2456 N   0  0  0  0  0  0  0  0  0  0  0  0
   46.6740   56.8438   33.4412 C   0  0  0  0  0  0  0  0  0  0  0  0
   46.6684   55.7765   34.3271 C   0  0  0  0  0  0  0  0  0  0  0  0
   47.8361   55.4297   35.0014 C   0  0  0  0  0  0  0  0  0  0  0  0
   47.8512   54.4048   35.8497 N   0  0  0  0  0  0  0  0  0  0  0  0
   45.4193   55.2598   34.3380 N   0  0  0  0  0  0  0  0  0  0  0  0
   44.6406   55.9805   33.4972 C   0  0  0  0  0  0  0  0  0  0  0  0
   45.4056   56.9674   32.9328 N   0  0  0  0  0  0  0  0  0  0  0  0
  2  1  1  6  0  0  0
  2  3  1  0  0  0  0
  2  5  1  0  0  0  0
  3  4  1  0  0  0  0
  3 17  1  0  0  0  0
  5  6  1  0  0  0  0
  7  6  1  1  0  0  0
  7  8  1  0  0  0  0
  7  9  1  0  0  0  0
 10  9  1  6  0  0  0
 10 11  1  0  0  0  0
 10 12  1  0  0  0  0
 11 16  1  0  0  0  0
 12 13  1  6  0  0  0
 12 14  1  0  0  0  0
 14 15  1  6  0  0  0
 14 16  1  0  0  0  0
 16 27  1  1  0  0  0
 18 19  2  0  0  0  0
 18 23  1  0  0  0  0
 19 20  1  0  0  0  0
 20 21  2  0  0  0  0
 21 22  1  0  0  0  0
 21 27  1  0  0  0  0
 22 23  2  0  0  0  0
 22 25  1  0  0  0  0
 23 24  1  0  0  0  0
 25 26  2  0  0  0  0
 26 27  1  0  0  0  0
M  END
>  <CHROM.1>
41.57964606,57.63082603,-172.66711002,-172.95765434,-105.72809866,54.58837324
74.04714868,46.70453878,56.47190594,31.34624834,-0.96907014,-1.28750453,1.40543495

>  <Name>
ligand

>  <RI>
0

>  <Rbt.Current_Directory>
/home/itssahil/PROJECTS/Mol_Feturizer/New_Systems/rnas/3GX7

>  <Rbt.Executable>
rbdock ($Id: //depot/dev/client3/rdock/2013.1/src/exe/rbdock.cxx#4 $)

>  <Rbt.Library>
libRbt.so (2013.1, Build901 2013/11/27)

>  <Rbt.Parameter_File>
/export/apps/rDock/src/rDock_2013.1_src/data/scripts/dock_solv.prm

>  <Rbt.Receptor>
prm/pocket_docking_3.prm

>  <SCORE>
-16.9904

>  <SCORE.INTER>
-11.7613

>  <SCORE.INTER.CONST>
1

>  <SCORE.INTER.POLAR>
0

>  <SCORE.INTER.ROT>
7

>  <SCORE.INTER.SOLV>
12.8753

>  <SCORE.INTER.VDW>
-20.3993

>  <SCORE.INTER.norm>
-0.435604

>  <SCORE.INTRA>
-5.22909

>  <SCORE.INTRA.DIHEDRAL>
-4.11097

>  <SCORE.INTRA.DIHEDRAL.0>
11.2699

>  <SCORE.INTRA.POLAR>
0

>  <SCORE.INTRA.POLAR.0>
0

>  <SCORE.INTRA.REPUL>
0

>  <SCORE.INTRA.REPUL.0>
0

>  <SCORE.INTRA.SOLV>
-0.122301

>  <SCORE.INTRA.SOLV.lig_0>
-48.6447

>  <SCORE.INTRA.VDW>
-3.11245

>  <SCORE.INTRA.VDW.0>
-0.0211724

>  <SCORE.INTRA.norm>
-0.19367

>  <SCORE.RESTR>
0

>  <SCORE.RESTR.CAVITY>
0

>  <SCORE.RESTR.norm>
0

>  <SCORE.SYSTEM>
0

>  <SCORE.SYSTEM.CONST>
0

>  <SCORE.SYSTEM.DIHEDRAL>
0

>  <SCORE.SYSTEM.SOLV>
0

>  <SCORE.SYSTEM.norm>
0

>  <SCORE.heavy>
27

>  <SCORE.norm>
-0.629274

>  <RMSD>
5.248

$$$$
ligand
 OpenBabel11021811483D
libRbt.so/2013.1/901 2013/11/27
 27 29  0  0  0  0  0  0  0  0999 V2000
   50.8460   53.7743   25.8675 N   0  0  0  0  0  0  0  0  0  0  0  0
   50.8438   55.0212   26.6229 C   0  0  2  0  0  0  0  0  0  0  0  0
   51.7773   54.9248   27.8183 C   0  0  0  0  0  0  0  0  0  0  0  0
   51.8249   53.8957   28.4881 O   0  0  0  0  0  0  0  0  0  0  0  0
   49.4374   55.4088   27.0774 C   0  0  0  0  0  0  0  0  0  0  0  0
   49.3664   56.6649   27.9375 C   0  0  0  0  0  0  0  0  0  0  0  0
   47.6857   57.1630   28.4048 S   0  0  2  0  0  0  0  0  0  0  0  0
   47.1250   57.9732   26.8869 C   0  0  0  0  0  0  0  0  0  0  0  0
   48.0505   58.6076   29.4364 C   0  0  0  0  0  0  0  0  0  0  0  0
   46.7883   59.0553   30.1582 C   0  0  1  0  0  0  0  0  0  0  0  0
   46.1841   57.9211   30.7318 O   0  0  0  0  0  0  0  0  0  0  0  0
   47.0279   60.0008   31.3180 C   0  0  1  0  0  0  0  0  0  0  0  0
   46.8321   61.3330   30.9106 O   0  0  0  0  0  0  0  0  0  0  0  0
   45.9800   59.5894   32.3363 C   0  0  1  0  0  0  0  0  0  0  0  0
   44.9421   60.5408   32.3448 O   0  0  0  0  0  0  0  0  0  0  0  0
   45.4419   58.2385   31.8815 C   0  0  2  0  0  0  0  0  0  0  0  0
   52.5016   55.8703   28.1309 O   0  0  0  0  0  0  0  0  0  0  0  0
   49.1584   55.7915   34.6893 N   0  0  0  0  0  0  0  0  0  0  0  0
   49.3172   56.7663   33.7252 C   0  0  0  0  0  0  0  0  0  0  0  0
   48.2158   57.3012   33.0825 N   0  0  0  0  0  0  0  0  0  0  0  0
   46.9704   56.8720   33.3829 C   0  0  0  0  0  0  0  0  0  0  0  0
   46.7868   55.8984   34.3536 C   0  0  0  0  0  0  0  0  0  0  0  0
   47.8898   55.3533   35.0055 C   0  0  0  0  0  0  0  0  0  0  0  0
   47.7333   54.4137   35.9345 N   0  0  0  0  0  0  0  0  0  0  0  0
   45.4586   55.6704   34.4590 N   0  0  0  0  0  0  0  0  0  0  0  0
   44.8057   56.4820   33.5943 C   0  0  0  0  0  0  0  0  0  0  0  0
   45.7310   57.2339   32.9189 N   0  0  0  0  0  0  0  0  0  0  0  0
  2  1  1  1  0  0  0
  2  3  1  0  0  0  0
  2  5  1  0  0  0  0
  3  4  1  0  0  0  0
  3 17  1  0  0  0  0
  5  6  1  0  0  0  0
  7  6  1  6  0  0  0
  7  8  1  0  0  0  0
  7  9  1  0  0  0  0
 10  9  1  1  0  0  0
 10 11  1  0  0  0  0
 10 12  1  0  0  0  0
 11 16  1  0  0  0  0
 12 13  1  6  0  0  0
 12 14  1  0  0  0  0
 14 15  1  6  0  0  0
 14 16  1  0  0  0  0
 16 27  1  1  0  0  0
 18 19  2  0  0  0  0
 18 23  1  0  0  0  0
 19 20  1  0  0  0  0
 20 21  2  0  0  0  0
 21 22  1  0  0  0  0
 21 27  1  0  0  0  0
 22 23  2  0  0  0  0
 22 25  1  0  0  0  0
 23 24  1  0  0  0  0
 25 26  2  0  0  0  0
 26 27  1  0  0  0  0
M  END
>  <CHROM.1>
-40.69991440,176.89425422,177.15785773,-78.99991106,-169.70859757,47.65287142
53.78819580,47.96135358,57.00075403,30.81018968,-0.65495544,-0.82591815,2.00130013

>  <Name>
ligand

>  <RI>
0

>  <Rbt.Current_Directory>
/home/itssahil/PROJECTS/Mol_Feturizer/New_Systems/rnas/3GX7

>  <Rbt.Executable>
rbdock ($Id: //depot/dev/client3/rdock/2013.1/src/exe/rbdock.cxx#4 $)

>  <Rbt.Library>
libRbt.so (2013.1, Build901 2013/11/27)

>  <Rbt.Parameter_File>
/export/apps/rDock/src/rDock_2013.1_src/data/scripts/dock_solv.prm

>  <Rbt.Receptor>
prm/pocket_docking_5.prm

>  <SCORE>
-20.6748

>  <SCORE.INTER>
-14.5428

>  <SCORE.INTER.CONST>
1

>  <SCORE.INTER.POLAR>
0

>  <SCORE.INTER.ROT>
7

>  <SCORE.INTER.SOLV>
13.401

>  <SCORE.INTER.VDW>
-22.4289

>  <SCORE.INTER.norm>
-0.538622

>  <SCORE.INTRA>
-6.13201

>  <SCORE.INTRA.DIHEDRAL>
-6.24554

>  <SCORE.INTRA.DIHEDRAL.0>
11.2699

>  <SCORE.INTRA.POLAR>
0

>  <SCORE.INTRA.POLAR.0>
0

>  <SCORE.INTRA.REPUL>
0

>  <SCORE.INTRA.REPUL.0>
0

>  <SCORE.INTRA.SOLV>
-1.0405

>  <SCORE.INTRA.SOLV.lig_0>
-48.6447

>  <SCORE.INTRA.VDW>
-2.48899

>  <SCORE.INTRA.VDW.0>
-0.0211724

>  <SCORE.INTRA.norm>
-0.227112

>  <SCORE.RESTR>
0

>  <SCORE.RESTR.CAVITY>
0

>  <SCORE.RESTR.norm>
0

>  <SCORE.SYSTEM>
0

>  <SCORE.SYSTEM.CONST>
0

>  <SCORE.SYSTEM.DIHEDRAL>
0

>  <SCORE.SYSTEM.SOLV>
0

>  <SCORE.SYSTEM.norm>
0

>  <SCORE.heavy>
27

>  <SCORE.norm>
-0.765734

>  <RMSD>
5.270

$$$$
ligand
 OpenBabel11021811483D
libRbt.so/2013.1/901 2013/11/27
 27 29  0  0  0  0  0  0  0  0999 V2000
   46.7588   53.9687   31.1797 N   0  0  0  0  0  0  0  0  0  0  0  0
   47.8912   54.2232   30.2975 C   0  0  2  0  0  0  0  0  0  0  0  0
   49.2022   54.0646   31.0497 C   0  0  0  0  0  0  0  0  0  0  0  0
   49.2330   54.1691   32.2737 O   0  0  0  0  0  0  0  0  0  0  0  0
   47.8120   55.6071   29.6546 C   0  0  0  0  0  0  0  0  0  0  0  0
   46.5373   55.8726   28.8626 C   0  0  0  0  0  0  0  0  0  0  0  0
   46.5656   57.3975   27.8801 S   0  0  2  0  0  0  0  0  0  0  0  0
   48.0213   57.1189   26.8418 C   0  0  0  0  0  0  0  0  0  0  0  0
   47.2438   58.5555   29.0980 C   0  0  0  0  0  0  0  0  0  0  0  0
   46.1341   59.0414   30.0184 C   0  0  1  0  0  0  0  0  0  0  0  0
   45.6097   57.9279   30.7006 O   0  0  0  0  0  0  0  0  0  0  0  0
   46.5903   59.9901   31.1084 C   0  0  1  0  0  0  0  0  0  0  0  0
   46.3598   61.3235   30.7236 O   0  0  0  0  0  0  0  0  0  0  0  0
   45.7219   59.6142   32.2953 C   0  0  1  0  0  0  0  0  0  0  0  0
   44.7236   60.5919   32.4683 O   0  0  0  0  0  0  0  0  0  0  0  0
   45.0821   58.2737   31.9558 C   0  0  2  0  0  0  0  0  0  0  0  0
   50.2496   53.8249   30.4481 O   0  0  0  0  0  0  0  0  0  0  0  0
   49.1506   56.1568   34.5345 N   0  0  0  0  0  0  0  0  0  0  0  0
   49.1639   57.1776   33.6056 C   0  0  0  0  0  0  0  0  0  0  0  0
   47.9864   57.6092   33.0229 N   0  0  0  0  0  0  0  0  0  0  0  0
   46.8083   57.0330   33.3480 C   0  0  0  0  0  0  0  0  0  0  0  0
   46.7705   56.0104   34.2843 C   0  0  0  0  0  0  0  0  0  0  0  0
   47.9511   55.5685   34.8758 C   0  0  0  0  0  0  0  0  0  0  0  0
   47.9349   54.5843   35.7709 N   0  0  0  0  0  0  0  0  0  0  0  0
   45.4806   55.6318   34.4256 N   0  0  0  0  0  0  0  0  0  0  0  0
   44.7095   56.3962   33.6170 C   0  0  0  0  0  0  0  0  0  0  0  0
   45.5197   57.2708   32.9414 N   0  0  0  0  0  0  0  0  0  0  0  0
  2  1  1  1  0  0  0
  2  3  1  0  0  0  0
  2  5  1  0  0  0  0
  3  4  1  0  0  0  0
  3 17  1  0  0  0  0
  5  6  1  0  0  0  0
  7  6  1  1  0  0  0
  7  8  1  0  0  0  0
  7  9  1  0  0  0  0
 10  9  1  6  0  0  0
 10 11  1  0  0  0  0
 10 12  1  0  0  0  0
 11 16  1  0  0  0  0
 12 13  1  6  0  0  0
 12 14  1  0  0  0  0
 14 15  1  6  0  0  0
 14 16  1  0  0  0  0
 16 27  1  1  0  0  0
 18 19  2  0  0  0  0
 18 23  1  0  0  0  0
 19 20  1  0  0  0  0
 20 21  2  0  0  0  0
 21 22  1  0  0  0  0
 21 27  1  0  0  0  0
 22 23  2  0  0  0  0
 22 25  1  0  0  0  0
 23 24  1  0  0  0  0
 25 26  2  0  0  0  0
 26 27  1  0  0  0  0
M  END
>  <CHROM.1>
-22.36619299,-56.81073433,-170.35345332,57.33265689,-81.86882320,61.63886214
65.11433364,47.06373687,56.90359600,31.50319761,-0.92919754,1.03304535,-1.39388304

>  <Name>
ligand

>  <RI>
0

>  <Rbt.Current_Directory>
/home/itssahil/PROJECTS/Mol_Feturizer/New_Systems/rnas/3GX7

>  <Rbt.Executable>
rbdock ($Id: //depot/dev/client3/rdock/2013.1/src/exe/rbdock.cxx#4 $)

>  <Rbt.Library>
libRbt.so (2013.1, Build901 2013/11/27)

>  <Rbt.Parameter_File>
/export/apps/rDock/src/rDock_2013.1_src/data/scripts/dock_solv.prm

>  <Rbt.Receptor>
prm/pocket_docking_3.prm

>  <SCORE>
-18.2197

>  <SCORE.INTER>
-11.194

>  <SCORE.INTER.CONST>
1

>  <SCORE.INTER.POLAR>
0

>  <SCORE.INTER.ROT>
7

>  <SCORE.INTER.SOLV>
14.1415

>  <SCORE.INTER.VDW>
-20.4432

>  <SCORE.INTER.norm>
-0.414594

>  <SCORE.INTRA>
-7.02563

>  <SCORE.INTRA.DIHEDRAL>
-7.08416

>  <SCORE.INTRA.DIHEDRAL.0>
11.2699

>  <SCORE.INTRA.POLAR>
0

>  <SCORE.INTRA.POLAR.0>
0

>  <SCORE.INTRA.REPUL>
0

>  <SCORE.INTRA.REPUL.0>
0

>  <SCORE.INTRA.SOLV>
0.562246

>  <SCORE.INTRA.SOLV.lig_0>
-48.6447

>  <SCORE.INTRA.VDW>
-3.76467

>  <SCORE.INTRA.VDW.0>
-0.0211724

>  <SCORE.INTRA.norm>
-0.260209

>  <SCORE.RESTR>
0

>  <SCORE.RESTR.CAVITY>
0

>  <SCORE.RESTR.norm>
0

>  <SCORE.SYSTEM>
0

>  <SCORE.SYSTEM.CONST>
0

>  <SCORE.SYSTEM.DIHEDRAL>
0

>  <SCORE.SYSTEM.SOLV>
0

>  <SCORE.SYSTEM.norm>
0

>  <SCORE.heavy>
27

>  <SCORE.norm>
-0.674802

>  <RMSD>
5.271

$$$$
ligand
 OpenBabel11021811483D
libRbt.so/2013.1/901 2013/11/27
 27 29  0  0  0  0  0  0  0  0999 V2000
   45.9568   59.5739   29.8802 N   0  0  0  0  0  0  0  0  0  0  0  0
   45.4105   58.6365   30.8539 C   0  0  2  0  0  0  0  0  0  0  0  0
   45.0674   59.3507   32.1507 C   0  0  0  0  0  0  0  0  0  0  0  0
   45.4102   60.5174   32.3271 O   0  0  0  0  0  0  0  0  0  0  0  0
   46.3662   57.4752   31.1241 C   0  0  0  0  0  0  0  0  0  0  0  0
   47.7469   57.8856   31.6220 C   0  0  0  0  0  0  0  0  0  0  0  0
   47.7918   58.4306   33.3518 S   0  0  2  0  0  0  0  0  0  0  0  0
   49.2084   59.5565   33.3283 C   0  0  0  0  0  0  0  0  0  0  0  0
   48.5381   56.9749   34.1314 C   0  0  0  0  0  0  0  0  0  0  0  0
   47.4922   55.8807   34.2838 C   0  0  1  0  0  0  0  0  0  0  0  0
   47.0355   55.5273   33.0004 O   0  0  0  0  0  0  0  0  0  0  0  0
   48.0134   54.5904   34.8837 C   0  0  1  0  0  0  0  0  0  0  0  0
   47.7359   54.5454   36.2621 O   0  0  0  0  0  0  0  0  0  0  0  0
   47.2400   53.5144   34.1431 C   0  0  1  0  0  0  0  0  0  0  0  0
   46.2431   52.9932   34.9898 O   0  0  0  0  0  0  0  0  0  0  0  0
   46.5965   54.1942   32.9409 C   0  0  2  0  0  0  0  0  0  0  0  0
   44.4387   58.7761   33.0400 O   0  0  0  0  0  0  0  0  0  0  0  0
   46.3808   54.0676   27.6853 N   0  0  0  0  0  0  0  0  0  0  0  0
   45.6567   54.8604   28.5526 C   0  0  0  0  0  0  0  0  0  0  0  0
   45.8453   54.7570   29.9186 N   0  0  0  0  0  0  0  0  0  0  0  0
   46.7341   53.8736   30.4238 C   0  0  0  0  0  0  0  0  0  0  0  0
   47.4778   53.0719   29.5705 C   0  0  0  0  0  0  0  0  0  0  0  0
   47.2942   53.1683   28.1937 C   0  0  0  0  0  0  0  0  0  0  0  0
   47.9937   52.4026   27.3603 N   0  0  0  0  0  0  0  0  0  0  0  0
   48.2862   52.3019   30.3326 N   0  0  0  0  0  0  0  0  0  0  0  0
   48.0810   52.6083   31.6352 C   0  0  0  0  0  0  0  0  0  0  0  0
   47.1199   53.5823   31.7078 N   0  0  0  0  0  0  0  0  0  0  0  0
  2  1  1  6  0  0  0
  2  3  1  0  0  0  0
  2  5  1  0  0  0  0
  3  4  1  0  0  0  0
  3 17  1  0  0  0  0
  5  6  1  0  0  0  0
  7  6  1  6  0  0  0
  7  8  1  0  0  0  0
  7  9  1  0  0  0  0
 10  9  1  6  0  0  0
 10 11  1  0  0  0  0
 10 12  1  0  0  0  0
 11 16  1  0  0  0  0
 12 13  1  1  0  0  0
 12 14  1  0  0  0  0
 14 15  1  1  0  0  0
 14 16  1  0  0  0  0
 16 27  1  6  0  0  0
 18 19  2  0  0  0  0
 18 23  1  0  0  0  0
 19 20  1  0  0  0  0
 20 21  2  0  0  0  0
 21 22  1  0  0  0  0
 21 27  1  0  0  0  0
 22 23  2  0  0  0  0
 22 25  1  0  0  0  0
 23 24  1  0  0  0  0
 25 26  2  0  0  0  0
 26 27  1  0  0  0  0
M  END
>  <CHROM.1>
-9.00325091,57.64466625,74.67099734,-152.53693701,-77.65212564,61.27758832
-69.73752833,46.96467738,55.86971909,31.92957642,1.88593490,-1.30640400,0.81758436

>  <Name>
ligand

>  <RI>
0

>  <Rbt.Current_Directory>
/home/itssahil/PROJECTS/Mol_Feturizer/New_Systems/rnas/3GX7

>  <Rbt.Executable>
rbdock ($Id: //depot/dev/client3/rdock/2013.1/src/exe/rbdock.cxx#4 $)

>  <Rbt.Library>
libRbt.so (2013.1, Build901 2013/11/27)

>  <Rbt.Parameter_File>
/export/apps/rDock/src/rDock_2013.1_src/data/scripts/dock_solv.prm

>  <Rbt.Receptor>
prm/pocket_docking_3.prm

>  <SCORE>
-15.3136

>  <SCORE.INTER>
-10.8843

>  <SCORE.INTER.CONST>
1

>  <SCORE.INTER.POLAR>
0

>  <SCORE.INTER.ROT>
7

>  <SCORE.INTER.SOLV>
15.0297

>  <SCORE.INTER.VDW>
-20.5328

>  <SCORE.INTER.norm>
-0.403124

>  <SCORE.INTRA>
-4.42925

>  <SCORE.INTRA.DIHEDRAL>
-4.20396

>  <SCORE.INTRA.DIHEDRAL.0>
11.2699

>  <SCORE.INTRA.POLAR>
0

>  <SCORE.INTRA.POLAR.0>
0

>  <SCORE.INTRA.REPUL>
0

>  <SCORE.INTRA.REPUL.0>
0

>  <SCORE.INTRA.SOLV>
0.37483

>  <SCORE.INTRA.SOLV.lig_0>
-48.6447

>  <SCORE.INTRA.VDW>
-2.51469

>  <SCORE.INTRA.VDW.0>
-0.0211724

>  <SCORE.INTRA.norm>
-0.164046

>  <SCORE.RESTR>
0

>  <SCORE.RESTR.CAVITY>
0

>  <SCORE.RESTR.norm>
0

>  <SCORE.SYSTEM>
0

>  <SCORE.SYSTEM.CONST>
0

>  <SCORE.SYSTEM.DIHEDRAL>
0

>  <SCORE.SYSTEM.SOLV>
0

>  <SCORE.SYSTEM.norm>
0

>  <SCORE.heavy>
27

>  <SCORE.norm>
-0.56717

>  <RMSD>
5.274

$$$$
ligand
 OpenBabel11021811483D
libRbt.so/2013.1/901 2013/11/27
 27 29  0  0  0  0  0  0  0  0999 V2000
   46.6458   56.7850   28.9147 N   0  0  0  0  0  0  0  0  0  0  0  0
   45.5955   57.3237   29.7704 C   0  0  2  0  0  0  0  0  0  0  0  0
   44.2238   57.0135   29.1943 C   0  0  0  0  0  0  0  0  0  0  0  0
   44.0158   57.1274   27.9886 O   0  0  0  0  0  0  0  0  0  0  0  0
   45.7529   58.8283   29.9860 C   0  0  0  0  0  0  0  0  0  0  0  0
   47.0059   59.2372   30.7512 C   0  0  0  0  0  0  0  0  0  0  0  0
   47.0156   58.7446   32.4973 S   0  0  2  0  0  0  0  0  0  0  0  0
   48.5636   59.4914   33.0638 C   0  0  0  0  0  0  0  0  0  0  0  0
   47.5209   57.0112   32.3425 C   0  0  0  0  0  0  0  0  0  0  0  0
   47.4143   56.3224   33.6949 C   0  0  1  0  0  0  0  0  0  0  0  0
   46.0577   56.0376   33.9375 O   0  0  0  0  0  0  0  0  0  0  0  0
   48.1170   54.9822   33.7760 C   0  0  1  0  0  0  0  0  0  0  0  0
   49.3886   55.1318   34.3588 O   0  0  0  0  0  0  0  0  0  0  0  0
   47.2088   54.1566   34.6693 C   0  0  1  0  0  0  0  0  0  0  0  0
   47.7902   54.0457   35.9468 O   0  0  0  0  0  0  0  0  0  0  0  0
   45.8900   54.9136   34.7632 C   0  0  2  0  0  0  0  0  0  0  0  0
   43.3036   56.6399   29.9224 O   0  0  0  0  0  0  0  0  0  0  0  0
   43.6792   52.9689   30.4026 N   0  0  0  0  0  0  0  0  0  0  0  0
   44.7804   53.7942   30.5088 C   0  0  0  0  0  0  0  0  0  0  0  0
   45.2251   54.2121   31.7497 N   0  0  0  0  0  0  0  0  0  0  0  0
   44.5838   53.8255   32.8744 C   0  0  0  0  0  0  0  0  0  0  0  0
   43.4793   52.9905   32.7918 C   0  0  0  0  0  0  0  0  0  0  0  0
   43.0238   52.5654   31.5467 C   0  0  0  0  0  0  0  0  0  0  0  0
   41.9619   51.7698   31.4478 N   0  0  0  0  0  0  0  0  0  0  0  0
   43.0479   52.7562   34.0512 N   0  0  0  0  0  0  0  0  0  0  0  0
   43.8576   53.4074   34.9190 C   0  0  0  0  0  0  0  0  0  0  0  0
   44.8159   54.0760   34.2032 N   0  0  0  0  0  0  0  0  0  0  0  0
  2  1  1  6  0  0  0
  2  3  1  0  0  0  0
  2  5  1  0  0  0  0
  3  4  1  0  0  0  0
  3 17  1  0  0  0  0
  5  6  1  0  0  0  0
  7  6  1  6  0  0  0
  7  8  1  0  0  0  0
  7  9  1  0  0  0  0
 10  9  1  6  0  0  0
 10 11  1  0  0  0  0
 10 12  1  0  0  0  0
 11 16  1  0  0  0  0
 12 13  1  1  0  0  0
 12 14  1  0  0  0  0
 14 15  1  1  0  0  0
 14 16  1  0  0  0  0
 16 27  1  6  0  0  0
 18 19  2  0  0  0  0
 18 23  1  0  0  0  0
 19 20  1  0  0  0  0
 20 21  2  0  0  0  0
 21 22  1  0  0  0  0
 21 27  1  0  0  0  0
 22 23  2  0  0  0  0
 22 25  1  0  0  0  0
 23 24  1  0  0  0  0
 25 26  2  0  0  0  0
 26 27  1  0  0  0  0
M  END
>  <CHROM.1>
-42.21596045,-65.09271168,-68.32204003,-176.26232513,-172.23686477,77.37607977
38.87201969,45.67577871,55.63211882,32.23849364,0.82339929,-0.73243560,-0.81002619

>  <Name>
ligand

>  <RI>
0

>  <Rbt.Current_Directory>
/home/itssahil/PROJECTS/Mol_Feturizer/New_Systems/rnas/3GX7

>  <Rbt.Executable>
rbdock ($Id: //depot/dev/client3/rdock/2013.1/src/exe/rbdock.cxx#4 $)

>  <Rbt.Library>
libRbt.so (2013.1, Build901 2013/11/27)

>  <Rbt.Parameter_File>
/export/apps/rDock/src/rDock_2013.1_src/data/scripts/dock_solv.prm

>  <Rbt.Receptor>
prm/pocket_docking_6.prm

>  <SCORE>
-17.1342

>  <SCORE.INTER>
-10.3626

>  <SCORE.INTER.CONST>
1

>  <SCORE.INTER.POLAR>
0

>  <SCORE.INTER.ROT>
7

>  <SCORE.INTER.SOLV>
8.6103

>  <SCORE.INTER.VDW>
-18.0452

>  <SCORE.INTER.norm>
-0.383801

>  <SCORE.INTRA>
-6.77157

>  <SCORE.INTRA.DIHEDRAL>
-5.55228

>  <SCORE.INTRA.DIHEDRAL.0>
11.2699

>  <SCORE.INTRA.POLAR>
0

>  <SCORE.INTRA.POLAR.0>
0

>  <SCORE.INTRA.REPUL>
0

>  <SCORE.INTRA.REPUL.0>
0

>  <SCORE.INTRA.SOLV>
0.904422

>  <SCORE.INTRA.SOLV.lig_0>
-48.6447

>  <SCORE.INTRA.VDW>
-4.44764

>  <SCORE.INTRA.VDW.0>
-0.0211724

>  <SCORE.INTRA.norm>
-0.250799

>  <SCORE.RESTR>
0

>  <SCORE.RESTR.CAVITY>
0

>  <SCORE.RESTR.norm>
0

>  <SCORE.SYSTEM>
0

>  <SCORE.SYSTEM.CONST>
0

>  <SCORE.SYSTEM.DIHEDRAL>
0

>  <SCORE.SYSTEM.SOLV>
0

>  <SCORE.SYSTEM.norm>
0

>  <SCORE.heavy>
27

>  <SCORE.norm>
-0.6346

>  <RMSD>
5.278

$$$$
ligand
 OpenBabel11021811483D
libRbt.so/2013.1/901 2013/11/27
 27 29  0  0  0  0  0  0  0  0999 V2000
   51.0045   53.2289   28.9388 N   0  0  0  0  0  0  0  0  0  0  0  0
   50.5510   54.2652   28.0191 C   0  0  2  0  0  0  0  0  0  0  0  0
   51.7297   55.0674   27.4931 C   0  0  0  0  0  0  0  0  0  0  0  0
   52.4054   55.7527   28.2570 O   0  0  0  0  0  0  0  0  0  0  0  0
   49.5247   55.1927   28.6682 C   0  0  0  0  0  0  0  0  0  0  0  0
   48.9549   56.2626   27.7444 C   0  0  0  0  0  0  0  0  0  0  0  0
   47.4753   57.0969   28.3817 S   0  0  2  0  0  0  0  0  0  0  0  0
   47.2046   58.3531   27.1075 C   0  0  0  0  0  0  0  0  0  0  0  0
   48.2123   58.1079   29.6927 C   0  0  0  0  0  0  0  0  0  0  0  0
   47.1687   59.0622   30.2536 C   0  0  1  0  0  0  0  0  0  0  0  0
   45.9733   58.3443   30.4434 O   0  0  0  0  0  0  0  0  0  0  0  0
   47.5046   59.6322   31.6170 C   0  0  1  0  0  0  0  0  0  0  0  0
   48.0762   60.9107   31.4847 O   0  0  0  0  0  0  0  0  0  0  0  0
   46.1573   59.7136   32.3116 C   0  0  1  0  0  0  0  0  0  0  0  0
   45.7304   61.0551   32.3407 O   0  0  0  0  0  0  0  0  0  0  0  0
   45.1908   58.8794   31.4801 C   0  0  2  0  0  0  0  0  0  0  0  0
   52.0285   55.0401   26.2988 O   0  0  0  0  0  0  0  0  0  0  0  0
   46.4131   54.9329   34.7382 N   0  0  0  0  0  0  0  0  0  0  0  0
   47.2637   55.8275   34.1208 C   0  0  0  0  0  0  0  0  0  0  0  0
   46.7614   56.8098   33.2871 N   0  0  0  0  0  0  0  0  0  0  0  0
   45.4330   56.9027   33.0587 C   0  0  0  0  0  0  0  0  0  0  0  0
   44.5591   56.0188   33.6742 C   0  0  0  0  0  0  0  0  0  0  0  0
   45.0556   55.0259   34.5146 C   0  0  0  0  0  0  0  0  0  0  0  0
   44.2329   54.1651   35.1082 N   0  0  0  0  0  0  0  0  0  0  0  0
   43.3062   56.3430   33.2839 N   0  0  0  0  0  0  0  0  0  0  0  0
   43.3692   57.4115   32.4550 C   0  0  0  0  0  0  0  0  0  0  0  0
   44.6832   57.7703   32.3053 N   0  0  0  0  0  0  0  0  0  0  0  0
  2  1  1  1  0  0  0
  2  3  1  0  0  0  0
  2  5  1  0  0  0  0
  3  4  1  0  0  0  0
  3 17  1  0  0  0  0
  5  6  1  0  0  0  0
  7  6  1  6  0  0  0
  7  8  1  0  0  0  0
  7  9  1  0  0  0  0
 10  9  1  1  0  0  0
 10 11  1  0  0  0  0
 10 12  1  0  0  0  0
 11 16  1  0  0  0  0
 12 13  1  6  0  0  0
 12 14  1  0  0  0  0
 14 15  1  6  0  0  0
 14 16  1  0  0  0  0
 16 27  1  1  0  0  0
 18 19  2  0  0  0  0
 18 23  1  0  0  0  0
 19 20  1  0  0  0  0
 20 21  2  0  0  0  0
 21 22  1  0  0  0  0
 21 27  1  0  0  0  0
 22 23  2  0  0  0  0
 22 25  1  0  0  0  0
 23 24  1  0  0  0  0
 25 26  2  0  0  0  0
 26 27  1  0  0  0  0
M  END
>  <CHROM.1>
-64.69837174,-177.22064048,166.19046772,175.26095828,171.97564093,44.47696065
64.33077000,47.33941608,56.98635087,30.79529837,-0.11973916,-0.79802896,2.68674136

>  <Name>
ligand

>  <RI>
0

>  <Rbt.Current_Directory>
/home/itssahil/PROJECTS/Mol_Feturizer/New_Systems/rnas/3GX7

>  <Rbt.Executable>
rbdock ($Id: //depot/dev/client3/rdock/2013.1/src/exe/rbdock.cxx#4 $)

>  <Rbt.Library>
libRbt.so (2013.1, Build901 2013/11/27)

>  <Rbt.Parameter_File>
/export/apps/rDock/src/rDock_2013.1_src/data/scripts/dock_solv.prm

>  <Rbt.Receptor>
prm/pocket_docking_5.prm

>  <SCORE>
-19.2449

>  <SCORE.INTER>
-13.2126

>  <SCORE.INTER.CONST>
1

>  <SCORE.INTER.POLAR>
0

>  <SCORE.INTER.ROT>
7

>  <SCORE.INTER.SOLV>
14.4911

>  <SCORE.INTER.VDW>
-21.9054

>  <SCORE.INTER.norm>
-0.489357

>  <SCORE.INTRA>
-6.03757

>  <SCORE.INTRA.DIHEDRAL>
-6.55956

>  <SCORE.INTRA.DIHEDRAL.0>
11.2699

>  <SCORE.INTRA.POLAR>
0

>  <SCORE.INTRA.POLAR.0>
0

>  <SCORE.INTRA.REPUL>
0

>  <SCORE.INTRA.REPUL.0>
0

>  <SCORE.INTRA.SOLV>
-1.02495

>  <SCORE.INTRA.SOLV.lig_0>
-48.6447

>  <SCORE.INTRA.VDW>
-2.24531

>  <SCORE.INTRA.VDW.0>
-0.0211724

>  <SCORE.INTRA.norm>
-0.223614

>  <SCORE.RESTR>
0.00531018

>  <SCORE.RESTR.CAVITY>
0.00531018

>  <SCORE.RESTR.norm>
0.000196673

>  <SCORE.SYSTEM>
0

>  <SCORE.SYSTEM.CONST>
0

>  <SCORE.SYSTEM.DIHEDRAL>
0

>  <SCORE.SYSTEM.SOLV>
0

>  <SCORE.SYSTEM.norm>
0

>  <SCORE.heavy>
27

>  <SCORE.norm>
-0.712774

>  <RMSD>
5.280

$$$$
ligand
 OpenBabel11021811483D
libRbt.so/2013.1/901 2013/11/27
 27 29  0  0  0  0  0  0  0  0999 V2000
   45.9315   53.3962   30.1501 N   0  0  0  0  0  0  0  0  0  0  0  0
   47.0748   53.5787   29.2641 C   0  0  2  0  0  0  0  0  0  0  0  0
   48.3342   53.0021   29.8896 C   0  0  0  0  0  0  0  0  0  0  0  0
   48.3359   51.8603   30.3437 O   0  0  0  0  0  0  0  0  0  0  0  0
   47.2863   55.0483   28.9032 C   0  0  0  0  0  0  0  0  0  0  0  0
   46.0272   55.7870   28.4653 C   0  0  0  0  0  0  0  0  0  0  0  0
   46.3317   57.3971   27.6866 S   0  0  2  0  0  0  0  0  0  0  0  0
   47.7777   57.0245   26.6643 C   0  0  0  0  0  0  0  0  0  0  0  0
   47.1162   58.2792   29.0616 C   0  0  0  0  0  0  0  0  0  0  0  0
   46.0482   58.8320   29.9934 C   0  0  1  0  0  0  0  0  0  0  0  0
   45.4614   57.7523   30.6792 O   0  0  0  0  0  0  0  0  0  0  0  0
   46.5736   59.7480   31.0804 C   0  0  1  0  0  0  0  0  0  0  0  0
   46.4236   61.0939   30.6997 O   0  0  0  0  0  0  0  0  0  0  0  0
   45.6946   59.4249   32.2751 C   0  0  1  0  0  0  0  0  0  0  0  0
   44.7615   60.4631   32.4592 O   0  0  0  0  0  0  0  0  0  0  0  0
   44.9686   58.1280   31.9399 C   0  0  2  0  0  0  0  0  0  0  0  0
   49.3704   53.6649   29.9468 O   0  0  0  0  0  0  0  0  0  0  0  0
   48.8877   55.9452   34.6895 N   0  0  0  0  0  0  0  0  0  0  0  0
   48.9513   56.9928   33.7931 C   0  0  0  0  0  0  0  0  0  0  0  0
   47.8082   57.4388   33.1552 N   0  0  0  0  0  0  0  0  0  0  0  0
   46.6154   56.8507   33.3940 C   0  0  0  0  0  0  0  0  0  0  0  0
   46.5269   55.8010   34.2963 C   0  0  0  0  0  0  0  0  0  0  0  0
   47.6726   55.3446   34.9426 C   0  0  0  0  0  0  0  0  0  0  0  0
   47.6079   54.3345   35.8062 N   0  0  0  0  0  0  0  0  0  0  0  0
   45.2325   55.4156   34.3507 N   0  0  0  0  0  0  0  0  0  0  0  0
   44.5070   56.2018   33.5211 C   0  0  0  0  0  0  0  0  0  0  0  0
   45.3518   57.0975   32.9197 N   0  0  0  0  0  0  0  0  0  0  0  0
  2  1  1  1  0  0  0
  2  3  1  0  0  0  0
  2  5  1  0  0  0  0
  3  4  1  0  0  0  0
  3 17  1  0  0  0  0
  5  6  1  0  0  0  0
  7  6  1  1  0  0  0
  7  8  1  0  0  0  0
  7  9  1  0  0  0  0
 10  9  1  6  0  0  0
 10 11  1  0  0  0  0
 10 12  1  0  0  0  0
 11 16  1  0  0  0  0
 12 13  1  6  0  0  0
 12 14  1  0  0  0  0
 14 15  1  6  0  0  0
 14 16  1  0  0  0  0
 16 27  1  1  0  0  0
 18 19  2  0  0  0  0
 18 23  1  0  0  0  0
 19 20  1  0  0  0  0
 20 21  2  0  0  0  0
 21 22  1  0  0  0  0
 21 27  1  0  0  0  0
 22 23  2  0  0  0  0
 22 25  1  0  0  0  0
 23 24  1  0  0  0  0
 25 26  2  0  0  0  0
 26 27  1  0  0  0  0
M  END
>  <CHROM.1>
50.08830121,-47.51040343,-166.80749427,40.57704023,-82.63622317,71.09367530
70.77147296,46.74964384,56.57555220,31.24069964,-1.44594898,-1.23146958,1.64083935

>  <Name>
ligand

>  <RI>
0

>  <Rbt.Current_Directory>
/home/itssahil/PROJECTS/Mol_Feturizer/New_Systems/rnas/3GX7

>  <Rbt.Executable>
rbdock ($Id: //depot/dev/client3/rdock/2013.1/src/exe/rbdock.cxx#4 $)

>  <Rbt.Library>
libRbt.so (2013.1, Build901 2013/11/27)

>  <Rbt.Parameter_File>
/export/apps/rDock/src/rDock_2013.1_src/data/scripts/dock_solv.prm

>  <Rbt.Receptor>
prm/pocket_docking_3.prm

>  <SCORE>
-14.676

>  <SCORE.INTER>
-11.1966

>  <SCORE.INTER.CONST>
1

>  <SCORE.INTER.POLAR>
0

>  <SCORE.INTER.ROT>
7

>  <SCORE.INTER.SOLV>
14.1829

>  <SCORE.INTER.VDW>
-20.4587

>  <SCORE.INTER.norm>
-0.41469

>  <SCORE.INTRA>
-3.47937

>  <SCORE.INTRA.DIHEDRAL>
-5.53687

>  <SCORE.INTRA.DIHEDRAL.0>
11.2699

>  <SCORE.INTRA.POLAR>
0

>  <SCORE.INTRA.POLAR.0>
0

>  <SCORE.INTRA.REPUL>
0

>  <SCORE.INTRA.REPUL.0>
0

>  <SCORE.INTRA.SOLV>
-0.229013

>  <SCORE.INTRA.SOLV.lig_0>
-48.6447

>  <SCORE.INTRA.VDW>
-0.596429

>  <SCORE.INTRA.VDW.0>
-0.0211724

>  <SCORE.INTRA.norm>
-0.128866

>  <SCORE.RESTR>
0

>  <SCORE.RESTR.CAVITY>
0

>  <SCORE.RESTR.norm>
0

>  <SCORE.SYSTEM>
0

>  <SCORE.SYSTEM.CONST>
0

>  <SCORE.SYSTEM.DIHEDRAL>
0

>  <SCORE.SYSTEM.SOLV>
0

>  <SCORE.SYSTEM.norm>
0

>  <SCORE.heavy>
27

>  <SCORE.norm>
-0.543555

>  <RMSD>
5.289

$$$$
ligand
 OpenBabel11021811483D
libRbt.so/2013.1/901 2013/11/27
 27 29  0  0  0  0  0  0  0  0999 V2000
   48.8766   53.5137   29.3265 N   0  0  0  0  0  0  0  0  0  0  0  0
   49.8576   54.1631   30.1876 C   0  0  2  0  0  0  0  0  0  0  0  0
   49.3116   54.3211   31.5971 C   0  0  0  0  0  0  0  0  0  0  0  0
   48.5108   53.5056   32.0484 O   0  0  0  0  0  0  0  0  0  0  0  0
   50.2938   55.5181   29.6322 C   0  0  0  0  0  0  0  0  0  0  0  0
   49.1734   56.3482   29.0173 C   0  0  0  0  0  0  0  0  0  0  0  0
   47.9703   56.9918   30.2131 S   0  0  2  0  0  0  0  0  0  0  0  0
   46.7235   55.6802   30.1967 C   0  0  0  0  0  0  0  0  0  0  0  0
   47.1448   58.2467   29.1993 C   0  0  0  0  0  0  0  0  0  0  0  0
   46.1826   59.0512   30.0605 C   0  0  1  0  0  0  0  0  0  0  0  0
   45.1968   58.1762   30.5533 O   0  0  0  0  0  0  0  0  0  0  0  0
   46.8087   59.6710   31.2935 C   0  0  1  0  0  0  0  0  0  0  0  0
   47.1426   61.0154   31.0486 O   0  0  0  0  0  0  0  0  0  0  0  0
   45.7131   59.5699   32.3393 C   0  0  1  0  0  0  0  0  0  0  0  0
   45.1352   60.8396   32.5304 O   0  0  0  0  0  0  0  0  0  0  0  0
   44.6731   58.6047   31.7843 C   0  0  2  0  0  0  0  0  0  0  0  0
   49.6649   55.2620   32.3086 O   0  0  0  0  0  0  0  0  0  0  0  0
   47.2611   55.2264   34.8783 N   0  0  0  0  0  0  0  0  0  0  0  0
   47.7721   56.2755   34.1413 C   0  0  0  0  0  0  0  0  0  0  0  0
   46.9349   57.0666   33.3759 N   0  0  0  0  0  0  0  0  0  0  0  0
   45.6074   56.8191   33.3323 C   0  0  0  0  0  0  0  0  0  0  0  0
   45.0711   55.7744   34.0706 C   0  0  0  0  0  0  0  0  0  0  0  0
   45.9063   54.9720   34.8434 C   0  0  0  0  0  0  0  0  0  0  0  0
   45.4106   53.9614   35.5528 N   0  0  0  0  0  0  0  0  0  0  0  0
   43.7369   55.7625   33.8541 N   0  0  0  0  0  0  0  0  0  0  0  0
   43.4210   56.7766   33.0147 C   0  0  0  0  0  0  0  0  0  0  0  0
   44.5721   57.4415   32.6818 N   0  0  0  0  0  0  0  0  0  0  0  0
  2  1  1  6  0  0  0
  2  3  1  0  0  0  0
  2  5  1  0  0  0  0
  3  4  1  0  0  0  0
  3 17  1  0  0  0  0
  5  6  1  0  0  0  0
  7  6  1  6  0  0  0
  7  8  1  0  0  0  0
  7  9  1  0  0  0  0
 10  9  1  1  0  0  0
 10 11  1  0  0  0  0
 10 12  1  0  0  0  0
 11 16  1  0  0  0  0
 12 13  1  6  0  0  0
 12 14  1  0  0  0  0
 14 15  1  6  0  0  0
 14 16  1  0  0  0  0
 16 27  1  1  0  0  0
 18 19  2  0  0  0  0
 18 23  1  0  0  0  0
 19 20  1  0  0  0  0
 20 21  2  0  0  0  0
 21 22  1  0  0  0  0
 21 27  1  0  0  0  0
 22 23  2  0  0  0  0
 22 25  1  0  0  0  0
 23 24  1  0  0  0  0
 25 26  2  0  0  0  0
 26 27  1  0  0  0  0
M  END
>  <CHROM.1>
30.54034994,39.84318845,69.55794472,-92.24957456,-173.22303507,-62.50141995
75.23680008,46.90053720,56.73322605,31.83649675,-0.36656748,0.75212091,-0.62533638

>  <Name>
ligand

>  <RI>
0

>  <Rbt.Current_Directory>
/home/itssahil/PROJECTS/Mol_Feturizer/New_Systems/rnas/3GX7

>  <Rbt.Executable>
rbdock ($Id: //depot/dev/client3/rdock/2013.1/src/exe/rbdock.cxx#4 $)

>  <Rbt.Library>
libRbt.so (2013.1, Build901 2013/11/27)

>  <Rbt.Parameter_File>
/export/apps/rDock/src/rDock_2013.1_src/data/scripts/dock_solv.prm

>  <Rbt.Receptor>
prm/pocket_docking_4.prm

>  <SCORE>
-15.1882

>  <SCORE.INTER>
-10.0012

>  <SCORE.INTER.CONST>
1

>  <SCORE.INTER.POLAR>
0

>  <SCORE.INTER.ROT>
7

>  <SCORE.INTER.SOLV>
12.5825

>  <SCORE.INTER.VDW>
-19.1283

>  <SCORE.INTER.norm>
-0.370415

>  <SCORE.INTRA>
-5.18695

>  <SCORE.INTRA.DIHEDRAL>
-4.16142

>  <SCORE.INTRA.DIHEDRAL.0>
11.2699

>  <SCORE.INTRA.POLAR>
0

>  <SCORE.INTRA.POLAR.0>
0

>  <SCORE.INTRA.REPUL>
0

>  <SCORE.INTRA.REPUL.0>
0

>  <SCORE.INTRA.SOLV>
1.90222

>  <SCORE.INTRA.SOLV.lig_0>
-48.6447

>  <SCORE.INTRA.VDW>
-4.05735

>  <SCORE.INTRA.VDW.0>
-0.0211724

>  <SCORE.INTRA.norm>
-0.192109

>  <SCORE.RESTR>
0

>  <SCORE.RESTR.CAVITY>
0

>  <SCORE.RESTR.norm>
0

>  <SCORE.SYSTEM>
0

>  <SCORE.SYSTEM.CONST>
0

>  <SCORE.SYSTEM.DIHEDRAL>
0

>  <SCORE.SYSTEM.SOLV>
0

>  <SCORE.SYSTEM.norm>
0

>  <SCORE.heavy>
27

>  <SCORE.norm>
-0.562524

>  <RMSD>
5.295

$$$$
ligand
 OpenBabel11021811483D
libRbt.so/2013.1/901 2013/11/27
 27 29  0  0  0  0  0  0  0  0999 V2000
   44.8975   53.4965   30.0459 N   0  0  0  0  0  0  0  0  0  0  0  0
   45.8190   53.2571   28.9418 C   0  0  2  0  0  0  0  0  0  0  0  0
   47.1602   52.7655   29.4607 C   0  0  0  0  0  0  0  0  0  0  0  0
   47.9793   52.2675   28.6920 O   0  0  0  0  0  0  0  0  0  0  0  0
   46.0084   54.5034   28.0782 C   0  0  0  0  0  0  0  0  0  0  0  0
   46.4654   55.7438   28.8366 C   0  0  0  0  0  0  0  0  0  0  0  0
   46.5000   57.2623   27.8444 S   0  0  2  0  0  0  0  0  0  0  0  0
   47.9503   56.9679   26.8028 C   0  0  0  0  0  0  0  0  0  0  0  0
   47.1897   58.4236   29.0525 C   0  0  0  0  0  0  0  0  0  0  0  0
   46.0880   58.9158   29.9791 C   0  0  1  0  0  0  0  0  0  0  0  0
   45.5293   57.7998   30.6294 O   0  0  0  0  0  0  0  0  0  0  0  0
   46.5630   59.8233   31.0959 C   0  0  1  0  0  0  0  0  0  0  0  0
   46.3712   61.1719   30.7446 O   0  0  0  0  0  0  0  0  0  0  0  0
   45.6773   59.4407   32.2678 C   0  0  1  0  0  0  0  0  0  0  0  0
   44.7049   60.4406   32.4606 O   0  0  0  0  0  0  0  0  0  0  0  0
   45.0034   58.1275   31.8901 C   0  0  2  0  0  0  0  0  0  0  0  0
   47.4487   52.8621   30.6540 O   0  0  0  0  0  0  0  0  0  0  0  0
   48.9180   56.1172   34.7743 N   0  0  0  0  0  0  0  0  0  0  0  0
   48.9532   57.2020   33.9217 C   0  0  0  0  0  0  0  0  0  0  0  0
   47.8165   57.5916   33.2373 N   0  0  0  0  0  0  0  0  0  0  0  0
   46.6585   56.9117   33.3870 C   0  0  0  0  0  0  0  0  0  0  0  0
   46.5984   55.8229   34.2441 C   0  0  0  0  0  0  0  0  0  0  0  0
   47.7380   55.4226   34.9367 C   0  0  0  0  0  0  0  0  0  0  0  0
   47.7007   54.3765   35.7579 N   0  0  0  0  0  0  0  0  0  0  0  0
   45.3343   55.3453   34.2115 N   0  0  0  0  0  0  0  0  0  0  0  0
   44.5990   56.1112   33.3716 C   0  0  0  0  0  0  0  0  0  0  0  0
   45.4075   57.0879   32.8518 N   0  0  0  0  0  0  0  0  0  0  0  0
  2  1  1  1  0  0  0
  2  3  1  0  0  0  0
  2  5  1  0  0  0  0
  3  4  1  0  0  0  0
  3 17  1  0  0  0  0
  5  6  1  0  0  0  0
  7  6  1  1  0  0  0
  7  8  1  0  0  0  0
  7  9  1  0  0  0  0
 10  9  1  6  0  0  0
 10 11  1  0  0  0  0
 10 12  1  0  0  0  0
 11 16  1  0  0  0  0
 12 13  1  6  0  0  0
 12 14  1  0  0  0  0
 14 15  1  6  0  0  0
 14 16  1  0  0  0  0
 16 27  1  1  0  0  0
 18 19  2  0  0  0  0
 18 23  1  0  0  0  0
 19 20  1  0  0  0  0
 20 21  2  0  0  0  0
 21 22  1  0  0  0  0
 21 27  1  0  0  0  0
 22 23  2  0  0  0  0
 22 25  1  0  0  0  0
 23 24  1  0  0  0  0
 25 26  2  0  0  0  0
 26 27  1  0  0  0  0
M  END
>  <CHROM.1>
166.03353289,55.48816419,-173.15779723,-73.13996816,-81.52145959,59.28274961
73.91718999,46.55275060,56.54466339,31.16815354,-1.35143434,-1.39701316,1.22272743

>  <Name>
ligand

>  <RI>
0

>  <Rbt.Current_Directory>
/home/itssahil/PROJECTS/Mol_Feturizer/New_Systems/rnas/3GX7

>  <Rbt.Executable>
rbdock ($Id: //depot/dev/client3/rdock/2013.1/src/exe/rbdock.cxx#4 $)

>  <Rbt.Library>
libRbt.so (2013.1, Build901 2013/11/27)

>  <Rbt.Parameter_File>
/export/apps/rDock/src/rDock_2013.1_src/data/scripts/dock_solv.prm

>  <Rbt.Receptor>
prm/pocket_docking_4.prm

>  <SCORE>
-17.8779

>  <SCORE.INTER>
-11.6537

>  <SCORE.INTER.CONST>
1

>  <SCORE.INTER.POLAR>
0

>  <SCORE.INTER.ROT>
7

>  <SCORE.INTER.SOLV>
14.5571

>  <SCORE.INTER.VDW>
-20.8882

>  <SCORE.INTER.norm>
-0.431617

>  <SCORE.INTRA>
-6.22419

>  <SCORE.INTRA.DIHEDRAL>
-7.2922

>  <SCORE.INTRA.DIHEDRAL.0>
11.2699

>  <SCORE.INTRA.POLAR>
0

>  <SCORE.INTRA.POLAR.0>
0

>  <SCORE.INTRA.REPUL>
0

>  <SCORE.INTRA.REPUL.0>
0

>  <SCORE.INTRA.SOLV>
-0.278484

>  <SCORE.INTRA.SOLV.lig_0>
-48.6447

>  <SCORE.INTRA.VDW>
-2.43885

>  <SCORE.INTRA.VDW.0>
-0.0211724

>  <SCORE.INTRA.norm>
-0.230526

>  <SCORE.RESTR>
0

>  <SCORE.RESTR.CAVITY>
0

>  <SCORE.RESTR.norm>
0

>  <SCORE.SYSTEM>
0

>  <SCORE.SYSTEM.CONST>
0

>  <SCORE.SYSTEM.DIHEDRAL>
0

>  <SCORE.SYSTEM.SOLV>
0

>  <SCORE.SYSTEM.norm>
0

>  <SCORE.heavy>
27

>  <SCORE.norm>
-0.662143

>  <RMSD>
5.296

$$$$
ligand
 OpenBabel11021811483D
libRbt.so/2013.1/901 2013/11/27
 27 29  0  0  0  0  0  0  0  0999 V2000
   47.1648   53.1661   28.7119 N   0  0  0  0  0  0  0  0  0  0  0  0
   45.8991   53.4780   28.0591 C   0  0  2  0  0  0  0  0  0  0  0  0
   45.5774   52.4441   26.9927 C   0  0  0  0  0  0  0  0  0  0  0  0
   44.5523   51.7709   27.0689 O   0  0  0  0  0  0  0  0  0  0  0  0
   45.9013   54.8814   27.4545 C   0  0  0  0  0  0  0  0  0  0  0  0
   46.1635   56.0060   28.4490 C   0  0  0  0  0  0  0  0  0  0  0  0
   46.3163   57.6517   27.7009 S   0  0  2  0  0  0  0  0  0  0  0  0
   47.7405   57.4106   26.6107 C   0  0  0  0  0  0  0  0  0  0  0  0
   47.0926   58.5574   29.0650 C   0  0  0  0  0  0  0  0  0  0  0  0
   46.0233   59.0524   30.0274 C   0  0  1  0  0  0  0  0  0  0  0  0
   45.5046   57.9412   30.7176 O   0  0  0  0  0  0  0  0  0  0  0  0
   46.5321   59.9836   31.1093 C   0  0  1  0  0  0  0  0  0  0  0  0
   46.3102   61.3240   30.7443 O   0  0  0  0  0  0  0  0  0  0  0  0
   45.6989   59.6106   32.3221 C   0  0  1  0  0  0  0  0  0  0  0  0
   44.7232   60.6025   32.5380 O   0  0  0  0  0  0  0  0  0  0  0  0
   45.0261   58.2838   31.9932 C   0  0  2  0  0  0  0  0  0  0  0  0
   46.3331   52.2682   26.0364 O   0  0  0  0  0  0  0  0  0  0  0  0
   49.1077   56.2717   34.6344 N   0  0  0  0  0  0  0  0  0  0  0  0
   49.1000   57.3288   33.7471 C   0  0  0  0  0  0  0  0  0  0  0  0
   47.9225   57.7238   33.1389 N   0  0  0  0  0  0  0  0  0  0  0  0
   46.7654   57.0760   33.3981 C   0  0  0  0  0  0  0  0  0  0  0  0
   46.7485   56.0155   34.2920 C   0  0  0  0  0  0  0  0  0  0  0  0
   47.9293   55.6101   34.9085 C   0  0  0  0  0  0  0  0  0  0  0  0
   47.9333   54.5907   35.7634 N   0  0  0  0  0  0  0  0  0  0  0  0
   45.4759   55.5668   34.3712 N   0  0  0  0  0  0  0  0  0  0  0  0
   44.6944   56.3237   33.5654 C   0  0  0  0  0  0  0  0  0  0  0  0
   45.4810   57.2649   32.9543 N   0  0  0  0  0  0  0  0  0  0  0  0
  2  1  1  6  0  0  0
  2  3  1  0  0  0  0
  2  5  1  0  0  0  0
  3  4  1  0  0  0  0
  3 17  1  0  0  0  0
  5  6  1  0  0  0  0
  7  6  1  1  0  0  0
  7  8  1  0  0  0  0
  7  9  1  0  0  0  0
 10  9  1  6  0  0  0
 10 11  1  0  0  0  0
 10 12  1  0  0  0  0
 11 16  1  0  0  0  0
 12 13  1  6  0  0  0
 12 14  1  0  0  0  0
 14 15  1  6  0  0  0
 14 16  1  0  0  0  0
 16 27  1  1  0  0  0
 18 19  2  0  0  0  0
 18 23  1  0  0  0  0
 19 20  1  0  0  0  0
 20 21  2  0  0  0  0
 21 22  1  0  0  0  0
 21 27  1  0  0  0  0
 22 23  2  0  0  0  0
 22 25  1  0  0  0  0
 23 24  1  0  0  0  0
 25 26  2  0  0  0  0
 26 27  1  0  0  0  0
M  END
>  <CHROM.1>
119.78968712,-58.51135083,174.63906722,-60.73146121,-84.71247254,71.15431376
70.95374299,46.40398929,56.66135522,30.72070901,-2.18752874,-1.40511733,0.41593172

>  <Name>
ligand

>  <RI>
0

>  <Rbt.Current_Directory>
/home/itssahil/PROJECTS/Mol_Feturizer/New_Systems/rnas/3GX7

>  <Rbt.Executable>
rbdock ($Id: //depot/dev/client3/rdock/2013.1/src/exe/rbdock.cxx#4 $)

>  <Rbt.Library>
libRbt.so (2013.1, Build901 2013/11/27)

>  <Rbt.Parameter_File>
/export/apps/rDock/src/rDock_2013.1_src/data/scripts/dock_solv.prm

>  <Rbt.Receptor>
prm/pocket_docking_6.prm

>  <SCORE>
-18.4463

>  <SCORE.INTER>
-12.5098

>  <SCORE.INTER.CONST>
1

>  <SCORE.INTER.POLAR>
0

>  <SCORE.INTER.ROT>
7

>  <SCORE.INTER.SOLV>
16.0852

>  <SCORE.INTER.VDW>
-21.9682

>  <SCORE.INTER.norm>
-0.463324

>  <SCORE.INTRA>
-5.93654

>  <SCORE.INTRA.DIHEDRAL>
-6.62154

>  <SCORE.INTRA.DIHEDRAL.0>
11.2699

>  <SCORE.INTRA.POLAR>
0

>  <SCORE.INTRA.POLAR.0>
0

>  <SCORE.INTRA.REPUL>
0

>  <SCORE.INTRA.REPUL.0>
0

>  <SCORE.INTRA.SOLV>
-0.350338

>  <SCORE.INTRA.SOLV.lig_0>
-48.6447

>  <SCORE.INTRA.VDW>
-2.4506

>  <SCORE.INTRA.VDW.0>
-0.0211724

>  <SCORE.INTRA.norm>
-0.219872

>  <SCORE.RESTR>
0

>  <SCORE.RESTR.CAVITY>
0

>  <SCORE.RESTR.norm>
0

>  <SCORE.SYSTEM>
0

>  <SCORE.SYSTEM.CONST>
0

>  <SCORE.SYSTEM.DIHEDRAL>
0

>  <SCORE.SYSTEM.SOLV>
0

>  <SCORE.SYSTEM.norm>
0

>  <SCORE.heavy>
27

>  <SCORE.norm>
-0.683196

>  <RMSD>
5.297

$$$$
ligand
 OpenBabel11021811483D
libRbt.so/2013.1/901 2013/11/27
 27 29  0  0  0  0  0  0  0  0999 V2000
   45.3073   53.8575   28.9963 N   0  0  0  0  0  0  0  0  0  0  0  0
   46.4207   53.3352   28.2134 C   0  0  2  0  0  0  0  0  0  0  0  0
   45.9115   52.5331   27.0272 C   0  0  0  0  0  0  0  0  0  0  0  0
   46.5528   52.4976   25.9797 O   0  0  0  0  0  0  0  0  0  0  0  0
   47.3647   52.4856   29.0630 C   0  0  0  0  0  0  0  0  0  0  0  0
   48.0677   53.2389   30.1859 C   0  0  0  0  0  0  0  0  0  0  0  0
   49.1645   54.5715   29.6266 S   0  0  2  0  0  0  0  0  0  0  0  0
   50.6448   53.6376   29.1666 C   0  0  0  0  0  0  0  0  0  0  0  0
   49.6856   55.2540   31.2223 C   0  0  0  0  0  0  0  0  0  0  0  0
   48.6522   56.2561   31.7146 C   0  0  1  0  0  0  0  0  0  0  0  0
   47.5217   55.5421   32.1535 O   0  0  0  0  0  0  0  0  0  0  0  0
   49.0892   57.0740   32.9132 C   0  0  1  0  0  0  0  0  0  0  0  0
   49.5752   58.3273   32.4986 O   0  0  0  0  0  0  0  0  0  0  0  0
   47.8142   57.2314   33.7219 C   0  0  1  0  0  0  0  0  0  0  0  0
   47.3205   58.5400   33.5603 O   0  0  0  0  0  0  0  0  0  0  0  0
   46.8171   56.2272   33.1573 C   0  0  2  0  0  0  0  0  0  0  0  0
   44.8550   51.9045   27.0977 O   0  0  0  0  0  0  0  0  0  0  0  0
   48.3134   53.8282   37.5947 N   0  0  0  0  0  0  0  0  0  0  0  0
   49.0128   54.7505   36.8429 C   0  0  0  0  0  0  0  0  0  0  0  0
   48.4583   55.2808   35.6924 N   0  0  0  0  0  0  0  0  0  0  0  0
   47.2286   54.8979   35.2838 C   0  0  0  0  0  0  0  0  0  0  0  0
   46.5049   53.9778   36.0277 C   0  0  0  0  0  0  0  0  0  0  0  0
   47.0553   53.4378   37.1870 C   0  0  0  0  0  0  0  0  0  0  0  0
   46.3785   52.5490   37.9096 N   0  0  0  0  0  0  0  0  0  0  0  0
   45.3203   53.7884   35.4048 N   0  0  0  0  0  0  0  0  0  0  0  0
   45.2757   54.5729   34.3023 C   0  0  0  0  0  0  0  0  0  0  0  0
   46.4536   55.2676   34.2137 N   0  0  0  0  0  0  0  0  0  0  0  0
  2  1  1  1  0  0  0
  2  3  1  0  0  0  0
  2  5  1  0  0  0  0
  3  4  1  0  0  0  0
  3 17  1  0  0  0  0
  5  6  1  0  0  0  0
  7  6  1  1  0  0  0
  7  8  1  0  0  0  0
  7  9  1  0  0  0  0
 10  9  1  1  0  0  0
 10 11  1  0  0  0  0
 10 12  1  0  0  0  0
 11 16  1  0  0  0  0
 12 13  1  6  0  0  0
 12 14  1  0  0  0  0
 14 15  1  6  0  0  0
 14 16  1  0  0  0  0
 16 27  1  1  0  0  0
 18 19  2  0  0  0  0
 18 23  1  0  0  0  0
 19 20  1  0  0  0  0
 20 21  2  0  0  0  0
 21 22  1  0  0  0  0
 21 27  1  0  0  0  0
 22 23  2  0  0  0  0
 22 25  1  0  0  0  0
 23 24  1  0  0  0  0
 25 26  2  0  0  0  0
 26 27  1  0  0  0  0
M  END
>  <CHROM.1>
148.52805398,-63.42750482,-62.56727919,-80.62232232,-84.60681174,73.56414506
86.44996411,47.53187199,54.63881331,32.22145621,1.64739443,-0.88430248,-1.72594352

>  <Name>
ligand

>  <RI>
0

>  <Rbt.Current_Directory>
/home/itssahil/PROJECTS/Mol_Feturizer/New_Systems/rnas/3GX7

>  <Rbt.Executable>
rbdock ($Id: //depot/dev/client3/rdock/2013.1/src/exe/rbdock.cxx#4 $)

>  <Rbt.Library>
libRbt.so (2013.1, Build901 2013/11/27)

>  <Rbt.Parameter_File>
/export/apps/rDock/src/rDock_2013.1_src/data/scripts/dock_solv.prm

>  <Rbt.Receptor>
prm/pocket_docking_4.prm

>  <SCORE>
-17.1881

>  <SCORE.INTER>
-11.5017

>  <SCORE.INTER.CONST>
1

>  <SCORE.INTER.POLAR>
0

>  <SCORE.INTER.ROT>
7

>  <SCORE.INTER.SOLV>
13.1746

>  <SCORE.INTER.VDW>
-20.326

>  <SCORE.INTER.norm>
-0.425988

>  <SCORE.INTRA>
-5.68643

>  <SCORE.INTRA.DIHEDRAL>
-6.23483

>  <SCORE.INTRA.DIHEDRAL.0>
11.2699

>  <SCORE.INTRA.POLAR>
0

>  <SCORE.INTRA.POLAR.0>
0

>  <SCORE.INTRA.REPUL>
0

>  <SCORE.INTRA.REPUL.0>
0

>  <SCORE.INTRA.SOLV>
0.197675

>  <SCORE.INTRA.SOLV.lig_0>
-48.6447

>  <SCORE.INTRA.VDW>
-2.66786

>  <SCORE.INTRA.VDW.0>
-0.0211724

>  <SCORE.INTRA.norm>
-0.210609

>  <SCORE.RESTR>
0

>  <SCORE.RESTR.CAVITY>
0

>  <SCORE.RESTR.norm>
0

>  <SCORE.SYSTEM>
0

>  <SCORE.SYSTEM.CONST>
0

>  <SCORE.SYSTEM.DIHEDRAL>
0

>  <SCORE.SYSTEM.SOLV>
0

>  <SCORE.SYSTEM.norm>
0

>  <SCORE.heavy>
27

>  <SCORE.norm>
-0.636597

>  <RMSD>
5.313

$$$$
ligand
 OpenBabel11021811483D
libRbt.so/2013.1/901 2013/11/27
 27 29  0  0  0  0  0  0  0  0999 V2000
   45.3779   53.7942   32.4610 N   0  0  0  0  0  0  0  0  0  0  0  0
   46.5898   54.5802   32.2635 C   0  0  2  0  0  0  0  0  0  0  0  0
   46.8143   54.8559   30.7859 C   0  0  0  0  0  0  0  0  0  0  0  0
   47.3100   53.9959   30.0616 O   0  0  0  0  0  0  0  0  0  0  0  0
   47.8157   53.8977   32.8686 C   0  0  0  0  0  0  0  0  0  0  0  0
   49.0619   54.7717   32.9451 C   0  0  0  0  0  0  0  0  0  0  0  0
   49.0210   56.0277   34.2536 S   0  0  2  0  0  0  0  0  0  0  0  0
   48.5083   55.0348   35.6770 C   0  0  0  0  0  0  0  0  0  0  0  0
   47.4632   56.8626   33.8533 C   0  0  0  0  0  0  0  0  0  0  0  0
   47.7348   58.0435   32.9334 C   0  0  1  0  0  0  0  0  0  0  0  0
   48.7295   57.6641   32.0131 O   0  0  0  0  0  0  0  0  0  0  0  0
   46.5532   58.4638   32.0827 C   0  0  1  0  0  0  0  0  0  0  0  0
   45.8831   59.5476   32.6788 O   0  0  0  0  0  0  0  0  0  0  0  0
   47.1895   58.8806   30.7690 C   0  0  1  0  0  0  0  0  0  0  0  0
   47.1939   60.2858   30.6805 O   0  0  0  0  0  0  0  0  0  0  0  0
   48.6203   58.3578   30.7964 C   0  0  2  0  0  0  0  0  0  0  0  0
   46.5001   55.9390   30.2915 O   0  0  0  0  0  0  0  0  0  0  0  0
   47.4487   57.1544   25.8102 N   0  0  0  0  0  0  0  0  0  0  0  0
   47.0385   58.2480   26.5455 C   0  0  0  0  0  0  0  0  0  0  0  0
   47.4480   58.4031   27.8572 N   0  0  0  0  0  0  0  0  0  0  0  0
   48.2480   57.4832   28.4397 C   0  0  0  0  0  0  0  0  0  0  0  0
   48.6781   56.3800   27.7173 C   0  0  0  0  0  0  0  0  0  0  0  0
   48.2703   56.2149   26.3963 C   0  0  0  0  0  0  0  0  0  0  0  0
   48.6675   55.1595   25.6902 N   0  0  0  0  0  0  0  0  0  0  0  0
   49.4657   55.6402   28.5295 N   0  0  0  0  0  0  0  0  0  0  0  0
   49.5526   56.2548   29.7327 C   0  0  0  0  0  0  0  0  0  0  0  0
   48.8016   57.4003   29.6923 N   0  0  0  0  0  0  0  0  0  0  0  0
  2  1  1  6  0  0  0
  2  3  1  0  0  0  0
  2  5  1  0  0  0  0
  3  4  1  0  0  0  0
  3 17  1  0  0  0  0
  5  6  1  0  0  0  0
  7  6  1  6  0  0  0
  7  8  1  0  0  0  0
  7  9  1  0  0  0  0
 10  9  1  1  0  0  0
 10 11  1  0  0  0  0
 10 12  1  0  0  0  0
 11 16  1  0  0  0  0
 12 13  1  1  0  0  0
 12 14  1  0  0  0  0
 14 15  1  1  0  0  0
 14 16  1  0  0  0  0
 16 27  1  6  0  0  0
 18 19  2  0  0  0  0
 18 23  1  0  0  0  0
 19 20  1  0  0  0  0
 20 21  2  0  0  0  0
 21 22  1  0  0  0  0
 21 27  1  0  0  0  0
 22 23  2  0  0  0  0
 22 25  1  0  0  0  0
 23 24  1  0  0  0  0
 25 26  2  0  0  0  0
 26 27  1  0  0  0  0
M  END
>  <CHROM.1>
-79.98396681,-168.61216248,74.85031631,48.86530936,-92.27802883,39.20420318
150.40524428,47.81569056,56.62013007,30.76816847,-1.69499077,1.42891351,-1.28921957

>  <Name>
ligand

>  <RI>
0

>  <Rbt.Current_Directory>
/home/itssahil/PROJECTS/Mol_Feturizer/New_Systems/rnas/3GX7

>  <Rbt.Executable>
rbdock ($Id: //depot/dev/client3/rdock/2013.1/src/exe/rbdock.cxx#4 $)

>  <Rbt.Library>
libRbt.so (2013.1, Build901 2013/11/27)

>  <Rbt.Parameter_File>
/export/apps/rDock/src/rDock_2013.1_src/data/scripts/dock_solv.prm

>  <Rbt.Receptor>
prm/pocket_docking_5.prm

>  <SCORE>
-17.0317

>  <SCORE.INTER>
-11.8066

>  <SCORE.INTER.CONST>
1

>  <SCORE.INTER.POLAR>
0

>  <SCORE.INTER.ROT>
7

>  <SCORE.INTER.SOLV>
10.7942

>  <SCORE.INTER.VDW>
-19.7358

>  <SCORE.INTER.norm>
-0.437282

>  <SCORE.INTRA>
-5.22504

>  <SCORE.INTRA.DIHEDRAL>
-3.91897

>  <SCORE.INTRA.DIHEDRAL.0>
11.2699

>  <SCORE.INTRA.POLAR>
0

>  <SCORE.INTRA.POLAR.0>
0

>  <SCORE.INTRA.REPUL>
0

>  <SCORE.INTRA.REPUL.0>
0

>  <SCORE.INTRA.SOLV>
0.116458

>  <SCORE.INTRA.SOLV.lig_0>
-48.6447

>  <SCORE.INTRA.VDW>
-3.32379

>  <SCORE.INTRA.VDW.0>
-0.0211724

>  <SCORE.INTRA.norm>
-0.19352

>  <SCORE.RESTR>
0

>  <SCORE.RESTR.CAVITY>
0

>  <SCORE.RESTR.norm>
0

>  <SCORE.SYSTEM>
0

>  <SCORE.SYSTEM.CONST>
0

>  <SCORE.SYSTEM.DIHEDRAL>
0

>  <SCORE.SYSTEM.SOLV>
0

>  <SCORE.SYSTEM.norm>
0

>  <SCORE.heavy>
27

>  <SCORE.norm>
-0.630803

>  <RMSD>
5.320

$$$$
ligand
 OpenBabel11021811483D
libRbt.so/2013.1/901 2013/11/27
 27 29  0  0  0  0  0  0  0  0999 V2000
   48.6849   54.3683   27.2527 N   0  0  0  0  0  0  0  0  0  0  0  0
   49.9430   53.9111   27.8302 C   0  0  2  0  0  0  0  0  0  0  0  0
   50.1907   52.4516   27.4867 C   0  0  0  0  0  0  0  0  0  0  0  0
   51.2878   51.9406   27.6996 O   0  0  0  0  0  0  0  0  0  0  0  0
   49.9813   54.1142   29.3442 C   0  0  0  0  0  0  0  0  0  0  0  0
   50.0038   55.5701   29.7940 C   0  0  0  0  0  0  0  0  0  0  0  0
   48.4220   56.4393   29.6098 S   0  0  2  0  0  0  0  0  0  0  0  0
   48.6971   57.3453   28.0676 C   0  0  0  0  0  0  0  0  0  0  0  0
   48.6404   57.7705   30.8198 C   0  0  0  0  0  0  0  0  0  0  0  0
   47.4283   58.6896   30.7969 C   0  0  1  0  0  0  0  0  0  0  0  0
   46.2722   57.8908   30.7209 O   0  0  0  0  0  0  0  0  0  0  0  0
   47.2469   59.5240   32.0488 C   0  0  1  0  0  0  0  0  0  0  0  0
   47.7751   60.8136   31.8572 O   0  0  0  0  0  0  0  0  0  0  0  0
   45.7402   59.5797   32.2254 C   0  0  1  0  0  0  0  0  0  0  0  0
   45.2741   60.8508   31.8385 O   0  0  0  0  0  0  0  0  0  0  0  0
   45.1574   58.5119   31.3080 C   0  0  2  0  0  0  0  0  0  0  0  0
   49.2986   51.7588   26.9962 O   0  0  0  0  0  0  0  0  0  0  0  0
   45.5656   54.6887   34.8997 N   0  0  0  0  0  0  0  0  0  0  0  0
   46.5728   55.4499   34.3420 C   0  0  0  0  0  0  0  0  0  0  0  0
   46.2783   56.4200   33.4014 N   0  0  0  0  0  0  0  0  0  0  0  0
   45.0026   56.6307   33.0094 C   0  0  0  0  0  0  0  0  0  0  0  0
   43.9737   55.8824   33.5619 C   0  0  0  0  0  0  0  0  0  0  0  0
   44.2607   54.9028   34.5089 C   0  0  0  0  0  0  0  0  0  0  0  0
   43.2874   54.1708   35.0447 N   0  0  0  0  0  0  0  0  0  0  0  0
   42.8161   56.3043   33.0060 N   0  0  0  0  0  0  0  0  0  0  0  0
   43.0884   57.3033   32.1339 C   0  0  0  0  0  0  0  0  0  0  0  0
   44.4419   57.5172   32.1249 N   0  0  0  0  0  0  0  0  0  0  0  0
  2  1  1  1  0  0  0
  2  3  1  0  0  0  0
  2  5  1  0  0  0  0
  3  4  1  0  0  0  0
  3 17  1  0  0  0  0
  5  6  1  0  0  0  0
  7  6  1  1  0  0  0
  7  8  1  0  0  0  0
  7  9  1  0  0  0  0
 10  9  1  1  0  0  0
 10 11  1  0  0  0  0
 10 12  1  0  0  0  0
 11 16  1  0  0  0  0
 12 13  1  6  0  0  0
 12 14  1  0  0  0  0
 14 15  1  6  0  0  0
 14 16  1  0  0  0  0
 16 27  1  1  0  0  0
 18 19  2  0  0  0  0
 18 23  1  0  0  0  0
 19 20  1  0  0  0  0
 20 21  2  0  0  0  0
 21 22  1  0  0  0  0
 21 27  1  0  0  0  0
 22 23  2  0  0  0  0
 22 25  1  0  0  0  0
 23 24  1  0  0  0  0
 25 26  2  0  0  0  0
 26 27  1  0  0  0  0
M  END
>  <CHROM.1>
168.55136724,-67.21310658,73.62154364,-99.58305864,177.48834591,42.66077120
45.85776659,47.00829865,56.34762436,31.02323173,-0.45843966,0.79970306,-0.03054927

>  <Name>
ligand

>  <RI>
0

>  <Rbt.Current_Directory>
/home/itssahil/PROJECTS/Mol_Feturizer/New_Systems/rnas/3GX7

>  <Rbt.Executable>
rbdock ($Id: //depot/dev/client3/rdock/2013.1/src/exe/rbdock.cxx#4 $)

>  <Rbt.Library>
libRbt.so (2013.1, Build901 2013/11/27)

>  <Rbt.Parameter_File>
/export/apps/rDock/src/rDock_2013.1_src/data/scripts/dock_solv.prm

>  <Rbt.Receptor>
prm/pocket_docking_6.prm

>  <SCORE>
-15.277

>  <SCORE.INTER>
-11.4777

>  <SCORE.INTER.CONST>
1

>  <SCORE.INTER.POLAR>
0

>  <SCORE.INTER.ROT>
7

>  <SCORE.INTER.SOLV>
10.5604

>  <SCORE.INTER.VDW>
-19.4386

>  <SCORE.INTER.norm>
-0.4251

>  <SCORE.INTRA>
-3.79931

>  <SCORE.INTRA.DIHEDRAL>
-3.84509

>  <SCORE.INTRA.DIHEDRAL.0>
11.2699

>  <SCORE.INTRA.POLAR>
0

>  <SCORE.INTRA.POLAR.0>
0

>  <SCORE.INTRA.REPUL>
0

>  <SCORE.INTRA.REPUL.0>
0

>  <SCORE.INTRA.SOLV>
1.93467

>  <SCORE.INTRA.SOLV.lig_0>
-48.6447

>  <SCORE.INTRA.VDW>
-2.84411

>  <SCORE.INTRA.VDW.0>
-0.0211724

>  <SCORE.INTRA.norm>
-0.140715

>  <SCORE.RESTR>
0

>  <SCORE.RESTR.CAVITY>
0

>  <SCORE.RESTR.norm>
0

>  <SCORE.SYSTEM>
0

>  <SCORE.SYSTEM.CONST>
0

>  <SCORE.SYSTEM.DIHEDRAL>
0

>  <SCORE.SYSTEM.SOLV>
0

>  <SCORE.SYSTEM.norm>
0

>  <SCORE.heavy>
27

>  <SCORE.norm>
-0.565816

>  <RMSD>
5.334

$$$$
ligand
 OpenBabel11021811483D
libRbt.so/2013.1/901 2013/11/27
 27 29  0  0  0  0  0  0  0  0999 V2000
   50.3575   53.9301   26.0772 N   0  0  0  0  0  0  0  0  0  0  0  0
   50.7090   54.3578   27.4259 C   0  0  2  0  0  0  0  0  0  0  0  0
   51.2132   53.1820   28.2462 C   0  0  0  0  0  0  0  0  0  0  0  0
   52.2878   53.2523   28.8379 O   0  0  0  0  0  0  0  0  0  0  0  0
   49.5349   55.0337   28.1327 C   0  0  0  0  0  0  0  0  0  0  0  0
   49.0008   56.2798   27.4367 C   0  0  0  0  0  0  0  0  0  0  0  0
   47.5206   56.9946   28.2046 S   0  0  2  0  0  0  0  0  0  0  0  0
   47.2643   58.4605   27.1749 C   0  0  0  0  0  0  0  0  0  0  0  0
   48.2531   57.7498   29.6801 C   0  0  0  0  0  0  0  0  0  0  0  0
   47.2691   58.7331   30.2962 C   0  0  1  0  0  0  0  0  0  0  0  0
   46.0838   58.0375   30.5989 O   0  0  0  0  0  0  0  0  0  0  0  0
   47.7192   59.3326   31.6132 C   0  0  1  0  0  0  0  0  0  0  0  0
   48.2943   60.5990   31.4023 O   0  0  0  0  0  0  0  0  0  0  0  0
   46.4324   59.4511   32.4097 C   0  0  1  0  0  0  0  0  0  0  0  0
   46.0258   60.7989   32.4369 O   0  0  0  0  0  0  0  0  0  0  0  0
   45.3928   58.6100   31.6796 C   0  0  2  0  0  0  0  0  0  0  0  0
   50.5537   52.1458   28.3349 O   0  0  0  0  0  0  0  0  0  0  0  0
   46.8170   54.8079   35.0262 N   0  0  0  0  0  0  0  0  0  0  0  0
   47.6264   55.6855   34.3334 C   0  0  0  0  0  0  0  0  0  0  0  0
   47.0729   56.6290   33.4874 N   0  0  0  0  0  0  0  0  0  0  0  0
   45.7340   56.7000   33.3207 C   0  0  0  0  0  0  0  0  0  0  0  0
   44.9012   55.8329   34.0124 C   0  0  0  0  0  0  0  0  0  0  0  0
   45.4494   54.8789   34.8657 C   0  0  0  0  0  0  0  0  0  0  0  0
   44.6664   54.0345   35.5322 N   0  0  0  0  0  0  0  0  0  0  0  0
   43.6272   56.1292   33.6714 N   0  0  0  0  0  0  0  0  0  0  0  0
   43.6376   57.1645   32.7992 C   0  0  0  0  0  0  0  0  0  0  0  0
   44.9386   57.5297   32.5715 N   0  0  0  0  0  0  0  0  0  0  0  0
  2  1  1  6  0  0  0
  2  3  1  0  0  0  0
  2  5  1  0  0  0  0
  3  4  1  0  0  0  0
  3 17  1  0  0  0  0
  5  6  1  0  0  0  0
  7  6  1  6  0  0  0
  7  8  1  0  0  0  0
  7  9  1  0  0  0  0
 10  9  1  1  0  0  0
 10 11  1  0  0  0  0
 10 12  1  0  0  0  0
 11 16  1  0  0  0  0
 12 13  1  6  0  0  0
 12 14  1  0  0  0  0
 14 15  1  6  0  0  0
 14 16  1  0  0  0  0
 16 27  1  1  0  0  0
 18 19  2  0  0  0  0
 18 23  1  0  0  0  0
 19 20  1  0  0  0  0
 20 21  2  0  0  0  0
 21 22  1  0  0  0  0
 21 27  1  0  0  0  0
 22 23  2  0  0  0  0
 22 25  1  0  0  0  0
 23 24  1  0  0  0  0
 25 26  2  0  0  0  0
 26 27  1  0  0  0  0
M  END
>  <CHROM.1>
127.80916222,-59.82531803,175.07002481,177.01711381,164.70019581,57.77447303
66.68895912,47.41503157,56.57828731,30.88131966,-0.11203975,-0.92063797,2.57030805

>  <Name>
ligand

>  <RI>
0

>  <Rbt.Current_Directory>
/home/itssahil/PROJECTS/Mol_Feturizer/New_Systems/rnas/3GX7

>  <Rbt.Executable>
rbdock ($Id: //depot/dev/client3/rdock/2013.1/src/exe/rbdock.cxx#4 $)

>  <Rbt.Library>
libRbt.so (2013.1, Build901 2013/11/27)

>  <Rbt.Parameter_File>
/export/apps/rDock/src/rDock_2013.1_src/data/scripts/dock_solv.prm

>  <Rbt.Receptor>
prm/pocket_docking_6.prm

>  <SCORE>
-18.4717

>  <SCORE.INTER>
-12.0923

>  <SCORE.INTER.CONST>
1

>  <SCORE.INTER.POLAR>
0

>  <SCORE.INTER.ROT>
7

>  <SCORE.INTER.SOLV>
11.6991

>  <SCORE.INTER.VDW>
-20.2279

>  <SCORE.INTER.norm>
-0.447862

>  <SCORE.INTRA>
-6.37938

>  <SCORE.INTRA.DIHEDRAL>
-7.77778

>  <SCORE.INTRA.DIHEDRAL.0>
11.2699

>  <SCORE.INTRA.POLAR>
0

>  <SCORE.INTRA.POLAR.0>
0

>  <SCORE.INTRA.REPUL>
0

>  <SCORE.INTRA.REPUL.0>
0

>  <SCORE.INTRA.SOLV>
-0.394386

>  <SCORE.INTRA.SOLV.lig_0>
-48.6447

>  <SCORE.INTRA.VDW>
-2.2933

>  <SCORE.INTRA.VDW.0>
-0.0211724

>  <SCORE.INTRA.norm>
-0.236273

>  <SCORE.RESTR>
0

>  <SCORE.RESTR.CAVITY>
0

>  <SCORE.RESTR.norm>
0

>  <SCORE.SYSTEM>
0

>  <SCORE.SYSTEM.CONST>
0

>  <SCORE.SYSTEM.DIHEDRAL>
0

>  <SCORE.SYSTEM.SOLV>
0

>  <SCORE.SYSTEM.norm>
0

>  <SCORE.heavy>
27

>  <SCORE.norm>
-0.684136

>  <RMSD>
5.341

$$$$
ligand
 OpenBabel11021811483D
libRbt.so/2013.1/901 2013/11/27
 27 29  0  0  0  0  0  0  0  0999 V2000
   47.7764   58.5279   30.2595 N   0  0  0  0  0  0  0  0  0  0  0  0
   47.5730   59.5816   31.2463 C   0  0  2  0  0  0  0  0  0  0  0  0
   48.4894   59.3798   32.4417 C   0  0  0  0  0  0  0  0  0  0  0  0
   48.4997   60.1945   33.3615 O   0  0  0  0  0  0  0  0  0  0  0  0
   46.1165   59.6617   31.7013 C   0  0  0  0  0  0  0  0  0  0  0  0
   45.6159   58.4397   32.4620 C   0  0  0  0  0  0  0  0  0  0  0  0
   45.7077   56.8847   31.5322 S   0  0  2  0  0  0  0  0  0  0  0  0
   44.5730   57.2263   30.1644 C   0  0  0  0  0  0  0  0  0  0  0  0
   44.6668   55.8244   32.5695 C   0  0  0  0  0  0  0  0  0  0  0  0
   45.4785   54.6387   33.0696 C   0  0  1  0  0  0  0  0  0  0  0  0
   46.2391   54.1421   31.9948 O   0  0  0  0  0  0  0  0  0  0  0  0
   46.4921   54.9777   34.1438 C   0  0  1  0  0  0  0  0  0  0  0  0
   45.9678   54.6925   35.4177 O   0  0  0  0  0  0  0  0  0  0  0  0
   47.6650   54.0672   33.8279 C   0  0  1  0  0  0  0  0  0  0  0  0
   47.6913   53.0061   34.7529 O   0  0  0  0  0  0  0  0  0  0  0  0
   47.4264   53.5259   32.4238 C   0  0  2  0  0  0  0  0  0  0  0  0
   49.2298   58.3982   32.5103 O   0  0  0  0  0  0  0  0  0  0  0  0
   50.4654   52.3524   28.2921 N   0  0  0  0  0  0  0  0  0  0  0  0
   49.4510   51.6003   28.8493 C   0  0  0  0  0  0  0  0  0  0  0  0
   48.7519   52.0708   29.9458 N   0  0  0  0  0  0  0  0  0  0  0  0
   49.0569   53.2684   30.4918 C   0  0  0  0  0  0  0  0  0  0  0  0
   50.0677   54.0443   29.9438 C   0  0  0  0  0  0  0  0  0  0  0  0
   50.7777   53.5785   28.8403 C   0  0  0  0  0  0  0  0  0  0  0  0
   51.7549   54.3059   28.3055 N   0  0  0  0  0  0  0  0  0  0  0  0
   50.1505   55.1815   30.6697 N   0  0  0  0  0  0  0  0  0  0  0  0
   49.2127   55.1466   31.6455 C   0  0  0  0  0  0  0  0  0  0  0  0
   48.5259   53.9648   31.5480 N   0  0  0  0  0  0  0  0  0  0  0  0
  2  1  1  6  0  0  0
  2  3  1  0  0  0  0
  2  5  1  0  0  0  0
  3  4  1  0  0  0  0
  3 17  1  0  0  0  0
  5  6  1  0  0  0  0
  7  6  1  1  0  0  0
  7  8  1  0  0  0  0
  7  9  1  0  0  0  0
 10  9  1  6  0  0  0
 10 11  1  0  0  0  0
 10 12  1  0  0  0  0
 11 16  1  0  0  0  0
 12 13  1  1  0  0  0
 12 14  1  0  0  0  0
 14 15  1  1  0  0  0
 14 16  1  0  0  0  0
 16 27  1  6  0  0  0
 18 19  2  0  0  0  0
 18 23  1  0  0  0  0
 19 20  1  0  0  0  0
 20 21  2  0  0  0  0
 21 22  1  0  0  0  0
 21 27  1  0  0  0  0
 22 23  2  0  0  0  0
 22 25  1  0  0  0  0
 23 24  1  0  0  0  0
 25 26  2  0  0  0  0
 26 27  1  0  0  0  0
M  END
>  <CHROM.1>
177.40533789,65.28804931,-59.43908233,-63.15915058,-120.21923691,-43.67821460
-99.43318732,47.74728236,55.62286569,31.63689695,-2.34792595,-0.78422676
3.01986261

>  <Name>
ligand

>  <RI>
0

>  <Rbt.Current_Directory>
/home/itssahil/PROJECTS/Mol_Feturizer/New_Systems/rnas/3GX7

>  <Rbt.Executable>
rbdock ($Id: //depot/dev/client3/rdock/2013.1/src/exe/rbdock.cxx#4 $)

>  <Rbt.Library>
libRbt.so (2013.1, Build901 2013/11/27)

>  <Rbt.Parameter_File>
/export/apps/rDock/src/rDock_2013.1_src/data/scripts/dock_solv.prm

>  <Rbt.Receptor>
prm/pocket_docking_5.prm

>  <SCORE>
-13.4779

>  <SCORE.INTER>
-10.5576

>  <SCORE.INTER.CONST>
1

>  <SCORE.INTER.POLAR>
0

>  <SCORE.INTER.ROT>
7

>  <SCORE.INTER.SOLV>
13.2888

>  <SCORE.INTER.VDW>
-19.7347

>  <SCORE.INTER.norm>
-0.391024

>  <SCORE.INTRA>
-2.9203

>  <SCORE.INTRA.DIHEDRAL>
-2.83366

>  <SCORE.INTRA.DIHEDRAL.0>
11.2699

>  <SCORE.INTRA.POLAR>
0

>  <SCORE.INTRA.POLAR.0>
0

>  <SCORE.INTRA.REPUL>
0

>  <SCORE.INTRA.REPUL.0>
0

>  <SCORE.INTRA.SOLV>
1.92209

>  <SCORE.INTRA.SOLV.lig_0>
-48.6447

>  <SCORE.INTRA.VDW>
-2.46451

>  <SCORE.INTRA.VDW.0>
-0.0211724

>  <SCORE.INTRA.norm>
-0.108159

>  <SCORE.RESTR>
0

>  <SCORE.RESTR.CAVITY>
0

>  <SCORE.RESTR.norm>
0

>  <SCORE.SYSTEM>
0

>  <SCORE.SYSTEM.CONST>
0

>  <SCORE.SYSTEM.DIHEDRAL>
0

>  <SCORE.SYSTEM.SOLV>
0

>  <SCORE.SYSTEM.norm>
0

>  <SCORE.heavy>
27

>  <SCORE.norm>
-0.499183

>  <RMSD>
5.361

$$$$
ligand
 OpenBabel11021811483D
libRbt.so/2013.1/901 2013/11/27
 27 29  0  0  0  0  0  0  0  0999 V2000
   45.9715   56.3987   29.5895 N   0  0  0  0  0  0  0  0  0  0  0  0
   45.0303   57.4999   29.4253 C   0  0  2  0  0  0  0  0  0  0  0  0
   44.0895   57.2312   28.2624 C   0  0  0  0  0  0  0  0  0  0  0  0
   42.9764   57.7508   28.2308 O   0  0  0  0  0  0  0  0  0  0  0  0
   45.7459   58.8360   29.2314 C   0  0  0  0  0  0  0  0  0  0  0  0
   46.8359   59.1323   30.2546 C   0  0  0  0  0  0  0  0  0  0  0  0
   46.2441   59.2806   31.9631 S   0  0  2  0  0  0  0  0  0  0  0  0
   45.5436   60.9492   31.9481 C   0  0  0  0  0  0  0  0  0  0  0  0
   47.8095   59.5859   32.8234 C   0  0  0  0  0  0  0  0  0  0  0  0
   48.4959   58.2624   33.1262 C   0  0  1  0  0  0  0  0  0  0  0  0
   47.8091   57.6437   34.1873 O   0  0  0  0  0  0  0  0  0  0  0  0
   48.4539   57.2574   31.9928 C   0  0  1  0  0  0  0  0  0  0  0  0
   49.6541   57.2969   31.2601 O   0  0  0  0  0  0  0  0  0  0  0  0
   48.3001   55.9247   32.7031 C   0  0  1  0  0  0  0  0  0  0  0  0
   49.5311   55.2416   32.6801 O   0  0  0  0  0  0  0  0  0  0  0  0
   47.9101   56.2433   34.1411 C   0  0  2  0  0  0  0  0  0  0  0  0
   44.4275   56.4956   27.3346 O   0  0  0  0  0  0  0  0  0  0  0  0
   45.2100   52.4249   36.5521 N   0  0  0  0  0  0  0  0  0  0  0  0
   46.5747   52.6314   36.5401 C   0  0  0  0  0  0  0  0  0  0  0  0
   47.1152   53.6975   35.8447 N   0  0  0  0  0  0  0  0  0  0  0  0
   46.3169   54.5466   35.1612 C   0  0  0  0  0  0  0  0  0  0  0  0
   44.9422   54.3624   35.1654 C   0  0  0  0  0  0  0  0  0  0  0  0
   44.3888   53.2913   35.8620 C   0  0  0  0  0  0  0  0  0  0  0  0
   43.0729   53.0950   35.8716 N   0  0  0  0  0  0  0  0  0  0  0  0
   44.3943   55.3497   34.4223 N   0  0  0  0  0  0  0  0  0  0  0  0
   45.3833   56.1536   33.9658 C   0  0  0  0  0  0  0  0  0  0  0  0
   46.5828   55.6677   34.4162 N   0  0  0  0  0  0  0  0  0  0  0  0
  2  1  1  6  0  0  0
  2  3  1  0  0  0  0
  2  5  1  0  0  0  0
  3  4  1  0  0  0  0
  3 17  1  0  0  0  0
  5  6  1  0  0  0  0
  7  6  1  6  0  0  0
  7  8  1  0  0  0  0
  7  9  1  0  0  0  0
 10  9  1  6  0  0  0
 10 11  1  0  0  0  0
 10 12  1  0  0  0  0
 11 16  1  0  0  0  0
 12 13  1  1  0  0  0
 12 14  1  0  0  0  0
 14 15  1  1  0  0  0
 14 16  1  0  0  0  0
 16 27  1  6  0  0  0
 18 19  2  0  0  0  0
 18 23  1  0  0  0  0
 19 20  1  0  0  0  0
 20 21  2  0  0  0  0
 21 22  1  0  0  0  0
 21 27  1  0  0  0  0
 22 23  2  0  0  0  0
 22 25  1  0  0  0  0
 23 24  1  0  0  0  0
 25 26  2  0  0  0  0
 26 27  1  0  0  0  0
M  END
>  <CHROM.1>
154.52976049,-49.51940796,-63.00325842,-78.13498061,-84.34382950,-74.21473920
-141.13526238,46.27826938,56.58229818,32.57613727,1.58992076,-0.53360411
-0.90662685

>  <Name>
ligand

>  <RI>
0

>  <Rbt.Current_Directory>
/home/itssahil/PROJECTS/Mol_Feturizer/New_Systems/rnas/3GX7

>  <Rbt.Executable>
rbdock ($Id: //depot/dev/client3/rdock/2013.1/src/exe/rbdock.cxx#4 $)

>  <Rbt.Library>
libRbt.so (2013.1, Build901 2013/11/27)

>  <Rbt.Parameter_File>
/export/apps/rDock/src/rDock_2013.1_src/data/scripts/dock_solv.prm

>  <Rbt.Receptor>
prm/pocket_docking_7.prm

>  <SCORE>
-22.0477

>  <SCORE.INTER>
-17.4778

>  <SCORE.INTER.CONST>
1

>  <SCORE.INTER.POLAR>
0

>  <SCORE.INTER.ROT>
7

>  <SCORE.INTER.SOLV>
10.6674

>  <SCORE.INTER.VDW>
-23.4743

>  <SCORE.INTER.norm>
-0.647325

>  <SCORE.INTRA>
-4.56995

>  <SCORE.INTRA.DIHEDRAL>
-6.0115

>  <SCORE.INTRA.DIHEDRAL.0>
11.2699

>  <SCORE.INTRA.POLAR>
0

>  <SCORE.INTRA.POLAR.0>
0

>  <SCORE.INTRA.REPUL>
0

>  <SCORE.INTRA.REPUL.0>
0

>  <SCORE.INTRA.SOLV>
1.96187

>  <SCORE.INTRA.SOLV.lig_0>
-48.6447

>  <SCORE.INTRA.VDW>
-2.54514

>  <SCORE.INTRA.VDW.0>
-0.0211724

>  <SCORE.INTRA.norm>
-0.169258

>  <SCORE.RESTR>
0

>  <SCORE.RESTR.CAVITY>
0

>  <SCORE.RESTR.norm>
0

>  <SCORE.SYSTEM>
0

>  <SCORE.SYSTEM.CONST>
0

>  <SCORE.SYSTEM.DIHEDRAL>
0

>  <SCORE.SYSTEM.SOLV>
0

>  <SCORE.SYSTEM.norm>
0

>  <SCORE.heavy>
27

>  <SCORE.norm>
-0.816583

>  <RMSD>
5.369

$$$$
ligand
 OpenBabel11021811483D
libRbt.so/2013.1/901 2013/11/27
 27 29  0  0  0  0  0  0  0  0999 V2000
   51.5889   52.4132   26.6794 N   0  0  0  0  0  0  0  0  0  0  0  0
   51.1786   53.1365   27.8769 C   0  0  2  0  0  0  0  0  0  0  0  0
   49.7479   52.7855   28.2507 C   0  0  0  0  0  0  0  0  0  0  0  0
   49.4706   52.4480   29.3992 O   0  0  0  0  0  0  0  0  0  0  0  0
   51.3276   54.6478   27.7080 C   0  0  0  0  0  0  0  0  0  0  0  0
   50.9975   55.4661   28.9506 C   0  0  0  0  0  0  0  0  0  0  0  0
   49.2389   55.4817   29.3961 S   0  0  2  0  0  0  0  0  0  0  0  0
   48.5610   56.5606   28.1110 C   0  0  0  0  0  0  0  0  0  0  0  0
   49.2709   56.6224   30.8038 C   0  0  0  0  0  0  0  0  0  0  0  0
   47.8859   56.7076   31.4276 C   0  0  1  0  0  0  0  0  0  0  0  0
   47.7435   55.6370   32.3297 O   0  0  0  0  0  0  0  0  0  0  0  0
   47.6439   57.9533   32.2560 C   0  0  1  0  0  0  0  0  0  0  0  0
   46.9639   58.9215   31.4950 O   0  0  0  0  0  0  0  0  0  0  0  0
   46.7755   57.4589   33.3987 C   0  0  1  0  0  0  0  0  0  0  0  0
   45.4469   57.8733   33.1851 O   0  0  0  0  0  0  0  0  0  0  0  0
   46.8547   55.9375   33.3753 C   0  0  2  0  0  0  0  0  0  0  0  0
   48.8463   52.8380   27.4136 O   0  0  0  0  0  0  0  0  0  0  0  0
   46.2599   52.8691   37.6079 N   0  0  0  0  0  0  0  0  0  0  0  0
   45.3935   53.0416   36.5475 C   0  0  0  0  0  0  0  0  0  0  0  0
   45.7168   53.8986   35.5114 N   0  0  0  0  0  0  0  0  0  0  0  0
   46.8806   54.5848   35.5264 C   0  0  0  0  0  0  0  0  0  0  0  0
   47.7696   54.4215   36.5785 C   0  0  0  0  0  0  0  0  0  0  0  0
   47.4522   53.5615   37.6265 C   0  0  0  0  0  0  0  0  0  0  0  0
   48.2897   53.3974   38.6473 N   0  0  0  0  0  0  0  0  0  0  0  0
   48.8422   55.2070   36.3342 N   0  0  0  0  0  0  0  0  0  0  0  0
   48.6573   55.8450   35.1545 C   0  0  0  0  0  0  0  0  0  0  0  0
   47.4437   55.4690   34.6412 N   0  0  0  0  0  0  0  0  0  0  0  0
  2  1  1  6  0  0  0
  2  3  1  0  0  0  0
  2  5  1  0  0  0  0
  3  4  1  0  0  0  0
  3 17  1  0  0  0  0
  5  6  1  0  0  0  0
  7  6  1  6  0  0  0
  7  8  1  0  0  0  0
  7  9  1  0  0  0  0
 10  9  1  1  0  0  0
 10 11  1  0  0  0  0
 10 12  1  0  0  0  0
 11 16  1  0  0  0  0
 12 13  1  6  0  0  0
 12 14  1  0  0  0  0
 14 15  1  6  0  0  0
 14 16  1  0  0  0  0
 16 27  1  1  0  0  0
 18 19  2  0  0  0  0
 18 23  1  0  0  0  0
 19 20  1  0  0  0  0
 20 21  2  0  0  0  0
 21 22  1  0  0  0  0
 21 27  1  0  0  0  0
 22 23  2  0  0  0  0
 22 25  1  0  0  0  0
 23 24  1  0  0  0  0
 25 26  2  0  0  0  0
 26 27  1  0  0  0  0
M  END
>  <CHROM.1>
129.79991153,-176.44357237,-69.64277575,-73.18953652,-175.46380604,84.33787709
-122.77315909,48.28541637,55.06074194,32.19005426,-0.73860123,-1.07512252
2.30126112

>  <Name>
ligand

>  <RI>
0

>  <Rbt.Current_Directory>
/home/itssahil/PROJECTS/Mol_Feturizer/New_Systems/rnas/3GX7

>  <Rbt.Executable>
rbdock ($Id: //depot/dev/client3/rdock/2013.1/src/exe/rbdock.cxx#4 $)

>  <Rbt.Library>
libRbt.so (2013.1, Build901 2013/11/27)

>  <Rbt.Parameter_File>
/export/apps/rDock/src/rDock_2013.1_src/data/scripts/dock_solv.prm

>  <Rbt.Receptor>
prm/pocket_docking_5.prm

>  <SCORE>
-16.2089

>  <SCORE.INTER>
-10.4564

>  <SCORE.INTER.CONST>
1

>  <SCORE.INTER.POLAR>
0

>  <SCORE.INTER.ROT>
7

>  <SCORE.INTER.SOLV>
12.6248

>  <SCORE.INTER.VDW>
-19.4458

>  <SCORE.INTER.norm>
-0.387273

>  <SCORE.INTRA>
-5.76493

>  <SCORE.INTRA.DIHEDRAL>
-5.32766

>  <SCORE.INTRA.DIHEDRAL.0>
11.2699

>  <SCORE.INTRA.POLAR>
0

>  <SCORE.INTRA.POLAR.0>
0

>  <SCORE.INTRA.REPUL>
0

>  <SCORE.INTRA.REPUL.0>
0

>  <SCORE.INTRA.SOLV>
-1.02521

>  <SCORE.INTRA.SOLV.lig_0>
-48.6447

>  <SCORE.INTRA.VDW>
-2.58849

>  <SCORE.INTRA.VDW.0>
-0.0211724

>  <SCORE.INTRA.norm>
-0.213516

>  <SCORE.RESTR>
0.0123607

>  <SCORE.RESTR.CAVITY>
0.0123607

>  <SCORE.RESTR.norm>
0.000457805

>  <SCORE.SYSTEM>
0

>  <SCORE.SYSTEM.CONST>
0

>  <SCORE.SYSTEM.DIHEDRAL>
0

>  <SCORE.SYSTEM.SOLV>
0

>  <SCORE.SYSTEM.norm>
0

>  <SCORE.heavy>
27

>  <SCORE.norm>
-0.600331

>  <RMSD>
5.381

$$$$
ligand
 OpenBabel11021811483D
libRbt.so/2013.1/901 2013/11/27
 27 29  0  0  0  0  0  0  0  0999 V2000
   46.9520   57.9514   29.9670 N   0  0  0  0  0  0  0  0  0  0  0  0
   46.8493   59.2471   30.6274 C   0  0  2  0  0  0  0  0  0  0  0  0
   48.1410   59.5809   31.3553 C   0  0  0  0  0  0  0  0  0  0  0  0
   49.0177   58.7302   31.4872 O   0  0  0  0  0  0  0  0  0  0  0  0
   45.6664   59.3014   31.5931 C   0  0  0  0  0  0  0  0  0  0  0  0
   45.7142   58.2781   32.7215 C   0  0  0  0  0  0  0  0  0  0  0  0
   45.3909   56.5700   32.2025 S   0  0  2  0  0  0  0  0  0  0  0  0
   43.5945   56.6030   31.9864 C   0  0  0  0  0  0  0  0  0  0  0  0
   45.5175   55.7172   33.7964 C   0  0  0  0  0  0  0  0  0  0  0  0
   46.9564   55.2840   34.0345 C   0  0  1  0  0  0  0  0  0  0  0  0
   47.1704   54.0740   33.3486 O   0  0  0  0  0  0  0  0  0  0  0  0
   47.9997   56.2360   33.4852 C   0  0  1  0  0  0  0  0  0  0  0  0
   48.4693   57.0862   34.5029 O   0  0  0  0  0  0  0  0  0  0  0  0
   49.1043   55.3142   33.0010 C   0  0  1  0  0  0  0  0  0  0  0  0
   50.1775   55.3575   33.9115 O   0  0  0  0  0  0  0  0  0  0  0  0
   48.5116   53.9111   32.9639 C   0  0  2  0  0  0  0  0  0  0  0  0
   48.3313   60.7059   31.8185 O   0  0  0  0  0  0  0  0  0  0  0  0
   50.5569   54.4972   28.1517 N   0  0  0  0  0  0  0  0  0  0  0  0
   50.8113   55.2412   29.2860 C   0  0  0  0  0  0  0  0  0  0  0  0
   50.1750   54.9420   30.4768 N   0  0  0  0  0  0  0  0  0  0  0  0
   49.2899   53.9234   30.5448 C   0  0  0  0  0  0  0  0  0  0  0  0
   49.0243   53.1579   29.4191 C   0  0  0  0  0  0  0  0  0  0  0  0
   49.6595   53.4522   28.2155 C   0  0  0  0  0  0  0  0  0  0  0  0
   49.4120   52.7330   27.1238 N   0  0  0  0  0  0  0  0  0  0  0  0
   48.1234   52.2131   29.7694 N   0  0  0  0  0  0  0  0  0  0  0  0
   47.8289   52.3555   31.0831 C   0  0  0  0  0  0  0  0  0  0  0  0
   48.5452   53.4135   31.5782 N   0  0  0  0  0  0  0  0  0  0  0  0
  2  1  1  1  0  0  0
  2  3  1  0  0  0  0
  2  5  1  0  0  0  0
  3  4  1  0  0  0  0
  3 17  1  0  0  0  0
  5  6  1  0  0  0  0
  7  6  1  1  0  0  0
  7  8  1  0  0  0  0
  7  9  1  0  0  0  0
 10  9  1  6  0  0  0
 10 11  1  0  0  0  0
 10 12  1  0  0  0  0
 11 16  1  0  0  0  0
 12 13  1  1  0  0  0
 12 14  1  0  0  0  0
 14 15  1  1  0  0  0
 14 16  1  0  0  0  0
 16 27  1  6  0  0  0
 18 19  2  0  0  0  0
 18 23  1  0  0  0  0
 19 20  1  0  0  0  0
 20 21  2  0  0  0  0
 21 22  1  0  0  0  0
 21 27  1  0  0  0  0
 22 23  2  0  0  0  0
 22 25  1  0  0  0  0
 23 24  1  0  0  0  0
 25 26  2  0  0  0  0
 26 27  1  0  0  0  0
M  END
>  <CHROM.1>
-9.98183613,60.10159115,-72.34648164,-76.24944083,-89.65210069,-82.35803166
130.20649395,47.88600770,55.88133239,31.52886135,-2.43621774,-0.92248563
2.92526732

>  <Name>
ligand

>  <RI>
0

>  <Rbt.Current_Directory>
/home/itssahil/PROJECTS/Mol_Feturizer/New_Systems/rnas/3GX7

>  <Rbt.Executable>
rbdock ($Id: //depot/dev/client3/rdock/2013.1/src/exe/rbdock.cxx#4 $)

>  <Rbt.Library>
libRbt.so (2013.1, Build901 2013/11/27)

>  <Rbt.Parameter_File>
/export/apps/rDock/src/rDock_2013.1_src/data/scripts/dock_solv.prm

>  <Rbt.Receptor>
prm/pocket_docking_4.prm

>  <SCORE>
-17.9883

>  <SCORE.INTER>
-14.745

>  <SCORE.INTER.CONST>
1

>  <SCORE.INTER.POLAR>
0

>  <SCORE.INTER.ROT>
7

>  <SCORE.INTER.SOLV>
8.52975

>  <SCORE.INTER.VDW>
-20.9399

>  <SCORE.INTER.norm>
-0.54611

>  <SCORE.INTRA>
-3.33489

>  <SCORE.INTRA.DIHEDRAL>
-4.55833

>  <SCORE.INTRA.DIHEDRAL.0>
11.2699

>  <SCORE.INTRA.POLAR>
0

>  <SCORE.INTRA.POLAR.0>
0

>  <SCORE.INTRA.REPUL>
0

>  <SCORE.INTRA.REPUL.0>
0

>  <SCORE.INTRA.SOLV>
2.08277

>  <SCORE.INTRA.SOLV.lig_0>
-48.6447

>  <SCORE.INTRA.VDW>
-2.09711

>  <SCORE.INTRA.VDW.0>
-0.0211724

>  <SCORE.INTRA.norm>
-0.123514

>  <SCORE.RESTR>
0.091586

>  <SCORE.RESTR.CAVITY>
0.091586

>  <SCORE.RESTR.norm>
0.00339207

>  <SCORE.SYSTEM>
0

>  <SCORE.SYSTEM.CONST>
0

>  <SCORE.SYSTEM.DIHEDRAL>
0

>  <SCORE.SYSTEM.SOLV>
0

>  <SCORE.SYSTEM.norm>
0

>  <SCORE.heavy>
27

>  <SCORE.norm>
-0.666233

>  <RMSD>
5.386

$$$$
ligand
 OpenBabel11021811483D
libRbt.so/2013.1/901 2013/11/27
 27 29  0  0  0  0  0  0  0  0999 V2000
   45.7220   59.0982   30.3389 N   0  0  0  0  0  0  0  0  0  0  0  0
   45.6543   59.5598   31.7202 C   0  0  2  0  0  0  0  0  0  0  0  0
   47.0222   59.4834   32.3779 C   0  0  0  0  0  0  0  0  0  0  0  0
   47.6085   60.5097   32.7137 O   0  0  0  0  0  0  0  0  0  0  0  0
   44.6291   58.7714   32.5340 C   0  0  0  0  0  0  0  0  0  0  0  0
   44.8475   57.2632   32.5493 C   0  0  0  0  0  0  0  0  0  0  0  0
   44.6052   56.4514   30.9450 S   0  0  2  0  0  0  0  0  0  0  0  0
   42.8173   56.1717   30.9599 C   0  0  0  0  0  0  0  0  0  0  0  0
   45.2046   54.7853   31.3306 C   0  0  0  0  0  0  0  0  0  0  0  0
   46.7259   54.7757   31.3385 C   0  0  1  0  0  0  0  0  0  0  0  0
   47.1635   55.4103   32.5158 O   0  0  0  0  0  0  0  0  0  0  0  0
   47.3466   53.3940   31.3838 C   0  0  1  0  0  0  0  0  0  0  0  0
   47.7119   52.9798   30.0899 O   0  0  0  0  0  0  0  0  0  0  0  0
   48.5748   53.5829   32.2557 C   0  0  1  0  0  0  0  0  0  0  0  0
   49.7242   53.5943   31.4425 O   0  0  0  0  0  0  0  0  0  0  0  0
   48.4129   54.9323   32.9444 C   0  0  2  0  0  0  0  0  0  0  0  0
   47.5609   58.3963   32.5887 O   0  0  0  0  0  0  0  0  0  0  0  0
   45.7591   52.8301   36.9720 N   0  0  0  0  0  0  0  0  0  0  0  0
   45.4417   52.7995   35.6291 C   0  0  0  0  0  0  0  0  0  0  0  0
   46.2634   53.4132   34.7015 N   0  0  0  0  0  0  0  0  0  0  0  0
   47.3832   54.0577   35.0967 C   0  0  0  0  0  0  0  0  0  0  0  0
   47.7254   54.0949   36.4404 C   0  0  0  0  0  0  0  0  0  0  0  0
   46.9037   53.4806   37.3818 C   0  0  0  0  0  0  0  0  0  0  0  0
   47.2125   53.5119   38.6756 N   0  0  0  0  0  0  0  0  0  0  0  0
   48.8827   54.7846   36.5494 N   0  0  0  0  0  0  0  0  0  0  0  0
   49.2819   55.1671   35.3137 C   0  0  0  0  0  0  0  0  0  0  0  0
   48.3608   54.7233   34.4012 N   0  0  0  0  0  0  0  0  0  0  0  0
  2  1  1  6  0  0  0
  2  3  1  0  0  0  0
  2  5  1  0  0  0  0
  3  4  1  0  0  0  0
  3 17  1  0  0  0  0
  5  6  1  0  0  0  0
  7  6  1  1  0  0  0
  7  8  1  0  0  0  0
  7  9  1  0  0  0  0
 10  9  1  1  0  0  0
 10 11  1  0  0  0  0
 10 12  1  0  0  0  0
 11 16  1  0  0  0  0
 12 13  1  6  0  0  0
 12 14  1  0  0  0  0
 14 15  1  6  0  0  0
 14 16  1  0  0  0  0
 16 27  1  1  0  0  0
 18 19  2  0  0  0  0
 18 23  1  0  0  0  0
 19 20  1  0  0  0  0
 20 21  2  0  0  0  0
 21 22  1  0  0  0  0
 21 27  1  0  0  0  0
 22 23  2  0  0  0  0
 22 25  1  0  0  0  0
 23 24  1  0  0  0  0
 25 26  2  0  0  0  0
 26 27  1  0  0  0  0
M  END
>  <CHROM.1>
113.58024838,56.34732077,-66.85626348,-85.56784955,-77.79790076,74.48012404
48.57872852,46.72910640,55.56937915,33.17700064,3.00629233,1.28184608,-2.22845809

>  <Name>
ligand

>  <RI>
0

>  <Rbt.Current_Directory>
/home/itssahil/PROJECTS/Mol_Feturizer/New_Systems/rnas/3GX7

>  <Rbt.Executable>
rbdock ($Id: //depot/dev/client3/rdock/2013.1/src/exe/rbdock.cxx#4 $)

>  <Rbt.Library>
libRbt.so (2013.1, Build901 2013/11/27)

>  <Rbt.Parameter_File>
/export/apps/rDock/src/rDock_2013.1_src/data/scripts/dock_solv.prm

>  <Rbt.Receptor>
prm/pocket_docking_4.prm

>  <SCORE>
-20.4875

>  <SCORE.INTER>
-14.742

>  <SCORE.INTER.CONST>
1

>  <SCORE.INTER.POLAR>
0

>  <SCORE.INTER.ROT>
7

>  <SCORE.INTER.SOLV>
13.195

>  <SCORE.INTER.VDW>
-22.493

>  <SCORE.INTER.norm>
-0.546

>  <SCORE.INTRA>
-5.74821

>  <SCORE.INTRA.DIHEDRAL>
-6.05988

>  <SCORE.INTRA.DIHEDRAL.0>
11.2699

>  <SCORE.INTRA.POLAR>
0

>  <SCORE.INTRA.POLAR.0>
0

>  <SCORE.INTRA.REPUL>
0

>  <SCORE.INTRA.REPUL.0>
0

>  <SCORE.INTRA.SOLV>
1.63613

>  <SCORE.INTRA.SOLV.lig_0>
-48.6447

>  <SCORE.INTRA.VDW>
-3.53633

>  <SCORE.INTRA.VDW.0>
-0.0211724

>  <SCORE.INTRA.norm>
-0.212897

>  <SCORE.RESTR>
0.00275517

>  <SCORE.RESTR.CAVITY>
0.00275517

>  <SCORE.RESTR.norm>
0.000102044

>  <SCORE.SYSTEM>
0

>  <SCORE.SYSTEM.CONST>
0

>  <SCORE.SYSTEM.DIHEDRAL>
0

>  <SCORE.SYSTEM.SOLV>
0

>  <SCORE.SYSTEM.norm>
0

>  <SCORE.heavy>
27

>  <SCORE.norm>
-0.758795

>  <RMSD>
5.422

$$$$
ligand
 OpenBabel11021811483D
libRbt.so/2013.1/901 2013/11/27
 27 29  0  0  0  0  0  0  0  0999 V2000
   49.9771   53.8855   23.3623 N   0  0  0  0  0  0  0  0  0  0  0  0
   48.7348   54.4797   23.8409 C   0  0  2  0  0  0  0  0  0  0  0  0
   47.9171   55.0196   22.6793 C   0  0  0  0  0  0  0  0  0  0  0  0
   48.2361   56.0719   22.1308 O   0  0  0  0  0  0  0  0  0  0  0  0
   48.9898   55.5817   24.8683 C   0  0  0  0  0  0  0  0  0  0  0  0
   47.7646   56.0053   25.6695 C   0  0  0  0  0  0  0  0  0  0  0  0
   48.0910   57.2642   26.9344 S   0  0  2  0  0  0  0  0  0  0  0  0
   49.2277   56.3766   28.0276 C   0  0  0  0  0  0  0  0  0  0  0  0
   46.5586   57.1625   27.8964 C   0  0  0  0  0  0  0  0  0  0  0  0
   46.5321   58.2702   28.9390 C   0  0  1  0  0  0  0  0  0  0  0  0
   45.2709   58.2562   29.5632 O   0  0  0  0  0  0  0  0  0  0  0  0
   47.5297   58.0976   30.0666 C   0  0  1  0  0  0  0  0  0  0  0  0
   48.6867   58.8576   29.8158 O   0  0  0  0  0  0  0  0  0  0  0  0
   46.7901   58.6275   31.2817 C   0  0  1  0  0  0  0  0  0  0  0  0
   47.2956   59.8987   31.6150 O   0  0  0  0  0  0  0  0  0  0  0  0
   45.3246   58.7406   30.8808 C   0  0  2  0  0  0  0  0  0  0  0  0
   46.9286   54.4117   22.2672 O   0  0  0  0  0  0  0  0  0  0  0  0
   41.2985   55.3629   31.1370 N   0  0  0  0  0  0  0  0  0  0  0  0
   41.7740   56.0455   30.0357 C   0  0  0  0  0  0  0  0  0  0  0  0
   42.8529   56.9023   30.1552 N   0  0  0  0  0  0  0  0  0  0  0  0
   43.4511   57.0896   31.3521 C   0  0  0  0  0  0  0  0  0  0  0  0
   42.9945   56.4085   32.4708 C   0  0  0  0  0  0  0  0  0  0  0  0
   41.9083   55.5445   32.3603 C   0  0  0  0  0  0  0  0  0  0  0  0
   41.4523   54.8879   33.4240 N   0  0  0  0  0  0  0  0  0  0  0  0
   43.7720   56.7697   33.5158 N   0  0  0  0  0  0  0  0  0  0  0  0
   44.7096   57.6443   33.0816 C   0  0  0  0  0  0  0  0  0  0  0  0
   44.5231   57.8530   31.7401 N   0  0  0  0  0  0  0  0  0  0  0  0
  2  1  1  6  0  0  0
  2  3  1  0  0  0  0
  2  5  1  0  0  0  0
  3  4  1  0  0  0  0
  3 17  1  0  0  0  0
  5  6  1  0  0  0  0
  7  6  1  6  0  0  0
  7  8  1  0  0  0  0
  7  9  1  0  0  0  0
 10  9  1  6  0  0  0
 10 11  1  0  0  0  0
 10 12  1  0  0  0  0
 11 16  1  0  0  0  0
 12 13  1  6  0  0  0
 12 14  1  0  0  0  0
 14 15  1  6  0  0  0
 14 16  1  0  0  0  0
 16 27  1  1  0  0  0
 18 19  2  0  0  0  0
 18 23  1  0  0  0  0
 19 20  1  0  0  0  0
 20 21  2  0  0  0  0
 21 22  1  0  0  0  0
 21 27  1  0  0  0  0
 22 23  2  0  0  0  0
 22 25  1  0  0  0  0
 23 24  1  0  0  0  0
 25 26  2  0  0  0  0
 26 27  1  0  0  0  0
M  END
>  <CHROM.1>
-75.87770258,-165.26376601,177.55407798,-63.08006745,-173.13576787,173.47377960
-27.27917073,46.07122722,56.76823024,28.67207774,0.93701442,-0.49934847,-2.09079783

>  <Name>
ligand

>  <RI>
0

>  <Rbt.Current_Directory>
/home/itssahil/PROJECTS/Mol_Feturizer/New_Systems/rnas/3GX7

>  <Rbt.Executable>
rbdock ($Id: //depot/dev/client3/rdock/2013.1/src/exe/rbdock.cxx#4 $)

>  <Rbt.Library>
libRbt.so (2013.1, Build901 2013/11/27)

>  <Rbt.Parameter_File>
/export/apps/rDock/src/rDock_2013.1_src/data/scripts/dock_solv.prm

>  <Rbt.Receptor>
prm/pocket_docking_7.prm

>  <SCORE>
-19.4284

>  <SCORE.INTER>
-14.466

>  <SCORE.INTER.CONST>
1

>  <SCORE.INTER.POLAR>
0

>  <SCORE.INTER.ROT>
7

>  <SCORE.INTER.SOLV>
11.3059

>  <SCORE.INTER.VDW>
-21.6793

>  <SCORE.INTER.norm>
-0.535779

>  <SCORE.INTRA>
-4.96233

>  <SCORE.INTRA.DIHEDRAL>
-6.4354

>  <SCORE.INTRA.DIHEDRAL.0>
11.2699

>  <SCORE.INTRA.POLAR>
0

>  <SCORE.INTRA.POLAR.0>
0

>  <SCORE.INTRA.REPUL>
0

>  <SCORE.INTRA.REPUL.0>
0

>  <SCORE.INTRA.SOLV>
-0.768026

>  <SCORE.INTRA.SOLV.lig_0>
-48.6447

>  <SCORE.INTRA.VDW>
-1.36061

>  <SCORE.INTRA.VDW.0>
-0.0211724

>  <SCORE.INTRA.norm>
-0.18379

>  <SCORE.RESTR>
0

>  <SCORE.RESTR.CAVITY>
0

>  <SCORE.RESTR.norm>
0

>  <SCORE.SYSTEM>
0

>  <SCORE.SYSTEM.CONST>
0

>  <SCORE.SYSTEM.DIHEDRAL>
0

>  <SCORE.SYSTEM.SOLV>
0

>  <SCORE.SYSTEM.norm>
0

>  <SCORE.heavy>
27

>  <SCORE.norm>
-0.719569

>  <RMSD>
5.429

$$$$
ligand
 OpenBabel11021811483D
libRbt.so/2013.1/901 2013/11/27
 27 29  0  0  0  0  0  0  0  0999 V2000
   50.6573   53.7591   25.5835 N   0  0  0  0  0  0  0  0  0  0  0  0
   50.7739   54.8513   26.5422 C   0  0  2  0  0  0  0  0  0  0  0  0
   51.7076   54.4689   27.6786 C   0  0  0  0  0  0  0  0  0  0  0  0
   51.6755   53.3367   28.1551 O   0  0  0  0  0  0  0  0  0  0  0  0
   49.4123   55.2730   27.0927 C   0  0  0  0  0  0  0  0  0  0  0  0
   49.4647   56.3359   28.1837 C   0  0  0  0  0  0  0  0  0  0  0  0
   47.8438   56.9727   28.6923 S   0  0  2  0  0  0  0  0  0  0  0  0
   47.5569   58.2444   27.4371 C   0  0  0  0  0  0  0  0  0  0  0  0
   48.3279   58.0024   30.1028 C   0  0  0  0  0  0  0  0  0  0  0  0
   47.2108   58.9817   30.4313 C   0  0  1  0  0  0  0  0  0  0  0  0
   46.0032   58.2629   30.5035 O   0  0  0  0  0  0  0  0  0  0  0  0
   47.3446   59.6603   31.7797 C   0  0  1  0  0  0  0  0  0  0  0  0
   47.9247   60.9331   31.6306 O   0  0  0  0  0  0  0  0  0  0  0  0
   45.9109   59.7752   32.2652 C   0  0  1  0  0  0  0  0  0  0  0  0
   45.4795   61.1084   32.1271 O   0  0  0  0  0  0  0  0  0  0  0  0
   45.0774   58.8649   31.3719 C   0  0  2  0  0  0  0  0  0  0  0  0
   52.5115   55.2823   28.1353 O   0  0  0  0  0  0  0  0  0  0  0  0
   41.2761   55.2452   31.7338 N   0  0  0  0  0  0  0  0  0  0  0  0
   41.5404   56.1068   30.6885 C   0  0  0  0  0  0  0  0  0  0  0  0
   42.5914   57.0021   30.7679 N   0  0  0  0  0  0  0  0  0  0  0  0
   43.3687   57.0516   31.8720 C   0  0  0  0  0  0  0  0  0  0  0  0
   43.1258   56.1901   32.9315 C   0  0  0  0  0  0  0  0  0  0  0  0
   42.0693   55.2860   32.8610 C   0  0  0  0  0  0  0  0  0  0  0  0
   41.8171   54.4566   33.8704 N   0  0  0  0  0  0  0  0  0  0  0  0
   44.0486   56.4442   33.8859 N   0  0  0  0  0  0  0  0  0  0  0  0
   44.8698   57.4280   33.4493 C   0  0  0  0  0  0  0  0  0  0  0  0
   44.4601   57.8155   32.2004 N   0  0  0  0  0  0  0  0  0  0  0  0
  2  1  1  6  0  0  0
  2  3  1  0  0  0  0
  2  5  1  0  0  0  0
  3  4  1  0  0  0  0
  3 17  1  0  0  0  0
  5  6  1  0  0  0  0
  7  6  1  6  0  0  0
  7  8  1  0  0  0  0
  7  9  1  0  0  0  0
 10  9  1  1  0  0  0
 10 11  1  0  0  0  0
 10 12  1  0  0  0  0
 11 16  1  0  0  0  0
 12 13  1  6  0  0  0
 12 14  1  0  0  0  0
 14 15  1  6  0  0  0
 14 16  1  0  0  0  0
 16 27  1  1  0  0  0
 18 19  2  0  0  0  0
 18 23  1  0  0  0  0
 19 20  1  0  0  0  0
 20 21  2  0  0  0  0
 21 22  1  0  0  0  0
 21 27  1  0  0  0  0
 22 23  2  0  0  0  0
 22 25  1  0  0  0  0
 23 24  1  0  0  0  0
 25 26  2  0  0  0  0
 26 27  1  0  0  0  0
M  END
>  <CHROM.1>
-40.31800651,175.37152880,173.08852760,-84.06643859,162.25001519,49.13902450
-86.06964686,46.62325103,56.96511885,30.31044712,0.38789524,-0.49633848,-2.78711596

>  <Name>
ligand

>  <RI>
0

>  <Rbt.Current_Directory>
/home/itssahil/PROJECTS/Mol_Feturizer/New_Systems/rnas/3GX7

>  <Rbt.Executable>
rbdock ($Id: //depot/dev/client3/rdock/2013.1/src/exe/rbdock.cxx#4 $)

>  <Rbt.Library>
libRbt.so (2013.1, Build901 2013/11/27)

>  <Rbt.Parameter_File>
/export/apps/rDock/src/rDock_2013.1_src/data/scripts/dock_solv.prm

>  <Rbt.Receptor>
prm/pocket_docking_7.prm

>  <SCORE>
-20.2475

>  <SCORE.INTER>
-15.5594

>  <SCORE.INTER.CONST>
1

>  <SCORE.INTER.POLAR>
0

>  <SCORE.INTER.ROT>
7

>  <SCORE.INTER.SOLV>
10.8533

>  <SCORE.INTER.VDW>
-22.2573

>  <SCORE.INTER.norm>
-0.576274

>  <SCORE.INTRA>
-4.68812

>  <SCORE.INTRA.DIHEDRAL>
-6.47494

>  <SCORE.INTRA.DIHEDRAL.0>
11.2699

>  <SCORE.INTRA.POLAR>
0

>  <SCORE.INTRA.POLAR.0>
0

>  <SCORE.INTRA.REPUL>
0

>  <SCORE.INTRA.REPUL.0>
0

>  <SCORE.INTRA.SOLV>
-1.06664

>  <SCORE.INTRA.SOLV.lig_0>
-48.6447

>  <SCORE.INTRA.VDW>
-0.917334

>  <SCORE.INTRA.VDW.0>
-0.0211724

>  <SCORE.INTRA.norm>
-0.173634

>  <SCORE.RESTR>
0

>  <SCORE.RESTR.CAVITY>
0

>  <SCORE.RESTR.norm>
0

>  <SCORE.SYSTEM>
0

>  <SCORE.SYSTEM.CONST>
0

>  <SCORE.SYSTEM.DIHEDRAL>
0

>  <SCORE.SYSTEM.SOLV>
0

>  <SCORE.SYSTEM.norm>
0

>  <SCORE.heavy>
27

>  <SCORE.norm>
-0.749908

>  <RMSD>
5.430

$$$$
ligand
 OpenBabel11021811483D
libRbt.so/2013.1/901 2013/11/27
 27 29  0  0  0  0  0  0  0  0999 V2000
   42.3111   56.5108   30.8731 N   0  0  0  0  0  0  0  0  0  0  0  0
   43.4663   55.7128   31.2658 C   0  0  2  0  0  0  0  0  0  0  0  0
   43.5116   54.4131   30.4795 C   0  0  0  0  0  0  0  0  0  0  0  0
   44.5790   53.8309   30.3022 O   0  0  0  0  0  0  0  0  0  0  0  0
   43.4762   55.4260   32.7667 C   0  0  0  0  0  0  0  0  0  0  0  0
   44.6861   54.6418   33.2602 C   0  0  0  0  0  0  0  0  0  0  0  0
   46.2872   55.3531   32.7890 S   0  0  2  0  0  0  0  0  0  0  0  0
   47.4297   54.2557   33.6639 C   0  0  0  0  0  0  0  0  0  0  0  0
   46.3281   56.8056   33.8718 C   0  0  0  0  0  0  0  0  0  0  0  0
   46.8530   58.0071   33.1000 C   0  0  1  0  0  0  0  0  0  0  0  0
   48.0461   57.6292   32.4565 O   0  0  0  0  0  0  0  0  0  0  0  0
   45.9428   58.4877   31.9878 C   0  0  1  0  0  0  0  0  0  0  0  0
   45.1611   59.5705   32.4298 O   0  0  0  0  0  0  0  0  0  0  0  0
   46.9078   58.9278   30.9018 C   0  0  1  0  0  0  0  0  0  0  0  0
   46.9621   60.3345   30.8712 O   0  0  0  0  0  0  0  0  0  0  0  0
   48.2717   58.3641   31.2807 C   0  0  2  0  0  0  0  0  0  0  0  0
   42.4831   53.9217   30.0134 O   0  0  0  0  0  0  0  0  0  0  0  0
   48.0187   57.0896   26.1821 N   0  0  0  0  0  0  0  0  0  0  0  0
   47.3932   58.1321   26.8356 C   0  0  0  0  0  0  0  0  0  0  0  0
   47.5752   58.3166   28.1940 N   0  0  0  0  0  0  0  0  0  0  0  0
   48.3604   57.4751   28.9017 C   0  0  0  0  0  0  0  0  0  0  0  0
   49.0045   56.4251   28.2642 C   0  0  0  0  0  0  0  0  0  0  0  0
   48.8267   56.2308   26.8970 C   0  0  0  0  0  0  0  0  0  0  0  0
   49.4311   55.2250   26.2700 N   0  0  0  0  0  0  0  0  0  0  0  0
   49.7239   55.7600   29.1954 N   0  0  0  0  0  0  0  0  0  0  0  0
   49.5608   56.3709   30.3925 C   0  0  0  0  0  0  0  0  0  0  0  0
   48.7166   57.4374   30.2261 N   0  0  0  0  0  0  0  0  0  0  0  0
  2  1  1  6  0  0  0
  2  3  1  0  0  0  0
  2  5  1  0  0  0  0
  3  4  1  0  0  0  0
  3 17  1  0  0  0  0
  5  6  1  0  0  0  0
  7  6  1  1  0  0  0
  7  8  1  0  0  0  0
  7  9  1  0  0  0  0
 10  9  1  6  0  0  0
 10 11  1  0  0  0  0
 10 12  1  0  0  0  0
 11 16  1  0  0  0  0
 12 13  1  1  0  0  0
 12 14  1  0  0  0  0
 14 15  1  1  0  0  0
 14 16  1  0  0  0  0
 16 27  1  6  0  0  0
 18 19  2  0  0  0  0
 18 23  1  0  0  0  0
 19 20  1  0  0  0  0
 20 21  2  0  0  0  0
 21 22  1  0  0  0  0
 21 27  1  0  0  0  0
 22 23  2  0  0  0  0
 22 25  1  0  0  0  0
 23 24  1  0  0  0  0
 25 26  2  0  0  0  0
 26 27  1  0  0  0  0
M  END
>  <CHROM.1>
154.81839978,-177.68099108,52.99218313,175.12001818,-137.74029416,-49.99447149
140.89274989,46.56583544,56.62215119,30.68116379,2.63908593,0.67534639,1.07087384

>  <Name>
ligand

>  <RI>
0

>  <Rbt.Current_Directory>
/home/itssahil/PROJECTS/Mol_Feturizer/New_Systems/rnas/3GX7

>  <Rbt.Executable>
rbdock ($Id: //depot/dev/client3/rdock/2013.1/src/exe/rbdock.cxx#4 $)

>  <Rbt.Library>
libRbt.so (2013.1, Build901 2013/11/27)

>  <Rbt.Parameter_File>
/export/apps/rDock/src/rDock_2013.1_src/data/scripts/dock_solv.prm

>  <Rbt.Receptor>
prm/blind_docking_100.prm

>  <SCORE>
-12.6531

>  <SCORE.INTER>
-7.67495

>  <SCORE.INTER.CONST>
1

>  <SCORE.INTER.POLAR>
0

>  <SCORE.INTER.ROT>
7

>  <SCORE.INTER.SOLV>
11.8076

>  <SCORE.INTER.VDW>
-17.3192

>  <SCORE.INTER.norm>
-0.284257

>  <SCORE.INTRA>
-4.97814

>  <SCORE.INTRA.DIHEDRAL>
-3.41688

>  <SCORE.INTRA.DIHEDRAL.0>
11.2699

>  <SCORE.INTRA.POLAR>
0

>  <SCORE.INTRA.POLAR.0>
0

>  <SCORE.INTRA.REPUL>
0

>  <SCORE.INTRA.REPUL.0>
0

>  <SCORE.INTRA.SOLV>
-0.356522

>  <SCORE.INTRA.SOLV.lig_0>
-48.6447

>  <SCORE.INTRA.VDW>
-3.09144

>  <SCORE.INTRA.VDW.0>
-0.0211724

>  <SCORE.INTRA.norm>
-0.184376

>  <SCORE.RESTR>
0

>  <SCORE.RESTR.CAVITY>
0

>  <SCORE.RESTR.norm>
0

>  <SCORE.SYSTEM>
0

>  <SCORE.SYSTEM.CONST>
0

>  <SCORE.SYSTEM.DIHEDRAL>
0

>  <SCORE.SYSTEM.SOLV>
0

>  <SCORE.SYSTEM.norm>
0

>  <SCORE.heavy>
27

>  <SCORE.norm>
-0.468633

>  <RMSD>
5.435

$$$$
ligand
 OpenBabel11021811483D
libRbt.so/2013.1/901 2013/11/27
 27 29  0  0  0  0  0  0  0  0999 V2000
   43.6665   56.9065   28.5775 N   0  0  0  0  0  0  0  0  0  0  0  0
   45.1054   57.0927   28.7202 C   0  0  2  0  0  0  0  0  0  0  0  0
   45.8574   55.8872   28.1807 C   0  0  0  0  0  0  0  0  0  0  0  0
   46.7960   56.0377   27.4022 O   0  0  0  0  0  0  0  0  0  0  0  0
   45.5034   57.3612   30.1708 C   0  0  0  0  0  0  0  0  0  0  0  0
   45.0682   56.2890   31.1625 C   0  0  0  0  0  0  0  0  0  0  0  0
   45.1899   56.7812   32.9045 S   0  0  2  0  0  0  0  0  0  0  0  0
   44.3186   58.3671   32.8827 C   0  0  0  0  0  0  0  0  0  0  0  0
   46.9100   57.3487   32.9618 C   0  0  0  0  0  0  0  0  0  0  0  0
   47.8340   56.1643   33.2024 C   0  0  1  0  0  0  0  0  0  0  0  0
   47.5247   55.6138   34.4600 O   0  0  0  0  0  0  0  0  0  0  0  0
   47.6624   55.0222   32.2213 C   0  0  1  0  0  0  0  0  0  0  0  0
   48.6282   55.1046   31.2018 O   0  0  0  0  0  0  0  0  0  0  0  0
   47.8818   53.7846   33.0724 C   0  0  1  0  0  0  0  0  0  0  0  0
   49.1555   53.2514   32.7968 O   0  0  0  0  0  0  0  0  0  0  0  0
   47.8133   54.2405   34.5246 C   0  0  2  0  0  0  0  0  0  0  0  0
   45.5429   54.7452   28.5173 O   0  0  0  0  0  0  0  0  0  0  0  0
   42.7484   52.8453   34.2359 N   0  0  0  0  0  0  0  0  0  0  0  0
   43.4963   53.5479   33.3129 C   0  0  0  0  0  0  0  0  0  0  0  0
   44.8279   53.8286   33.5588 N   0  0  0  0  0  0  0  0  0  0  0  0
   45.4130   53.4267   34.7085 C   0  0  0  0  0  0  0  0  0  0  0  0
   44.6823   52.7131   35.6469 C   0  0  0  0  0  0  0  0  0  0  0  0
   43.3408   52.4265   35.4085 C   0  0  0  0  0  0  0  0  0  0  0  0
   42.6225   51.7489   36.3002 N   0  0  0  0  0  0  0  0  0  0  0  0
   45.5069   52.4317   36.6804 N   0  0  0  0  0  0  0  0  0  0  0  0
   46.7343   52.9350   36.4100 C   0  0  0  0  0  0  0  0  0  0  0  0
   46.6915   53.5559   35.1892 N   0  0  0  0  0  0  0  0  0  0  0  0
  2  1  1  1  0  0  0
  2  3  1  0  0  0  0
  2  5  1  0  0  0  0
  3  4  1  0  0  0  0
  3 17  1  0  0  0  0
  5  6  1  0  0  0  0
  7  6  1  6  0  0  0
  7  8  1  0  0  0  0
  7  9  1  0  0  0  0
 10  9  1  6  0  0  0
 10 11  1  0  0  0  0
 10 12  1  0  0  0  0
 11 16  1  0  0  0  0
 12 13  1  6  0  0  0
 12 14  1  0  0  0  0
 14 15  1  6  0  0  0
 14 16  1  0  0  0  0
 16 27  1  1  0  0  0
 18 19  2  0  0  0  0
 18 23  1  0  0  0  0
 19 20  1  0  0  0  0
 20 21  2  0  0  0  0
 21 22  1  0  0  0  0
 21 27  1  0  0  0  0
 22 23  2  0  0  0  0
 22 25  1  0  0  0  0
 23 24  1  0  0  0  0
 25 26  2  0  0  0  0
 26 27  1  0  0  0  0
M  END
>  <CHROM.1>
130.97630697,56.54299377,-166.35547824,50.54384534,-85.10550094,-62.82178043
66.35974240,45.81775202,54.93445175,32.68365432,1.47120088,-0.05018520,-1.05334965

>  <Name>
ligand

>  <RI>
0

>  <Rbt.Current_Directory>
/home/itssahil/PROJECTS/Mol_Feturizer/New_Systems/rnas/3GX7

>  <Rbt.Executable>
rbdock ($Id: //depot/dev/client3/rdock/2013.1/src/exe/rbdock.cxx#4 $)

>  <Rbt.Library>
libRbt.so (2013.1, Build901 2013/11/27)

>  <Rbt.Parameter_File>
/export/apps/rDock/src/rDock_2013.1_src/data/scripts/dock_solv.prm

>  <Rbt.Receptor>
prm/pocket_docking_8.prm

>  <SCORE>
-13.9991

>  <SCORE.INTER>
-8.0644

>  <SCORE.INTER.CONST>
1

>  <SCORE.INTER.POLAR>
0

>  <SCORE.INTER.ROT>
7

>  <SCORE.INTER.SOLV>
13.3404

>  <SCORE.INTER.VDW>
-18.0897

>  <SCORE.INTER.norm>
-0.298682

>  <SCORE.INTRA>
-5.93467

>  <SCORE.INTRA.DIHEDRAL>
-6.56841

>  <SCORE.INTRA.DIHEDRAL.0>
11.2699

>  <SCORE.INTRA.POLAR>
0

>  <SCORE.INTRA.POLAR.0>
0

>  <SCORE.INTRA.REPUL>
0

>  <SCORE.INTRA.REPUL.0>
0

>  <SCORE.INTRA.SOLV>
0.225253

>  <SCORE.INTRA.SOLV.lig_0>
-48.6447

>  <SCORE.INTRA.VDW>
-2.7631

>  <SCORE.INTRA.VDW.0>
-0.0211724

>  <SCORE.INTRA.norm>
-0.219803

>  <SCORE.RESTR>
0

>  <SCORE.RESTR.CAVITY>
0

>  <SCORE.RESTR.norm>
0

>  <SCORE.SYSTEM>
0

>  <SCORE.SYSTEM.CONST>
0

>  <SCORE.SYSTEM.DIHEDRAL>
0

>  <SCORE.SYSTEM.SOLV>
0

>  <SCORE.SYSTEM.norm>
0

>  <SCORE.heavy>
27

>  <SCORE.norm>
-0.518484

>  <RMSD>
5.438

$$$$
ligand
 OpenBabel11021811483D
libRbt.so/2013.1/901 2013/11/27
 27 29  0  0  0  0  0  0  0  0999 V2000
   43.6543   53.1807   32.4731 N   0  0  0  0  0  0  0  0  0  0  0  0
   44.2060   54.2472   31.6462 C   0  0  2  0  0  0  0  0  0  0  0  0
   44.5548   53.7256   30.2621 C   0  0  0  0  0  0  0  0  0  0  0  0
   44.8800   54.5037   29.3684 O   0  0  0  0  0  0  0  0  0  0  0  0
   45.4295   54.8943   32.2937 C   0  0  0  0  0  0  0  0  0  0  0  0
   45.1815   55.4942   33.6725 C   0  0  0  0  0  0  0  0  0  0  0  0
   44.4178   57.1397   33.6509 S   0  0  2  0  0  0  0  0  0  0  0  0
   42.9747   56.8429   32.6001 C   0  0  0  0  0  0  0  0  0  0  0  0
   45.5105   57.9893   32.4813 C   0  0  0  0  0  0  0  0  0  0  0  0
   46.9130   58.0825   33.0633 C   0  0  1  0  0  0  0  0  0  0  0  0
   47.5205   56.8181   32.9513 O   0  0  0  0  0  0  0  0  0  0  0  0
   47.8390   59.0291   32.3264 C   0  0  1  0  0  0  0  0  0  0  0  0
   47.8788   60.2770   32.9747 O   0  0  0  0  0  0  0  0  0  0  0  0
   49.1890   58.3392   32.4026 C   0  0  1  0  0  0  0  0  0  0  0  0
   49.9919   58.9941   33.3560 O   0  0  0  0  0  0  0  0  0  0  0  0
   48.9186   56.9073   32.8476 C   0  0  2  0  0  0  0  0  0  0  0  0
   44.5222   52.5194   30.0159 O   0  0  0  0  0  0  0  0  0  0  0  0
   49.4808   56.1082   27.6775 N   0  0  0  0  0  0  0  0  0  0  0  0
   48.9647   57.2147   28.3212 C   0  0  0  0  0  0  0  0  0  0  0  0
   48.8918   57.2509   29.7017 N   0  0  0  0  0  0  0  0  0  0  0  0
   49.3167   56.2014   30.4390 C   0  0  0  0  0  0  0  0  0  0  0  0
   49.8455   55.0821   29.8136 C   0  0  0  0  0  0  0  0  0  0  0  0
   49.9221   55.0362   28.4241 C   0  0  0  0  0  0  0  0  0  0  0  0
   50.4202   53.9680   27.8067 N   0  0  0  0  0  0  0  0  0  0  0  0
   50.1975   54.2022   30.7775 N   0  0  0  0  0  0  0  0  0  0  0  0
   49.9184   54.7434   31.9866 C   0  0  0  0  0  0  0  0  0  0  0  0
   49.3707   55.9845   31.7927 N   0  0  0  0  0  0  0  0  0  0  0  0
  2  1  1  1  0  0  0
  2  3  1  0  0  0  0
  2  5  1  0  0  0  0
  3  4  1  0  0  0  0
  3 17  1  0  0  0  0
  5  6  1  0  0  0  0
  7  6  1  6  0  0  0
  7  8  1  0  0  0  0
  7  9  1  0  0  0  0
 10  9  1  6  0  0  0
 10 11  1  0  0  0  0
 10 12  1  0  0  0  0
 11 16  1  0  0  0  0
 12 13  1  1  0  0  0
 12 14  1  0  0  0  0
 14 15  1  1  0  0  0
 14 16  1  0  0  0  0
 16 27  1  6  0  0  0
 18 19  2  0  0  0  0
 18 23  1  0  0  0  0
 19 20  1  0  0  0  0
 20 21  2  0  0  0  0
 21 22  1  0  0  0  0
 21 27  1  0  0  0  0
 22 23  2  0  0  0  0
 22 25  1  0  0  0  0
 23 24  1  0  0  0  0
 25 26  2  0  0  0  0
 26 27  1  0  0  0  0
M  END
>  <CHROM.1>
171.12693010,-58.26428529,-80.79040067,52.72893373,-64.58101199,76.08109453
78.94091312,47.20113427,56.17414956,31.45348351,2.92894635,0.39566098,0.69887669

>  <Name>
ligand

>  <RI>
0

>  <Rbt.Current_Directory>
/home/itssahil/PROJECTS/Mol_Feturizer/New_Systems/rnas/3GX7

>  <Rbt.Executable>
rbdock ($Id: //depot/dev/client3/rdock/2013.1/src/exe/rbdock.cxx#4 $)

>  <Rbt.Library>
libRbt.so (2013.1, Build901 2013/11/27)

>  <Rbt.Parameter_File>
/export/apps/rDock/src/rDock_2013.1_src/data/scripts/dock_solv.prm

>  <Rbt.Receptor>
prm/pocket_docking_6.prm

>  <SCORE>
-16.1477

>  <SCORE.INTER>
-13.3582

>  <SCORE.INTER.CONST>
1

>  <SCORE.INTER.POLAR>
0

>  <SCORE.INTER.ROT>
7

>  <SCORE.INTER.SOLV>
9.50104

>  <SCORE.INTER.VDW>
-20.3392

>  <SCORE.INTER.norm>
-0.494749

>  <SCORE.INTRA>
-2.78951

>  <SCORE.INTRA.DIHEDRAL>
-5.70717

>  <SCORE.INTRA.DIHEDRAL.0>
11.2699

>  <SCORE.INTRA.POLAR>
0

>  <SCORE.INTRA.POLAR.0>
0

>  <SCORE.INTRA.REPUL>
0

>  <SCORE.INTRA.REPUL.0>
0

>  <SCORE.INTRA.SOLV>
0.942163

>  <SCORE.INTRA.SOLV.lig_0>
-48.6447

>  <SCORE.INTRA.VDW>
-0.407006

>  <SCORE.INTRA.VDW.0>
-0.0211724

>  <SCORE.INTRA.norm>
-0.103315

>  <SCORE.RESTR>
0

>  <SCORE.RESTR.CAVITY>
0

>  <SCORE.RESTR.norm>
0

>  <SCORE.SYSTEM>
0

>  <SCORE.SYSTEM.CONST>
0

>  <SCORE.SYSTEM.DIHEDRAL>
0

>  <SCORE.SYSTEM.SOLV>
0

>  <SCORE.SYSTEM.norm>
0

>  <SCORE.heavy>
27

>  <SCORE.norm>
-0.598064

>  <RMSD>
5.459

$$$$
ligand
 OpenBabel11021811483D
libRbt.so/2013.1/901 2013/11/27
 27 29  0  0  0  0  0  0  0  0999 V2000
   41.9295   53.6497   33.0999 N   0  0  0  0  0  0  0  0  0  0  0  0
   43.3583   53.9245   33.1925 C   0  0  2  0  0  0  0  0  0  0  0  0
   44.0150   53.8110   31.8266 C   0  0  0  0  0  0  0  0  0  0  0  0
   44.8943   54.6014   31.4923 O   0  0  0  0  0  0  0  0  0  0  0  0
   44.0516   53.0012   34.1933 C   0  0  0  0  0  0  0  0  0  0  0  0
   43.5184   53.0869   35.6185 C   0  0  0  0  0  0  0  0  0  0  0  0
   44.3362   51.9752   36.7961 S   0  0  2  0  0  0  0  0  0  0  0  0
   42.9951   51.6586   37.9691 C   0  0  0  0  0  0  0  0  0  0  0  0
   45.3242   53.1685   37.7363 C   0  0  0  0  0  0  0  0  0  0  0  0
   46.6901   53.3301   37.0861 C   0  0  1  0  0  0  0  0  0  0  0  0
   46.4972   53.7437   35.7549 O   0  0  0  0  0  0  0  0  0  0  0  0
   47.5606   54.4034   37.7080 C   0  0  1  0  0  0  0  0  0  0  0  0
   48.4651   53.8308   38.6207 O   0  0  0  0  0  0  0  0  0  0  0  0
   48.2968   54.9980   36.5211 C   0  0  1  0  0  0  0  0  0  0  0  0
   49.6267   54.5354   36.5206 O   0  0  0  0  0  0  0  0  0  0  0  0
   47.5753   54.5046   35.2731 C   0  0  2  0  0  0  0  0  0  0  0  0
   43.6815   52.9260   31.0380 O   0  0  0  0  0  0  0  0  0  0  0  0
   48.6332   59.1840   33.1125 N   0  0  0  0  0  0  0  0  0  0  0  0
   49.4961   58.3298   33.7689 C   0  0  0  0  0  0  0  0  0  0  0  0
   49.0388   57.1285   34.2789 N   0  0  0  0  0  0  0  0  0  0  0  0
   47.7405   56.7778   34.1492 C   0  0  0  0  0  0  0  0  0  0  0  0
   46.8571   57.6175   33.4870 C   0  0  0  0  0  0  0  0  0  0  0  0
   47.3082   58.8294   32.9710 C   0  0  0  0  0  0  0  0  0  0  0  0
   46.4738   59.6506   32.3387 N   0  0  0  0  0  0  0  0  0  0  0  0
   45.6436   57.0222   33.4930 N   0  0  0  0  0  0  0  0  0  0  0  0
   45.7446   55.8297   34.1259 C   0  0  0  0  0  0  0  0  0  0  0  0
   47.0406   55.6640   34.5392 N   0  0  0  0  0  0  0  0  0  0  0  0
  2  1  1  6  0  0  0
  2  3  1  0  0  0  0
  2  5  1  0  0  0  0
  3  4  1  0  0  0  0
  3 17  1  0  0  0  0
  5  6  1  0  0  0  0
  7  6  1  6  0  0  0
  7  8  1  0  0  0  0
  7  9  1  0  0  0  0
 10  9  1  1  0  0  0
 10 11  1  0  0  0  0
 10 12  1  0  0  0  0
 11 16  1  0  0  0  0
 12 13  1  1  0  0  0
 12 14  1  0  0  0  0
 14 15  1  6  0  0  0
 14 16  1  0  0  0  0
 16 27  1  1  0  0  0
 18 19  2  0  0  0  0
 18 23  1  0  0  0  0
 19 20  1  0  0  0  0
 20 21  2  0  0  0  0
 21 22  1  0  0  0  0
 21 27  1  0  0  0  0
 22 23  2  0  0  0  0
 22 25  1  0  0  0  0
 23 24  1  0  0  0  0
 25 26  2  0  0  0  0
 26 27  1  0  0  0  0
M  END
>  <CHROM.1>
140.96580154,-59.36556543,179.41172101,-150.27188319,-90.11048312,57.72141424
166.01903827,46.06779939,54.85443593,34.82291758,2.28393361,0.62069493,2.23842904

>  <Name>
ligand

>  <RI>
0

>  <Rbt.Current_Directory>
/home/itssahil/PROJECTS/Mol_Feturizer/New_Systems/rnas/3GX7

>  <Rbt.Executable>
rbdock ($Id: //depot/dev/client3/rdock/2013.1/src/exe/rbdock.cxx#4 $)

>  <Rbt.Library>
libRbt.so (2013.1, Build901 2013/11/27)

>  <Rbt.Parameter_File>
/export/apps/rDock/src/rDock_2013.1_src/data/scripts/dock_solv.prm

>  <Rbt.Receptor>
prm/pocket_docking_7.prm

>  <SCORE>
-19.587

>  <SCORE.INTER>
-13.9069

>  <SCORE.INTER.CONST>
1

>  <SCORE.INTER.POLAR>
0

>  <SCORE.INTER.ROT>
7

>  <SCORE.INTER.SOLV>
13.294

>  <SCORE.INTER.VDW>
-21.9693

>  <SCORE.INTER.norm>
-0.515071

>  <SCORE.INTRA>
-5.68006

>  <SCORE.INTRA.DIHEDRAL>
-3.74503

>  <SCORE.INTRA.DIHEDRAL.0>
11.2699

>  <SCORE.INTRA.POLAR>
0

>  <SCORE.INTRA.POLAR.0>
0

>  <SCORE.INTRA.REPUL>
0

>  <SCORE.INTRA.REPUL.0>
0

>  <SCORE.INTRA.SOLV>
-0.146037

>  <SCORE.INTRA.SOLV.lig_0>
-48.6447

>  <SCORE.INTRA.VDW>
-3.73453

>  <SCORE.INTRA.VDW.0>
-0.0211724

>  <SCORE.INTRA.norm>
-0.210373

>  <SCORE.RESTR>
0

>  <SCORE.RESTR.CAVITY>
0

>  <SCORE.RESTR.norm>
0

>  <SCORE.SYSTEM>
0

>  <SCORE.SYSTEM.CONST>
0

>  <SCORE.SYSTEM.DIHEDRAL>
0

>  <SCORE.SYSTEM.SOLV>
0

>  <SCORE.SYSTEM.norm>
0

>  <SCORE.heavy>
27

>  <SCORE.norm>
-0.725444

>  <RMSD>
5.460

$$$$
ligand
 OpenBabel11021811483D
libRbt.so/2013.1/901 2013/11/27
 27 29  0  0  0  0  0  0  0  0999 V2000
   46.4226   58.1583   30.9532 N   0  0  0  0  0  0  0  0  0  0  0  0
   46.3924   58.8554   32.2333 C   0  0  2  0  0  0  0  0  0  0  0  0
   46.6507   60.3405   32.0405 C   0  0  0  0  0  0  0  0  0  0  0  0
   45.7543   61.1578   32.2367 O   0  0  0  0  0  0  0  0  0  0  0  0
   47.3943   58.2667   33.2256 C   0  0  0  0  0  0  0  0  0  0  0  0
   47.1496   56.8078   33.5923 C   0  0  0  0  0  0  0  0  0  0  0  0
   48.4146   56.0805   34.6703 S   0  0  2  0  0  0  0  0  0  0  0  0
   49.8173   55.9597   33.5333 C   0  0  0  0  0  0  0  0  0  0  0  0
   47.8624   54.3548   34.7000 C   0  0  0  0  0  0  0  0  0  0  0  0
   46.6961   54.2050   35.6654 C   0  0  1  0  0  0  0  0  0  0  0  0
   45.5665   54.8142   35.0880 O   0  0  0  0  0  0  0  0  0  0  0  0
   46.2773   52.7728   35.9297 C   0  0  1  0  0  0  0  0  0  0  0  0
   46.8552   52.3075   37.1249 O   0  0  0  0  0  0  0  0  0  0  0  0
   44.7674   52.8608   36.0599 C   0  0  1  0  0  0  0  0  0  0  0  0
   44.4116   52.7541   37.4181 O   0  0  0  0  0  0  0  0  0  0  0  0
   44.3660   54.2294   35.5243 C   0  0  2  0  0  0  0  0  0  0  0  0
   47.7589   60.7479   31.6908 O   0  0  0  0  0  0  0  0  0  0  0  0
   42.2019   56.4650   31.2814 N   0  0  0  0  0  0  0  0  0  0  0  0
   43.0580   57.0312   32.2041 C   0  0  0  0  0  0  0  0  0  0  0  0
   43.5320   56.2864   33.2685 N   0  0  0  0  0  0  0  0  0  0  0  0
   43.1578   54.9975   33.4248 C   0  0  0  0  0  0  0  0  0  0  0  0
   42.3040   54.4060   32.5055 C   0  0  0  0  0  0  0  0  0  0  0  0
   41.8209   55.1483   31.4312 C   0  0  0  0  0  0  0  0  0  0  0  0
   40.9958   54.5995   30.5433 N   0  0  0  0  0  0  0  0  0  0  0  0
   42.1087   53.1258   32.8928 N   0  0  0  0  0  0  0  0  0  0  0  0
   42.8257   52.8949   34.0176 C   0  0  0  0  0  0  0  0  0  0  0  0
   43.4823   54.0478   34.3603 N   0  0  0  0  0  0  0  0  0  0  0  0
  2  1  1  6  0  0  0
  2  3  1  0  0  0  0
  2  5  1  0  0  0  0
  3  4  1  0  0  0  0
  3 17  1  0  0  0  0
  5  6  1  0  0  0  0
  7  6  1  6  0  0  0
  7  8  1  0  0  0  0
  7  9  1  0  0  0  0
 10  9  1  6  0  0  0
 10 11  1  0  0  0  0
 10 12  1  0  0  0  0
 11 16  1  0  0  0  0
 12 13  1  1  0  0  0
 12 14  1  0  0  0  0
 14 15  1  1  0  0  0
 14 16  1  0  0  0  0
 16 27  1  6  0  0  0
 18 19  2  0  0  0  0
 18 23  1  0  0  0  0
 19 20  1  0  0  0  0
 20 21  2  0  0  0  0
 21 22  1  0  0  0  0
 21 27  1  0  0  0  0
 22 23  2  0  0  0  0
 22 25  1  0  0  0  0
 23 24  1  0  0  0  0
 25 26  2  0  0  0  0
 26 27  1  0  0  0  0
M  END
>  <CHROM.1>
111.43805439,-61.69416002,175.54439222,-70.89375304,-78.88930538,71.76535697
-50.18496273,45.35070883,55.73805691,33.70445482,1.15139930,-0.41129003,-0.62159553

>  <Name>
ligand

>  <RI>
0

>  <Rbt.Current_Directory>
/home/itssahil/PROJECTS/Mol_Feturizer/New_Systems/rnas/3GX7

>  <Rbt.Executable>
rbdock ($Id: //depot/dev/client3/rdock/2013.1/src/exe/rbdock.cxx#4 $)

>  <Rbt.Library>
libRbt.so (2013.1, Build901 2013/11/27)

>  <Rbt.Parameter_File>
/export/apps/rDock/src/rDock_2013.1_src/data/scripts/dock_solv.prm

>  <Rbt.Receptor>
prm/pocket_docking_6.prm

>  <SCORE>
-22.3098

>  <SCORE.INTER>
-16.3172

>  <SCORE.INTER.CONST>
1

>  <SCORE.INTER.POLAR>
0

>  <SCORE.INTER.ROT>
7

>  <SCORE.INTER.SOLV>
8.43037

>  <SCORE.INTER.VDW>
-21.9549

>  <SCORE.INTER.norm>
-0.604339

>  <SCORE.INTRA>
-5.99264

>  <SCORE.INTRA.DIHEDRAL>
-7.18512

>  <SCORE.INTRA.DIHEDRAL.0>
11.2699

>  <SCORE.INTRA.POLAR>
0

>  <SCORE.INTRA.POLAR.0>
0

>  <SCORE.INTRA.REPUL>
0

>  <SCORE.INTRA.REPUL.0>
0

>  <SCORE.INTRA.SOLV>
-0.23018

>  <SCORE.INTRA.SOLV.lig_0>
-48.6447

>  <SCORE.INTRA.VDW>
-2.285

>  <SCORE.INTRA.VDW.0>
-0.0211724

>  <SCORE.INTRA.norm>
-0.22195

>  <SCORE.RESTR>
0

>  <SCORE.RESTR.CAVITY>
0

>  <SCORE.RESTR.norm>
0

>  <SCORE.SYSTEM>
0

>  <SCORE.SYSTEM.CONST>
0

>  <SCORE.SYSTEM.DIHEDRAL>
0

>  <SCORE.SYSTEM.SOLV>
0

>  <SCORE.SYSTEM.norm>
0

>  <SCORE.heavy>
27

>  <SCORE.norm>
-0.826289

>  <RMSD>
5.498

$$$$
ligand
 OpenBabel11021811483D
libRbt.so/2013.1/901 2013/11/27
 27 29  0  0  0  0  0  0  0  0999 V2000
   49.4993   56.2184   31.0309 N   0  0  0  0  0  0  0  0  0  0  0  0
   49.5552   55.2106   32.0830 C   0  0  2  0  0  0  0  0  0  0  0  0
   49.2976   53.8259   31.5123 C   0  0  0  0  0  0  0  0  0  0  0  0
   49.7833   53.4987   30.4320 O   0  0  0  0  0  0  0  0  0  0  0  0
   48.5703   55.5113   33.2119 C   0  0  0  0  0  0  0  0  0  0  0  0
   47.1114   55.6026   32.7807 C   0  0  0  0  0  0  0  0  0  0  0  0
   46.0148   56.3841   33.9965 S   0  0  2  0  0  0  0  0  0  0  0  0
   44.8260   55.0544   34.3024 C   0  0  0  0  0  0  0  0  0  0  0  0
   45.0392   57.4577   32.9105 C   0  0  0  0  0  0  0  0  0  0  0  0
   45.8758   58.6554   32.4858 C   0  0  1  0  0  0  0  0  0  0  0  0
   46.9349   58.1900   31.6846 O   0  0  0  0  0  0  0  0  0  0  0  0
   45.1425   59.6609   31.6211 C   0  0  1  0  0  0  0  0  0  0  0  0
   44.6702   60.7282   32.4065 O   0  0  0  0  0  0  0  0  0  0  0  0
   46.2057   60.1375   30.6481 C   0  0  1  0  0  0  0  0  0  0  0  0
   46.6321   61.4265   31.0211 O   0  0  0  0  0  0  0  0  0  0  0  0
   47.3650   59.1551   30.7588 C   0  0  2  0  0  0  0  0  0  0  0  0
   48.6051   53.0109   32.1227 O   0  0  0  0  0  0  0  0  0  0  0  0
   45.5337   55.6283   27.3102 N   0  0  0  0  0  0  0  0  0  0  0  0
   45.0035   55.9836   28.5340 C   0  0  0  0  0  0  0  0  0  0  0  0
   45.6262   56.9392   29.3159 N   0  0  0  0  0  0  0  0  0  0  0  0
   46.7658   57.5322   28.8974 C   0  0  0  0  0  0  0  0  0  0  0  0
   47.3125   57.1958   27.6678 C   0  0  0  0  0  0  0  0  0  0  0  0
   46.6931   56.2341   26.8740 C   0  0  0  0  0  0  0  0  0  0  0  0
   47.2068   55.8938   25.6948 N   0  0  0  0  0  0  0  0  0  0  0  0
   48.4283   57.9396   27.4984 N   0  0  0  0  0  0  0  0  0  0  0  0
   48.5877   58.7410   28.5778 C   0  0  0  0  0  0  0  0  0  0  0  0
   47.5633   58.4993   29.4552 N   0  0  0  0  0  0  0  0  0  0  0  0
  2  1  1  6  0  0  0
  2  3  1  0  0  0  0
  2  5  1  0  0  0  0
  3  4  1  0  0  0  0
  3 17  1  0  0  0  0
  5  6  1  0  0  0  0
  7  6  1  6  0  0  0
  7  8  1  0  0  0  0
  7  9  1  0  0  0  0
 10  9  1  6  0  0  0
 10 11  1  0  0  0  0
 10 12  1  0  0  0  0
 11 16  1  0  0  0  0
 12 13  1  1  0  0  0
 12 14  1  0  0  0  0
 14 15  1  1  0  0  0
 14 16  1  0  0  0  0
 16 27  1  6  0  0  0
 18 19  2  0  0  0  0
 18 23  1  0  0  0  0
 19 20  1  0  0  0  0
 20 21  2  0  0  0  0
 21 22  1  0  0  0  0
 21 27  1  0  0  0  0
 22 23  2  0  0  0  0
 22 25  1  0  0  0  0
 23 24  1  0  0  0  0
 25 26  2  0  0  0  0
 26 27  1  0  0  0  0
M  END
>  <CHROM.1>
40.55644666,58.61748534,-164.37140090,-120.76520464,-74.93032511,65.87541535
39.91682560,46.98115350,57.01584952,30.78936362,-1.83001526,1.08696492,-1.23061388

>  <Name>
ligand

>  <RI>
0

>  <Rbt.Current_Directory>
/home/itssahil/PROJECTS/Mol_Feturizer/New_Systems/rnas/3GX7

>  <Rbt.Executable>
rbdock ($Id: //depot/dev/client3/rdock/2013.1/src/exe/rbdock.cxx#4 $)

>  <Rbt.Library>
libRbt.so (2013.1, Build901 2013/11/27)

>  <Rbt.Parameter_File>
/export/apps/rDock/src/rDock_2013.1_src/data/scripts/dock_solv.prm

>  <Rbt.Receptor>
prm/pocket_docking_3.prm

>  <SCORE>
-16.1339

>  <SCORE.INTER>
-12.7423

>  <SCORE.INTER.CONST>
1

>  <SCORE.INTER.POLAR>
0

>  <SCORE.INTER.ROT>
7

>  <SCORE.INTER.SOLV>
16.9383

>  <SCORE.INTER.VDW>
-22.4077

>  <SCORE.INTER.norm>
-0.471938

>  <SCORE.INTRA>
-3.39162

>  <SCORE.INTRA.DIHEDRAL>
-2.80779

>  <SCORE.INTRA.DIHEDRAL.0>
11.2699

>  <SCORE.INTRA.POLAR>
0

>  <SCORE.INTRA.POLAR.0>
0

>  <SCORE.INTRA.REPUL>
0

>  <SCORE.INTRA.REPUL.0>
0

>  <SCORE.INTRA.SOLV>
1.84698

>  <SCORE.INTRA.SOLV.lig_0>
-48.6447

>  <SCORE.INTRA.VDW>
-2.91122

>  <SCORE.INTRA.VDW.0>
-0.0211724

>  <SCORE.INTRA.norm>
-0.125616

>  <SCORE.RESTR>
0

>  <SCORE.RESTR.CAVITY>
0

>  <SCORE.RESTR.norm>
0

>  <SCORE.SYSTEM>
0

>  <SCORE.SYSTEM.CONST>
0

>  <SCORE.SYSTEM.DIHEDRAL>
0

>  <SCORE.SYSTEM.SOLV>
0

>  <SCORE.SYSTEM.norm>
0

>  <SCORE.heavy>
27

>  <SCORE.norm>
-0.597554

>  <RMSD>
5.499

$$$$
ligand
 OpenBabel11021811483D
libRbt.so/2013.1/901 2013/11/27
 27 29  0  0  0  0  0  0  0  0999 V2000
   48.7225   53.2103   26.1735 N   0  0  0  0  0  0  0  0  0  0  0  0
   48.7294   54.4256   25.3683 C   0  0  2  0  0  0  0  0  0  0  0  0
   50.1037   55.0741   25.3894 C   0  0  0  0  0  0  0  0  0  0  0  0
   50.6287   55.4521   24.3448 O   0  0  0  0  0  0  0  0  0  0  0  0
   47.6657   55.4206   25.8304 C   0  0  0  0  0  0  0  0  0  0  0  0
   47.6996   55.7482   27.3184 C   0  0  0  0  0  0  0  0  0  0  0  0
   46.4210   56.9151   27.8613 S   0  0  2  0  0  0  0  0  0  0  0  0
   47.0659   58.4730   27.2040 C   0  0  0  0  0  0  0  0  0  0  0  0
   46.8601   57.0865   29.6111 C   0  0  0  0  0  0  0  0  0  0  0  0
   45.8742   58.0188   30.2992 C   0  0  1  0  0  0  0  0  0  0  0  0
   44.7099   57.2861   30.5957 O   0  0  0  0  0  0  0  0  0  0  0  0
   46.3464   58.5614   31.6330 C   0  0  1  0  0  0  0  0  0  0  0  0
   46.8926   59.8477   31.4715 O   0  0  0  0  0  0  0  0  0  0  0  0
   45.0783   58.6153   32.4656 C   0  0  1  0  0  0  0  0  0  0  0  0
   44.6478   59.9519   32.5698 O   0  0  0  0  0  0  0  0  0  0  0  0
   44.0361   57.7910   31.7202 C   0  0  2  0  0  0  0  0  0  0  0  0
   50.7090   55.2351   26.4497 O   0  0  0  0  0  0  0  0  0  0  0  0
   45.5581   54.1461   35.1961 N   0  0  0  0  0  0  0  0  0  0  0  0
   46.3250   55.1146   34.5806 C   0  0  0  0  0  0  0  0  0  0  0  0
   45.7510   55.9968   33.6836 N   0  0  0  0  0  0  0  0  0  0  0  0
   44.4342   55.9183   33.3911 C   0  0  0  0  0  0  0  0  0  0  0  0
   43.6430   54.9575   34.0033 C   0  0  0  0  0  0  0  0  0  0  0  0
   44.2123   54.0643   34.9071 C   0  0  0  0  0  0  0  0  0  0  0  0
   43.4702   53.1319   35.4988 N   0  0  0  0  0  0  0  0  0  0  0  0
   42.3815   55.1117   33.5429 N   0  0  0  0  0  0  0  0  0  0  0  0
   42.3573   56.1486   32.6728 C   0  0  0  0  0  0  0  0  0  0  0  0
   43.6245   56.6594   32.5680 N   0  0  0  0  0  0  0  0  0  0  0  0
  2  1  1  1  0  0  0
  2  3  1  0  0  0  0
  2  5  1  0  0  0  0
  3  4  1  0  0  0  0
  3 17  1  0  0  0  0
  5  6  1  0  0  0  0
  7  6  1  6  0  0  0
  7  8  1  0  0  0  0
  7  9  1  0  0  0  0
 10  9  1  1  0  0  0
 10 11  1  0  0  0  0
 10 12  1  0  0  0  0
 11 16  1  0  0  0  0
 12 13  1  6  0  0  0
 12 14  1  0  0  0  0
 14 15  1  6  0  0  0
 14 16  1  0  0  0  0
 16 27  1  1  0  0  0
 18 19  2  0  0  0  0
 18 23  1  0  0  0  0
 19 20  1  0  0  0  0
 20 21  2  0  0  0  0
 21 22  1  0  0  0  0
 21 27  1  0  0  0  0
 22 23  2  0  0  0  0
 22 25  1  0  0  0  0
 23 24  1  0  0  0  0
 25 26  2  0  0  0  0
 26 27  1  0  0  0  0
M  END
>  <CHROM.1>
132.93198388,52.19516231,-179.31568364,-74.26271948,-178.55744944,80.22702861
75.79816724,46.15613986,56.32218419,30.37651875,-0.22061884,-1.00567525,2.83933280

>  <Name>
ligand

>  <RI>
0

>  <Rbt.Current_Directory>
/home/itssahil/PROJECTS/Mol_Feturizer/New_Systems/rnas/3GX7

>  <Rbt.Executable>
rbdock ($Id: //depot/dev/client3/rdock/2013.1/src/exe/rbdock.cxx#4 $)

>  <Rbt.Library>
libRbt.so (2013.1, Build901 2013/11/27)

>  <Rbt.Parameter_File>
/export/apps/rDock/src/rDock_2013.1_src/data/scripts/dock_solv.prm

>  <Rbt.Receptor>
prm/pocket_docking_8.prm

>  <SCORE>
-14.8679

>  <SCORE.INTER>
-9.12003

>  <SCORE.INTER.CONST>
1

>  <SCORE.INTER.POLAR>
0

>  <SCORE.INTER.ROT>
7

>  <SCORE.INTER.SOLV>
7.96211

>  <SCORE.INTER.VDW>
-17.0007

>  <SCORE.INTER.norm>
-0.337779

>  <SCORE.INTRA>
-5.74784

>  <SCORE.INTRA.DIHEDRAL>
-6.15046

>  <SCORE.INTRA.DIHEDRAL.0>
11.2699

>  <SCORE.INTRA.POLAR>
0

>  <SCORE.INTRA.POLAR.0>
0

>  <SCORE.INTRA.REPUL>
0

>  <SCORE.INTRA.REPUL.0>
0

>  <SCORE.INTRA.SOLV>
-0.4028

>  <SCORE.INTRA.SOLV.lig_0>
-48.6447

>  <SCORE.INTRA.VDW>
-2.47121

>  <SCORE.INTRA.VDW.0>
-0.0211724

>  <SCORE.INTRA.norm>
-0.212883

>  <SCORE.RESTR>
0

>  <SCORE.RESTR.CAVITY>
0

>  <SCORE.RESTR.norm>
0

>  <SCORE.SYSTEM>
0

>  <SCORE.SYSTEM.CONST>
0

>  <SCORE.SYSTEM.DIHEDRAL>
0

>  <SCORE.SYSTEM.SOLV>
0

>  <SCORE.SYSTEM.norm>
0

>  <SCORE.heavy>
27

>  <SCORE.norm>
-0.550662

>  <RMSD>
5.526

$$$$
ligand
 OpenBabel11021811483D
libRbt.so/2013.1/901 2013/11/27
 27 29  0  0  0  0  0  0  0  0999 V2000
   50.4817   55.7089   28.6701 N   0  0  0  0  0  0  0  0  0  0  0  0
   49.2612   56.0956   27.9728 C   0  0  2  0  0  0  0  0  0  0  0  0
   48.7123   57.3963   28.5353 C   0  0  0  0  0  0  0  0  0  0  0  0
   48.7299   57.6063   29.7459 O   0  0  0  0  0  0  0  0  0  0  0  0
   48.1983   54.9995   28.0355 C   0  0  0  0  0  0  0  0  0  0  0  0
   47.7805   54.5934   29.4438 C   0  0  0  0  0  0  0  0  0  0  0  0
   48.9984   53.5797   30.3272 S   0  0  2  0  0  0  0  0  0  0  0  0
   48.8644   52.0119   29.4333 C   0  0  0  0  0  0  0  0  0  0  0  0
   48.0644   53.1859   31.8293 C   0  0  0  0  0  0  0  0  0  0  0  0
   47.9432   54.4280   32.6994 C   0  0  1  0  0  0  0  0  0  0  0  0
   46.9702   54.1808   33.6855 O   0  0  0  0  0  0  0  0  0  0  0  0
   49.1997   54.7830   33.4687 C   0  0  1  0  0  0  0  0  0  0  0  0
   49.9269   55.7748   32.7856 O   0  0  0  0  0  0  0  0  0  0  0  0
   48.6717   55.3150   34.7887 C   0  0  1  0  0  0  0  0  0  0  0  0
   48.7914   56.7179   34.8049 O   0  0  0  0  0  0  0  0  0  0  0  0
   47.2022   54.9187   34.8581 C   0  0  2  0  0  0  0  0  0  0  0  0
   48.2474   58.2594   27.7902 O   0  0  0  0  0  0  0  0  0  0  0  0
   48.2636   54.0463   39.9371 N   0  0  0  0  0  0  0  0  0  0  0  0
   48.6865   55.0922   39.1420 C   0  0  0  0  0  0  0  0  0  0  0  0
   48.3066   55.1600   37.8140 N   0  0  0  0  0  0  0  0  0  0  0  0
   47.5236   54.2002   37.2743 C   0  0  0  0  0  0  0  0  0  0  0  0
   47.0810   53.1439   38.0567 C   0  0  0  0  0  0  0  0  0  0  0  0
   47.4590   53.0666   39.3946 C   0  0  0  0  0  0  0  0  0  0  0  0
   47.0496   52.0571   40.1584 N   0  0  0  0  0  0  0  0  0  0  0  0
   46.3150   52.3491   37.2765 N   0  0  0  0  0  0  0  0  0  0  0  0
   46.2535   52.8841   36.0344 C   0  0  0  0  0  0  0  0  0  0  0  0
   46.9991   54.0337   36.0175 N   0  0  0  0  0  0  0  0  0  0  0  0
  2  1  1  1  0  0  0
  2  3  1  0  0  0  0
  2  5  1  0  0  0  0
  3  4  1  0  0  0  0
  3 17  1  0  0  0  0
  5  6  1  0  0  0  0
  7  6  1  6  0  0  0
  7  8  1  0  0  0  0
  7  9  1  0  0  0  0
 10  9  1  1  0  0  0
 10 11  1  0  0  0  0
 10 12  1  0  0  0  0
 11 16  1  0  0  0  0
 12 13  1  6  0  0  0
 12 14  1  0  0  0  0
 14 15  1  6  0  0  0
 14 16  1  0  0  0  0
 16 27  1  1  0  0  0
 18 19  2  0  0  0  0
 18 23  1  0  0  0  0
 19 20  1  0  0  0  0
 20 21  2  0  0  0  0
 21 22  1  0  0  0  0
 21 27  1  0  0  0  0
 22 23  2  0  0  0  0
 22 25  1  0  0  0  0
 23 24  1  0  0  0  0
 25 26  2  0  0  0  0
 26 27  1  0  0  0  0
M  END
>  <CHROM.1>
-40.25867387,58.54992327,-74.52972499,-71.33699466,-71.64613020,166.63328056
157.16655647,48.21082276,54.64731078,33.41449423,-1.01124684,1.30501264,1.24380686

>  <Name>
ligand

>  <RI>
0

>  <Rbt.Current_Directory>
/home/itssahil/PROJECTS/Mol_Feturizer/New_Systems/rnas/3GX7

>  <Rbt.Executable>
rbdock ($Id: //depot/dev/client3/rdock/2013.1/src/exe/rbdock.cxx#4 $)

>  <Rbt.Library>
libRbt.so (2013.1, Build901 2013/11/27)

>  <Rbt.Parameter_File>
/export/apps/rDock/src/rDock_2013.1_src/data/scripts/dock_solv.prm

>  <Rbt.Receptor>
prm/pocket_docking_7.prm

>  <SCORE>
-20.2216

>  <SCORE.INTER>
-14.884

>  <SCORE.INTER.CONST>
1

>  <SCORE.INTER.POLAR>
0

>  <SCORE.INTER.ROT>
7

>  <SCORE.INTER.SOLV>
16.9736

>  <SCORE.INTER.VDW>
-23.8472

>  <SCORE.INTER.norm>
-0.55126

>  <SCORE.INTRA>
-5.33755

>  <SCORE.INTRA.DIHEDRAL>
-6.66319

>  <SCORE.INTRA.DIHEDRAL.0>
11.2699

>  <SCORE.INTRA.POLAR>
0

>  <SCORE.INTRA.POLAR.0>
0

>  <SCORE.INTRA.REPUL>
0

>  <SCORE.INTRA.REPUL.0>
0

>  <SCORE.INTRA.SOLV>
1.53219

>  <SCORE.INTRA.SOLV.lig_0>
-48.6447

>  <SCORE.INTRA.VDW>
-2.77205

>  <SCORE.INTRA.VDW.0>
-0.0211724

>  <SCORE.INTRA.norm>
-0.197687

>  <SCORE.RESTR>
0

>  <SCORE.RESTR.CAVITY>
0

>  <SCORE.RESTR.norm>
0

>  <SCORE.SYSTEM>
0

>  <SCORE.SYSTEM.CONST>
0

>  <SCORE.SYSTEM.DIHEDRAL>
0

>  <SCORE.SYSTEM.SOLV>
0

>  <SCORE.SYSTEM.norm>
0

>  <SCORE.heavy>
27

>  <SCORE.norm>
-0.748948

>  <RMSD>
5.549

$$$$
ligand
 OpenBabel11021811483D
libRbt.so/2013.1/901 2013/11/27
 27 29  0  0  0  0  0  0  0  0999 V2000
   45.9188   60.2803   31.2075 N   0  0  0  0  0  0  0  0  0  0  0  0
   46.5743   59.6285   32.3348 C   0  0  2  0  0  0  0  0  0  0  0  0
   48.0076   60.1141   32.4746 C   0  0  0  0  0  0  0  0  0  0  0  0
   48.6472   59.8771   33.4966 O   0  0  0  0  0  0  0  0  0  0  0  0
   46.5394   58.1059   32.2108 C   0  0  0  0  0  0  0  0  0  0  0  0
   45.1824   57.4721   32.4929 C   0  0  0  0  0  0  0  0  0  0  0  0
   45.1753   55.6584   32.4492 S   0  0  2  0  0  0  0  0  0  0  0  0
   43.3994   55.3134   32.4953 C   0  0  0  0  0  0  0  0  0  0  0  0
   45.6291   55.2907   34.1647 C   0  0  0  0  0  0  0  0  0  0  0  0
   47.1212   55.0070   34.2518 C   0  0  1  0  0  0  0  0  0  0  0  0
   47.3875   53.8284   33.5306 O   0  0  0  0  0  0  0  0  0  0  0  0
   48.0014   56.0637   33.6152 C   0  0  1  0  0  0  0  0  0  0  0  0
   48.4817   56.9535   34.5933 O   0  0  0  0  0  0  0  0  0  0  0  0
   49.1399   55.2626   33.0101 C   0  0  1  0  0  0  0  0  0  0  0  0
   50.2892   55.4124   33.8096 O   0  0  0  0  0  0  0  0  0  0  0  0
   48.6928   53.8061   33.0118 C   0  0  2  0  0  0  0  0  0  0  0  0
   48.5507   60.7461   31.5679 O   0  0  0  0  0  0  0  0  0  0  0  0
   50.4852   54.3839   28.0989 N   0  0  0  0  0  0  0  0  0  0  0  0
   50.8207   55.1109   29.2231 C   0  0  0  0  0  0  0  0  0  0  0  0
   50.2431   54.8172   30.4448 N   0  0  0  0  0  0  0  0  0  0  0  0
   49.3372   53.8207   30.5537 C   0  0  0  0  0  0  0  0  0  0  0  0
   48.9905   53.0725   29.4384 C   0  0  0  0  0  0  0  0  0  0  0  0
   49.5661   53.3615   28.2040 C   0  0  0  0  0  0  0  0  0  0  0  0
   49.2406   52.6587   27.1221 N   0  0  0  0  0  0  0  0  0  0  0  0
   48.0862   52.1475   29.8306 N   0  0  0  0  0  0  0  0  0  0  0  0
   47.8680   52.2854   31.1596 C   0  0  0  0  0  0  0  0  0  0  0  0
   48.6375   53.3204   31.6226 N   0  0  0  0  0  0  0  0  0  0  0  0
  2  1  1  6  0  0  0
  2  3  1  0  0  0  0
  2  5  1  0  0  0  0
  3  4  1  0  0  0  0
  3 17  1  0  0  0  0
  5  6  1  0  0  0  0
  7  6  1  1  0  0  0
  7  8  1  0  0  0  0
  7  9  1  0  0  0  0
 10  9  1  6  0  0  0
 10 11  1  0  0  0  0
 10 12  1  0  0  0  0
 11 16  1  0  0  0  0
 12 13  1  1  0  0  0
 12 14  1  0  0  0  0
 14 15  1  1  0  0  0
 14 16  1  0  0  0  0
 16 27  1  6  0  0  0
 18 19  2  0  0  0  0
 18 23  1  0  0  0  0
 19 20  1  0  0  0  0
 20 21  2  0  0  0  0
 21 22  1  0  0  0  0
 21 27  1  0  0  0  0
 22 23  2  0  0  0  0
 22 25  1  0  0  0  0
 23 24  1  0  0  0  0
 25 26  2  0  0  0  0
 26 27  1  0  0  0  0
M  END
>  <CHROM.1>
166.56994599,-74.32259286,-176.21808760,-169.37437749,-97.48943771,-65.32048520
138.01099760,47.84201446,55.76578743,31.82600382,-2.09364667,-0.73431441
-2.96429769

>  <Name>
ligand

>  <RI>
0

>  <Rbt.Current_Directory>
/home/itssahil/PROJECTS/Mol_Feturizer/New_Systems/rnas/3GX7

>  <Rbt.Executable>
rbdock ($Id: //depot/dev/client3/rdock/2013.1/src/exe/rbdock.cxx#4 $)

>  <Rbt.Library>
libRbt.so (2013.1, Build901 2013/11/27)

>  <Rbt.Parameter_File>
/export/apps/rDock/src/rDock_2013.1_src/data/scripts/dock_solv.prm

>  <Rbt.Receptor>
prm/pocket_docking_4.prm

>  <SCORE>
-17.7391

>  <SCORE.INTER>
-14.2631

>  <SCORE.INTER.CONST>
1

>  <SCORE.INTER.POLAR>
0

>  <SCORE.INTER.ROT>
7

>  <SCORE.INTER.SOLV>
12.8045

>  <SCORE.INTER.VDW>
-22.0435

>  <SCORE.INTER.norm>
-0.528261

>  <SCORE.INTRA>
-3.67173

>  <SCORE.INTRA.DIHEDRAL>
-4.06677

>  <SCORE.INTRA.DIHEDRAL.0>
11.2699

>  <SCORE.INTRA.POLAR>
0

>  <SCORE.INTRA.POLAR.0>
0

>  <SCORE.INTRA.REPUL>
0

>  <SCORE.INTRA.REPUL.0>
0

>  <SCORE.INTRA.SOLV>
0.20434

>  <SCORE.INTRA.SOLV.lig_0>
-48.6447

>  <SCORE.INTRA.VDW>
-1.74052

>  <SCORE.INTRA.VDW.0>
-0.0211724

>  <SCORE.INTRA.norm>
-0.13599

>  <SCORE.RESTR>
0.195689

>  <SCORE.RESTR.CAVITY>
0.195689

>  <SCORE.RESTR.norm>
0.00724774

>  <SCORE.SYSTEM>
0

>  <SCORE.SYSTEM.CONST>
0

>  <SCORE.SYSTEM.DIHEDRAL>
0

>  <SCORE.SYSTEM.SOLV>
0

>  <SCORE.SYSTEM.norm>
0

>  <SCORE.heavy>
27

>  <SCORE.norm>
-0.657004

>  <RMSD>
5.590

$$$$
ligand
 OpenBabel11021811483D
libRbt.so/2013.1/901 2013/11/27
 27 29  0  0  0  0  0  0  0  0999 V2000
   47.9232   59.4564   31.5550 N   0  0  0  0  0  0  0  0  0  0  0  0
   46.9634   58.4226   31.9234 C   0  0  2  0  0  0  0  0  0  0  0  0
   47.2204   57.9334   33.3391 C   0  0  0  0  0  0  0  0  0  0  0  0
   48.1815   58.3557   33.9777 O   0  0  0  0  0  0  0  0  0  0  0  0
   46.9863   57.2498   30.9441 C   0  0  0  0  0  0  0  0  0  0  0  0
   46.5542   57.5939   29.5237 C   0  0  0  0  0  0  0  0  0  0  0  0
   47.9235   57.9059   28.3752 S   0  0  2  0  0  0  0  0  0  0  0  0
   47.0467   58.6494   26.9776 C   0  0  0  0  0  0  0  0  0  0  0  0
   48.2015   56.2319   27.7394 C   0  0  0  0  0  0  0  0  0  0  0  0
   49.4173   55.6196   28.4189 C   0  0  1  0  0  0  0  0  0  0  0  0
   49.2394   55.7193   29.8113 O   0  0  0  0  0  0  0  0  0  0  0  0
   49.6088   54.1400   28.1530 C   0  0  1  0  0  0  0  0  0  0  0  0
   50.5418   53.9465   27.1180 O   0  0  0  0  0  0  0  0  0  0  0  0
   50.1460   53.6074   29.4690 C   0  0  1  0  0  0  0  0  0  0  0  0
   51.5267   53.3624   29.3418 O   0  0  0  0  0  0  0  0  0  0  0  0
   49.9058   54.6967   30.5068 C   0  0  2  0  0  0  0  0  0  0  0  0
   46.4701   57.1132   33.8690 O   0  0  0  0  0  0  0  0  0  0  0  0
   48.2166   55.1688   35.4675 N   0  0  0  0  0  0  0  0  0  0  0  0
   49.1615   55.9297   34.8092 C   0  0  0  0  0  0  0  0  0  0  0  0
   49.4844   55.6590   33.4921 N   0  0  0  0  0  0  0  0  0  0  0  0
   48.8863   54.6418   32.8340 C   0  0  0  0  0  0  0  0  0  0  0  0
   47.9287   53.8687   33.4736 C   0  0  0  0  0  0  0  0  0  0  0  0
   47.5976   54.1332   34.7999 C   0  0  0  0  0  0  0  0  0  0  0  0
   46.6863   53.3978   35.4316 N   0  0  0  0  0  0  0  0  0  0  0  0
   47.4921   52.9436   32.5901 N   0  0  0  0  0  0  0  0  0  0  0  0
   48.1370   53.1241   31.4135 C   0  0  0  0  0  0  0  0  0  0  0  0
   49.0061   54.1748   31.5494 N   0  0  0  0  0  0  0  0  0  0  0  0
  2  1  1  6  0  0  0
  2  3  1  0  0  0  0
  2  5  1  0  0  0  0
  3  4  1  0  0  0  0
  3 17  1  0  0  0  0
  5  6  1  0  0  0  0
  7  6  1  1  0  0  0
  7  8  1  0  0  0  0
  7  9  1  0  0  0  0
 10  9  1  6  0  0  0
 10 11  1  0  0  0  0
 10 12  1  0  0  0  0
 11 16  1  0  0  0  0
 12 13  1  6  0  0  0
 12 14  1  0  0  0  0
 14 15  1  6  0  0  0
 14 16  1  0  0  0  0
 16 27  1  1  0  0  0
 18 19  2  0  0  0  0
 18 23  1  0  0  0  0
 19 20  1  0  0  0  0
 20 21  2  0  0  0  0
 21 22  1  0  0  0  0
 21 27  1  0  0  0  0
 22 23  2  0  0  0  0
 22 25  1  0  0  0  0
 23 24  1  0  0  0  0
 25 26  2  0  0  0  0
 26 27  1  0  0  0  0
M  END
>  <CHROM.1>
-3.92506039,-64.30227433,97.72008386,-166.92770171,-101.88730295,53.05316438
-88.84057030,48.37928179,55.80776709,31.16015286,1.95504293,-1.08444935,2.03278573

>  <Name>
ligand

>  <RI>
0

>  <Rbt.Current_Directory>
/home/itssahil/PROJECTS/Mol_Feturizer/New_Systems/rnas/3GX7

>  <Rbt.Executable>
rbdock ($Id: //depot/dev/client3/rdock/2013.1/src/exe/rbdock.cxx#4 $)

>  <Rbt.Library>
libRbt.so (2013.1, Build901 2013/11/27)

>  <Rbt.Parameter_File>
/export/apps/rDock/src/rDock_2013.1_src/data/scripts/dock_solv.prm

>  <Rbt.Receptor>
prm/pocket_docking_3.prm

>  <SCORE>
-14.1848

>  <SCORE.INTER>
-10.9962

>  <SCORE.INTER.CONST>
1

>  <SCORE.INTER.POLAR>
0

>  <SCORE.INTER.ROT>
7

>  <SCORE.INTER.SOLV>
13.5185

>  <SCORE.INTER.VDW>
-20.1036

>  <SCORE.INTER.norm>
-0.407265

>  <SCORE.INTRA>
-4.18311

>  <SCORE.INTRA.DIHEDRAL>
-0.173902

>  <SCORE.INTRA.DIHEDRAL.0>
11.2699

>  <SCORE.INTRA.POLAR>
0

>  <SCORE.INTRA.POLAR.0>
0

>  <SCORE.INTRA.REPUL>
0

>  <SCORE.INTRA.REPUL.0>
0

>  <SCORE.INTRA.SOLV>
0.584141

>  <SCORE.INTRA.SOLV.lig_0>
-48.6447

>  <SCORE.INTRA.VDW>
-4.38823

>  <SCORE.INTRA.VDW.0>
-0.0211724

>  <SCORE.INTRA.norm>
-0.15493

>  <SCORE.RESTR>
0.994422

>  <SCORE.RESTR.CAVITY>
0.994422

>  <SCORE.RESTR.norm>
0.0368304

>  <SCORE.SYSTEM>
0

>  <SCORE.SYSTEM.CONST>
0

>  <SCORE.SYSTEM.DIHEDRAL>
0

>  <SCORE.SYSTEM.SOLV>
0

>  <SCORE.SYSTEM.norm>
0

>  <SCORE.heavy>
27

>  <SCORE.norm>
-0.525365

>  <RMSD>
5.598

$$$$
ligand
 OpenBabel11021811483D
libRbt.so/2013.1/901 2013/11/27
 27 29  0  0  0  0  0  0  0  0999 V2000
   49.5626   56.5030   28.2763 N   0  0  0  0  0  0  0  0  0  0  0  0
   48.1828   56.9322   28.0827 C   0  0  2  0  0  0  0  0  0  0  0  0
   47.9147   57.2276   26.6162 C   0  0  0  0  0  0  0  0  0  0  0  0
   47.1366   58.1227   26.2947 O   0  0  0  0  0  0  0  0  0  0  0  0
   47.8396   58.1491   28.9408 C   0  0  0  0  0  0  0  0  0  0  0  0
   47.7855   57.8800   30.4399 C   0  0  0  0  0  0  0  0  0  0  0  0
   46.9286   59.1564   31.4031 S   0  0  2  0  0  0  0  0  0  0  0  0
   48.3209   60.1691   31.9605 C   0  0  0  0  0  0  0  0  0  0  0  0
   46.5649   58.2304   32.9177 C   0  0  0  0  0  0  0  0  0  0  0  0
   45.5363   57.1486   32.6240 C   0  0  1  0  0  0  0  0  0  0  0  0
   46.0275   55.9278   33.1229 O   0  0  0  0  0  0  0  0  0  0  0  0
   44.2012   57.3452   33.3135 C   0  0  1  0  0  0  0  0  0  0  0  0
   43.2824   57.9491   32.4359 O   0  0  0  0  0  0  0  0  0  0  0  0
   43.7668   55.9325   33.6596 C   0  0  1  0  0  0  0  0  0  0  0  0
   42.7530   55.5275   32.7704 O   0  0  0  0  0  0  0  0  0  0  0  0
   44.9945   55.0473   33.4848 C   0  0  2  0  0  0  0  0  0  0  0  0
   48.4740   56.5810   25.7300 O   0  0  0  0  0  0  0  0  0  0  0  0
   48.6903   54.3469   37.1637 N   0  0  0  0  0  0  0  0  0  0  0  0
   48.7815   55.0565   35.9834 C   0  0  0  0  0  0  0  0  0  0  0  0
   47.6982   55.1334   35.1273 N   0  0  0  0  0  0  0  0  0  0  0  0
   46.5390   54.5087   35.4296 C   0  0  0  0  0  0  0  0  0  0  0  0
   46.4226   53.7959   36.6138 C   0  0  0  0  0  0  0  0  0  0  0  0
   47.5082   53.7122   37.4816 C   0  0  0  0  0  0  0  0  0  0  0  0
   47.4170   53.0273   38.6186 N   0  0  0  0  0  0  0  0  0  0  0  0
   45.1698   53.2911   36.6666 N   0  0  0  0  0  0  0  0  0  0  0  0
   44.4951   53.6787   35.5587 C   0  0  0  0  0  0  0  0  0  0  0  0
   45.3322   54.4352   34.7810 N   0  0  0  0  0  0  0  0  0  0  0  0
  2  1  1  6  0  0  0
  2  3  1  0  0  0  0
  2  5  1  0  0  0  0
  3  4  1  0  0  0  0
  3 17  1  0  0  0  0
  5  6  1  0  0  0  0
  7  6  1  6  0  0  0
  7  8  1  0  0  0  0
  7  9  1  0  0  0  0
 10  9  1  1  0  0  0
 10 11  1  0  0  0  0
 10 12  1  0  0  0  0
 11 16  1  0  0  0  0
 12 13  1  6  0  0  0
 12 14  1  0  0  0  0
 14 15  1  6  0  0  0
 14 16  1  0  0  0  0
 16 27  1  1  0  0  0
 18 19  2  0  0  0  0
 18 23  1  0  0  0  0
 19 20  1  0  0  0  0
 20 21  2  0  0  0  0
 21 22  1  0  0  0  0
 21 27  1  0  0  0  0
 22 23  2  0  0  0  0
 22 25  1  0  0  0  0
 23 24  1  0  0  0  0
 25 26  2  0  0  0  0
 26 27  1  0  0  0  0
M  END
>  <CHROM.1>
-146.11954621,-68.74950174,-163.15244887,-96.20043595,-68.19891776,129.10794731
-10.65279590,46.56674257,56.31417372,32.61105414,-1.41134820,-0.19087502
2.01672494

>  <Name>
ligand

>  <RI>
0

>  <Rbt.Current_Directory>
/home/itssahil/PROJECTS/Mol_Feturizer/New_Systems/rnas/3GX7

>  <Rbt.Executable>
rbdock ($Id: //depot/dev/client3/rdock/2013.1/src/exe/rbdock.cxx#4 $)

>  <Rbt.Library>
libRbt.so (2013.1, Build901 2013/11/27)

>  <Rbt.Parameter_File>
/export/apps/rDock/src/rDock_2013.1_src/data/scripts/dock_solv.prm

>  <Rbt.Receptor>
prm/pocket_docking_4.prm

>  <SCORE>
-19.0327

>  <SCORE.INTER>
-17.196

>  <SCORE.INTER.CONST>
1

>  <SCORE.INTER.POLAR>
0

>  <SCORE.INTER.ROT>
7

>  <SCORE.INTER.SOLV>
16.1654

>  <SCORE.INTER.VDW>
-25.1192

>  <SCORE.INTER.norm>
-0.63689

>  <SCORE.INTRA>
-1.85282

>  <SCORE.INTRA.DIHEDRAL>
0.0450278

>  <SCORE.INTRA.DIHEDRAL.0>
11.2699

>  <SCORE.INTRA.POLAR>
0

>  <SCORE.INTRA.POLAR.0>
0

>  <SCORE.INTRA.REPUL>
0

>  <SCORE.INTRA.REPUL.0>
0

>  <SCORE.INTRA.SOLV>
-0.447769

>  <SCORE.INTRA.SOLV.lig_0>
-48.6447

>  <SCORE.INTRA.VDW>
-1.65145

>  <SCORE.INTRA.VDW.0>
-0.0211724

>  <SCORE.INTRA.norm>
-0.0686228

>  <SCORE.RESTR>
0.0161539

>  <SCORE.RESTR.CAVITY>
0.0161539

>  <SCORE.RESTR.norm>
0.000598294

>  <SCORE.SYSTEM>
0

>  <SCORE.SYSTEM.CONST>
0

>  <SCORE.SYSTEM.DIHEDRAL>
0

>  <SCORE.SYSTEM.SOLV>
0

>  <SCORE.SYSTEM.norm>
0

>  <SCORE.heavy>
27

>  <SCORE.norm>
-0.704914

>  <RMSD>
5.599

$$$$
ligand
 OpenBabel11021811483D
libRbt.so/2013.1/901 2013/11/27
 27 29  0  0  0  0  0  0  0  0999 V2000
   43.6604   55.6436   31.3242 N   0  0  0  0  0  0  0  0  0  0  0  0
   44.3317   56.0138   32.5642 C   0  0  2  0  0  0  0  0  0  0  0  0
   43.9116   57.4062   33.0054 C   0  0  0  0  0  0  0  0  0  0  0  0
   43.5810   58.2482   32.1739 O   0  0  0  0  0  0  0  0  0  0  0  0
   45.8521   55.9343   32.4340 C   0  0  0  0  0  0  0  0  0  0  0  0
   46.6194   56.1991   33.7239 C   0  0  0  0  0  0  0  0  0  0  0  0
   48.4245   56.1788   33.5435 S   0  0  2  0  0  0  0  0  0  0  0  0
   48.9233   55.3921   35.0950 C   0  0  0  0  0  0  0  0  0  0  0  0
   48.8069   57.9113   33.9124 C   0  0  0  0  0  0  0  0  0  0  0  0
   48.5354   58.7697   32.6860 C   0  0  1  0  0  0  0  0  0  0  0  0
   49.1718   58.1728   31.5819 O   0  0  0  0  0  0  0  0  0  0  0  0
   47.0747   58.8630   32.2934 C   0  0  1  0  0  0  0  0  0  0  0  0
   46.5075   60.0468   32.7994 O   0  0  0  0  0  0  0  0  0  0  0  0
   47.1139   58.8902   30.7762 C   0  0  1  0  0  0  0  0  0  0  0  0
   46.8655   60.2020   30.3288 O   0  0  0  0  0  0  0  0  0  0  0  0
   48.5189   58.4614   30.3720 C   0  0  2  0  0  0  0  0  0  0  0  0
   43.8910   57.7104   34.1985 O   0  0  0  0  0  0  0  0  0  0  0  0
   45.5865   55.5429   27.1213 N   0  0  0  0  0  0  0  0  0  0  0  0
   45.2742   56.7575   27.6976 C   0  0  0  0  0  0  0  0  0  0  0  0
   46.1756   57.3869   28.5364 N   0  0  0  0  0  0  0  0  0  0  0  0
   47.3704   56.8185   28.8101 C   0  0  0  0  0  0  0  0  0  0  0  0
   47.7083   55.6018   28.2363 C   0  0  0  0  0  0  0  0  0  0  0  0
   46.8068   54.9602   27.3912 C   0  0  0  0  0  0  0  0  0  0  0  0
   47.1110   53.7894   26.8372 N   0  0  0  0  0  0  0  0  0  0  0  0
   48.9478   55.2763   28.6662 N   0  0  0  0  0  0  0  0  0  0  0  0
   49.4007   56.2593   29.4794 C   0  0  0  0  0  0  0  0  0  0  0  0
   48.4323   57.2237   29.5786 N   0  0  0  0  0  0  0  0  0  0  0  0
  2  1  1  6  0  0  0
  2  3  1  0  0  0  0
  2  5  1  0  0  0  0
  3  4  1  0  0  0  0
  3 17  1  0  0  0  0
  5  6  1  0  0  0  0
  7  6  1  1  0  0  0
  7  8  1  0  0  0  0
  7  9  1  0  0  0  0
 10  9  1  1  0  0  0
 10 11  1  0  0  0  0
 10 12  1  0  0  0  0
 11 16  1  0  0  0  0
 12 13  1  1  0  0  0
 12 14  1  0  0  0  0
 14 15  1  1  0  0  0
 14 16  1  0  0  0  0
 16 27  1  6  0  0  0
 18 19  2  0  0  0  0
 18 23  1  0  0  0  0
 19 20  1  0  0  0  0
 20 21  2  0  0  0  0
 21 22  1  0  0  0  0
 21 27  1  0  0  0  0
 22 23  2  0  0  0  0
 22 25  1  0  0  0  0
 23 24  1  0  0  0  0
 25 26  2  0  0  0  0
 26 27  1  0  0  0  0
M  END
>  <CHROM.1>
-29.36007845,-175.30592509,-177.29143247,-142.53060934,-79.79188795,-49.95121259
140.99065465,46.89411326,57.03558687,31.14290280,1.51556386,0.02211447,-1.88078283

>  <Name>
ligand

>  <RI>
0

>  <Rbt.Current_Directory>
/home/itssahil/PROJECTS/Mol_Feturizer/New_Systems/rnas/3GX7

>  <Rbt.Executable>
rbdock ($Id: //depot/dev/client3/rdock/2013.1/src/exe/rbdock.cxx#4 $)

>  <Rbt.Library>
libRbt.so (2013.1, Build901 2013/11/27)

>  <Rbt.Parameter_File>
/export/apps/rDock/src/rDock_2013.1_src/data/scripts/dock_solv.prm

>  <Rbt.Receptor>
prm/pocket_docking_5.prm

>  <SCORE>
-17.3249

>  <SCORE.INTER>
-11.6427

>  <SCORE.INTER.CONST>
1

>  <SCORE.INTER.POLAR>
0

>  <SCORE.INTER.ROT>
7

>  <SCORE.INTER.SOLV>
8.22184

>  <SCORE.INTER.VDW>
-18.7691

>  <SCORE.INTER.norm>
-0.431212

>  <SCORE.INTRA>
-5.68216

>  <SCORE.INTRA.DIHEDRAL>
-3.46171

>  <SCORE.INTRA.DIHEDRAL.0>
11.2699

>  <SCORE.INTRA.POLAR>
0

>  <SCORE.INTRA.POLAR.0>
0

>  <SCORE.INTRA.REPUL>
0

>  <SCORE.INTRA.REPUL.0>
0

>  <SCORE.INTRA.SOLV>
-0.430931

>  <SCORE.INTRA.SOLV.lig_0>
-48.6447

>  <SCORE.INTRA.VDW>
-3.73584

>  <SCORE.INTRA.VDW.0>
-0.0211724

>  <SCORE.INTRA.norm>
-0.21045

>  <SCORE.RESTR>
0

>  <SCORE.RESTR.CAVITY>
0

>  <SCORE.RESTR.norm>
0

>  <SCORE.SYSTEM>
0

>  <SCORE.SYSTEM.CONST>
0

>  <SCORE.SYSTEM.DIHEDRAL>
0

>  <SCORE.SYSTEM.SOLV>
0

>  <SCORE.SYSTEM.norm>
0

>  <SCORE.heavy>
27

>  <SCORE.norm>
-0.641663

>  <RMSD>
5.601

$$$$
ligand
 OpenBabel11021811483D
libRbt.so/2013.1/901 2013/11/27
 27 29  0  0  0  0  0  0  0  0999 V2000
   47.7048   52.8873   36.8292 N   0  0  0  0  0  0  0  0  0  0  0  0
   47.0211   54.0778   36.3384 C   0  0  2  0  0  0  0  0  0  0  0  0
   45.6643   53.7149   35.7578 C   0  0  0  0  0  0  0  0  0  0  0  0
   45.0016   54.5555   35.1545 O   0  0  0  0  0  0  0  0  0  0  0  0
   47.8578   54.8287   35.3036 C   0  0  0  0  0  0  0  0  0  0  0  0
   48.0529   54.0932   33.9831 C   0  0  0  0  0  0  0  0  0  0  0  0
   48.3990   55.1711   32.5654 S   0  0  2  0  0  0  0  0  0  0  0  0
   46.8565   56.1110   32.4544 C   0  0  0  0  0  0  0  0  0  0  0  0
   48.1714   53.9983   31.2029 C   0  0  0  0  0  0  0  0  0  0  0  0
   48.3875   54.7065   29.8739 C   0  0  1  0  0  0  0  0  0  0  0  0
   47.2796   55.5407   29.6350 O   0  0  0  0  0  0  0  0  0  0  0  0
   49.5884   55.6302   29.8405 C   0  0  1  0  0  0  0  0  0  0  0  0
   50.6905   54.9778   29.2586 O   0  0  0  0  0  0  0  0  0  0  0  0
   49.1258   56.7856   28.9714 C   0  0  1  0  0  0  0  0  0  0  0  0
   49.7230   56.6788   27.7007 O   0  0  0  0  0  0  0  0  0  0  0  0
   47.6131   56.6545   28.8465 C   0  0  2  0  0  0  0  0  0  0  0  0
   45.2110   52.5763   35.8776 O   0  0  0  0  0  0  0  0  0  0  0  0
   47.9781   60.5008   32.4181 N   0  0  0  0  0  0  0  0  0  0  0  0
   48.8719   59.4798   32.1657 C   0  0  0  0  0  0  0  0  0  0  0  0
   48.6090   58.5472   31.1791 N   0  0  0  0  0  0  0  0  0  0  0  0
   47.4709   58.6173   30.4543 C   0  0  0  0  0  0  0  0  0  0  0  0
   46.5620   59.6391   30.6859 C   0  0  0  0  0  0  0  0  0  0  0  0
   46.8176   60.5821   31.6778 C   0  0  0  0  0  0  0  0  0  0  0  0
   45.9540   61.5652   31.9186 N   0  0  0  0  0  0  0  0  0  0  0  0
   45.5344   59.4767   29.8228 N   0  0  0  0  0  0  0  0  0  0  0  0
   45.7803   58.3933   29.0491 C   0  0  0  0  0  0  0  0  0  0  0  0
   46.9790   57.8490   29.4295 N   0  0  0  0  0  0  0  0  0  0  0  0
  2  1  1  6  0  0  0
  2  3  1  0  0  0  0
  2  5  1  0  0  0  0
  3  4  1  0  0  0  0
  3 17  1  0  0  0  0
  5  6  1  0  0  0  0
  7  6  1  1  0  0  0
  7  8  1  0  0  0  0
  7  9  1  0  0  0  0
 10  9  1  1  0  0  0
 10 11  1  0  0  0  0
 10 12  1  0  0  0  0
 11 16  1  0  0  0  0
 12 13  1  6  0  0  0
 12 14  1  0  0  0  0
 14 15  1  6  0  0  0
 14 16  1  0  0  0  0
 16 27  1  1  0  0  0
 18 19  2  0  0  0  0
 18 23  1  0  0  0  0
 19 20  1  0  0  0  0
 20 21  2  0  0  0  0
 21 22  1  0  0  0  0
 21 27  1  0  0  0  0
 22 23  2  0  0  0  0
 22 25  1  0  0  0  0
 23 24  1  0  0  0  0
 25 26  2  0  0  0  0
 26 27  1  0  0  0  0
M  END
>  <CHROM.1>
-171.57458911,67.76872870,155.50242604,-64.31050077,178.77101148,-72.91858212
83.97606543,47.56545052,56.42553520,31.84113043,1.83617344,-1.02682932,2.50971674

>  <Name>
ligand

>  <RI>
0

>  <Rbt.Current_Directory>
/home/itssahil/PROJECTS/Mol_Feturizer/New_Systems/rnas/3GX7

>  <Rbt.Executable>
rbdock ($Id: //depot/dev/client3/rdock/2013.1/src/exe/rbdock.cxx#4 $)

>  <Rbt.Library>
libRbt.so (2013.1, Build901 2013/11/27)

>  <Rbt.Parameter_File>
/export/apps/rDock/src/rDock_2013.1_src/data/scripts/dock_solv.prm

>  <Rbt.Receptor>
prm/pocket_docking_4.prm

>  <SCORE>
-13.041

>  <SCORE.INTER>
-8.39681

>  <SCORE.INTER.CONST>
1

>  <SCORE.INTER.POLAR>
0

>  <SCORE.INTER.ROT>
7

>  <SCORE.INTER.SOLV>
20.1932

>  <SCORE.INTER.VDW>
-20.5956

>  <SCORE.INTER.norm>
-0.310993

>  <SCORE.INTRA>
-4.64416

>  <SCORE.INTRA.DIHEDRAL>
-5.16286

>  <SCORE.INTRA.DIHEDRAL.0>
11.2699

>  <SCORE.INTRA.POLAR>
0

>  <SCORE.INTRA.POLAR.0>
0

>  <SCORE.INTRA.REPUL>
0

>  <SCORE.INTRA.REPUL.0>
0

>  <SCORE.INTRA.SOLV>
-0.200213

>  <SCORE.INTRA.SOLV.lig_0>
-48.6447

>  <SCORE.INTRA.VDW>
-1.96262

>  <SCORE.INTRA.VDW.0>
-0.0211724

>  <SCORE.INTRA.norm>
-0.172006

>  <SCORE.RESTR>
0

>  <SCORE.RESTR.CAVITY>
0

>  <SCORE.RESTR.norm>
0

>  <SCORE.SYSTEM>
0

>  <SCORE.SYSTEM.CONST>
0

>  <SCORE.SYSTEM.DIHEDRAL>
0

>  <SCORE.SYSTEM.SOLV>
0

>  <SCORE.SYSTEM.norm>
0

>  <SCORE.heavy>
27

>  <SCORE.norm>
-0.482999

>  <RMSD>
5.633

$$$$
ligand
 OpenBabel11021811483D
libRbt.so/2013.1/901 2013/11/27
 27 29  0  0  0  0  0  0  0  0999 V2000
   48.9852   53.0701   32.8823 N   0  0  0  0  0  0  0  0  0  0  0  0
   47.9636   53.9367   32.3069 C   0  0  2  0  0  0  0  0  0  0  0  0
   47.2061   53.2133   31.2058 C   0  0  0  0  0  0  0  0  0  0  0  0
   47.7150   52.2566   30.6265 O   0  0  0  0  0  0  0  0  0  0  0  0
   48.5570   55.2404   31.7749 C   0  0  0  0  0  0  0  0  0  0  0  0
   49.3535   56.0442   32.7958 C   0  0  0  0  0  0  0  0  0  0  0  0
   48.3659   56.7146   34.1620 S   0  0  2  0  0  0  0  0  0  0  0  0
   48.0320   55.2169   35.1214 C   0  0  0  0  0  0  0  0  0  0  0  0
   46.7714   56.9380   33.3305 C   0  0  0  0  0  0  0  0  0  0  0  0
   46.7561   58.2716   32.5984 C   0  0  1  0  0  0  0  0  0  0  0  0
   47.6532   58.1899   31.5173 O   0  0  0  0  0  0  0  0  0  0  0  0
   45.4228   58.6327   31.9752 C   0  0  1  0  0  0  0  0  0  0  0  0
   44.7076   59.5005   32.8203 O   0  0  0  0  0  0  0  0  0  0  0  0
   45.8098   59.3340   30.6858 C   0  0  1  0  0  0  0  0  0  0  0  0
   45.6193   60.7210   30.8365 O   0  0  0  0  0  0  0  0  0  0  0  0
   47.2860   59.0348   30.4568 C   0  0  2  0  0  0  0  0  0  0  0  0
   46.0729   53.5693   30.8809 O   0  0  0  0  0  0  0  0  0  0  0  0
   49.9518   55.3258   27.8452 N   0  0  0  0  0  0  0  0  0  0  0  0
   50.1437   55.7666   29.1390 C   0  0  0  0  0  0  0  0  0  0  0  0
   49.3407   56.7615   29.6660 N   0  0  0  0  0  0  0  0  0  0  0  0
   48.3632   57.3215   28.9200 C   0  0  0  0  0  0  0  0  0  0  0  0
   48.1479   56.8890   27.6198 C   0  0  0  0  0  0  0  0  0  0  0  0
   48.9519   55.8885   27.0803 C   0  0  0  0  0  0  0  0  0  0  0  0
   48.7643   55.4658   25.8328 N   0  0  0  0  0  0  0  0  0  0  0  0
   47.1149   57.6013   27.1170 N   0  0  0  0  0  0  0  0  0  0  0  0
   46.6687   58.4553   28.0680 C   0  0  0  0  0  0  0  0  0  0  0  0
   47.4341   58.2934   29.1931 N   0  0  0  0  0  0  0  0  0  0  0  0
  2  1  1  6  0  0  0
  2  3  1  0  0  0  0
  2  5  1  0  0  0  0
  3  4  1  0  0  0  0
  3 17  1  0  0  0  0
  5  6  1  0  0  0  0
  7  6  1  6  0  0  0
  7  8  1  0  0  0  0
  7  9  1  0  0  0  0
 10  9  1  6  0  0  0
 10 11  1  0  0  0  0
 10 12  1  0  0  0  0
 11 16  1  0  0  0  0
 12 13  1  1  0  0  0
 12 14  1  0  0  0  0
 14 15  1  1  0  0  0
 14 16  1  0  0  0  0
 16 27  1  6  0  0  0
 18 19  2  0  0  0  0
 18 23  1  0  0  0  0
 19 20  1  0  0  0  0
 20 21  2  0  0  0  0
 21 22  1  0  0  0  0
 21 27  1  0  0  0  0
 22 23  2  0  0  0  0
 22 25  1  0  0  0  0
 23 24  1  0  0  0  0
 25 26  2  0  0  0  0
 26 27  1  0  0  0  0
M  END
>  <CHROM.1>
-22.65656919,-55.80307801,-66.26467230,73.18473916,-84.20573335,68.95483296
-32.43744704,47.66732095,56.58311729,30.85143530,-1.98238064,1.13467464,-1.20309308

>  <Name>
ligand

>  <RI>
0

>  <Rbt.Current_Directory>
/home/itssahil/PROJECTS/Mol_Feturizer/New_Systems/rnas/3GX7

>  <Rbt.Executable>
rbdock ($Id: //depot/dev/client3/rdock/2013.1/src/exe/rbdock.cxx#4 $)

>  <Rbt.Library>
libRbt.so (2013.1, Build901 2013/11/27)

>  <Rbt.Parameter_File>
/export/apps/rDock/src/rDock_2013.1_src/data/scripts/dock_solv.prm

>  <Rbt.Receptor>
prm/pocket_docking_3.prm

>  <SCORE>
-12.4942

>  <SCORE.INTER>
-10.1445

>  <SCORE.INTER.CONST>
1

>  <SCORE.INTER.POLAR>
0

>  <SCORE.INTER.ROT>
7

>  <SCORE.INTER.SOLV>
16.1357

>  <SCORE.INTER.VDW>
-20.4082

>  <SCORE.INTER.norm>
-0.375722

>  <SCORE.INTRA>
-2.41695

>  <SCORE.INTRA.DIHEDRAL>
-5.64368

>  <SCORE.INTRA.DIHEDRAL.0>
11.2699

>  <SCORE.INTRA.POLAR>
0

>  <SCORE.INTRA.POLAR.0>
0

>  <SCORE.INTRA.REPUL>
0

>  <SCORE.INTRA.REPUL.0>
0

>  <SCORE.INTRA.SOLV>
1.65824

>  <SCORE.INTRA.SOLV.lig_0>
-48.6447

>  <SCORE.INTRA.VDW>
-0.424224

>  <SCORE.INTRA.VDW.0>
-0.0211724

>  <SCORE.INTRA.norm>
-0.0895165

>  <SCORE.RESTR>
0.0672319

>  <SCORE.RESTR.CAVITY>
0.0672319

>  <SCORE.RESTR.norm>
0.00249007

>  <SCORE.SYSTEM>
0

>  <SCORE.SYSTEM.CONST>
0

>  <SCORE.SYSTEM.DIHEDRAL>
0

>  <SCORE.SYSTEM.SOLV>
0

>  <SCORE.SYSTEM.norm>
0

>  <SCORE.heavy>
27

>  <SCORE.norm>
-0.462749

>  <RMSD>
5.652

$$$$
ligand
 OpenBabel11021811483D
libRbt.so/2013.1/901 2013/11/27
 27 29  0  0  0  0  0  0  0  0999 V2000
   41.1860   53.5568   31.1310 N   0  0  0  0  0  0  0  0  0  0  0  0
   42.6370   53.5418   30.9905 C   0  0  2  0  0  0  0  0  0  0  0  0
   43.1219   52.1582   30.5906 C   0  0  0  0  0  0  0  0  0  0  0  0
   44.0153   52.0297   29.7567 O   0  0  0  0  0  0  0  0  0  0  0  0
   43.3373   54.0010   32.2687 C   0  0  0  0  0  0  0  0  0  0  0  0
   44.8539   54.1079   32.1641 C   0  0  0  0  0  0  0  0  0  0  0  0
   45.6971   54.4161   33.7406 S   0  0  2  0  0  0  0  0  0  0  0  0
   44.9737   53.1261   34.7834 C   0  0  0  0  0  0  0  0  0  0  0  0
   44.7785   55.8661   34.3218 C   0  0  0  0  0  0  0  0  0  0  0  0
   45.3015   57.1165   33.6307 C   0  0  1  0  0  0  0  0  0  0  0  0
   46.6971   56.9941   33.4975 O   0  0  0  0  0  0  0  0  0  0  0  0
   44.7889   57.3167   32.2187 C   0  0  1  0  0  0  0  0  0  0  0  0
   43.7015   58.2092   32.2157 O   0  0  0  0  0  0  0  0  0  0  0  0
   45.9781   57.9140   31.4886 C   0  0  1  0  0  0  0  0  0  0  0  0
   45.7600   59.2915   31.2950 O   0  0  0  0  0  0  0  0  0  0  0  0
   47.1893   57.7017   32.3883 C   0  0  2  0  0  0  0  0  0  0  0  0
   42.6332   51.1477   31.0970 O   0  0  0  0  0  0  0  0  0  0  0  0
   49.6479   56.6997   27.8457 N   0  0  0  0  0  0  0  0  0  0  0  0
   48.7141   57.6797   28.1152 C   0  0  0  0  0  0  0  0  0  0  0  0
   48.1669   57.7964   29.3799 N   0  0  0  0  0  0  0  0  0  0  0  0
   48.5320   56.9486   30.3665 C   0  0  0  0  0  0  0  0  0  0  0  0
   49.4740   55.9608   30.1200 C   0  0  0  0  0  0  0  0  0  0  0  0
   50.0298   55.8350   28.8496 C   0  0  0  0  0  0  0  0  0  0  0  0
   50.9297   54.8892   28.5930 N   0  0  0  0  0  0  0  0  0  0  0  0
   49.6579   55.2741   31.2697 N   0  0  0  0  0  0  0  0  0  0  0  0
   48.8705   55.8117   32.2308 C   0  0  0  0  0  0  0  0  0  0  0  0
   48.1653   56.8522   31.6851 N   0  0  0  0  0  0  0  0  0  0  0  0
  2  1  1  1  0  0  0
  2  3  1  0  0  0  0
  2  5  1  0  0  0  0
  3  4  1  0  0  0  0
  3 17  1  0  0  0  0
  5  6  1  0  0  0  0
  7  6  1  6  0  0  0
  7  8  1  0  0  0  0
  7  9  1  0  0  0  0
 10  9  1  6  0  0  0
 10 11  1  0  0  0  0
 10 12  1  0  0  0  0
 11 16  1  0  0  0  0
 12 13  1  1  0  0  0
 12 14  1  0  0  0  0
 14 15  1  1  0  0  0
 14 16  1  0  0  0  0
 16 27  1  6  0  0  0
 18 19  2  0  0  0  0
 18 23  1  0  0  0  0
 19 20  1  0  0  0  0
 20 21  2  0  0  0  0
 21 22  1  0  0  0  0
 21 27  1  0  0  0  0
 22 23  2  0  0  0  0
 22 25  1  0  0  0  0
 23 24  1  0  0  0  0
 25 26  2  0  0  0  0
 26 27  1  0  0  0  0
M  END
>  <CHROM.1>
139.27696147,-175.77118687,-171.50367076,50.50127531,-80.31281810,-37.63391497
156.46603108,46.13691368,55.55611667,31.49058541,-2.92523369,0.58219129,0.59790861

>  <Name>
ligand

>  <RI>
0

>  <Rbt.Current_Directory>
/home/itssahil/PROJECTS/Mol_Feturizer/New_Systems/rnas/3GX7

>  <Rbt.Executable>
rbdock ($Id: //depot/dev/client3/rdock/2013.1/src/exe/rbdock.cxx#4 $)

>  <Rbt.Library>
libRbt.so (2013.1, Build901 2013/11/27)

>  <Rbt.Parameter_File>
/export/apps/rDock/src/rDock_2013.1_src/data/scripts/dock_solv.prm

>  <Rbt.Receptor>
prm/pocket_docking_8.prm

>  <SCORE>
-12.1478

>  <SCORE.INTER>
-7.30992

>  <SCORE.INTER.CONST>
1

>  <SCORE.INTER.POLAR>
0

>  <SCORE.INTER.ROT>
7

>  <SCORE.INTER.SOLV>
8.65222

>  <SCORE.INTER.VDW>
-16.024

>  <SCORE.INTER.norm>
-0.270738

>  <SCORE.INTRA>
-4.83792

>  <SCORE.INTRA.DIHEDRAL>
-5.7387

>  <SCORE.INTRA.DIHEDRAL.0>
11.2699

>  <SCORE.INTRA.POLAR>
0

>  <SCORE.INTRA.POLAR.0>
0

>  <SCORE.INTRA.REPUL>
0

>  <SCORE.INTRA.REPUL.0>
0

>  <SCORE.INTRA.SOLV>
-0.68751

>  <SCORE.INTRA.SOLV.lig_0>
-48.6447

>  <SCORE.INTRA.VDW>
-1.62482

>  <SCORE.INTRA.VDW.0>
-0.0211724

>  <SCORE.INTRA.norm>
-0.179182

>  <SCORE.RESTR>
0

>  <SCORE.RESTR.CAVITY>
0

>  <SCORE.RESTR.norm>
0

>  <SCORE.SYSTEM>
0

>  <SCORE.SYSTEM.CONST>
0

>  <SCORE.SYSTEM.DIHEDRAL>
0

>  <SCORE.SYSTEM.SOLV>
0

>  <SCORE.SYSTEM.norm>
0

>  <SCORE.heavy>
27

>  <SCORE.norm>
-0.44992

>  <RMSD>
5.670

$$$$
ligand
 OpenBabel11021811483D
libRbt.so/2013.1/901 2013/11/27
 27 29  0  0  0  0  0  0  0  0999 V2000
   46.0661   56.4087   28.3464 N   0  0  0  0  0  0  0  0  0  0  0  0
   46.4696   57.8097   28.3423 C   0  0  2  0  0  0  0  0  0  0  0  0
   47.9095   57.9508   27.8770 C   0  0  0  0  0  0  0  0  0  0  0  0
   48.4108   57.1036   27.1416 O   0  0  0  0  0  0  0  0  0  0  0  0
   46.2890   58.4579   29.7142 C   0  0  0  0  0  0  0  0  0  0  0  0
   47.0650   57.7913   30.8439 C   0  0  0  0  0  0  0  0  0  0  0  0
   46.8908   58.6024   32.4573 S   0  0  2  0  0  0  0  0  0  0  0  0
   48.0339   57.6269   33.4656 C   0  0  0  0  0  0  0  0  0  0  0  0
   45.3034   57.9146   32.9965 C   0  0  0  0  0  0  0  0  0  0  0  0
   45.2026   56.4581   32.5686 C   0  0  1  0  0  0  0  0  0  0  0  0
   46.0420   55.6960   33.4022 O   0  0  0  0  0  0  0  0  0  0  0  0
   43.8258   55.8469   32.7342 C   0  0  1  0  0  0  0  0  0  0  0  0
   43.1281   55.8767   31.5130 O   0  0  0  0  0  0  0  0  0  0  0  0
   44.1179   54.4174   33.1530 C   0  0  1  0  0  0  0  0  0  0  0  0
   43.8883   53.5578   32.0617 O   0  0  0  0  0  0  0  0  0  0  0  0
   45.5890   54.3742   33.5472 C   0  0  2  0  0  0  0  0  0  0  0  0
   48.5929   58.9146   28.2238 O   0  0  0  0  0  0  0  0  0  0  0  0
   48.5318   54.5063   37.9068 N   0  0  0  0  0  0  0  0  0  0  0  0
   48.8217   55.0286   36.6626 C   0  0  0  0  0  0  0  0  0  0  0  0
   47.9212   54.8977   35.6213 N   0  0  0  0  0  0  0  0  0  0  0  0
   46.7496   54.2504   35.8045 C   0  0  0  0  0  0  0  0  0  0  0  0
   46.4343   53.7239   37.0484 C   0  0  0  0  0  0  0  0  0  0  0  0
   47.3350   53.8499   38.1026 C   0  0  0  0  0  0  0  0  0  0  0  0
   47.0525   53.3454   39.3009 N   0  0  0  0  0  0  0  0  0  0  0  0
   45.2144   53.1495   36.9528 N   0  0  0  0  0  0  0  0  0  0  0  0
   44.7514   53.3136   35.6913 C   0  0  0  0  0  0  0  0  0  0  0  0
   45.6937   53.9952   34.9664 N   0  0  0  0  0  0  0  0  0  0  0  0
  2  1  1  1  0  0  0
  2  3  1  0  0  0  0
  2  5  1  0  0  0  0
  3  4  1  0  0  0  0
  3 17  1  0  0  0  0
  5  6  1  0  0  0  0
  7  6  1  6  0  0  0
  7  8  1  0  0  0  0
  7  9  1  0  0  0  0
 10  9  1  1  0  0  0
 10 11  1  0  0  0  0
 10 12  1  0  0  0  0
 11 16  1  0  0  0  0
 12 13  1  6  0  0  0
 12 14  1  0  0  0  0
 14 15  1  6  0  0  0
 14 16  1  0  0  0  0
 16 27  1  1  0  0  0
 18 19  2  0  0  0  0
 18 23  1  0  0  0  0
 19 20  1  0  0  0  0
 20 21  2  0  0  0  0
 21 22  1  0  0  0  0
 21 27  1  0  0  0  0
 22 23  2  0  0  0  0
 22 25  1  0  0  0  0
 23 24  1  0  0  0  0
 25 26  2  0  0  0  0
 26 27  1  0  0  0  0
M  END
>  <CHROM.1>
25.92975721,58.68544366,177.95146848,-175.55668782,37.74864837,74.01650328
-43.76560421,46.36312787,55.91799236,33.05099424,1.51913986,-0.51858291,-1.14060159

>  <Name>
ligand

>  <RI>
0

>  <Rbt.Current_Directory>
/home/itssahil/PROJECTS/Mol_Feturizer/New_Systems/rnas/3GX7

>  <Rbt.Executable>
rbdock ($Id: //depot/dev/client3/rdock/2013.1/src/exe/rbdock.cxx#4 $)

>  <Rbt.Library>
libRbt.so (2013.1, Build901 2013/11/27)

>  <Rbt.Parameter_File>
/export/apps/rDock/src/rDock_2013.1_src/data/scripts/dock_solv.prm

>  <Rbt.Receptor>
prm/pocket_docking_5.prm

>  <SCORE>
-17.4997

>  <SCORE.INTER>
-14.7915

>  <SCORE.INTER.CONST>
1

>  <SCORE.INTER.POLAR>
0

>  <SCORE.INTER.ROT>
7

>  <SCORE.INTER.SOLV>
9.18881

>  <SCORE.INTER.VDW>
-21.1906

>  <SCORE.INTER.norm>
-0.547835

>  <SCORE.INTRA>
-2.70818

>  <SCORE.INTRA.DIHEDRAL>
-6.38071

>  <SCORE.INTRA.DIHEDRAL.0>
11.2699

>  <SCORE.INTRA.POLAR>
0

>  <SCORE.INTRA.POLAR.0>
0

>  <SCORE.INTRA.REPUL>
0

>  <SCORE.INTRA.REPUL.0>
0

>  <SCORE.INTRA.SOLV>
0.00957412

>  <SCORE.INTRA.SOLV.lig_0>
-48.6447

>  <SCORE.INTRA.VDW>
0.477381

>  <SCORE.INTRA.VDW.0>
-0.0211724

>  <SCORE.INTRA.norm>
-0.100303

>  <SCORE.RESTR>
0

>  <SCORE.RESTR.CAVITY>
0

>  <SCORE.RESTR.norm>
0

>  <SCORE.SYSTEM>
0

>  <SCORE.SYSTEM.CONST>
0

>  <SCORE.SYSTEM.DIHEDRAL>
0

>  <SCORE.SYSTEM.SOLV>
0

>  <SCORE.SYSTEM.norm>
0

>  <SCORE.heavy>
27

>  <SCORE.norm>
-0.648138

>  <RMSD>
5.682

$$$$
ligand
 OpenBabel11021811483D
libRbt.so/2013.1/901 2013/11/27
 27 29  0  0  0  0  0  0  0  0999 V2000
   46.8529   55.6602   28.5090 N   0  0  0  0  0  0  0  0  0  0  0  0
   47.3098   56.9607   28.9839 C   0  0  2  0  0  0  0  0  0  0  0  0
   47.8509   57.7915   27.8320 C   0  0  0  0  0  0  0  0  0  0  0  0
   48.0502   58.9956   27.9742 O   0  0  0  0  0  0  0  0  0  0  0  0
   48.3629   56.8274   30.0829 C   0  0  0  0  0  0  0  0  0  0  0  0
   48.6927   58.1235   30.8136 C   0  0  0  0  0  0  0  0  0  0  0  0
   47.4660   58.6211   32.0542 S   0  0  2  0  0  0  0  0  0  0  0  0
   47.9550   60.3359   32.3629 C   0  0  0  0  0  0  0  0  0  0  0  0
   48.1466   57.8122   33.5261 C   0  0  0  0  0  0  0  0  0  0  0  0
   47.8351   56.3236   33.4845 C   0  0  1  0  0  0  0  0  0  0  0  0
   48.5356   55.6985   34.5328 O   0  0  0  0  0  0  0  0  0  0  0  0
   46.3793   55.9779   33.7246 C   0  0  1  0  0  0  0  0  0  0  0  0
   45.7154   55.7819   32.5000 O   0  0  0  0  0  0  0  0  0  0  0  0
   46.4455   54.6835   34.5147 C   0  0  1  0  0  0  0  0  0  0  0  0
   46.1081   53.6073   33.6718 O   0  0  0  0  0  0  0  0  0  0  0  0
   47.8862   54.5393   34.9890 C   0  0  2  0  0  0  0  0  0  0  0  0
   48.1019   57.2729   26.7437 O   0  0  0  0  0  0  0  0  0  0  0  0
   45.5446   52.8799   39.3989 N   0  0  0  0  0  0  0  0  0  0  0  0
   45.1751   52.6389   38.0910 C   0  0  0  0  0  0  0  0  0  0  0  0
   45.9157   53.1615   37.0467 N   0  0  0  0  0  0  0  0  0  0  0  0
   47.0057   53.9215   37.2913 C   0  0  0  0  0  0  0  0  0  0  0  0
   47.3996   54.1706   38.5977 C   0  0  0  0  0  0  0  0  0  0  0  0
   46.6596   53.6494   39.6558 C   0  0  0  0  0  0  0  0  0  0  0  0
   47.0185   53.8835   40.9154 N   0  0  0  0  0  0  0  0  0  0  0  0
   48.5123   54.9366   38.5511 N   0  0  0  0  0  0  0  0  0  0  0  0
   48.8343   55.1616   37.2555 C   0  0  0  0  0  0  0  0  0  0  0  0
   47.9079   54.5379   36.4615 N   0  0  0  0  0  0  0  0  0  0  0  0
  2  1  1  6  0  0  0
  2  3  1  0  0  0  0
  2  5  1  0  0  0  0
  3  4  1  0  0  0  0
  3 17  1  0  0  0  0
  5  6  1  0  0  0  0
  7  6  1  6  0  0  0
  7  8  1  0  0  0  0
  7  9  1  0  0  0  0
 10  9  1  1  0  0  0
 10 11  1  0  0  0  0
 10 12  1  0  0  0  0
 11 16  1  0  0  0  0
 12 13  1  6  0  0  0
 12 14  1  0  0  0  0
 14 15  1  6  0  0  0
 14 16  1  0  0  0  0
 16 27  1  1  0  0  0
 18 19  2  0  0  0  0
 18 23  1  0  0  0  0
 19 20  1  0  0  0  0
 20 21  2  0  0  0  0
 21 22  1  0  0  0  0
 21 27  1  0  0  0  0
 22 23  2  0  0  0  0
 22 25  1  0  0  0  0
 23 24  1  0  0  0  0
 25 26  2  0  0  0  0
 26 27  1  0  0  0  0
M  END
>  <CHROM.1>
166.32153462,-168.79540118,77.96309011,-165.89419988,-76.95338210,171.69694166
153.47030617,47.33609171,55.89925674,33.82265262,1.36235399,-1.09475858,-1.34316908

>  <Name>
ligand

>  <RI>
0

>  <Rbt.Current_Directory>
/home/itssahil/PROJECTS/Mol_Feturizer/New_Systems/rnas/3GX7

>  <Rbt.Executable>
rbdock ($Id: //depot/dev/client3/rdock/2013.1/src/exe/rbdock.cxx#4 $)

>  <Rbt.Library>
libRbt.so (2013.1, Build901 2013/11/27)

>  <Rbt.Parameter_File>
/export/apps/rDock/src/rDock_2013.1_src/data/scripts/dock_solv.prm

>  <Rbt.Receptor>
prm/pocket_docking_6.prm

>  <SCORE>
-24.0441

>  <SCORE.INTER>
-18.6063

>  <SCORE.INTER.CONST>
1

>  <SCORE.INTER.POLAR>
0

>  <SCORE.INTER.ROT>
7

>  <SCORE.INTER.SOLV>
8.58867

>  <SCORE.INTER.VDW>
-23.5337

>  <SCORE.INTER.norm>
-0.689122

>  <SCORE.INTRA>
-5.43776

>  <SCORE.INTRA.DIHEDRAL>
-4.70432

>  <SCORE.INTRA.DIHEDRAL.0>
11.2699

>  <SCORE.INTRA.POLAR>
0

>  <SCORE.INTRA.POLAR.0>
0

>  <SCORE.INTRA.REPUL>
0

>  <SCORE.INTRA.REPUL.0>
0

>  <SCORE.INTRA.SOLV>
-0.487127

>  <SCORE.INTRA.SOLV.lig_0>
-48.6447

>  <SCORE.INTRA.VDW>
-2.84204

>  <SCORE.INTRA.VDW.0>
-0.0211724

>  <SCORE.INTRA.norm>
-0.201399

>  <SCORE.RESTR>
0

>  <SCORE.RESTR.CAVITY>
0

>  <SCORE.RESTR.norm>
0

>  <SCORE.SYSTEM>
0

>  <SCORE.SYSTEM.CONST>
0

>  <SCORE.SYSTEM.DIHEDRAL>
0

>  <SCORE.SYSTEM.SOLV>
0

>  <SCORE.SYSTEM.norm>
0

>  <SCORE.heavy>
27

>  <SCORE.norm>
-0.89052

>  <RMSD>
5.683

$$$$
ligand
 OpenBabel11021811483D
libRbt.so/2013.1/901 2013/11/27
 27 29  0  0  0  0  0  0  0  0999 V2000
   46.8986   55.9531   28.5693 N   0  0  0  0  0  0  0  0  0  0  0  0
   46.2919   57.1993   28.1169 C   0  0  2  0  0  0  0  0  0  0  0  0
   47.2286   57.9406   27.1774 C   0  0  0  0  0  0  0  0  0  0  0  0
   48.3053   57.4447   26.8542 O   0  0  0  0  0  0  0  0  0  0  0  0
   45.8946   58.0968   29.2880 C   0  0  0  0  0  0  0  0  0  0  0  0
   47.0623   58.6357   30.1058 C   0  0  0  0  0  0  0  0  0  0  0  0
   46.5950   59.3410   31.7106 S   0  0  2  0  0  0  0  0  0  0  0  0
   48.0814   60.2867   32.1244 C   0  0  0  0  0  0  0  0  0  0  0  0
   46.8155   57.8932   32.7779 C   0  0  0  0  0  0  0  0  0  0  0  0
   45.6923   56.8971   32.5311 C   0  0  1  0  0  0  0  0  0  0  0  0
   46.0732   55.6596   33.0821 O   0  0  0  0  0  0  0  0  0  0  0  0
   44.3831   57.2431   33.2114 C   0  0  1  0  0  0  0  0  0  0  0  0
   43.5192   57.8893   32.3086 O   0  0  0  0  0  0  0  0  0  0  0  0
   43.8242   55.8916   33.6182 C   0  0  1  0  0  0  0  0  0  0  0  0
   42.7745   55.5421   32.7472 O   0  0  0  0  0  0  0  0  0  0  0  0
   44.9663   54.8924   33.4817 C   0  0  2  0  0  0  0  0  0  0  0  0
   46.9230   59.0435   26.7228 O   0  0  0  0  0  0  0  0  0  0  0  0
   48.4914   54.3278   37.3468 N   0  0  0  0  0  0  0  0  0  0  0  0
   48.6260   55.0199   36.1602 C   0  0  0  0  0  0  0  0  0  0  0  0
   47.5845   55.0606   35.2514 N   0  0  0  0  0  0  0  0  0  0  0  0
   46.4244   54.4173   35.5080 C   0  0  0  0  0  0  0  0  0  0  0  0
   46.2644   53.7216   36.6972 C   0  0  0  0  0  0  0  0  0  0  0  0
   47.3078   53.6743   37.6179 C   0  0  0  0  0  0  0  0  0  0  0  0
   47.1749   53.0062   38.7609 N   0  0  0  0  0  0  0  0  0  0  0  0
   45.0207   53.1921   36.6980 N   0  0  0  0  0  0  0  0  0  0  0  0
   44.3934   53.5478   35.5522 C   0  0  0  0  0  0  0  0  0  0  0  0
   45.2523   54.3085   34.8030 N   0  0  0  0  0  0  0  0  0  0  0  0
  2  1  1  1  0  0  0
  2  3  1  0  0  0  0
  2  5  1  0  0  0  0
  3  4  1  0  0  0  0
  3 17  1  0  0  0  0
  5  6  1  0  0  0  0
  7  6  1  6  0  0  0
  7  8  1  0  0  0  0
  7  9  1  0  0  0  0
 10  9  1  1  0  0  0
 10 11  1  0  0  0  0
 10 12  1  0  0  0  0
 11 16  1  0  0  0  0
 12 13  1  6  0  0  0
 12 14  1  0  0  0  0
 14 15  1  6  0  0  0
 14 16  1  0  0  0  0
 16 27  1  1  0  0  0
 18 19  2  0  0  0  0
 18 23  1  0  0  0  0
 19 20  1  0  0  0  0
 20 21  2  0  0  0  0
 21 22  1  0  0  0  0
 21 27  1  0  0  0  0
 22 23  2  0  0  0  0
 22 25  1  0  0  0  0
 23 24  1  0  0  0  0
 25 26  2  0  0  0  0
 26 27  1  0  0  0  0
M  END
>  <CHROM.1>
3.02638757,66.23794241,-165.39053853,-163.60883055,-73.15822712,164.27772266
-3.52259422,46.22194212,56.37653082,32.74723983,1.51833928,-0.28489124,-1.08719883

>  <Name>
ligand

>  <RI>
0

>  <Rbt.Current_Directory>
/home/itssahil/PROJECTS/Mol_Feturizer/New_Systems/rnas/3GX7

>  <Rbt.Executable>
rbdock ($Id: //depot/dev/client3/rdock/2013.1/src/exe/rbdock.cxx#4 $)

>  <Rbt.Library>
libRbt.so (2013.1, Build901 2013/11/27)

>  <Rbt.Parameter_File>
/export/apps/rDock/src/rDock_2013.1_src/data/scripts/dock_solv.prm

>  <Rbt.Receptor>
prm/pocket_docking_5.prm

>  <SCORE>
-22.6971

>  <SCORE.INTER>
-17.8439

>  <SCORE.INTER.CONST>
1

>  <SCORE.INTER.POLAR>
0

>  <SCORE.INTER.ROT>
7

>  <SCORE.INTER.SOLV>
12.0919

>  <SCORE.INTER.VDW>
-24.1932

>  <SCORE.INTER.norm>
-0.660886

>  <SCORE.INTRA>
-4.85315

>  <SCORE.INTRA.DIHEDRAL>
-4.71909

>  <SCORE.INTRA.DIHEDRAL.0>
11.2699

>  <SCORE.INTRA.POLAR>
0

>  <SCORE.INTRA.POLAR.0>
0

>  <SCORE.INTRA.REPUL>
0

>  <SCORE.INTRA.REPUL.0>
0

>  <SCORE.INTRA.SOLV>
0.114282

>  <SCORE.INTRA.SOLV.lig_0>
-48.6447

>  <SCORE.INTRA.VDW>
-2.55074

>  <SCORE.INTRA.VDW.0>
-0.0211724

>  <SCORE.INTRA.norm>
-0.179746

>  <SCORE.RESTR>
0

>  <SCORE.RESTR.CAVITY>
0

>  <SCORE.RESTR.norm>
0

>  <SCORE.SYSTEM>
0

>  <SCORE.SYSTEM.CONST>
0

>  <SCORE.SYSTEM.DIHEDRAL>
0

>  <SCORE.SYSTEM.SOLV>
0

>  <SCORE.SYSTEM.norm>
0

>  <SCORE.heavy>
27

>  <SCORE.norm>
-0.840632

>  <RMSD>
5.693

$$$$
ligand
 OpenBabel11021811483D
libRbt.so/2013.1/901 2013/11/27
 27 29  0  0  0  0  0  0  0  0999 V2000
   51.1271   51.8967   25.9602 N   0  0  0  0  0  0  0  0  0  0  0  0
   50.9099   52.1438   27.3805 C   0  0  2  0  0  0  0  0  0  0  0  0
   49.4527   51.9157   27.7469 C   0  0  0  0  0  0  0  0  0  0  0  0
   48.5641   52.1346   26.9269 O   0  0  0  0  0  0  0  0  0  0  0  0
   51.3455   53.5510   27.7864 C   0  0  0  0  0  0  0  0  0  0  0  0
   51.1383   53.8850   29.2589 C   0  0  0  0  0  0  0  0  0  0  0  0
   49.4287   54.2987   29.7034 S   0  0  2  0  0  0  0  0  0  0  0  0
   49.2799   55.9646   29.0125 C   0  0  0  0  0  0  0  0  0  0  0  0
   49.6353   54.6862   31.4615 C   0  0  0  0  0  0  0  0  0  0  0  0
   48.3549   55.3016   32.0059 C   0  0  1  0  0  0  0  0  0  0  0  0
   47.9152   54.5165   33.0879 O   0  0  0  0  0  0  0  0  0  0  0  0
   48.5189   56.6966   32.5747 C   0  0  1  0  0  0  0  0  0  0  0  0
   48.1470   57.6604   31.6198 O   0  0  0  0  0  0  0  0  0  0  0  0
   47.5669   56.7143   33.7569 C   0  0  1  0  0  0  0  0  0  0  0  0
   46.4214   57.4603   33.4194 O   0  0  0  0  0  0  0  0  0  0  0  0
   47.1819   55.2645   34.0240 C   0  0  2  0  0  0  0  0  0  0  0  0
   49.1403   51.5050   28.8650 O   0  0  0  0  0  0  0  0  0  0  0  0
   45.9625   52.8100   38.5153 N   0  0  0  0  0  0  0  0  0  0  0  0
   45.1926   52.9452   37.3777 C   0  0  0  0  0  0  0  0  0  0  0  0
   45.6795   53.6315   36.2804 N   0  0  0  0  0  0  0  0  0  0  0  0
   46.9113   54.1859   36.3090 C   0  0  0  0  0  0  0  0  0  0  0  0
   47.7051   54.0563   37.4390 C   0  0  0  0  0  0  0  0  0  0  0  0
   47.2230   53.3678   38.5490 C   0  0  0  0  0  0  0  0  0  0  0  0
   47.9677   53.2392   39.6441 N   0  0  0  0  0  0  0  0  0  0  0  0
   48.8749   54.6872   37.1924 N   0  0  0  0  0  0  0  0  0  0  0  0
   48.8421   55.1945   35.9377 C   0  0  0  0  0  0  0  0  0  0  0  0
   47.6292   54.8916   35.3766 N   0  0  0  0  0  0  0  0  0  0  0  0
  2  1  1  6  0  0  0
  2  3  1  0  0  0  0
  2  5  1  0  0  0  0
  3  4  1  0  0  0  0
  3 17  1  0  0  0  0
  5  6  1  0  0  0  0
  7  6  1  6  0  0  0
  7  8  1  0  0  0  0
  7  9  1  0  0  0  0
 10  9  1  1  0  0  0
 10 11  1  0  0  0  0
 10 12  1  0  0  0  0
 11 16  1  0  0  0  0
 12 13  1  6  0  0  0
 12 14  1  0  0  0  0
 14 15  1  6  0  0  0
 14 16  1  0  0  0  0
 16 27  1  1  0  0  0
 18 19  2  0  0  0  0
 18 23  1  0  0  0  0
 19 20  1  0  0  0  0
 20 21  2  0  0  0  0
 21 22  1  0  0  0  0
 21 27  1  0  0  0  0
 22 23  2  0  0  0  0
 22 25  1  0  0  0  0
 23 24  1  0  0  0  0
 25 26  2  0  0  0  0
 26 27  1  0  0  0  0
M  END
>  <CHROM.1>
-31.22865028,179.58192655,-78.28686362,-74.64518470,170.19870351,122.89006190
-110.14542666,48.44105160,54.26915549,32.57880098,-0.23498422,-1.25104387
2.78531018

>  <Name>
ligand

>  <RI>
0

>  <Rbt.Current_Directory>
/home/itssahil/PROJECTS/Mol_Feturizer/New_Systems/rnas/3GX7

>  <Rbt.Executable>
rbdock ($Id: //depot/dev/client3/rdock/2013.1/src/exe/rbdock.cxx#4 $)

>  <Rbt.Library>
libRbt.so (2013.1, Build901 2013/11/27)

>  <Rbt.Parameter_File>
/export/apps/rDock/src/rDock_2013.1_src/data/scripts/dock_solv.prm

>  <Rbt.Receptor>
prm/pocket_docking_7.prm

>  <SCORE>
-16.6932

>  <SCORE.INTER>
-13.3045

>  <SCORE.INTER.CONST>
1

>  <SCORE.INTER.POLAR>
0

>  <SCORE.INTER.ROT>
7

>  <SCORE.INTER.SOLV>
12.3778

>  <SCORE.INTER.VDW>
-21.2623

>  <SCORE.INTER.norm>
-0.492761

>  <SCORE.INTRA>
-3.38867

>  <SCORE.INTRA.DIHEDRAL>
-1.6121

>  <SCORE.INTRA.DIHEDRAL.0>
11.2699

>  <SCORE.INTRA.POLAR>
0

>  <SCORE.INTRA.POLAR.0>
0

>  <SCORE.INTRA.REPUL>
0

>  <SCORE.INTRA.REPUL.0>
0

>  <SCORE.INTRA.SOLV>
-0.848496

>  <SCORE.INTRA.SOLV.lig_0>
-48.6447

>  <SCORE.INTRA.VDW>
-2.15837

>  <SCORE.INTRA.VDW.0>
-0.0211724

>  <SCORE.INTRA.norm>
-0.125506

>  <SCORE.RESTR>
0

>  <SCORE.RESTR.CAVITY>
0

>  <SCORE.RESTR.norm>
0

>  <SCORE.SYSTEM>
0

>  <SCORE.SYSTEM.CONST>
0

>  <SCORE.SYSTEM.DIHEDRAL>
0

>  <SCORE.SYSTEM.SOLV>
0

>  <SCORE.SYSTEM.norm>
0

>  <SCORE.heavy>
27

>  <SCORE.norm>
-0.618267

>  <RMSD>
5.710

$$$$
ligand
 OpenBabel11021811483D
libRbt.so/2013.1/901 2013/11/27
 27 29  0  0  0  0  0  0  0  0999 V2000
   48.7198   56.2125   28.5001 N   0  0  0  0  0  0  0  0  0  0  0  0
   47.7762   57.0475   29.2335 C   0  0  2  0  0  0  0  0  0  0  0  0
   47.3288   58.2243   28.3824 C   0  0  0  0  0  0  0  0  0  0  0  0
   46.1329   58.4614   28.2291 O   0  0  0  0  0  0  0  0  0  0  0  0
   48.3615   57.5409   30.5560 C   0  0  0  0  0  0  0  0  0  0  0  0
   48.7561   56.4387   31.5317 C   0  0  0  0  0  0  0  0  0  0  0  0
   49.2829   57.0313   33.1635 S   0  0  2  0  0  0  0  0  0  0  0  0
   49.6682   55.4712   33.9957 C   0  0  0  0  0  0  0  0  0  0  0  0
   47.6741   57.4138   33.9047 C   0  0  0  0  0  0  0  0  0  0  0  0
   46.6561   56.3600   33.4949 C   0  0  1  0  0  0  0  0  0  0  0  0
   46.9550   55.1692   34.1825 O   0  0  0  0  0  0  0  0  0  0  0  0
   45.2257   56.6845   33.8760 C   0  0  1  0  0  0  0  0  0  0  0  0
   44.5441   57.2471   32.7815 O   0  0  0  0  0  0  0  0  0  0  0  0
   44.6379   55.3330   34.2397 C   0  0  1  0  0  0  0  0  0  0  0  0
   43.7989   54.8958   33.1969 O   0  0  0  0  0  0  0  0  0  0  0  0
   45.8143   54.3772   34.3947 C   0  0  2  0  0  0  0  0  0  0  0  0
   48.1537   58.9594   27.8387 O   0  0  0  0  0  0  0  0  0  0  0  0
   48.4179   54.2882   38.9660 N   0  0  0  0  0  0  0  0  0  0  0  0
   48.7586   54.9432   37.7999 C   0  0  0  0  0  0  0  0  0  0  0  0
   47.9473   54.8530   36.6836 N   0  0  0  0  0  0  0  0  0  0  0  0
   46.8149   54.1166   36.7160 C   0  0  0  0  0  0  0  0  0  0  0  0
   46.4493   53.4559   37.8795 C   0  0  0  0  0  0  0  0  0  0  0  0
   47.2604   53.5401   39.0081 C   0  0  0  0  0  0  0  0  0  0  0  0
   46.9291   52.9075   40.1308 N   0  0  0  0  0  0  0  0  0  0  0  0
   45.2839   52.8152   37.6377 N   0  0  0  0  0  0  0  0  0  0  0  0
   44.9025   53.0672   36.3634 C   0  0  0  0  0  0  0  0  0  0  0  0
   45.8432   53.8737   35.7783 N   0  0  0  0  0  0  0  0  0  0  0  0
  2  1  1  6  0  0  0
  2  3  1  0  0  0  0
  2  5  1  0  0  0  0
  3  4  1  0  0  0  0
  3 17  1  0  0  0  0
  5  6  1  0  0  0  0
  7  6  1  6  0  0  0
  7  8  1  0  0  0  0
  7  9  1  0  0  0  0
 10  9  1  1  0  0  0
 10 11  1  0  0  0  0
 10 12  1  0  0  0  0
 11 16  1  0  0  0  0
 12 13  1  6  0  0  0
 12 14  1  0  0  0  0
 14 15  1  6  0  0  0
 14 16  1  0  0  0  0
 16 27  1  1  0  0  0
 18 19  2  0  0  0  0
 18 23  1  0  0  0  0
 19 20  1  0  0  0  0
 20 21  2  0  0  0  0
 21 22  1  0  0  0  0
 21 27  1  0  0  0  0
 22 23  2  0  0  0  0
 22 25  1  0  0  0  0
 23 24  1  0  0  0  0
 25 26  2  0  0  0  0
 26 27  1  0  0  0  0
M  END
>  <CHROM.1>
128.21622911,-60.39916820,-173.77981823,-179.54649539,38.64888246,72.23270778
-0.42042553,47.06746734,55.71093697,33.85730388,-1.47337838,0.20332864,1.99129532

>  <Name>
ligand

>  <RI>
0

>  <Rbt.Current_Directory>
/home/itssahil/PROJECTS/Mol_Feturizer/New_Systems/rnas/3GX7

>  <Rbt.Executable>
rbdock ($Id: //depot/dev/client3/rdock/2013.1/src/exe/rbdock.cxx#4 $)

>  <Rbt.Library>
libRbt.so (2013.1, Build901 2013/11/27)

>  <Rbt.Parameter_File>
/export/apps/rDock/src/rDock_2013.1_src/data/scripts/dock_solv.prm

>  <Rbt.Receptor>
prm/pocket_docking_6.prm

>  <SCORE>
-21.03

>  <SCORE.INTER>
-17.0505

>  <SCORE.INTER.CONST>
1

>  <SCORE.INTER.POLAR>
0

>  <SCORE.INTER.ROT>
7

>  <SCORE.INTER.SOLV>
9.58246

>  <SCORE.INTER.VDW>
-22.8278

>  <SCORE.INTER.norm>
-0.631501

>  <SCORE.INTRA>
-3.9795

>  <SCORE.INTRA.DIHEDRAL>
-6.71317

>  <SCORE.INTRA.DIHEDRAL.0>
11.2699

>  <SCORE.INTRA.POLAR>
0

>  <SCORE.INTRA.POLAR.0>
0

>  <SCORE.INTRA.REPUL>
0

>  <SCORE.INTRA.REPUL.0>
0

>  <SCORE.INTRA.SOLV>
-0.190846

>  <SCORE.INTRA.SOLV.lig_0>
-48.6447

>  <SCORE.INTRA.VDW>
-0.527487

>  <SCORE.INTRA.VDW.0>
-0.0211724

>  <SCORE.INTRA.norm>
-0.147389

>  <SCORE.RESTR>
0

>  <SCORE.RESTR.CAVITY>
0

>  <SCORE.RESTR.norm>
0

>  <SCORE.SYSTEM>
0

>  <SCORE.SYSTEM.CONST>
0

>  <SCORE.SYSTEM.DIHEDRAL>
0

>  <SCORE.SYSTEM.SOLV>
0

>  <SCORE.SYSTEM.norm>
0

>  <SCORE.heavy>
27

>  <SCORE.norm>
-0.77889

>  <RMSD>
5.781

$$$$
ligand
 OpenBabel11021811483D
libRbt.so/2013.1/901 2013/11/27
 27 29  0  0  0  0  0  0  0  0999 V2000
   46.9009   58.2807   30.7528 N   0  0  0  0  0  0  0  0  0  0  0  0
   46.6931   59.5672   31.4065 C   0  0  2  0  0  0  0  0  0  0  0  0
   47.4828   59.6429   32.7027 C   0  0  0  0  0  0  0  0  0  0  0  0
   48.0585   60.6811   33.0199 O   0  0  0  0  0  0  0  0  0  0  0  0
   45.2127   59.8390   31.6700 C   0  0  0  0  0  0  0  0  0  0  0  0
   44.5665   58.9186   32.6985 C   0  0  0  0  0  0  0  0  0  0  0  0
   44.6824   57.1514   32.3049 S   0  0  2  0  0  0  0  0  0  0  0  0
   42.9548   56.7605   31.9338 C   0  0  0  0  0  0  0  0  0  0  0  0
   44.8288   56.4565   33.9721 C   0  0  0  0  0  0  0  0  0  0  0  0
   45.8505   55.3293   33.9710 C   0  0  1  0  0  0  0  0  0  0  0  0
   45.5331   54.4493   32.9197 O   0  0  0  0  0  0  0  0  0  0  0  0
   47.2743   55.7701   33.6970 C   0  0  1  0  0  0  0  0  0  0  0  0
   47.9799   55.9210   34.9047 O   0  0  0  0  0  0  0  0  0  0  0  0
   47.8492   54.6300   32.8761 C   0  0  1  0  0  0  0  0  0  0  0  0
   48.7071   53.8614   33.6858 O   0  0  0  0  0  0  0  0  0  0  0  0
   46.6661   53.7834   32.4235 C   0  0  2  0  0  0  0  0  0  0  0  0
   47.5544   58.6710   33.4554 O   0  0  0  0  0  0  0  0  0  0  0  0
   48.7585   51.9642   27.9518 N   0  0  0  0  0  0  0  0  0  0  0  0
   49.1406   51.6893   29.2492 C   0  0  0  0  0  0  0  0  0  0  0  0
   48.4699   52.2640   30.3133 N   0  0  0  0  0  0  0  0  0  0  0  0
   47.4372   53.1082   30.0981 C   0  0  0  0  0  0  0  0  0  0  0  0
   47.0315   53.3931   28.8027 C   0  0  0  0  0  0  0  0  0  0  0  0
   47.7013   52.8200   27.7250 C   0  0  0  0  0  0  0  0  0  0  0  0
   47.3304   53.0870   26.4755 N   0  0  0  0  0  0  0  0  0  0  0  0
   45.9839   54.2440   28.8793 N   0  0  0  0  0  0  0  0  0  0  0  0
   45.7133   54.4880   30.1832 C   0  0  0  0  0  0  0  0  0  0  0  0
   46.6074   53.7900   30.9520 N   0  0  0  0  0  0  0  0  0  0  0  0
  2  1  1  1  0  0  0
  2  3  1  0  0  0  0
  2  5  1  0  0  0  0
  3  4  1  0  0  0  0
  3 17  1  0  0  0  0
  5  6  1  0  0  0  0
  7  6  1  1  0  0  0
  7  8  1  0  0  0  0
  7  9  1  0  0  0  0
 10  9  1  6  0  0  0
 10 11  1  0  0  0  0
 10 12  1  0  0  0  0
 11 16  1  0  0  0  0
 12 13  1  1  0  0  0
 12 14  1  0  0  0  0
 14 15  1  1  0  0  0
 14 16  1  0  0  0  0
 16 27  1  6  0  0  0
 18 19  2  0  0  0  0
 18 23  1  0  0  0  0
 19 20  1  0  0  0  0
 20 21  2  0  0  0  0
 21 22  1  0  0  0  0
 21 27  1  0  0  0  0
 22 23  2  0  0  0  0
 22 25  1  0  0  0  0
 23 24  1  0  0  0  0
 25 26  2  0  0  0  0
 26 27  1  0  0  0  0
M  END
>  <CHROM.1>
139.76607485,67.21069733,-57.25163913,-110.76363909,-139.51662027,-50.29477662
-171.65068446,46.66878310,55.72133302,31.57410203,2.15184618,-1.13961834
1.12273640

>  <Name>
ligand

>  <RI>
0

>  <Rbt.Current_Directory>
/home/itssahil/PROJECTS/Mol_Feturizer/New_Systems/rnas/3GX7

>  <Rbt.Executable>
rbdock ($Id: //depot/dev/client3/rdock/2013.1/src/exe/rbdock.cxx#4 $)

>  <Rbt.Library>
libRbt.so (2013.1, Build901 2013/11/27)

>  <Rbt.Parameter_File>
/export/apps/rDock/src/rDock_2013.1_src/data/scripts/dock_solv.prm

>  <Rbt.Receptor>
prm/pocket_docking_6.prm

>  <SCORE>
-16.3108

>  <SCORE.INTER>
-13.4586

>  <SCORE.INTER.CONST>
1

>  <SCORE.INTER.POLAR>
0

>  <SCORE.INTER.ROT>
7

>  <SCORE.INTER.SOLV>
8.77007

>  <SCORE.INTER.VDW>
-20.1624

>  <SCORE.INTER.norm>
-0.498468

>  <SCORE.INTRA>
-2.85216

>  <SCORE.INTRA.DIHEDRAL>
-0.108626

>  <SCORE.INTRA.DIHEDRAL.0>
11.2699

>  <SCORE.INTRA.POLAR>
0

>  <SCORE.INTRA.POLAR.0>
0

>  <SCORE.INTRA.REPUL>
0

>  <SCORE.INTRA.REPUL.0>
0

>  <SCORE.INTRA.SOLV>
2.39774

>  <SCORE.INTRA.SOLV.lig_0>
-48.6447

>  <SCORE.INTRA.VDW>
-3.99672

>  <SCORE.INTRA.VDW.0>
-0.0211724

>  <SCORE.INTRA.norm>
-0.105636

>  <SCORE.RESTR>
0

>  <SCORE.RESTR.CAVITY>
0

>  <SCORE.RESTR.norm>
0

>  <SCORE.SYSTEM>
0

>  <SCORE.SYSTEM.CONST>
0

>  <SCORE.SYSTEM.DIHEDRAL>
0

>  <SCORE.SYSTEM.SOLV>
0

>  <SCORE.SYSTEM.norm>
0

>  <SCORE.heavy>
27

>  <SCORE.norm>
-0.604103

>  <RMSD>
5.784

$$$$
ligand
 OpenBabel11021811483D
libRbt.so/2013.1/901 2013/11/27
 27 29  0  0  0  0  0  0  0  0999 V2000
   49.4134   56.2736   28.9078 N   0  0  0  0  0  0  0  0  0  0  0  0
   48.0875   56.8660   29.0362 C   0  0  2  0  0  0  0  0  0  0  0  0
   47.8935   57.9717   28.0117 C   0  0  0  0  0  0  0  0  0  0  0  0
   47.1157   57.8195   27.0728 O   0  0  0  0  0  0  0  0  0  0  0  0
   47.8362   57.3986   30.4462 C   0  0  0  0  0  0  0  0  0  0  0  0
   46.3934   57.7983   30.7313 C   0  0  0  0  0  0  0  0  0  0  0  0
   46.1495   58.6620   32.3080 S   0  0  2  0  0  0  0  0  0  0  0  0
   47.1631   60.1403   32.0588 C   0  0  0  0  0  0  0  0  0  0  0  0
   47.2386   57.6904   33.3821 C   0  0  0  0  0  0  0  0  0  0  0  0
   46.7560   56.2485   33.4340 C   0  0  1  0  0  0  0  0  0  0  0  0
   47.6389   55.5186   34.2513 O   0  0  0  0  0  0  0  0  0  0  0  0
   45.3917   56.0636   34.0673 C   0  0  1  0  0  0  0  0  0  0  0  0
   44.3994   55.9788   33.0738 O   0  0  0  0  0  0  0  0  0  0  0  0
   45.5202   54.7481   34.8139 C   0  0  1  0  0  0  0  0  0  0  0  0
   44.8413   53.7414   34.1009 O   0  0  0  0  0  0  0  0  0  0  0  0
   47.0086   54.4281   34.8735 C   0  0  2  0  0  0  0  0  0  0  0  0
   48.5064   59.0355   28.1081 O   0  0  0  0  0  0  0  0  0  0  0  0
   45.7324   53.0380   39.7850 N   0  0  0  0  0  0  0  0  0  0  0  0
   44.9850   52.8946   38.6336 C   0  0  0  0  0  0  0  0  0  0  0  0
   45.4844   53.3224   37.4170 N   0  0  0  0  0  0  0  0  0  0  0  0
   46.7063   53.8937   37.3394 C   0  0  0  0  0  0  0  0  0  0  0  0
   47.4777   54.0412   38.4826 C   0  0  0  0  0  0  0  0  0  0  0  0
   46.9830   53.6143   39.7121 C   0  0  0  0  0  0  0  0  0  0  0  0
   47.7060   53.7539   40.8203 N   0  0  0  0  0  0  0  0  0  0  0  0
   48.6424   54.6229   38.1187 N   0  0  0  0  0  0  0  0  0  0  0  0
   48.6283   54.8300   36.7809 C   0  0  0  0  0  0  0  0  0  0  0  0
   47.4326   54.3826   36.2830 N   0  0  0  0  0  0  0  0  0  0  0  0
  2  1  1  1  0  0  0
  2  3  1  0  0  0  0
  2  5  1  0  0  0  0
  3  4  1  0  0  0  0
  3 17  1  0  0  0  0
  5  6  1  0  0  0  0
  7  6  1  6  0  0  0
  7  8  1  0  0  0  0
  7  9  1  0  0  0  0
 10  9  1  1  0  0  0
 10 11  1  0  0  0  0
 10 12  1  0  0  0  0
 11 16  1  0  0  0  0
 12 13  1  6  0  0  0
 12 14  1  0  0  0  0
 14 15  1  6  0  0  0
 14 16  1  0  0  0  0
 16 27  1  1  0  0  0
 18 19  2  0  0  0  0
 18 23  1  0  0  0  0
 19 20  1  0  0  0  0
 20 21  2  0  0  0  0
 21 22  1  0  0  0  0
 21 27  1  0  0  0  0
 22 23  2  0  0  0  0
 22 25  1  0  0  0  0
 23 24  1  0  0  0  0
 25 26  2  0  0  0  0
 26 27  1  0  0  0  0
M  END
>  <CHROM.1>
110.28766461,-169.29907438,-171.07263295,61.77274582,-61.68102207,178.75070804
150.89752273,46.88353188,55.93469761,33.92627059,-1.48345588,0.29482822,1.98847369

>  <Name>
ligand

>  <RI>
0

>  <Rbt.Current_Directory>
/home/itssahil/PROJECTS/Mol_Feturizer/New_Systems/rnas/3GX7

>  <Rbt.Executable>
rbdock ($Id: //depot/dev/client3/rdock/2013.1/src/exe/rbdock.cxx#4 $)

>  <Rbt.Library>
libRbt.so (2013.1, Build901 2013/11/27)

>  <Rbt.Parameter_File>
/export/apps/rDock/src/rDock_2013.1_src/data/scripts/dock_solv.prm

>  <Rbt.Receptor>
prm/pocket_docking_6.prm

>  <SCORE>
-22.36

>  <SCORE.INTER>
-17.4688

>  <SCORE.INTER.CONST>
1

>  <SCORE.INTER.POLAR>
0

>  <SCORE.INTER.ROT>
7

>  <SCORE.INTER.SOLV>
9.28729

>  <SCORE.INTER.VDW>
-23.0083

>  <SCORE.INTER.norm>
-0.646994

>  <SCORE.INTRA>
-4.89119

>  <SCORE.INTRA.DIHEDRAL>
-6.93956

>  <SCORE.INTRA.DIHEDRAL.0>
11.2699

>  <SCORE.INTRA.POLAR>
0

>  <SCORE.INTRA.POLAR.0>
0

>  <SCORE.INTRA.REPUL>
0

>  <SCORE.INTRA.REPUL.0>
0

>  <SCORE.INTRA.SOLV>
-0.745346

>  <SCORE.INTRA.SOLV.lig_0>
-48.6447

>  <SCORE.INTRA.VDW>
-1.04874

>  <SCORE.INTRA.VDW.0>
-0.0211724

>  <SCORE.INTRA.norm>
-0.181155

>  <SCORE.RESTR>
0

>  <SCORE.RESTR.CAVITY>
0

>  <SCORE.RESTR.norm>
0

>  <SCORE.SYSTEM>
0

>  <SCORE.SYSTEM.CONST>
0

>  <SCORE.SYSTEM.DIHEDRAL>
0

>  <SCORE.SYSTEM.SOLV>
0

>  <SCORE.SYSTEM.norm>
0

>  <SCORE.heavy>
27

>  <SCORE.norm>
-0.828149

>  <RMSD>
5.784

$$$$
ligand
 OpenBabel11021811483D
libRbt.so/2013.1/901 2013/11/27
 27 29  0  0  0  0  0  0  0  0999 V2000
   40.4205   54.2910   31.6074 N   0  0  0  0  0  0  0  0  0  0  0  0
   40.3223   55.3964   30.6619 C   0  0  2  0  0  0  0  0  0  0  0  0
   40.1006   54.8764   29.2513 C   0  0  0  0  0  0  0  0  0  0  0  0
   40.5366   53.7768   28.9186 O   0  0  0  0  0  0  0  0  0  0  0  0
   41.5565   56.2962   30.7082 C   0  0  0  0  0  0  0  0  0  0  0  0
   42.8885   55.5594   30.6335 C   0  0  0  0  0  0  0  0  0  0  0  0
   44.3483   56.6291   30.7600 S   0  0  2  0  0  0  0  0  0  0  0  0
   45.6549   55.4082   31.0378 C   0  0  0  0  0  0  0  0  0  0  0  0
   44.1339   57.2732   32.4402 C   0  0  0  0  0  0  0  0  0  0  0  0
   45.3279   58.1384   32.8150 C   0  0  1  0  0  0  0  0  0  0  0  0
   46.4538   57.3035   32.9398 O   0  0  0  0  0  0  0  0  0  0  0  0
   45.7147   59.1649   31.7695 C   0  0  1  0  0  0  0  0  0  0  0  0
   45.1652   60.4196   32.0899 O   0  0  0  0  0  0  0  0  0  0  0  0
   47.2300   59.2037   31.8510 C   0  0  1  0  0  0  0  0  0  0  0  0
   47.6291   60.3773   32.5187 O   0  0  0  0  0  0  0  0  0  0  0  0
   47.6515   57.9802   32.6551 C   0  0  2  0  0  0  0  0  0  0  0  0
   39.4788   55.5433   28.4236 O   0  0  0  0  0  0  0  0  0  0  0  0
   49.3366   56.9381   27.7809 N   0  0  0  0  0  0  0  0  0  0  0  0
   48.4733   57.9328   28.1934 C   0  0  0  0  0  0  0  0  0  0  0  0
   48.1371   58.0586   29.5289 N   0  0  0  0  0  0  0  0  0  0  0  0
   48.6420   57.2054   30.4469 C   0  0  0  0  0  0  0  0  0  0  0  0
   49.5170   56.2027   30.0558 C   0  0  0  0  0  0  0  0  0  0  0  0
   49.8605   56.0678   28.7133 C   0  0  0  0  0  0  0  0  0  0  0  0
   50.6931   55.1078   28.3188 N   0  0  0  0  0  0  0  0  0  0  0  0
   49.8715   55.5135   31.1633 N   0  0  0  0  0  0  0  0  0  0  0  0
   49.2564   56.0638   32.2364 C   0  0  0  0  0  0  0  0  0  0  0  0
   48.4893   57.1152   31.8074 N   0  0  0  0  0  0  0  0  0  0  0  0
  2  1  1  1  0  0  0
  2  3  1  0  0  0  0
  2  5  1  0  0  0  0
  3  4  1  0  0  0  0
  3 17  1  0  0  0  0
  5  6  1  0  0  0  0
  7  6  1  1  0  0  0
  7  8  1  0  0  0  0
  7  9  1  0  0  0  0
 10  9  1  6  0  0  0
 10 11  1  0  0  0  0
 10 12  1  0  0  0  0
 11 16  1  0  0  0  0
 12 13  1  1  0  0  0
 12 14  1  0  0  0  0
 14 15  1  1  0  0  0
 14 16  1  0  0  0  0
 16 27  1  6  0  0  0
 18 19  2  0  0  0  0
 18 23  1  0  0  0  0
 19 20  1  0  0  0  0
 20 21  2  0  0  0  0
 21 22  1  0  0  0  0
 21 27  1  0  0  0  0
 22 23  2  0  0  0  0
 22 25  1  0  0  0  0
 23 24  1  0  0  0  0
 25 26  2  0  0  0  0
 26 27  1  0  0  0  0
M  END
>  <CHROM.1>
-29.16246264,49.23930705,-177.52919502,166.85114241,175.77061749,-68.42263926
100.41891602,45.64320369,56.81220319,30.73744869,-2.93926548,0.13471037,0.77096849

>  <Name>
ligand

>  <RI>
0

>  <Rbt.Current_Directory>
/home/itssahil/PROJECTS/Mol_Feturizer/New_Systems/rnas/3GX7

>  <Rbt.Executable>
rbdock ($Id: //depot/dev/client3/rdock/2013.1/src/exe/rbdock.cxx#4 $)

>  <Rbt.Library>
libRbt.so (2013.1, Build901 2013/11/27)

>  <Rbt.Parameter_File>
/export/apps/rDock/src/rDock_2013.1_src/data/scripts/dock_solv.prm

>  <Rbt.Receptor>
prm/pocket_docking_7.prm

>  <SCORE>
-17.1324

>  <SCORE.INTER>
-12.1174

>  <SCORE.INTER.CONST>
1

>  <SCORE.INTER.POLAR>
0

>  <SCORE.INTER.ROT>
7

>  <SCORE.INTER.SOLV>
11.0225

>  <SCORE.INTER.VDW>
-20.0191

>  <SCORE.INTER.norm>
-0.448793

>  <SCORE.INTRA>
-5.01502

>  <SCORE.INTRA.DIHEDRAL>
-7.27072

>  <SCORE.INTRA.DIHEDRAL.0>
11.2699

>  <SCORE.INTRA.POLAR>
0

>  <SCORE.INTRA.POLAR.0>
0

>  <SCORE.INTRA.REPUL>
0

>  <SCORE.INTRA.REPUL.0>
0

>  <SCORE.INTRA.SOLV>
-0.0721802

>  <SCORE.INTRA.SOLV.lig_0>
-48.6447

>  <SCORE.INTRA.VDW>
-1.34357

>  <SCORE.INTRA.VDW.0>
-0.0211724

>  <SCORE.INTRA.norm>
-0.185741

>  <SCORE.RESTR>
0

>  <SCORE.RESTR.CAVITY>
0

>  <SCORE.RESTR.norm>
0

>  <SCORE.SYSTEM>
0

>  <SCORE.SYSTEM.CONST>
0

>  <SCORE.SYSTEM.DIHEDRAL>
0

>  <SCORE.SYSTEM.SOLV>
0

>  <SCORE.SYSTEM.norm>
0

>  <SCORE.heavy>
27

>  <SCORE.norm>
-0.634535

>  <RMSD>
5.787

$$$$
ligand
 OpenBabel11021811483D
libRbt.so/2013.1/901 2013/11/27
 27 29  0  0  0  0  0  0  0  0999 V2000
   46.0526   59.7852   31.1731 N   0  0  0  0  0  0  0  0  0  0  0  0
   47.3498   59.5272   30.5597 C   0  0  2  0  0  0  0  0  0  0  0  0
   47.2781   58.3159   29.6447 C   0  0  0  0  0  0  0  0  0  0  0  0
   46.1908   57.8340   29.3358 O   0  0  0  0  0  0  0  0  0  0  0  0
   48.4466   59.3375   31.6066 C   0  0  0  0  0  0  0  0  0  0  0  0
   47.9615   59.3524   33.0513 C   0  0  0  0  0  0  0  0  0  0  0  0
   47.7523   57.7095   33.7919 S   0  0  2  0  0  0  0  0  0  0  0  0
   49.3971   56.9985   33.5385 C   0  0  0  0  0  0  0  0  0  0  0  0
   46.8249   56.8765   32.4767 C   0  0  0  0  0  0  0  0  0  0  0  0
   46.2526   55.5680   33.0011 C   0  0  1  0  0  0  0  0  0  0  0  0
   47.2296   54.9518   33.8050 O   0  0  0  0  0  0  0  0  0  0  0  0
   45.0450   55.7254   33.9029 C   0  0  1  0  0  0  0  0  0  0  0  0
   43.8597   55.5303   33.1706 O   0  0  0  0  0  0  0  0  0  0  0  0
   45.2261   54.6288   34.9367 C   0  0  1  0  0  0  0  0  0  0  0  0
   44.3337   53.5760   34.6581 O   0  0  0  0  0  0  0  0  0  0  0  0
   46.6630   54.1404   34.8020 C   0  0  2  0  0  0  0  0  0  0  0  0
   48.3036   57.8028   29.1959 O   0  0  0  0  0  0  0  0  0  0  0  0
   46.5944   53.6049   40.0358 N   0  0  0  0  0  0  0  0  0  0  0  0
   45.6435   53.1987   39.1215 C   0  0  0  0  0  0  0  0  0  0  0  0
   45.8297   53.4257   37.7701 N   0  0  0  0  0  0  0  0  0  0  0  0
   46.9400   54.0550   37.3266 C   0  0  0  0  0  0  0  0  0  0  0  0
   47.9120   54.4656   38.2269 C   0  0  0  0  0  0  0  0  0  0  0  0
   47.7329   54.2421   39.5895 C   0  0  0  0  0  0  0  0  0  0  0  0
   48.6514   54.6350   40.4683 N   0  0  0  0  0  0  0  0  0  0  0  0
   48.9058   55.0479   37.5196 N   0  0  0  0  0  0  0  0  0  0  0  0
   48.5914   55.0008   36.2036 C   0  0  0  0  0  0  0  0  0  0  0  0
   47.3736   54.3874   36.0680 N   0  0  0  0  0  0  0  0  0  0  0  0
  2  1  1  1  0  0  0
  2  3  1  0  0  0  0
  2  5  1  0  0  0  0
  3  4  1  0  0  0  0
  3 17  1  0  0  0  0
  5  6  1  0  0  0  0
  7  6  1  6  0  0  0
  7  8  1  0  0  0  0
  7  9  1  0  0  0  0
 10  9  1  1  0  0  0
 10 11  1  0  0  0  0
 10 12  1  0  0  0  0
 11 16  1  0  0  0  0
 12 13  1  6  0  0  0
 12 14  1  0  0  0  0
 14 15  1  6  0  0  0
 14 16  1  0  0  0  0
 16 27  1  1  0  0  0
 18 19  2  0  0  0  0
 18 23  1  0  0  0  0
 19 20  1  0  0  0  0
 20 21  2  0  0  0  0
 21 22  1  0  0  0  0
 21 27  1  0  0  0  0
 22 23  2  0  0  0  0
 22 25  1  0  0  0  0
 23 24  1  0  0  0  0
 25 26  2  0  0  0  0
 26 27  1  0  0  0  0
M  END
>  <CHROM.1>
11.78718704,4.22214467,99.42001213,55.45057454,-167.04323450,-41.07233641
163.11313210,46.99221277,56.03423461,34.47266420,-1.54803277,0.59762433,2.08050255

>  <Name>
ligand

>  <RI>
0

>  <Rbt.Current_Directory>
/home/itssahil/PROJECTS/Mol_Feturizer/New_Systems/rnas/3GX7

>  <Rbt.Executable>
rbdock ($Id: //depot/dev/client3/rdock/2013.1/src/exe/rbdock.cxx#4 $)

>  <Rbt.Library>
libRbt.so (2013.1, Build901 2013/11/27)

>  <Rbt.Parameter_File>
/export/apps/rDock/src/rDock_2013.1_src/data/scripts/dock_solv.prm

>  <Rbt.Receptor>
prm/pocket_docking_6.prm

>  <SCORE>
-16.241

>  <SCORE.INTER>
-18.4451

>  <SCORE.INTER.CONST>
1

>  <SCORE.INTER.POLAR>
0

>  <SCORE.INTER.ROT>
7

>  <SCORE.INTER.SOLV>
13.867

>  <SCORE.INTER.VDW>
-25.1857

>  <SCORE.INTER.norm>
-0.683151

>  <SCORE.INTRA>
2.20405

>  <SCORE.INTRA.DIHEDRAL>
4.15207

>  <SCORE.INTRA.DIHEDRAL.0>
11.2699

>  <SCORE.INTRA.POLAR>
0

>  <SCORE.INTRA.POLAR.0>
0

>  <SCORE.INTRA.REPUL>
0

>  <SCORE.INTRA.REPUL.0>
0

>  <SCORE.INTRA.SOLV>
1.73544

>  <SCORE.INTRA.SOLV.lig_0>
-48.6447

>  <SCORE.INTRA.VDW>
-0.739706

>  <SCORE.INTRA.VDW.0>
-0.0211724

>  <SCORE.INTRA.norm>
0.0816315

>  <SCORE.RESTR>
0

>  <SCORE.RESTR.CAVITY>
0

>  <SCORE.RESTR.norm>
0

>  <SCORE.SYSTEM>
0

>  <SCORE.SYSTEM.CONST>
0

>  <SCORE.SYSTEM.DIHEDRAL>
0

>  <SCORE.SYSTEM.SOLV>
0

>  <SCORE.SYSTEM.norm>
0

>  <SCORE.heavy>
27

>  <SCORE.norm>
-0.601519

>  <RMSD>
5.789

$$$$
ligand
 OpenBabel11021811483D
libRbt.so/2013.1/901 2013/11/27
 27 29  0  0  0  0  0  0  0  0999 V2000
   45.2265   54.4483   35.3273 N   0  0  0  0  0  0  0  0  0  0  0  0
   45.8684   53.7389   34.2273 C   0  0  2  0  0  0  0  0  0  0  0  0
   47.3607   54.0255   34.2037 C   0  0  0  0  0  0  0  0  0  0  0  0
   47.8204   54.9787   34.8283 O   0  0  0  0  0  0  0  0  0  0  0  0
   45.2391   54.0894   32.8797 C   0  0  0  0  0  0  0  0  0  0  0  0
   45.5357   55.4991   32.3824 C   0  0  0  0  0  0  0  0  0  0  0  0
   44.8039   56.8209   33.3867 S   0  0  2  0  0  0  0  0  0  0  0  0
   43.1128   56.8549   32.7435 C   0  0  0  0  0  0  0  0  0  0  0  0
   45.5009   58.2773   32.5638 C   0  0  0  0  0  0  0  0  0  0  0  0
   46.9829   58.3907   32.8884 C   0  0  1  0  0  0  0  0  0  0  0  0
   47.6154   57.2033   32.4757 O   0  0  0  0  0  0  0  0  0  0  0  0
   47.7066   59.4979   32.1489 C   0  0  1  0  0  0  0  0  0  0  0  0
   47.8118   60.6409   32.9622 O   0  0  0  0  0  0  0  0  0  0  0  0
   49.0767   58.9059   31.8719 C   0  0  1  0  0  0  0  0  0  0  0  0
   50.0157   59.4769   32.7521 O   0  0  0  0  0  0  0  0  0  0  0  0
   48.9624   57.4095   32.1343 C   0  0  2  0  0  0  0  0  0  0  0  0
   48.1309   53.3077   33.5651 O   0  0  0  0  0  0  0  0  0  0  0  0
   48.4124   57.3099   26.9025 N   0  0  0  0  0  0  0  0  0  0  0  0
   47.9562   58.2607   27.7929 C   0  0  0  0  0  0  0  0  0  0  0  0
   48.1941   58.1220   29.1481 N   0  0  0  0  0  0  0  0  0  0  0  0
   48.8688   57.0508   29.6203 C   0  0  0  0  0  0  0  0  0  0  0  0
   49.3428   56.0867   28.7429 C   0  0  0  0  0  0  0  0  0  0  0  0
   49.1072   56.2174   27.3768 C   0  0  0  0  0  0  0  0  0  0  0  0
   49.5485   55.2991   26.5211 N   0  0  0  0  0  0  0  0  0  0  0  0
   49.9825   55.1467   29.4738 N   0  0  0  0  0  0  0  0  0  0  0  0
   49.9354   55.5013   30.7795 C   0  0  0  0  0  0  0  0  0  0  0  0
   49.2470   56.6813   30.8863 N   0  0  0  0  0  0  0  0  0  0  0  0
  2  1  1  1  0  0  0
  2  3  1  0  0  0  0
  2  5  1  0  0  0  0
  3  4  1  0  0  0  0
  3 17  1  0  0  0  0
  5  6  1  0  0  0  0
  7  6  1  6  0  0  0
  7  8  1  0  0  0  0
  7  9  1  0  0  0  0
 10  9  1  6  0  0  0
 10 11  1  0  0  0  0
 10 12  1  0  0  0  0
 11 16  1  0  0  0  0
 12 13  1  1  0  0  0
 12 14  1  0  0  0  0
 14 15  1  1  0  0  0
 14 16  1  0  0  0  0
 16 27  1  6  0  0  0
 18 19  2  0  0  0  0
 18 23  1  0  0  0  0
 19 20  1  0  0  0  0
 20 21  2  0  0  0  0
 21 22  1  0  0  0  0
 21 27  1  0  0  0  0
 22 23  2  0  0  0  0
 22 25  1  0  0  0  0
 23 24  1  0  0  0  0
 25 26  2  0  0  0  0
 26 27  1  0  0  0  0
M  END
>  <CHROM.1>
-16.41815671,70.97884415,-66.52053854,-81.69071056,-72.33571768,57.71468500
75.53106301,47.51643229,56.66152383,31.67914777,-2.98809049,1.00562803,0.09266698

>  <Name>
ligand

>  <RI>
0

>  <Rbt.Current_Directory>
/home/itssahil/PROJECTS/Mol_Feturizer/New_Systems/rnas/3GX7

>  <Rbt.Executable>
rbdock ($Id: //depot/dev/client3/rdock/2013.1/src/exe/rbdock.cxx#4 $)

>  <Rbt.Library>
libRbt.so (2013.1, Build901 2013/11/27)

>  <Rbt.Parameter_File>
/export/apps/rDock/src/rDock_2013.1_src/data/scripts/dock_solv.prm

>  <Rbt.Receptor>
prm/pocket_docking_4.prm

>  <SCORE>
-19.1232

>  <SCORE.INTER>
-13.6134

>  <SCORE.INTER.CONST>
1

>  <SCORE.INTER.POLAR>
0

>  <SCORE.INTER.ROT>
7

>  <SCORE.INTER.SOLV>
13.5734

>  <SCORE.INTER.VDW>
-21.8667

>  <SCORE.INTER.norm>
-0.504201

>  <SCORE.INTRA>
-5.50976

>  <SCORE.INTRA.DIHEDRAL>
-6.94274

>  <SCORE.INTRA.DIHEDRAL.0>
11.2699

>  <SCORE.INTRA.POLAR>
0

>  <SCORE.INTRA.POLAR.0>
0

>  <SCORE.INTRA.REPUL>
0

>  <SCORE.INTRA.REPUL.0>
0

>  <SCORE.INTRA.SOLV>
1.37667

>  <SCORE.INTRA.SOLV.lig_0>
-48.6447

>  <SCORE.INTRA.VDW>
-2.72673

>  <SCORE.INTRA.VDW.0>
-0.0211724

>  <SCORE.INTRA.norm>
-0.204065

>  <SCORE.RESTR>
0

>  <SCORE.RESTR.CAVITY>
0

>  <SCORE.RESTR.norm>
0

>  <SCORE.SYSTEM>
0

>  <SCORE.SYSTEM.CONST>
0

>  <SCORE.SYSTEM.DIHEDRAL>
0

>  <SCORE.SYSTEM.SOLV>
0

>  <SCORE.SYSTEM.norm>
0

>  <SCORE.heavy>
27

>  <SCORE.norm>
-0.708267

>  <RMSD>
5.811

$$$$
ligand
 OpenBabel11021811483D
libRbt.so/2013.1/901 2013/11/27
 27 29  0  0  0  0  0  0  0  0999 V2000
   45.7130   58.8928   30.0148 N   0  0  0  0  0  0  0  0  0  0  0  0
   46.7292   58.4080   29.0887 C   0  0  2  0  0  0  0  0  0  0  0  0
   46.0863   57.6657   27.9289 C   0  0  0  0  0  0  0  0  0  0  0  0
   46.6676   57.5752   26.8501 O   0  0  0  0  0  0  0  0  0  0  0  0
   47.7558   57.5165   29.7859 C   0  0  0  0  0  0  0  0  0  0  0  0
   48.6502   58.2347   30.7894 C   0  0  0  0  0  0  0  0  0  0  0  0
   47.8107   58.7468   32.3140 S   0  0  2  0  0  0  0  0  0  0  0  0
   49.1777   59.4979   33.2318 C   0  0  0  0  0  0  0  0  0  0  0  0
   47.6783   57.1514   33.1631 C   0  0  0  0  0  0  0  0  0  0  0  0
   46.3137   56.5364   32.8911 C   0  0  1  0  0  0  0  0  0  0  0  0
   46.3158   55.2220   33.3938 O   0  0  0  0  0  0  0  0  0  0  0  0
   45.1614   57.2238   33.5955 C   0  0  1  0  0  0  0  0  0  0  0  0
   44.5253   58.1270   32.7245 O   0  0  0  0  0  0  0  0  0  0  0  0
   44.2317   56.0801   33.9587 C   0  0  1  0  0  0  0  0  0  0  0  0
   43.1271   56.0847   33.0855 O   0  0  0  0  0  0  0  0  0  0  0  0
   45.0325   54.7969   33.7758 C   0  0  2  0  0  0  0  0  0  0  0  0
   44.9792   57.1407   28.0521 O   0  0  0  0  0  0  0  0  0  0  0  0
   48.0567   53.7475   37.9515 N   0  0  0  0  0  0  0  0  0  0  0  0
   48.3635   54.5101   36.8428 C   0  0  0  0  0  0  0  0  0  0  0  0
   47.4365   54.6785   35.8305 N   0  0  0  0  0  0  0  0  0  0  0  0
   46.2214   54.0928   35.9085 C   0  0  0  0  0  0  0  0  0  0  0  0
   45.8890   53.3280   37.0168 C   0  0  0  0  0  0  0  0  0  0  0  0
   46.8162   53.1521   38.0405 C   0  0  0  0  0  0  0  0  0  0  0  0
   46.5173   52.4163   39.1081 N   0  0  0  0  0  0  0  0  0  0  0  0
   44.6264   52.8785   36.8407 N   0  0  0  0  0  0  0  0  0  0  0  0
   44.1544   53.3510   35.6630 C   0  0  0  0  0  0  0  0  0  0  0  0
   45.1334   54.1065   35.0726 N   0  0  0  0  0  0  0  0  0  0  0  0
  2  1  1  1  0  0  0
  2  3  1  0  0  0  0
  2  5  1  0  0  0  0
  3  4  1  0  0  0  0
  3 17  1  0  0  0  0
  5  6  1  0  0  0  0
  7  6  1  6  0  0  0
  7  8  1  0  0  0  0
  7  9  1  0  0  0  0
 10  9  1  1  0  0  0
 10 11  1  0  0  0  0
 10 12  1  0  0  0  0
 11 16  1  0  0  0  0
 12 13  1  6  0  0  0
 12 14  1  0  0  0  0
 14 15  1  6  0  0  0
 14 16  1  0  0  0  0
 16 27  1  1  0  0  0
 18 19  2  0  0  0  0
 18 23  1  0  0  0  0
 19 20  1  0  0  0  0
 20 21  2  0  0  0  0
 21 22  1  0  0  0  0
 21 27  1  0  0  0  0
 22 23  2  0  0  0  0
 22 25  1  0  0  0  0
 23 24  1  0  0  0  0
 25 26  2  0  0  0  0
 26 27  1  0  0  0  0
M  END
>  <CHROM.1>
155.35035891,-67.51059177,71.19691522,178.57229255,-95.59098765,171.39801527
11.76198419,46.32587914,56.17051592,33.27640607,1.51628809,-0.49555152,-1.05459055

>  <Name>
ligand

>  <RI>
0

>  <Rbt.Current_Directory>
/home/itssahil/PROJECTS/Mol_Feturizer/New_Systems/rnas/3GX7

>  <Rbt.Executable>
rbdock ($Id: //depot/dev/client3/rdock/2013.1/src/exe/rbdock.cxx#4 $)

>  <Rbt.Library>
libRbt.so (2013.1, Build901 2013/11/27)

>  <Rbt.Parameter_File>
/export/apps/rDock/src/rDock_2013.1_src/data/scripts/dock_solv.prm

>  <Rbt.Receptor>
prm/pocket_docking_5.prm

>  <SCORE>
-20.5434

>  <SCORE.INTER>
-16.0948

>  <SCORE.INTER.CONST>
1

>  <SCORE.INTER.POLAR>
0

>  <SCORE.INTER.ROT>
7

>  <SCORE.INTER.SOLV>
14.0043

>  <SCORE.INTER.VDW>
-23.6646

>  <SCORE.INTER.norm>
-0.596103

>  <SCORE.INTRA>
-4.45916

>  <SCORE.INTRA.DIHEDRAL>
-5.14274

>  <SCORE.INTRA.DIHEDRAL.0>
11.2699

>  <SCORE.INTRA.POLAR>
0

>  <SCORE.INTRA.POLAR.0>
0

>  <SCORE.INTRA.REPUL>
0.047352

>  <SCORE.INTRA.REPUL.0>
0

>  <SCORE.INTRA.SOLV>
3.06662

>  <SCORE.INTRA.SOLV.lig_0>
-48.6447

>  <SCORE.INTRA.VDW>
-3.65786

>  <SCORE.INTRA.VDW.0>
-0.0211724

>  <SCORE.INTRA.norm>
-0.165154

>  <SCORE.RESTR>
0.0105862

>  <SCORE.RESTR.CAVITY>
0.0105862

>  <SCORE.RESTR.norm>
0.000392083

>  <SCORE.SYSTEM>
0

>  <SCORE.SYSTEM.CONST>
0

>  <SCORE.SYSTEM.DIHEDRAL>
0

>  <SCORE.SYSTEM.SOLV>
0

>  <SCORE.SYSTEM.norm>
0

>  <SCORE.heavy>
27

>  <SCORE.norm>
-0.760865

>  <RMSD>
5.818

$$$$
ligand
 OpenBabel11021811483D
libRbt.so/2013.1/901 2013/11/27
 27 29  0  0  0  0  0  0  0  0999 V2000
   47.1041   58.7435   27.9430 N   0  0  0  0  0  0  0  0  0  0  0  0
   48.3138   58.4037   28.6825 C   0  0  2  0  0  0  0  0  0  0  0  0
   48.6441   56.9292   28.5202 C   0  0  0  0  0  0  0  0  0  0  0  0
   47.8261   56.0702   28.8406 O   0  0  0  0  0  0  0  0  0  0  0  0
   48.1948   58.7614   30.1633 C   0  0  0  0  0  0  0  0  0  0  0  0
   46.9671   58.1902   30.8628 C   0  0  0  0  0  0  0  0  0  0  0  0
   46.7438   58.7555   32.5721 S   0  0  2  0  0  0  0  0  0  0  0  0
   48.0344   57.8154   33.4239 C   0  0  0  0  0  0  0  0  0  0  0  0
   45.2756   57.8019   33.0400 C   0  0  0  0  0  0  0  0  0  0  0  0
   45.3853   56.3873   32.4910 C   0  0  1  0  0  0  0  0  0  0  0  0
   46.1111   55.6124   33.4145 O   0  0  0  0  0  0  0  0  0  0  0  0
   44.0604   55.6690   32.3320 C   0  0  1  0  0  0  0  0  0  0  0  0
   43.6109   55.7618   31.0022 O   0  0  0  0  0  0  0  0  0  0  0  0
   44.3888   54.2310   32.6905 C   0  0  1  0  0  0  0  0  0  0  0  0
   44.4487   53.4611   31.5132 O   0  0  0  0  0  0  0  0  0  0  0  0
   45.7546   54.2545   33.3653 C   0  0  2  0  0  0  0  0  0  0  0  0
   49.7303   56.5729   28.0624 O   0  0  0  0  0  0  0  0  0  0  0  0
   42.4947   53.4112   37.4083 N   0  0  0  0  0  0  0  0  0  0  0  0
   42.2024   53.9485   36.1711 C   0  0  0  0  0  0  0  0  0  0  0  0
   43.1956   54.0989   35.2207 N   0  0  0  0  0  0  0  0  0  0  0  0
   44.4667   53.7299   35.4922 C   0  0  0  0  0  0  0  0  0  0  0  0
   44.7818   53.1810   36.7264 C   0  0  0  0  0  0  0  0  0  0  0  0
   43.7886   53.0265   37.6900 C   0  0  0  0  0  0  0  0  0  0  0  0
   44.0738   52.5081   38.8817 N   0  0  0  0  0  0  0  0  0  0  0  0
   46.1030   52.8954   36.7224 N   0  0  0  0  0  0  0  0  0  0  0  0
   46.6202   53.2355   35.5184 C   0  0  0  0  0  0  0  0  0  0  0  0
   45.6164   53.7553   34.7439 N   0  0  0  0  0  0  0  0  0  0  0  0
  2  1  1  6  0  0  0
  2  3  1  0  0  0  0
  2  5  1  0  0  0  0
  3  4  1  0  0  0  0
  3 17  1  0  0  0  0
  5  6  1  0  0  0  0
  7  6  1  6  0  0  0
  7  8  1  0  0  0  0
  7  9  1  0  0  0  0
 10  9  1  1  0  0  0
 10 11  1  0  0  0  0
 10 12  1  0  0  0  0
 11 16  1  0  0  0  0
 12 13  1  6  0  0  0
 12 14  1  0  0  0  0
 14 15  1  6  0  0  0
 14 16  1  0  0  0  0
 16 27  1  1  0  0  0
 18 19  2  0  0  0  0
 18 23  1  0  0  0  0
 19 20  1  0  0  0  0
 20 21  2  0  0  0  0
 21 22  1  0  0  0  0
 21 27  1  0  0  0  0
 22 23  2  0  0  0  0
 22 25  1  0  0  0  0
 23 24  1  0  0  0  0
 25 26  2  0  0  0  0
 26 27  1  0  0  0  0
M  END
>  <CHROM.1>
-57.36746828,53.20140397,-174.09816145,-74.12535166,40.98398679,85.88224589
91.63035046,45.79280804,55.65281433,32.96027320,0.79533170,-0.93905154,-1.67935907

>  <Name>
ligand

>  <RI>
0

>  <Rbt.Current_Directory>
/home/itssahil/PROJECTS/Mol_Feturizer/New_Systems/rnas/3GX7

>  <Rbt.Executable>
rbdock ($Id: //depot/dev/client3/rdock/2013.1/src/exe/rbdock.cxx#4 $)

>  <Rbt.Library>
libRbt.so (2013.1, Build901 2013/11/27)

>  <Rbt.Parameter_File>
/export/apps/rDock/src/rDock_2013.1_src/data/scripts/dock_solv.prm

>  <Rbt.Receptor>
prm/pocket_docking_7.prm

>  <SCORE>
-12.925

>  <SCORE.INTER>
-9.79492

>  <SCORE.INTER.CONST>
1

>  <SCORE.INTER.POLAR>
0

>  <SCORE.INTER.ROT>
7

>  <SCORE.INTER.SOLV>
10.4548

>  <SCORE.INTER.VDW>
-18.2816

>  <SCORE.INTER.norm>
-0.362775

>  <SCORE.INTRA>
-3.13007

>  <SCORE.INTRA.DIHEDRAL>
-5.29263

>  <SCORE.INTRA.DIHEDRAL.0>
11.2699

>  <SCORE.INTRA.POLAR>
0

>  <SCORE.INTRA.POLAR.0>
0

>  <SCORE.INTRA.REPUL>
0

>  <SCORE.INTRA.REPUL.0>
0

>  <SCORE.INTRA.SOLV>
-0.225691

>  <SCORE.INTRA.SOLV.lig_0>
-48.6447

>  <SCORE.INTRA.VDW>
-0.370908

>  <SCORE.INTRA.VDW.0>
-0.0211724

>  <SCORE.INTRA.norm>
-0.115929

>  <SCORE.RESTR>
0

>  <SCORE.RESTR.CAVITY>
0

>  <SCORE.RESTR.norm>
0

>  <SCORE.SYSTEM>
0

>  <SCORE.SYSTEM.CONST>
0

>  <SCORE.SYSTEM.DIHEDRAL>
0

>  <SCORE.SYSTEM.SOLV>
0

>  <SCORE.SYSTEM.norm>
0

>  <SCORE.heavy>
27

>  <SCORE.norm>
-0.478703

>  <RMSD>
5.827

$$$$
ligand
 OpenBabel11021811483D
libRbt.so/2013.1/901 2013/11/27
 27 29  0  0  0  0  0  0  0  0999 V2000
   47.2966   54.1921   33.4092 N   0  0  0  0  0  0  0  0  0  0  0  0
   47.5412   54.3760   31.9838 C   0  0  2  0  0  0  0  0  0  0  0  0
   48.8623   53.7418   31.5811 C   0  0  0  0  0  0  0  0  0  0  0  0
   49.9192   54.1545   32.0529 O   0  0  0  0  0  0  0  0  0  0  0  0
   47.5183   55.8518   31.5882 C   0  0  0  0  0  0  0  0  0  0  0  0
   48.3024   56.7744   32.5137 C   0  0  0  0  0  0  0  0  0  0  0  0
   48.4885   58.4724   31.9025 S   0  0  2  0  0  0  0  0  0  0  0  0
   49.8646   59.0623   32.9191 C   0  0  0  0  0  0  0  0  0  0  0  0
   47.0931   59.2724   32.7370 C   0  0  0  0  0  0  0  0  0  0  0  0
   45.7973   58.9242   32.0198 C   0  0  1  0  0  0  0  0  0  0  0  0
   46.0652   58.8480   30.6404 O   0  0  0  0  0  0  0  0  0  0  0  0
   45.2208   57.5706   32.3827 C   0  0  1  0  0  0  0  0  0  0  0  0
   44.2181   57.7125   33.3591 O   0  0  0  0  0  0  0  0  0  0  0  0
   44.6329   57.0709   31.0755 C   0  0  1  0  0  0  0  0  0  0  0  0
   43.2308   57.1920   31.1207 O   0  0  0  0  0  0  0  0  0  0  0  0
   45.1959   57.9653   29.9781 C   0  0  2  0  0  0  0  0  0  0  0  0
   48.8948   52.8049   30.7825 O   0  0  0  0  0  0  0  0  0  0  0  0
   46.1589   53.1239   28.1569 N   0  0  0  0  0  0  0  0  0  0  0  0
   45.2544   53.5095   29.1254 C   0  0  0  0  0  0  0  0  0  0  0  0
   45.1357   54.8403   29.4824 N   0  0  0  0  0  0  0  0  0  0  0  0
   45.9085   55.7799   28.8946 C   0  0  0  0  0  0  0  0  0  0  0  0
   46.8192   55.4159   27.9138 C   0  0  0  0  0  0  0  0  0  0  0  0
   46.9463   54.0784   27.5484 C   0  0  0  0  0  0  0  0  0  0  0  0
   47.8192   53.7098   26.6144 N   0  0  0  0  0  0  0  0  0  0  0  0
   47.4409   56.5405   27.4944 N   0  0  0  0  0  0  0  0  0  0  0  0
   46.9364   57.5979   28.1728 C   0  0  0  0  0  0  0  0  0  0  0  0
   45.9841   57.1415   29.0460 N   0  0  0  0  0  0  0  0  0  0  0  0
  2  1  1  1  0  0  0
  2  3  1  0  0  0  0
  2  5  1  0  0  0  0
  3  4  1  0  0  0  0
  3 17  1  0  0  0  0
  5  6  1  0  0  0  0
  7  6  1  1  0  0  0
  7  8  1  0  0  0  0
  7  9  1  0  0  0  0
 10  9  1  1  0  0  0
 10 11  1  0  0  0  0
 10 12  1  0  0  0  0
 11 16  1  0  0  0  0
 12 13  1  1  0  0  0
 12 14  1  0  0  0  0
 14 15  1  1  0  0  0
 14 16  1  0  0  0  0
 16 27  1  6  0  0  0
 18 19  2  0  0  0  0
 18 23  1  0  0  0  0
 19 20  1  0  0  0  0
 20 21  2  0  0  0  0
 21 22  1  0  0  0  0
 21 27  1  0  0  0  0
 22 23  2  0  0  0  0
 22 25  1  0  0  0  0
 23 24  1  0  0  0  0
 25 26  2  0  0  0  0
 26 27  1  0  0  0  0
M  END
>  <CHROM.1>
-62.96738846,45.78952876,170.89977275,-162.06576537,-77.32252062,-35.55800714
133.05313965,46.85449616,56.27493354,30.67248762,-1.64485606,0.63449624,-2.38974646

>  <Name>
ligand

>  <RI>
0

>  <Rbt.Current_Directory>
/home/itssahil/PROJECTS/Mol_Feturizer/New_Systems/rnas/3GX7

>  <Rbt.Executable>
rbdock ($Id: //depot/dev/client3/rdock/2013.1/src/exe/rbdock.cxx#4 $)

>  <Rbt.Library>
libRbt.so (2013.1, Build901 2013/11/27)

>  <Rbt.Parameter_File>
/export/apps/rDock/src/rDock_2013.1_src/data/scripts/dock_solv.prm

>  <Rbt.Receptor>
prm/pocket_docking_4.prm

>  <SCORE>
-13.2673

>  <SCORE.INTER>
-8.91381

>  <SCORE.INTER.CONST>
1

>  <SCORE.INTER.POLAR>
0

>  <SCORE.INTER.ROT>
7

>  <SCORE.INTER.SOLV>
7.34487

>  <SCORE.INTER.VDW>
-16.6575

>  <SCORE.INTER.norm>
-0.330141

>  <SCORE.INTRA>
-4.35348

>  <SCORE.INTRA.DIHEDRAL>
-3.1223

>  <SCORE.INTRA.DIHEDRAL.0>
11.2699

>  <SCORE.INTRA.POLAR>
0

>  <SCORE.INTRA.POLAR.0>
0

>  <SCORE.INTRA.REPUL>
0

>  <SCORE.INTRA.REPUL.0>
0

>  <SCORE.INTRA.SOLV>
0.670893

>  <SCORE.INTRA.SOLV.lig_0>
-48.6447

>  <SCORE.INTRA.VDW>
-3.12778

>  <SCORE.INTRA.VDW.0>
-0.0211724

>  <SCORE.INTRA.norm>
-0.16124

>  <SCORE.RESTR>
0

>  <SCORE.RESTR.CAVITY>
0

>  <SCORE.RESTR.norm>
0

>  <SCORE.SYSTEM>
0

>  <SCORE.SYSTEM.CONST>
0

>  <SCORE.SYSTEM.DIHEDRAL>
0

>  <SCORE.SYSTEM.SOLV>
0

>  <SCORE.SYSTEM.norm>
0

>  <SCORE.heavy>
27

>  <SCORE.norm>
-0.491381

>  <RMSD>
5.837

$$$$
ligand
 OpenBabel11021811483D
libRbt.so/2013.1/901 2013/11/27
 27 29  0  0  0  0  0  0  0  0999 V2000
   48.2652   57.9219   30.0838 N   0  0  0  0  0  0  0  0  0  0  0  0
   49.0074   57.6753   31.3142 C   0  0  2  0  0  0  0  0  0  0  0  0
   48.7218   56.2787   31.8410 C   0  0  0  0  0  0  0  0  0  0  0  0
   49.5544   55.6911   32.5275 O   0  0  0  0  0  0  0  0  0  0  0  0
   48.6976   58.7204   32.3850 C   0  0  0  0  0  0  0  0  0  0  0  0
   47.2463   58.7497   32.8493 C   0  0  0  0  0  0  0  0  0  0  0  0
   46.0600   59.2691   31.5787 S   0  0  2  0  0  0  0  0  0  0  0  0
   46.3689   61.0512   31.5180 C   0  0  0  0  0  0  0  0  0  0  0  0
   44.5219   59.2317   32.5362 C   0  0  0  0  0  0  0  0  0  0  0  0
   43.9503   57.8218   32.5351 C   0  0  1  0  0  0  0  0  0  0  0  0
   43.7160   57.4434   31.2001 O   0  0  0  0  0  0  0  0  0  0  0  0
   44.8849   56.7629   33.0846 C   0  0  1  0  0  0  0  0  0  0  0  0
   44.5815   56.4952   34.4319 O   0  0  0  0  0  0  0  0  0  0  0  0
   44.5999   55.5504   32.2170 C   0  0  1  0  0  0  0  0  0  0  0  0
   43.8299   54.6264   32.9490 O   0  0  0  0  0  0  0  0  0  0  0  0
   43.8056   56.0533   31.0181 C   0  0  2  0  0  0  0  0  0  0  0  0
   47.6539   55.7175   31.5938 O   0  0  0  0  0  0  0  0  0  0  0  0
   46.7764   52.6128   28.3683 N   0  0  0  0  0  0  0  0  0  0  0  0
   46.1908   52.4604   29.6087 C   0  0  0  0  0  0  0  0  0  0  0  0
   45.4364   53.4814   30.1570 N   0  0  0  0  0  0  0  0  0  0  0  0
   45.2686   54.6447   29.4906 C   0  0  0  0  0  0  0  0  0  0  0  0
   45.8421   54.8172   28.2394 C   0  0  0  0  0  0  0  0  0  0  0  0
   46.6041   53.7950   27.6798 C   0  0  0  0  0  0  0  0  0  0  0  0
   47.1672   53.9452   26.4837 N   0  0  0  0  0  0  0  0  0  0  0  0
   45.5079   56.0518   27.8023 N   0  0  0  0  0  0  0  0  0  0  0  0
   44.7312   56.6507   28.7355 C   0  0  0  0  0  0  0  0  0  0  0  0
   44.5740   55.7895   29.7897 N   0  0  0  0  0  0  0  0  0  0  0  0
  2  1  1  6  0  0  0
  2  3  1  0  0  0  0
  2  5  1  0  0  0  0
  3  4  1  0  0  0  0
  3 17  1  0  0  0  0
  5  6  1  0  0  0  0
  7  6  1  1  0  0  0
  7  8  1  0  0  0  0
  7  9  1  0  0  0  0
 10  9  1  6  0  0  0
 10 11  1  0  0  0  0
 10 12  1  0  0  0  0
 11 16  1  0  0  0  0
 12 13  1  1  0  0  0
 12 14  1  0  0  0  0
 14 15  1  1  0  0  0
 14 16  1  0  0  0  0
 16 27  1  6  0  0  0
 18 19  2  0  0  0  0
 18 23  1  0  0  0  0
 19 20  1  0  0  0  0
 20 21  2  0  0  0  0
 21 22  1  0  0  0  0
 21 27  1  0  0  0  0
 22 23  2  0  0  0  0
 22 25  1  0  0  0  0
 23 24  1  0  0  0  0
 25 26  2  0  0  0  0
 26 27  1  0  0  0  0
M  END
>  <CHROM.1>
152.97321771,62.62612607,-65.95901677,-74.78698119,-85.06517897,-59.04968363
156.13716072,46.05915070,56.45484363,30.92907422,-1.56910626,-0.32673121
-2.46137744

>  <Name>
ligand

>  <RI>
0

>  <Rbt.Current_Directory>
/home/itssahil/PROJECTS/Mol_Feturizer/New_Systems/rnas/3GX7

>  <Rbt.Executable>
rbdock ($Id: //depot/dev/client3/rdock/2013.1/src/exe/rbdock.cxx#4 $)

>  <Rbt.Library>
libRbt.so (2013.1, Build901 2013/11/27)

>  <Rbt.Parameter_File>
/export/apps/rDock/src/rDock_2013.1_src/data/scripts/dock_solv.prm

>  <Rbt.Receptor>
prm/pocket_docking_6.prm

>  <SCORE>
-18.8074

>  <SCORE.INTER>
-12.053

>  <SCORE.INTER.CONST>
1

>  <SCORE.INTER.POLAR>
0

>  <SCORE.INTER.ROT>
7

>  <SCORE.INTER.SOLV>
9.60228

>  <SCORE.INTER.VDW>
-19.5028

>  <SCORE.INTER.norm>
-0.446408

>  <SCORE.INTRA>
-6.75434

>  <SCORE.INTRA.DIHEDRAL>
-7.04181

>  <SCORE.INTRA.DIHEDRAL.0>
11.2699

>  <SCORE.INTRA.POLAR>
0

>  <SCORE.INTRA.POLAR.0>
0

>  <SCORE.INTRA.REPUL>
0

>  <SCORE.INTRA.REPUL.0>
0

>  <SCORE.INTRA.SOLV>
1.8212

>  <SCORE.INTRA.SOLV.lig_0>
-48.6447

>  <SCORE.INTRA.VDW>
-4.14404

>  <SCORE.INTRA.VDW.0>
-0.0211724

>  <SCORE.INTRA.norm>
-0.250161

>  <SCORE.RESTR>
0

>  <SCORE.RESTR.CAVITY>
0

>  <SCORE.RESTR.norm>
0

>  <SCORE.SYSTEM>
0

>  <SCORE.SYSTEM.CONST>
0

>  <SCORE.SYSTEM.DIHEDRAL>
0

>  <SCORE.SYSTEM.SOLV>
0

>  <SCORE.SYSTEM.norm>
0

>  <SCORE.heavy>
27

>  <SCORE.norm>
-0.696569

>  <RMSD>
5.837

$$$$
ligand
 OpenBabel11021811483D
libRbt.so/2013.1/901 2013/11/27
 27 29  0  0  0  0  0  0  0  0999 V2000
   48.7545   52.7752   28.1667 N   0  0  0  0  0  0  0  0  0  0  0  0
   50.0409   53.4613   28.1740 C   0  0  2  0  0  0  0  0  0  0  0  0
   51.0746   52.6692   27.3907 C   0  0  0  0  0  0  0  0  0  0  0  0
   51.2318   51.4696   27.6054 O   0  0  0  0  0  0  0  0  0  0  0  0
   50.5380   53.7234   29.5950 C   0  0  0  0  0  0  0  0  0  0  0  0
   49.8747   54.9021   30.2975 C   0  0  0  0  0  0  0  0  0  0  0  0
   48.1480   54.6181   30.7763 S   0  0  2  0  0  0  0  0  0  0  0  0
   47.2740   55.2191   29.3101 C   0  0  0  0  0  0  0  0  0  0  0  0
   47.8922   56.0097   31.9084 C   0  0  0  0  0  0  0  0  0  0  0  0
   46.4146   56.1285   32.2508 C   0  0  1  0  0  0  0  0  0  0  0  0
   46.0136   54.9389   32.8867 O   0  0  0  0  0  0  0  0  0  0  0  0
   46.0832   57.2310   33.2362 C   0  0  1  0  0  0  0  0  0  0  0  0
   45.6457   58.3809   32.5540 O   0  0  0  0  0  0  0  0  0  0  0  0
   44.9607   56.6394   34.0695 C   0  0  1  0  0  0  0  0  0  0  0  0
   43.7382   57.2193   33.6802 O   0  0  0  0  0  0  0  0  0  0  0  0
   44.9438   55.1449   33.7736 C   0  0  2  0  0  0  0  0  0  0  0  0
   51.7652   53.2131   26.5283 O   0  0  0  0  0  0  0  0  0  0  0  0
   48.5123   53.9199   37.4409 N   0  0  0  0  0  0  0  0  0  0  0  0
   48.6698   54.7197   36.3271 C   0  0  0  0  0  0  0  0  0  0  0  0
   47.6116   54.9322   35.4626 N   0  0  0  0  0  0  0  0  0  0  0  0
   46.4120   54.3541   35.6911 C   0  0  0  0  0  0  0  0  0  0  0  0
   46.2290   53.5524   36.8081 C   0  0  0  0  0  0  0  0  0  0  0  0
   47.2889   53.3318   37.6837 C   0  0  0  0  0  0  0  0  0  0  0  0
   47.1337   52.5603   38.7565 N   0  0  0  0  0  0  0  0  0  0  0  0
   44.9484   53.1200   36.7966 N   0  0  0  0  0  0  0  0  0  0  0  0
   44.3214   53.6387   35.7146 C   0  0  0  0  0  0  0  0  0  0  0  0
   45.2174   54.4070   35.0184 N   0  0  0  0  0  0  0  0  0  0  0  0
  2  1  1  1  0  0  0
  2  3  1  0  0  0  0
  2  5  1  0  0  0  0
  3  4  1  0  0  0  0
  3 17  1  0  0  0  0
  5  6  1  0  0  0  0
  7  6  1  6  0  0  0
  7  8  1  0  0  0  0
  7  9  1  0  0  0  0
 10  9  1  1  0  0  0
 10 11  1  0  0  0  0
 10 12  1  0  0  0  0
 11 16  1  0  0  0  0
 12 13  1  6  0  0  0
 12 14  1  0  0  0  0
 14 15  1  6  0  0  0
 14 16  1  0  0  0  0
 16 27  1  1  0  0  0
 18 19  2  0  0  0  0
 18 23  1  0  0  0  0
 19 20  1  0  0  0  0
 20 21  2  0  0  0  0
 21 22  1  0  0  0  0
 21 27  1  0  0  0  0
 22 23  2  0  0  0  0
 22 25  1  0  0  0  0
 23 24  1  0  0  0  0
 25 26  2  0  0  0  0
 26 27  1  0  0  0  0
M  END
>  <CHROM.1>
-49.54526779,-78.07195387,71.27029316,-90.84508011,169.67816031,61.10450112
43.86897389,47.48896380,54.55803973,32.66545125,-0.88129870,-0.74370425,1.92922041

>  <Name>
ligand

>  <RI>
0

>  <Rbt.Current_Directory>
/home/itssahil/PROJECTS/Mol_Feturizer/New_Systems/rnas/3GX7

>  <Rbt.Executable>
rbdock ($Id: //depot/dev/client3/rdock/2013.1/src/exe/rbdock.cxx#4 $)

>  <Rbt.Library>
libRbt.so (2013.1, Build901 2013/11/27)

>  <Rbt.Parameter_File>
/export/apps/rDock/src/rDock_2013.1_src/data/scripts/dock_solv.prm

>  <Rbt.Receptor>
prm/pocket_docking_5.prm

>  <SCORE>
-13.5436

>  <SCORE.INTER>
-8.76393

>  <SCORE.INTER.CONST>
1

>  <SCORE.INTER.POLAR>
0

>  <SCORE.INTER.ROT>
7

>  <SCORE.INTER.SOLV>
12.876

>  <SCORE.INTER.VDW>
-18.4013

>  <SCORE.INTER.norm>
-0.32459

>  <SCORE.INTRA>
-4.77963

>  <SCORE.INTRA.DIHEDRAL>
-5.05944

>  <SCORE.INTRA.DIHEDRAL.0>
11.2699

>  <SCORE.INTRA.POLAR>
0

>  <SCORE.INTRA.POLAR.0>
0

>  <SCORE.INTRA.REPUL>
0

>  <SCORE.INTRA.REPUL.0>
0

>  <SCORE.INTRA.SOLV>
1.74361

>  <SCORE.INTRA.SOLV.lig_0>
-48.6447

>  <SCORE.INTRA.VDW>
-3.12172

>  <SCORE.INTRA.VDW.0>
-0.0211724

>  <SCORE.INTRA.norm>
-0.177023

>  <SCORE.RESTR>
0

>  <SCORE.RESTR.CAVITY>
0

>  <SCORE.RESTR.norm>
0

>  <SCORE.SYSTEM>
0

>  <SCORE.SYSTEM.CONST>
0

>  <SCORE.SYSTEM.DIHEDRAL>
0

>  <SCORE.SYSTEM.SOLV>
0

>  <SCORE.SYSTEM.norm>
0

>  <SCORE.heavy>
27

>  <SCORE.norm>
-0.501613

>  <RMSD>
5.851

$$$$
ligand
 OpenBabel11021811483D
libRbt.so/2013.1/901 2013/11/27
 27 29  0  0  0  0  0  0  0  0999 V2000
   47.9265   54.7942   35.8659 N   0  0  0  0  0  0  0  0  0  0  0  0
   47.6049   54.9504   34.4525 C   0  0  2  0  0  0  0  0  0  0  0  0
   46.6460   53.8624   33.9981 C   0  0  0  0  0  0  0  0  0  0  0  0
   46.1704   53.0738   34.8116 O   0  0  0  0  0  0  0  0  0  0  0  0
   48.8594   54.9507   33.5801 C   0  0  0  0  0  0  0  0  0  0  0  0
   49.6115   56.2757   33.5415 C   0  0  0  0  0  0  0  0  0  0  0  0
   48.8353   57.5518   32.5117 S   0  0  2  0  0  0  0  0  0  0  0  0
   49.9704   58.9396   32.7580 C   0  0  0  0  0  0  0  0  0  0  0  0
   47.4654   58.0490   33.5887 C   0  0  0  0  0  0  0  0  0  0  0  0
   46.1761   58.1131   32.7836 C   0  0  1  0  0  0  0  0  0  0  0  0
   46.4831   58.6022   31.5003 O   0  0  0  0  0  0  0  0  0  0  0  0
   45.5159   56.7702   32.5439 C   0  0  1  0  0  0  0  0  0  0  0  0
   44.4919   56.5545   33.4840 O   0  0  0  0  0  0  0  0  0  0  0  0
   44.9436   56.8988   31.1438 C   0  0  1  0  0  0  0  0  0  0  0  0
   43.5494   57.0773   31.2268 O   0  0  0  0  0  0  0  0  0  0  0  0
   45.5887   58.1322   30.5243 C   0  0  2  0  0  0  0  0  0  0  0  0
   46.3275   53.7568   32.8133 O   0  0  0  0  0  0  0  0  0  0  0  0
   48.1416   54.2256   28.0944 N   0  0  0  0  0  0  0  0  0  0  0  0
   47.4907   54.1958   29.3111 C   0  0  0  0  0  0  0  0  0  0  0  0
   46.8685   55.3299   29.8001 N   0  0  0  0  0  0  0  0  0  0  0  0
   46.8957   56.4842   29.0983 C   0  0  0  0  0  0  0  0  0  0  0  0
   47.5378   56.5350   27.8699 C   0  0  0  0  0  0  0  0  0  0  0  0
   48.1679   55.3985   27.3700 C   0  0  0  0  0  0  0  0  0  0  0  0
   48.7945   55.4305   26.1967 N   0  0  0  0  0  0  0  0  0  0  0  0
   47.4015   57.7906   27.3881 N   0  0  0  0  0  0  0  0  0  0  0  0
   46.6813   58.5219   28.2709 C   0  0  0  0  0  0  0  0  0  0  0  0
   46.3603   57.7245   29.3381 N   0  0  0  0  0  0  0  0  0  0  0  0
  2  1  1  1  0  0  0
  2  3  1  0  0  0  0
  2  5  1  0  0  0  0
  3  4  1  0  0  0  0
  3 17  1  0  0  0  0
  5  6  1  0  0  0  0
  7  6  1  1  0  0  0
  7  8  1  0  0  0  0
  7  9  1  0  0  0  0
 10  9  1  1  0  0  0
 10 11  1  0  0  0  0
 10 12  1  0  0  0  0
 11 16  1  0  0  0  0
 12 13  1  1  0  0  0
 12 14  1  0  0  0  0
 14 15  1  1  0  0  0
 14 16  1  0  0  0  0
 16 27  1  6  0  0  0
 18 19  2  0  0  0  0
 18 23  1  0  0  0  0
 19 20  1  0  0  0  0
 20 21  2  0  0  0  0
 21 22  1  0  0  0  0
 21 27  1  0  0  0  0
 22 23  2  0  0  0  0
 22 25  1  0  0  0  0
 23 24  1  0  0  0  0
 25 26  2  0  0  0  0
 26 27  1  0  0  0  0
M  END
>  <CHROM.1>
5.69154937,-79.91442105,-75.90470430,178.55086423,-133.04580297,-36.68861266
88.91818249,47.11206920,56.35425537,31.40161591,-1.68759427,1.25728599,-1.28379017

>  <Name>
ligand

>  <RI>
0

>  <Rbt.Current_Directory>
/home/itssahil/PROJECTS/Mol_Feturizer/New_Systems/rnas/3GX7

>  <Rbt.Executable>
rbdock ($Id: //depot/dev/client3/rdock/2013.1/src/exe/rbdock.cxx#4 $)

>  <Rbt.Library>
libRbt.so (2013.1, Build901 2013/11/27)

>  <Rbt.Parameter_File>
/export/apps/rDock/src/rDock_2013.1_src/data/scripts/dock_solv.prm

>  <Rbt.Receptor>
prm/pocket_docking_3.prm

>  <SCORE>
-10.9473

>  <SCORE.INTER>
-7.43367

>  <SCORE.INTER.CONST>
1

>  <SCORE.INTER.POLAR>
0

>  <SCORE.INTER.ROT>
7

>  <SCORE.INTER.SOLV>
10.3876

>  <SCORE.INTER.VDW>
-16.685

>  <SCORE.INTER.norm>
-0.275321

>  <SCORE.INTRA>
-3.51361

>  <SCORE.INTRA.DIHEDRAL>
0.418482

>  <SCORE.INTRA.DIHEDRAL.0>
11.2699

>  <SCORE.INTRA.POLAR>
0

>  <SCORE.INTRA.POLAR.0>
0

>  <SCORE.INTRA.REPUL>
0

>  <SCORE.INTRA.REPUL.0>
0

>  <SCORE.INTRA.SOLV>
0.71224

>  <SCORE.INTRA.SOLV.lig_0>
-48.6447

>  <SCORE.INTRA.VDW>
-4.07897

>  <SCORE.INTRA.VDW.0>
-0.0211724

>  <SCORE.INTRA.norm>
-0.130134

>  <SCORE.RESTR>
0

>  <SCORE.RESTR.CAVITY>
0

>  <SCORE.RESTR.norm>
0

>  <SCORE.SYSTEM>
0

>  <SCORE.SYSTEM.CONST>
0

>  <SCORE.SYSTEM.DIHEDRAL>
0

>  <SCORE.SYSTEM.SOLV>
0

>  <SCORE.SYSTEM.norm>
0

>  <SCORE.heavy>
27

>  <SCORE.norm>
-0.405455

>  <RMSD>
5.858

$$$$
ligand
 OpenBabel11021811483D
libRbt.so/2013.1/901 2013/11/27
 27 29  0  0  0  0  0  0  0  0999 V2000
   49.2981   55.0302   32.4077 N   0  0  0  0  0  0  0  0  0  0  0  0
   48.5979   54.7051   33.6444 C   0  0  2  0  0  0  0  0  0  0  0  0
   47.5888   53.5928   33.4119 C   0  0  0  0  0  0  0  0  0  0  0  0
   47.5430   53.0113   32.3304 O   0  0  0  0  0  0  0  0  0  0  0  0
   47.9097   55.9289   34.2473 C   0  0  0  0  0  0  0  0  0  0  0  0
   48.7637   57.1907   34.2824 C   0  0  0  0  0  0  0  0  0  0  0  0
   48.7925   58.1234   32.7266 S   0  0  2  0  0  0  0  0  0  0  0  0
   50.2945   59.1106   32.9371 C   0  0  0  0  0  0  0  0  0  0  0  0
   47.5246   59.3710   33.0728 C   0  0  0  0  0  0  0  0  0  0  0  0
   46.2521   59.0359   32.3093 C   0  0  1  0  0  0  0  0  0  0  0  0
   46.4795   59.2879   30.9436 O   0  0  0  0  0  0  0  0  0  0  0  0
   45.8429   57.5783   32.3763 C   0  0  1  0  0  0  0  0  0  0  0  0
   44.8645   57.3907   33.3695 O   0  0  0  0  0  0  0  0  0  0  0  0
   45.2701   57.3046   30.9974 C   0  0  1  0  0  0  0  0  0  0  0  0
   43.8656   57.2494   31.0808 O   0  0  0  0  0  0  0  0  0  0  0  0
   45.6920   58.4722   30.1142 C   0  0  2  0  0  0  0  0  0  0  0  0
   46.8072   53.2541   34.3012 O   0  0  0  0  0  0  0  0  0  0  0  0
   49.1874   54.8406   28.6050 N   0  0  0  0  0  0  0  0  0  0  0  0
   48.5796   54.9838   29.8359 C   0  0  0  0  0  0  0  0  0  0  0  0
   47.6774   56.0085   30.0562 N   0  0  0  0  0  0  0  0  0  0  0  0
   47.3845   56.8880   29.0732 C   0  0  0  0  0  0  0  0  0  0  0  0
   47.9780   56.7589   27.8263 C   0  0  0  0  0  0  0  0  0  0  0  0
   48.8883   55.7309   27.5954 C   0  0  0  0  0  0  0  0  0  0  0  0
   49.4724   55.5956   26.4077 N   0  0  0  0  0  0  0  0  0  0  0  0
   47.5020   57.7511   27.0413 N   0  0  0  0  0  0  0  0  0  0  0  0
   46.6183   58.4875   27.7551 C   0  0  0  0  0  0  0  0  0  0  0  0
   46.5348   57.9639   29.0187 N   0  0  0  0  0  0  0  0  0  0  0  0
  2  1  1  6  0  0  0
  2  3  1  0  0  0  0
  2  5  1  0  0  0  0
  3  4  1  0  0  0  0
  3 17  1  0  0  0  0
  5  6  1  0  0  0  0
  7  6  1  1  0  0  0
  7  8  1  0  0  0  0
  7  9  1  0  0  0  0
 10  9  1  1  0  0  0
 10 11  1  0  0  0  0
 10 12  1  0  0  0  0
 11 16  1  0  0  0  0
 12 13  1  1  0  0  0
 12 14  1  0  0  0  0
 14 15  1  1  0  0  0
 14 16  1  0  0  0  0
 16 27  1  6  0  0  0
 18 19  2  0  0  0  0
 18 23  1  0  0  0  0
 19 20  1  0  0  0  0
 20 21  2  0  0  0  0
 21 22  1  0  0  0  0
 21 27  1  0  0  0  0
 22 23  2  0  0  0  0
 22 25  1  0  0  0  0
 23 24  1  0  0  0  0
 25 26  2  0  0  0  0
 26 27  1  0  0  0  0
M  END
>  <CHROM.1>
6.96127121,-45.48796864,82.49624892,-160.03535670,-105.23692793,-71.70485150
82.06877279,47.48474569,56.75641491,31.19125761,-1.63136130,1.10265336,-1.35476008

>  <Name>
ligand

>  <RI>
0

>  <Rbt.Current_Directory>
/home/itssahil/PROJECTS/Mol_Feturizer/New_Systems/rnas/3GX7

>  <Rbt.Executable>
rbdock ($Id: //depot/dev/client3/rdock/2013.1/src/exe/rbdock.cxx#4 $)

>  <Rbt.Library>
libRbt.so (2013.1, Build901 2013/11/27)

>  <Rbt.Parameter_File>
/export/apps/rDock/src/rDock_2013.1_src/data/scripts/dock_solv.prm

>  <Rbt.Receptor>
prm/pocket_docking_2.prm

>  <SCORE>
-9.77408

>  <SCORE.INTER>
-8.84939

>  <SCORE.INTER.CONST>
1

>  <SCORE.INTER.POLAR>
0

>  <SCORE.INTER.ROT>
7

>  <SCORE.INTER.SOLV>
12.0489

>  <SCORE.INTER.VDW>
-18.1826

>  <SCORE.INTER.norm>
-0.327755

>  <SCORE.INTRA>
-2.13986

>  <SCORE.INTRA.DIHEDRAL>
-0.230441

>  <SCORE.INTRA.DIHEDRAL.0>
11.2699

>  <SCORE.INTRA.POLAR>
0

>  <SCORE.INTRA.POLAR.0>
0

>  <SCORE.INTRA.REPUL>
0

>  <SCORE.INTRA.REPUL.0>
0

>  <SCORE.INTRA.SOLV>
3.09749

>  <SCORE.INTRA.SOLV.lig_0>
-48.6447

>  <SCORE.INTRA.VDW>
-3.57339

>  <SCORE.INTRA.VDW.0>
-0.0211724

>  <SCORE.INTRA.norm>
-0.0792542

>  <SCORE.RESTR>
1.21517

>  <SCORE.RESTR.CAVITY>
1.21517

>  <SCORE.RESTR.norm>
0.0450064

>  <SCORE.SYSTEM>
0

>  <SCORE.SYSTEM.CONST>
0

>  <SCORE.SYSTEM.DIHEDRAL>
0

>  <SCORE.SYSTEM.SOLV>
0

>  <SCORE.SYSTEM.norm>
0

>  <SCORE.heavy>
27

>  <SCORE.norm>
-0.362003

>  <RMSD>
5.871

$$$$
ligand
 OpenBabel11021811483D
libRbt.so/2013.1/901 2013/11/27
 27 29  0  0  0  0  0  0  0  0999 V2000
   48.5599   53.5409   25.7316 N   0  0  0  0  0  0  0  0  0  0  0  0
   48.5344   53.7236   27.1778 C   0  0  2  0  0  0  0  0  0  0  0  0
   47.8053   52.5721   27.8502 C   0  0  0  0  0  0  0  0  0  0  0  0
   48.2092   52.1204   28.9192 O   0  0  0  0  0  0  0  0  0  0  0  0
   47.8996   55.0565   27.5719 C   0  0  0  0  0  0  0  0  0  0  0  0
   46.4585   55.2398   27.1110 C   0  0  0  0  0  0  0  0  0  0  0  0
   45.6273   56.6972   27.8011 S   0  0  2  0  0  0  0  0  0  0  0  0
   46.8243   57.9988   27.4163 C   0  0  0  0  0  0  0  0  0  0  0  0
   45.9581   56.4540   29.5661 C   0  0  0  0  0  0  0  0  0  0  0  0
   45.1567   57.4573   30.3821 C   0  0  1  0  0  0  0  0  0  0  0  0
   43.9073   56.8829   30.6810 O   0  0  0  0  0  0  0  0  0  0  0  0
   45.7623   57.8013   31.7280 C   0  0  1  0  0  0  0  0  0  0  0  0
   46.4921   59.0010   31.6430 O   0  0  0  0  0  0  0  0  0  0  0  0
   44.5535   57.9689   32.6308 C   0  0  1  0  0  0  0  0  0  0  0  0
   44.3380   59.3399   32.8684 O   0  0  0  0  0  0  0  0  0  0  0  0
   43.3668   57.3797   31.8787 C   0  0  2  0  0  0  0  0  0  0  0  0
   46.7994   52.0784   27.3396 O   0  0  0  0  0  0  0  0  0  0  0  0
   44.3064   53.7373   35.5575 N   0  0  0  0  0  0  0  0  0  0  0  0
   45.1642   54.7027   35.0705 C   0  0  0  0  0  0  0  0  0  0  0  0
   44.7426   55.5847   34.0924 N   0  0  0  0  0  0  0  0  0  0  0  0
   43.4889   55.5089   33.5942 C   0  0  0  0  0  0  0  0  0  0  0  0
   42.6077   54.5513   34.0741 C   0  0  0  0  0  0  0  0  0  0  0  0
   43.0235   53.6583   35.0581 C   0  0  0  0  0  0  0  0  0  0  0  0
   42.1942   52.7288   35.5256 N   0  0  0  0  0  0  0  0  0  0  0  0
   41.4360   54.7077   33.4186 N   0  0  0  0  0  0  0  0  0  0  0  0
   41.5533   55.7431   32.5543 C   0  0  0  0  0  0  0  0  0  0  0  0
   42.8225   56.2506   32.6518 N   0  0  0  0  0  0  0  0  0  0  0  0
  2  1  1  6  0  0  0
  2  3  1  0  0  0  0
  2  5  1  0  0  0  0
  3  4  1  0  0  0  0
  3 17  1  0  0  0  0
  5  6  1  0  0  0  0
  7  6  1  6  0  0  0
  7  8  1  0  0  0  0
  7  9  1  0  0  0  0
 10  9  1  1  0  0  0
 10 11  1  0  0  0  0
 10 12  1  0  0  0  0
 11 16  1  0  0  0  0
 12 13  1  6  0  0  0
 12 14  1  0  0  0  0
 14 15  1  6  0  0  0
 14 16  1  0  0  0  0
 16 27  1  1  0  0  0
 18 19  2  0  0  0  0
 18 23  1  0  0  0  0
 19 20  1  0  0  0  0
 20 21  2  0  0  0  0
 21 22  1  0  0  0  0
 21 27  1  0  0  0  0
 22 23  2  0  0  0  0
 22 25  1  0  0  0  0
 23 24  1  0  0  0  0
 25 26  2  0  0  0  0
 26 27  1  0  0  0  0
M  END
>  <CHROM.1>
141.62315415,59.72039264,170.73377529,51.55711480,-171.01609359,89.62232487
91.34188992,45.17780836,55.58601560,30.86855086,-0.08575338,-1.01428621,2.91940157

>  <Name>
ligand

>  <RI>
0

>  <Rbt.Current_Directory>
/home/itssahil/PROJECTS/Mol_Feturizer/New_Systems/rnas/3GX7

>  <Rbt.Executable>
rbdock ($Id: //depot/dev/client3/rdock/2013.1/src/exe/rbdock.cxx#4 $)

>  <Rbt.Library>
libRbt.so (2013.1, Build901 2013/11/27)

>  <Rbt.Parameter_File>
/export/apps/rDock/src/rDock_2013.1_src/data/scripts/dock_solv.prm

>  <Rbt.Receptor>
prm/pocket_docking_7.prm

>  <SCORE>
-13.0672

>  <SCORE.INTER>
-9.63255

>  <SCORE.INTER.CONST>
1

>  <SCORE.INTER.POLAR>
0

>  <SCORE.INTER.ROT>
7

>  <SCORE.INTER.SOLV>
6.78391

>  <SCORE.INTER.VDW>
-16.9497

>  <SCORE.INTER.norm>
-0.356761

>  <SCORE.INTRA>
-3.43464

>  <SCORE.INTRA.DIHEDRAL>
-4.40529

>  <SCORE.INTRA.DIHEDRAL.0>
11.2699

>  <SCORE.INTRA.POLAR>
0

>  <SCORE.INTRA.POLAR.0>
0

>  <SCORE.INTRA.REPUL>
0

>  <SCORE.INTRA.REPUL.0>
0

>  <SCORE.INTRA.SOLV>
-0.475506

>  <SCORE.INTRA.SOLV.lig_0>
-48.6447

>  <SCORE.INTRA.VDW>
-0.994246

>  <SCORE.INTRA.VDW.0>
-0.0211724

>  <SCORE.INTRA.norm>
-0.127209

>  <SCORE.RESTR>
0

>  <SCORE.RESTR.CAVITY>
0

>  <SCORE.RESTR.norm>
0

>  <SCORE.SYSTEM>
0

>  <SCORE.SYSTEM.CONST>
0

>  <SCORE.SYSTEM.DIHEDRAL>
0

>  <SCORE.SYSTEM.SOLV>
0

>  <SCORE.SYSTEM.norm>
0

>  <SCORE.heavy>
27

>  <SCORE.norm>
-0.48397

>  <RMSD>
5.871

$$$$
ligand
 OpenBabel11021811483D
libRbt.so/2013.1/901 2013/11/27
 27 29  0  0  0  0  0  0  0  0999 V2000
   48.0186   56.7589   27.4043 N   0  0  0  0  0  0  0  0  0  0  0  0
   48.7530   57.0789   28.6224 C   0  0  2  0  0  0  0  0  0  0  0  0
   49.4829   55.8528   29.1452 C   0  0  0  0  0  0  0  0  0  0  0  0
   50.7090   55.8469   29.2261 O   0  0  0  0  0  0  0  0  0  0  0  0
   47.8389   57.6538   29.7035 C   0  0  0  0  0  0  0  0  0  0  0  0
   48.5331   57.9826   31.0198 C   0  0  0  0  0  0  0  0  0  0  0  0
   47.4235   58.5690   32.3299 S   0  0  2  0  0  0  0  0  0  0  0  0
   47.9505   60.2927   32.4906 C   0  0  0  0  0  0  0  0  0  0  0  0
   48.2240   57.8406   33.7833 C   0  0  0  0  0  0  0  0  0  0  0  0
   48.0824   56.3264   33.7429 C   0  0  1  0  0  0  0  0  0  0  0  0
   48.7328   55.7938   34.8716 O   0  0  0  0  0  0  0  0  0  0  0  0
   46.6558   55.8245   33.8392 C   0  0  1  0  0  0  0  0  0  0  0  0
   46.1493   55.5431   32.5573 O   0  0  0  0  0  0  0  0  0  0  0  0
   46.7791   54.5539   34.6606 C   0  0  1  0  0  0  0  0  0  0  0  0
   46.6511   53.4380   33.8116 O   0  0  0  0  0  0  0  0  0  0  0  0
   48.1691   54.5750   35.2840 C   0  0  2  0  0  0  0  0  0  0  0  0
   48.8602   54.8512   29.4994 O   0  0  0  0  0  0  0  0  0  0  0  0
   45.4209   52.9059   39.4488 N   0  0  0  0  0  0  0  0  0  0  0  0
   45.1970   52.6393   38.1132 C   0  0  0  0  0  0  0  0  0  0  0  0
   46.0295   53.1692   37.1444 N   0  0  0  0  0  0  0  0  0  0  0  0
   47.0680   53.9613   37.4905 C   0  0  0  0  0  0  0  0  0  0  0  0
   47.3160   54.2366   38.8271 C   0  0  0  0  0  0  0  0  0  0  0  0
   46.4827   53.7083   39.8095 C   0  0  0  0  0  0  0  0  0  0  0  0
   46.7012   53.9672   41.0962 N   0  0  0  0  0  0  0  0  0  0  0  0
   48.4074   55.0319   38.8858 N   0  0  0  0  0  0  0  0  0  0  0  0
   48.8577   55.2500   37.6279 C   0  0  0  0  0  0  0  0  0  0  0  0
   48.0361   54.5919   36.7506 N   0  0  0  0  0  0  0  0  0  0  0  0
  2  1  1  6  0  0  0
  2  3  1  0  0  0  0
  2  5  1  0  0  0  0
  3  4  1  0  0  0  0
  3 17  1  0  0  0  0
  5  6  1  0  0  0  0
  7  6  1  6  0  0  0
  7  8  1  0  0  0  0
  7  9  1  0  0  0  0
 10  9  1  1  0  0  0
 10 11  1  0  0  0  0
 10 12  1  0  0  0  0
 11 16  1  0  0  0  0
 12 13  1  6  0  0  0
 12 14  1  0  0  0  0
 14 15  1  6  0  0  0
 14 16  1  0  0  0  0
 16 27  1  1  0  0  0
 18 19  2  0  0  0  0
 18 23  1  0  0  0  0
 19 20  1  0  0  0  0
 20 21  2  0  0  0  0
 21 22  1  0  0  0  0
 21 27  1  0  0  0  0
 22 23  2  0  0  0  0
 22 25  1  0  0  0  0
 23 24  1  0  0  0  0
 25 26  2  0  0  0  0
 26 27  1  0  0  0  0
M  END
>  <CHROM.1>
117.94638333,178.65260939,-176.44885155,-112.00991162,-68.16999683,179.03786907
148.67660706,47.66141647,55.67077728,34.11952170,0.40701241,-1.36718310,-2.37275399

>  <Name>
ligand

>  <RI>
0

>  <Rbt.Current_Directory>
/home/itssahil/PROJECTS/Mol_Feturizer/New_Systems/rnas/3GX7

>  <Rbt.Executable>
rbdock ($Id: //depot/dev/client3/rdock/2013.1/src/exe/rbdock.cxx#4 $)

>  <Rbt.Library>
libRbt.so (2013.1, Build901 2013/11/27)

>  <Rbt.Parameter_File>
/export/apps/rDock/src/rDock_2013.1_src/data/scripts/dock_solv.prm

>  <Rbt.Receptor>
prm/pocket_docking_7.prm

>  <SCORE>
-22.28

>  <SCORE.INTER>
-17.3601

>  <SCORE.INTER.CONST>
1

>  <SCORE.INTER.POLAR>
0

>  <SCORE.INTER.ROT>
7

>  <SCORE.INTER.SOLV>
11.5059

>  <SCORE.INTER.VDW>
-23.6753

>  <SCORE.INTER.norm>
-0.642966

>  <SCORE.INTRA>
-4.91994

>  <SCORE.INTRA.DIHEDRAL>
-4.46509

>  <SCORE.INTRA.DIHEDRAL.0>
11.2699

>  <SCORE.INTRA.POLAR>
0

>  <SCORE.INTRA.POLAR.0>
0

>  <SCORE.INTRA.REPUL>
0

>  <SCORE.INTRA.REPUL.0>
0

>  <SCORE.INTRA.SOLV>
-0.74951

>  <SCORE.INTRA.SOLV.lig_0>
-48.6447

>  <SCORE.INTRA.VDW>
-2.31264

>  <SCORE.INTRA.VDW.0>
-0.0211724

>  <SCORE.INTRA.norm>
-0.18222

>  <SCORE.RESTR>
0

>  <SCORE.RESTR.CAVITY>
0

>  <SCORE.RESTR.norm>
0

>  <SCORE.SYSTEM>
0

>  <SCORE.SYSTEM.CONST>
0

>  <SCORE.SYSTEM.DIHEDRAL>
0

>  <SCORE.SYSTEM.SOLV>
0

>  <SCORE.SYSTEM.norm>
0

>  <SCORE.heavy>
27

>  <SCORE.norm>
-0.825186

>  <RMSD>
5.873

$$$$
ligand
 OpenBabel11021811483D
libRbt.so/2013.1/901 2013/11/27
 27 29  0  0  0  0  0  0  0  0999 V2000
   49.1039   56.0145   28.9752 N   0  0  0  0  0  0  0  0  0  0  0  0
   47.8410   56.7426   29.0002 C   0  0  2  0  0  0  0  0  0  0  0  0
   47.9101   57.9656   28.1008 C   0  0  0  0  0  0  0  0  0  0  0  0
   47.1398   58.0826   27.1506 O   0  0  0  0  0  0  0  0  0  0  0  0
   47.4465   57.1489   30.4194 C   0  0  0  0  0  0  0  0  0  0  0  0
   48.5040   57.9455   31.1742 C   0  0  0  0  0  0  0  0  0  0  0  0
   48.0187   58.4413   32.8505 S   0  0  2  0  0  0  0  0  0  0  0  0
   49.5287   59.2557   33.4264 C   0  0  0  0  0  0  0  0  0  0  0  0
   48.1509   56.8516   33.7101 C   0  0  0  0  0  0  0  0  0  0  0  0
   46.9293   55.9983   33.4029 C   0  0  1  0  0  0  0  0  0  0  0  0
   47.0525   54.7852   34.1055 O   0  0  0  0  0  0  0  0  0  0  0  0
   45.6145   56.5899   33.8694 C   0  0  1  0  0  0  0  0  0  0  0  0
   44.9711   57.2496   32.8064 O   0  0  0  0  0  0  0  0  0  0  0  0
   44.8155   55.3781   34.3138 C   0  0  1  0  0  0  0  0  0  0  0  0
   43.8374   55.0858   33.3441 O   0  0  0  0  0  0  0  0  0  0  0  0
   45.8037   54.2232   34.4187 C   0  0  2  0  0  0  0  0  0  0  0  0
   48.7323   58.8578   28.3113 O   0  0  0  0  0  0  0  0  0  0  0  0
   48.3854   54.2945   39.0028 N   0  0  0  0  0  0  0  0  0  0  0  0
   48.7144   54.9352   37.8254 C   0  0  0  0  0  0  0  0  0  0  0  0
   47.9115   54.8012   36.7074 N   0  0  0  0  0  0  0  0  0  0  0  0
   46.7991   54.0355   36.7493 C   0  0  0  0  0  0  0  0  0  0  0  0
   46.4454   53.3883   37.9240 C   0  0  0  0  0  0  0  0  0  0  0  0
   47.2481   53.5166   39.0544 C   0  0  0  0  0  0  0  0  0  0  0  0
   46.9281   52.8977   40.1879 N   0  0  0  0  0  0  0  0  0  0  0  0
   45.2987   52.7119   37.6897 N   0  0  0  0  0  0  0  0  0  0  0  0
   44.9173   52.9283   36.4089 C   0  0  0  0  0  0  0  0  0  0  0  0
   45.8391   53.7481   35.8122 N   0  0  0  0  0  0  0  0  0  0  0  0
  2  1  1  1  0  0  0
  2  3  1  0  0  0  0
  2  5  1  0  0  0  0
  3  4  1  0  0  0  0
  3 17  1  0  0  0  0
  5  6  1  0  0  0  0
  7  6  1  6  0  0  0
  7  8  1  0  0  0  0
  7  9  1  0  0  0  0
 10  9  1  1  0  0  0
 10 11  1  0  0  0  0
 10 12  1  0  0  0  0
 11 16  1  0  0  0  0
 12 13  1  6  0  0  0
 12 14  1  0  0  0  0
 14 15  1  6  0  0  0
 14 16  1  0  0  0  0
 16 27  1  1  0  0  0
 18 19  2  0  0  0  0
 18 23  1  0  0  0  0
 19 20  1  0  0  0  0
 20 21  2  0  0  0  0
 21 22  1  0  0  0  0
 21 27  1  0  0  0  0
 22 23  2  0  0  0  0
 22 25  1  0  0  0  0
 23 24  1  0  0  0  0
 25 26  2  0  0  0  0
 26 27  1  0  0  0  0
M  END
>  <CHROM.1>
119.62355134,54.60665109,179.26729700,176.99762312,-78.44334168,-178.86926103
12.53050584,47.07901148,55.90071418,33.77788928,-1.40498424,0.58059194,1.94449827

>  <Name>
ligand

>  <RI>
0

>  <Rbt.Current_Directory>
/home/itssahil/PROJECTS/Mol_Feturizer/New_Systems/rnas/3GX7

>  <Rbt.Executable>
rbdock ($Id: //depot/dev/client3/rdock/2013.1/src/exe/rbdock.cxx#4 $)

>  <Rbt.Library>
libRbt.so (2013.1, Build901 2013/11/27)

>  <Rbt.Parameter_File>
/export/apps/rDock/src/rDock_2013.1_src/data/scripts/dock_solv.prm

>  <Rbt.Receptor>
prm/pocket_docking_6.prm

>  <SCORE>
-25.6533

>  <SCORE.INTER>
-19.0442

>  <SCORE.INTER.CONST>
1

>  <SCORE.INTER.POLAR>
0

>  <SCORE.INTER.ROT>
7

>  <SCORE.INTER.SOLV>
8.9027

>  <SCORE.INTER.VDW>
-23.9303

>  <SCORE.INTER.norm>
-0.70534

>  <SCORE.INTRA>
-6.60913

>  <SCORE.INTRA.DIHEDRAL>
-7.58084

>  <SCORE.INTRA.DIHEDRAL.0>
11.2699

>  <SCORE.INTRA.POLAR>
0

>  <SCORE.INTRA.POLAR.0>
0

>  <SCORE.INTRA.REPUL>
0

>  <SCORE.INTRA.REPUL.0>
0

>  <SCORE.INTRA.SOLV>
0.00963654

>  <SCORE.INTRA.SOLV.lig_0>
-48.6447

>  <SCORE.INTRA.VDW>
-2.82352

>  <SCORE.INTRA.VDW.0>
-0.0211724

>  <SCORE.INTRA.norm>
-0.244782

>  <SCORE.RESTR>
0

>  <SCORE.RESTR.CAVITY>
0

>  <SCORE.RESTR.norm>
0

>  <SCORE.SYSTEM>
0

>  <SCORE.SYSTEM.CONST>
0

>  <SCORE.SYSTEM.DIHEDRAL>
0

>  <SCORE.SYSTEM.SOLV>
0

>  <SCORE.SYSTEM.norm>
0

>  <SCORE.heavy>
27

>  <SCORE.norm>
-0.950122

>  <RMSD>
5.899

$$$$
ligand
 OpenBabel11021811483D
libRbt.so/2013.1/901 2013/11/27
 27 29  0  0  0  0  0  0  0  0999 V2000
   49.5053   53.2960   32.2383 N   0  0  0  0  0  0  0  0  0  0  0  0
   48.6170   54.4174   32.5193 C   0  0  2  0  0  0  0  0  0  0  0  0
   48.7012   54.8133   33.9841 C   0  0  0  0  0  0  0  0  0  0  0  0
   49.3311   55.8125   34.3226 O   0  0  0  0  0  0  0  0  0  0  0  0
   47.1708   54.1078   32.1353 C   0  0  0  0  0  0  0  0  0  0  0  0
   46.2574   55.3247   32.0484 C   0  0  0  0  0  0  0  0  0  0  0  0
   45.9901   56.1792   33.6262 S   0  0  2  0  0  0  0  0  0  0  0  0
   44.7488   55.1119   34.3974 C   0  0  0  0  0  0  0  0  0  0  0  0
   44.9481   57.5563   33.0769 C   0  0  0  0  0  0  0  0  0  0  0  0
   45.8240   58.7229   32.6451 C   0  0  1  0  0  0  0  0  0  0  0  0
   46.9180   58.2082   31.9250 O   0  0  0  0  0  0  0  0  0  0  0  0
   45.1535   59.6966   31.6970 C   0  0  1  0  0  0  0  0  0  0  0  0
   44.6551   60.8044   32.4063 O   0  0  0  0  0  0  0  0  0  0  0  0
   46.2748   60.1149   30.7632 C   0  0  1  0  0  0  0  0  0  0  0  0
   46.6994   61.4144   31.1004 O   0  0  0  0  0  0  0  0  0  0  0  0
   47.4118   59.1245   30.9815 C   0  0  2  0  0  0  0  0  0  0  0  0
   48.1381   54.1449   34.8516 O   0  0  0  0  0  0  0  0  0  0  0  0
   50.1368   55.3051   28.6003 N   0  0  0  0  0  0  0  0  0  0  0  0
   50.1903   55.6977   29.9225 C   0  0  0  0  0  0  0  0  0  0  0  0
   49.3946   56.7329   30.3780 N   0  0  0  0  0  0  0  0  0  0  0  0
   48.5603   57.3795   29.5346 C   0  0  0  0  0  0  0  0  0  0  0  0
   48.4850   56.9970   28.2034 C   0  0  0  0  0  0  0  0  0  0  0  0
   49.2830   55.9564   27.7354 C   0  0  0  0  0  0  0  0  0  0  0  0
   49.2291   55.5803   26.4603 N   0  0  0  0  0  0  0  0  0  0  0  0
   47.5749   57.7931   27.5993 N   0  0  0  0  0  0  0  0  0  0  0  0
   47.0685   58.6517   28.5154 C   0  0  0  0  0  0  0  0  0  0  0  0
   47.6708   58.4072   29.7217 N   0  0  0  0  0  0  0  0  0  0  0  0
  2  1  1  1  0  0  0
  2  3  1  0  0  0  0
  2  5  1  0  0  0  0
  3  4  1  0  0  0  0
  3 17  1  0  0  0  0
  5  6  1  0  0  0  0
  7  6  1  6  0  0  0
  7  8  1  0  0  0  0
  7  9  1  0  0  0  0
 10  9  1  6  0  0  0
 10 11  1  0  0  0  0
 10 12  1  0  0  0  0
 11 16  1  0  0  0  0
 12 13  1  1  0  0  0
 12 14  1  0  0  0  0
 14 15  1  1  0  0  0
 14 16  1  0  0  0  0
 16 27  1  6  0  0  0
 18 19  2  0  0  0  0
 18 23  1  0  0  0  0
 19 20  1  0  0  0  0
 20 21  2  0  0  0  0
 21 22  1  0  0  0  0
 21 27  1  0  0  0  0
 22 23  2  0  0  0  0
 22 25  1  0  0  0  0
 23 24  1  0  0  0  0
 25 26  2  0  0  0  0
 26 27  1  0  0  0  0
M  END
>  <CHROM.1>
103.46886031,-164.57654534,-65.02708301,-79.37496029,-88.08396628,40.94844464
-61.88152329,47.43874173,56.92007371,31.36945816,-2.01763458,0.89776263,-0.86969358

>  <Name>
ligand

>  <RI>
0

>  <Rbt.Current_Directory>
/home/itssahil/PROJECTS/Mol_Feturizer/New_Systems/rnas/3GX7

>  <Rbt.Executable>
rbdock ($Id: //depot/dev/client3/rdock/2013.1/src/exe/rbdock.cxx#4 $)

>  <Rbt.Library>
libRbt.so (2013.1, Build901 2013/11/27)

>  <Rbt.Parameter_File>
/export/apps/rDock/src/rDock_2013.1_src/data/scripts/dock_solv.prm

>  <Rbt.Receptor>
prm/pocket_docking_3.prm

>  <SCORE>
-16.7967

>  <SCORE.INTER>
-10.9076

>  <SCORE.INTER.CONST>
1

>  <SCORE.INTER.POLAR>
0

>  <SCORE.INTER.ROT>
7

>  <SCORE.INTER.SOLV>
18.2976

>  <SCORE.INTER.VDW>
-21.6376

>  <SCORE.INTER.norm>
-0.403985

>  <SCORE.INTRA>
-5.88906

>  <SCORE.INTRA.DIHEDRAL>
-4.5402

>  <SCORE.INTRA.DIHEDRAL.0>
11.2699

>  <SCORE.INTRA.POLAR>
0

>  <SCORE.INTRA.POLAR.0>
0

>  <SCORE.INTRA.REPUL>
0

>  <SCORE.INTRA.REPUL.0>
0

>  <SCORE.INTRA.SOLV>
-0.339803

>  <SCORE.INTRA.SOLV.lig_0>
-48.6447

>  <SCORE.INTRA.VDW>
-3.44906

>  <SCORE.INTRA.VDW.0>
-0.0211724

>  <SCORE.INTRA.norm>
-0.218113

>  <SCORE.RESTR>
0

>  <SCORE.RESTR.CAVITY>
0

>  <SCORE.RESTR.norm>
0

>  <SCORE.SYSTEM>
0

>  <SCORE.SYSTEM.CONST>
0

>  <SCORE.SYSTEM.DIHEDRAL>
0

>  <SCORE.SYSTEM.SOLV>
0

>  <SCORE.SYSTEM.norm>
0

>  <SCORE.heavy>
27

>  <SCORE.norm>
-0.622099

>  <RMSD>
5.903

$$$$
ligand
 OpenBabel11021811483D
libRbt.so/2013.1/901 2013/11/27
 27 29  0  0  0  0  0  0  0  0999 V2000
   48.2349   52.9705   32.2317 N   0  0  0  0  0  0  0  0  0  0  0  0
   47.4874   54.1993   32.4699 C   0  0  2  0  0  0  0  0  0  0  0  0
   45.9932   53.9492   32.3489 C   0  0  0  0  0  0  0  0  0  0  0  0
   45.4862   53.7334   31.2506 O   0  0  0  0  0  0  0  0  0  0  0  0
   47.9166   55.3191   31.5230 C   0  0  0  0  0  0  0  0  0  0  0  0
   49.1292   56.1183   31.9853 C   0  0  0  0  0  0  0  0  0  0  0  0
   48.8324   57.1629   33.4386 S   0  0  2  0  0  0  0  0  0  0  0  0
   48.7415   55.9204   34.7512 C   0  0  0  0  0  0  0  0  0  0  0  0
   47.0736   57.5380   33.2149 C   0  0  0  0  0  0  0  0  0  0  0  0
   46.9161   58.7114   32.2594 C   0  0  1  0  0  0  0  0  0  0  0  0
   47.6212   58.4143   31.0783 O   0  0  0  0  0  0  0  0  0  0  0  0
   45.4921   58.9716   31.8110 C   0  0  1  0  0  0  0  0  0  0  0  0
   44.9149   59.9938   32.5863 O   0  0  0  0  0  0  0  0  0  0  0  0
   45.6476   59.4133   30.3671 C   0  0  1  0  0  0  0  0  0  0  0  0
   45.4639   60.8069   30.2855 O   0  0  0  0  0  0  0  0  0  0  0  0
   47.0693   59.0522   29.9550 C   0  0  2  0  0  0  0  0  0  0  0  0
   45.2702   53.9537   33.3456 O   0  0  0  0  0  0  0  0  0  0  0  0
   49.6269   55.3107   27.2823 N   0  0  0  0  0  0  0  0  0  0  0  0
   50.0708   56.0453   28.3631 C   0  0  0  0  0  0  0  0  0  0  0  0
   49.2545   56.9980   28.9448 N   0  0  0  0  0  0  0  0  0  0  0  0
   48.0151   57.2289   28.4588 C   0  0  0  0  0  0  0  0  0  0  0  0
   47.5457   56.4974   27.3778 C   0  0  0  0  0  0  0  0  0  0  0  0
   48.3608   55.5367   26.7851 C   0  0  0  0  0  0  0  0  0  0  0  0
   47.9299   54.8302   25.7432 N   0  0  0  0  0  0  0  0  0  0  0  0
   46.2894   56.9195   27.1121 N   0  0  0  0  0  0  0  0  0  0  0  0
   45.9540   57.8821   28.0030 C   0  0  0  0  0  0  0  0  0  0  0  0
   47.0154   58.0854   28.8455 N   0  0  0  0  0  0  0  0  0  0  0  0
  2  1  1  6  0  0  0
  2  3  1  0  0  0  0
  2  5  1  0  0  0  0
  3  4  1  0  0  0  0
  3 17  1  0  0  0  0
  5  6  1  0  0  0  0
  7  6  1  6  0  0  0
  7  8  1  0  0  0  0
  7  9  1  0  0  0  0
 10  9  1  1  0  0  0
 10 11  1  0  0  0  0
 10 12  1  0  0  0  0
 11 16  1  0  0  0  0
 12 13  1  1  0  0  0
 12 14  1  0  0  0  0
 14 15  1  1  0  0  0
 14 16  1  0  0  0  0
 16 27  1  6  0  0  0
 18 19  2  0  0  0  0
 18 23  1  0  0  0  0
 19 20  1  0  0  0  0
 20 21  2  0  0  0  0
 21 22  1  0  0  0  0
 21 27  1  0  0  0  0
 22 23  2  0  0  0  0
 22 25  1  0  0  0  0
 23 24  1  0  0  0  0
 25 26  2  0  0  0  0
 26 27  1  0  0  0  0
M  END
>  <CHROM.1>
-71.16790111,-85.04632698,-69.10733157,73.04294697,-83.64404599,53.50222251
-45.45133881,47.34320936,56.75874576,30.66646427,-1.92837146,1.19683155,-1.23441585

>  <Name>
ligand

>  <RI>
0

>  <Rbt.Current_Directory>
/home/itssahil/PROJECTS/Mol_Feturizer/New_Systems/rnas/3GX7

>  <Rbt.Executable>
rbdock ($Id: //depot/dev/client3/rdock/2013.1/src/exe/rbdock.cxx#4 $)

>  <Rbt.Library>
libRbt.so (2013.1, Build901 2013/11/27)

>  <Rbt.Parameter_File>
/export/apps/rDock/src/rDock_2013.1_src/data/scripts/dock_solv.prm

>  <Rbt.Receptor>
prm/pocket_docking_3.prm

>  <SCORE>
-10.4485

>  <SCORE.INTER>
-7.27835

>  <SCORE.INTER.CONST>
1

>  <SCORE.INTER.POLAR>
0

>  <SCORE.INTER.ROT>
7

>  <SCORE.INTER.SOLV>
13.9655

>  <SCORE.INTER.VDW>
-17.7741

>  <SCORE.INTER.norm>
-0.269569

>  <SCORE.INTRA>
-3.17016

>  <SCORE.INTRA.DIHEDRAL>
-3.57626

>  <SCORE.INTRA.DIHEDRAL.0>
11.2699

>  <SCORE.INTRA.POLAR>
0

>  <SCORE.INTRA.POLAR.0>
0

>  <SCORE.INTRA.REPUL>
0

>  <SCORE.INTRA.REPUL.0>
0

>  <SCORE.INTRA.SOLV>
0.474511

>  <SCORE.INTRA.SOLV.lig_0>
-48.6447

>  <SCORE.INTRA.VDW>
-1.61929

>  <SCORE.INTRA.VDW.0>
-0.0211724

>  <SCORE.INTRA.norm>
-0.117413

>  <SCORE.RESTR>
0

>  <SCORE.RESTR.CAVITY>
0

>  <SCORE.RESTR.norm>
0

>  <SCORE.SYSTEM>
0

>  <SCORE.SYSTEM.CONST>
0

>  <SCORE.SYSTEM.DIHEDRAL>
0

>  <SCORE.SYSTEM.SOLV>
0

>  <SCORE.SYSTEM.norm>
0

>  <SCORE.heavy>
27

>  <SCORE.norm>
-0.386982

>  <RMSD>
5.904

$$$$
ligand
 OpenBabel11021811483D
libRbt.so/2013.1/901 2013/11/27
 27 29  0  0  0  0  0  0  0  0999 V2000
   45.8348   56.5550   29.1190 N   0  0  0  0  0  0  0  0  0  0  0  0
   46.9608   57.3514   29.5915 C   0  0  2  0  0  0  0  0  0  0  0  0
   47.6571   58.0376   28.4278 C   0  0  0  0  0  0  0  0  0  0  0  0
   48.4792   58.9275   28.6328 O   0  0  0  0  0  0  0  0  0  0  0  0
   47.9589   56.5105   30.3862 C   0  0  0  0  0  0  0  0  0  0  0  0
   48.9640   57.3134   31.2034 C   0  0  0  0  0  0  0  0  0  0  0  0
   48.2774   58.0818   32.6965 S   0  0  2  0  0  0  0  0  0  0  0  0
   49.6707   59.1016   33.2386 C   0  0  0  0  0  0  0  0  0  0  0  0
   48.4056   56.6993   33.8611 C   0  0  0  0  0  0  0  0  0  0  0  0
   47.3343   55.6647   33.5502 C   0  0  1  0  0  0  0  0  0  0  0  0
   47.5404   54.5531   34.3881 O   0  0  0  0  0  0  0  0  0  0  0  0
   45.9178   56.1179   33.8410 C   0  0  1  0  0  0  0  0  0  0  0  0
   45.3010   56.5792   32.6638 O   0  0  0  0  0  0  0  0  0  0  0  0
   45.2374   54.8593   34.3481 C   0  0  1  0  0  0  0  0  0  0  0  0
   44.3996   54.3460   33.3396 O   0  0  0  0  0  0  0  0  0  0  0  0
   46.3472   53.8625   34.6580 C   0  0  2  0  0  0  0  0  0  0  0  0
   47.4134   57.7111   27.2657 O   0  0  0  0  0  0  0  0  0  0  0  0
   48.4877   54.6842   39.3937 N   0  0  0  0  0  0  0  0  0  0  0  0
   48.8494   55.2397   38.1831 C   0  0  0  0  0  0  0  0  0  0  0  0
   48.1684   54.9039   37.0273 N   0  0  0  0  0  0  0  0  0  0  0  0
   47.1455   54.0220   37.0653 C   0  0  0  0  0  0  0  0  0  0  0  0
   46.7602   53.4569   38.2720 C   0  0  0  0  0  0  0  0  0  0  0  0
   47.4406   53.7882   39.4407 C   0  0  0  0  0  0  0  0  0  0  0  0
   47.0894   53.2510   40.6061 N   0  0  0  0  0  0  0  0  0  0  0  0
   45.7184   52.6321   38.0239 N   0  0  0  0  0  0  0  0  0  0  0  0
   45.4315   52.6756   36.7016 C   0  0  0  0  0  0  0  0  0  0  0  0
   46.3092   53.5342   36.0931 N   0  0  0  0  0  0  0  0  0  0  0  0
  2  1  1  6  0  0  0
  2  3  1  0  0  0  0
  2  5  1  0  0  0  0
  3  4  1  0  0  0  0
  3 17  1  0  0  0  0
  5  6  1  0  0  0  0
  7  6  1  6  0  0  0
  7  8  1  0  0  0  0
  7  9  1  0  0  0  0
 10  9  1  1  0  0  0
 10 11  1  0  0  0  0
 10 12  1  0  0  0  0
 11 16  1  0  0  0  0
 12 13  1  6  0  0  0
 12 14  1  0  0  0  0
 14 15  1  6  0  0  0
 14 16  1  0  0  0  0
 16 27  1  1  0  0  0
 18 19  2  0  0  0  0
 18 23  1  0  0  0  0
 19 20  1  0  0  0  0
 20 21  2  0  0  0  0
 21 22  1  0  0  0  0
 21 27  1  0  0  0  0
 22 23  2  0  0  0  0
 22 25  1  0  0  0  0
 23 24  1  0  0  0  0
 25 26  2  0  0  0  0
 26 27  1  0  0  0  0
M  END
>  <CHROM.1>
167.52079352,-165.26202546,74.09475404,-172.41299499,-74.32497543,174.58842597
11.49813326,47.20544785,55.75162588,33.94966761,1.48405458,-0.67850542,-1.18775511

>  <Name>
ligand

>  <RI>
0

>  <Rbt.Current_Directory>
/home/itssahil/PROJECTS/Mol_Feturizer/New_Systems/rnas/3GX7

>  <Rbt.Executable>
rbdock ($Id: //depot/dev/client3/rdock/2013.1/src/exe/rbdock.cxx#4 $)

>  <Rbt.Library>
libRbt.so (2013.1, Build901 2013/11/27)

>  <Rbt.Parameter_File>
/export/apps/rDock/src/rDock_2013.1_src/data/scripts/dock_solv.prm

>  <Rbt.Receptor>
prm/pocket_docking_6.prm

>  <SCORE>
-25.5812

>  <SCORE.INTER>
-19.3015

>  <SCORE.INTER.CONST>
1

>  <SCORE.INTER.POLAR>
0

>  <SCORE.INTER.ROT>
7

>  <SCORE.INTER.SOLV>
6.85732

>  <SCORE.INTER.VDW>
-23.4201

>  <SCORE.INTER.norm>
-0.714869

>  <SCORE.INTRA>
-6.28588

>  <SCORE.INTRA.DIHEDRAL>
-5.66548

>  <SCORE.INTRA.DIHEDRAL.0>
11.2699

>  <SCORE.INTRA.POLAR>
0

>  <SCORE.INTRA.POLAR.0>
0

>  <SCORE.INTRA.REPUL>
0

>  <SCORE.INTRA.REPUL.0>
0

>  <SCORE.INTRA.SOLV>
0.0994797

>  <SCORE.INTRA.SOLV.lig_0>
-48.6447

>  <SCORE.INTRA.VDW>
-3.50288

>  <SCORE.INTRA.VDW.0>
-0.0211724

>  <SCORE.INTRA.norm>
-0.23281

>  <SCORE.RESTR>
0.00612946

>  <SCORE.RESTR.CAVITY>
0.00612946

>  <SCORE.RESTR.norm>
0.000227017

>  <SCORE.SYSTEM>
0

>  <SCORE.SYSTEM.CONST>
0

>  <SCORE.SYSTEM.DIHEDRAL>
0

>  <SCORE.SYSTEM.SOLV>
0

>  <SCORE.SYSTEM.norm>
0

>  <SCORE.heavy>
27

>  <SCORE.norm>
-0.947453

>  <RMSD>
5.913

$$$$
ligand
 OpenBabel11021811483D
libRbt.so/2013.1/901 2013/11/27
 27 29  0  0  0  0  0  0  0  0999 V2000
   46.5709   54.5194   32.7713 N   0  0  0  0  0  0  0  0  0  0  0  0
   47.9040   54.8967   32.3174 C   0  0  2  0  0  0  0  0  0  0  0  0
   48.6945   53.6683   31.8982 C   0  0  0  0  0  0  0  0  0  0  0  0
   48.1258   52.5933   31.7229 O   0  0  0  0  0  0  0  0  0  0  0  0
   48.6675   55.6810   33.3837 C   0  0  0  0  0  0  0  0  0  0  0  0
   48.1440   57.0892   33.6394 C   0  0  0  0  0  0  0  0  0  0  0  0
   48.4721   58.2688   32.3006 S   0  0  2  0  0  0  0  0  0  0  0  0
   49.9174   59.1431   32.9498 C   0  0  0  0  0  0  0  0  0  0  0  0
   47.1736   59.4917   32.6202 C   0  0  0  0  0  0  0  0  0  0  0  0
   45.8678   59.0312   31.9898 C   0  0  1  0  0  0  0  0  0  0  0  0
   46.0742   58.8890   30.6051 O   0  0  0  0  0  0  0  0  0  0  0  0
   45.3883   57.6716   32.4566 C   0  0  1  0  0  0  0  0  0  0  0  0
   44.4262   57.8152   33.4728 O   0  0  0  0  0  0  0  0  0  0  0  0
   44.7692   57.0644   31.2107 C   0  0  1  0  0  0  0  0  0  0  0  0
   43.3661   57.1106   31.3197 O   0  0  0  0  0  0  0  0  0  0  0  0
   45.2271   57.9225   30.0379 C   0  0  2  0  0  0  0  0  0  0  0  0
   49.9119   53.7309   31.7234 O   0  0  0  0  0  0  0  0  0  0  0  0
   46.1361   53.0748   28.2056 N   0  0  0  0  0  0  0  0  0  0  0  0
   45.2218   53.4711   29.1606 C   0  0  0  0  0  0  0  0  0  0  0  0
   45.1205   54.8018   29.5231 N   0  0  0  0  0  0  0  0  0  0  0  0
   45.9198   55.7308   28.9542 C   0  0  0  0  0  0  0  0  0  0  0  0
   46.8408   55.3561   27.9872 C   0  0  0  0  0  0  0  0  0  0  0  0
   46.9507   54.0185   27.6163 C   0  0  0  0  0  0  0  0  0  0  0  0
   47.8330   53.6398   26.6954 N   0  0  0  0  0  0  0  0  0  0  0  0
   47.4894   56.4718   27.5852 N   0  0  0  0  0  0  0  0  0  0  0  0
   46.9919   57.5342   28.2608 C   0  0  0  0  0  0  0  0  0  0  0  0
   46.0167   57.0899   29.1148 N   0  0  0  0  0  0  0  0  0  0  0  0
  2  1  1  1  0  0  0
  2  3  1  0  0  0  0
  2  5  1  0  0  0  0
  3  4  1  0  0  0  0
  3 17  1  0  0  0  0
  5  6  1  0  0  0  0
  7  6  1  1  0  0  0
  7  8  1  0  0  0  0
  7  9  1  0  0  0  0
 10  9  1  1  0  0  0
 10 11  1  0  0  0  0
 10 12  1  0  0  0  0
 11 16  1  0  0  0  0
 12 13  1  1  0  0  0
 12 14  1  0  0  0  0
 14 15  1  1  0  0  0
 14 16  1  0  0  0  0
 16 27  1  6  0  0  0
 18 19  2  0  0  0  0
 18 23  1  0  0  0  0
 19 20  1  0  0  0  0
 20 21  2  0  0  0  0
 21 22  1  0  0  0  0
 21 27  1  0  0  0  0
 22 23  2  0  0  0  0
 22 25  1  0  0  0  0
 23 24  1  0  0  0  0
 25 26  2  0  0  0  0
 26 27  1  0  0  0  0
M  END
>  <CHROM.1>
13.99422771,-70.33039349,-71.28359481,-99.79864664,-83.38152051,-59.60888147
139.80048535,46.87462870,56.26473532,30.87130700,-1.51563950,0.74365754,-2.41061953

>  <Name>
ligand

>  <RI>
0

>  <Rbt.Current_Directory>
/home/itssahil/PROJECTS/Mol_Feturizer/New_Systems/rnas/3GX7

>  <Rbt.Executable>
rbdock ($Id: //depot/dev/client3/rdock/2013.1/src/exe/rbdock.cxx#4 $)

>  <Rbt.Library>
libRbt.so (2013.1, Build901 2013/11/27)

>  <Rbt.Parameter_File>
/export/apps/rDock/src/rDock_2013.1_src/data/scripts/dock_solv.prm

>  <Rbt.Receptor>
prm/pocket_docking_7.prm

>  <SCORE>
-15.9139

>  <SCORE.INTER>
-11.4368

>  <SCORE.INTER.CONST>
1

>  <SCORE.INTER.POLAR>
0

>  <SCORE.INTER.ROT>
7

>  <SCORE.INTER.SOLV>
6.70065

>  <SCORE.INTER.VDW>
-18.1248

>  <SCORE.INTER.norm>
-0.423585

>  <SCORE.INTRA>
-4.47712

>  <SCORE.INTRA.DIHEDRAL>
-4.24246

>  <SCORE.INTRA.DIHEDRAL.0>
11.2699

>  <SCORE.INTRA.POLAR>
0

>  <SCORE.INTRA.POLAR.0>
0

>  <SCORE.INTRA.REPUL>
0

>  <SCORE.INTRA.REPUL.0>
0

>  <SCORE.INTRA.SOLV>
2.38197

>  <SCORE.INTRA.SOLV.lig_0>
-48.6447

>  <SCORE.INTRA.VDW>
-3.54688

>  <SCORE.INTRA.VDW.0>
-0.0211724

>  <SCORE.INTRA.norm>
-0.165819

>  <SCORE.RESTR>
0

>  <SCORE.RESTR.CAVITY>
0

>  <SCORE.RESTR.norm>
0

>  <SCORE.SYSTEM>
0

>  <SCORE.SYSTEM.CONST>
0

>  <SCORE.SYSTEM.DIHEDRAL>
0

>  <SCORE.SYSTEM.SOLV>
0

>  <SCORE.SYSTEM.norm>
0

>  <SCORE.heavy>
27

>  <SCORE.norm>
-0.589405

>  <RMSD>
5.914

$$$$
ligand
 OpenBabel11021811483D
libRbt.so/2013.1/901 2013/11/27
 27 29  0  0  0  0  0  0  0  0999 V2000
   46.7277   59.1637   30.2272 N   0  0  0  0  0  0  0  0  0  0  0  0
   47.6640   58.4720   29.3496 C   0  0  2  0  0  0  0  0  0  0  0  0
   47.0377   58.2243   27.9872 C   0  0  0  0  0  0  0  0  0  0  0  0
   47.5806   58.6444   26.9680 O   0  0  0  0  0  0  0  0  0  0  0  0
   48.1488   57.1568   29.9580 C   0  0  0  0  0  0  0  0  0  0  0  0
   48.9472   57.3046   31.2477 C   0  0  0  0  0  0  0  0  0  0  0  0
   48.0423   58.0958   32.6066 S   0  0  2  0  0  0  0  0  0  0  0  0
   48.8586   59.7093   32.6791 C   0  0  0  0  0  0  0  0  0  0  0  0
   48.8074   57.2730   34.0284 C   0  0  0  0  0  0  0  0  0  0  0  0
   48.3205   55.8340   34.1124 C   0  0  1  0  0  0  0  0  0  0  0  0
   48.8529   55.2573   35.2804 O   0  0  0  0  0  0  0  0  0  0  0  0
   46.8188   55.6844   34.2505 C   0  0  1  0  0  0  0  0  0  0  0  0
   46.2362   55.4264   32.9963 O   0  0  0  0  0  0  0  0  0  0  0  0
   46.6626   54.4892   35.1732 C   0  0  1  0  0  0  0  0  0  0  0  0
   46.2648   53.3690   34.4186 O   0  0  0  0  0  0  0  0  0  0  0  0
   48.0322   54.2383   35.7918 C   0  0  2  0  0  0  0  0  0  0  0  0
   45.9831   57.5972   27.8823 O   0  0  0  0  0  0  0  0  0  0  0  0
   45.3623   53.0359   40.1633 N   0  0  0  0  0  0  0  0  0  0  0  0
   45.1018   52.6427   38.8662 C   0  0  0  0  0  0  0  0  0  0  0  0
   45.9181   53.0600   37.8309 N   0  0  0  0  0  0  0  0  0  0  0  0
   46.9764   53.8644   38.0729 C   0  0  0  0  0  0  0  0  0  0  0  0
   47.2611   54.2660   39.3696 C   0  0  0  0  0  0  0  0  0  0  0  0
   46.4443   53.8516   40.4184 C   0  0  0  0  0  0  0  0  0  0  0  0
   46.6982   54.2325   41.6677 N   0  0  0  0  0  0  0  0  0  0  0  0
   48.3654   55.0443   39.3243 N   0  0  0  0  0  0  0  0  0  0  0  0
   48.7879   55.1294   38.0409 C   0  0  0  0  0  0  0  0  0  0  0  0
   47.9354   54.4022   37.2522 N   0  0  0  0  0  0  0  0  0  0  0  0
  2  1  1  1  0  0  0
  2  3  1  0  0  0  0
  2  5  1  0  0  0  0
  3  4  1  0  0  0  0
  3 17  1  0  0  0  0
  5  6  1  0  0  0  0
  7  6  1  6  0  0  0
  7  8  1  0  0  0  0
  7  9  1  0  0  0  0
 10  9  1  1  0  0  0
 10 11  1  0  0  0  0
 10 12  1  0  0  0  0
 11 16  1  0  0  0  0
 12 13  1  6  0  0  0
 12 14  1  0  0  0  0
 14 15  1  6  0  0  0
 14 16  1  0  0  0  0
 16 27  1  1  0  0  0
 18 19  2  0  0  0  0
 18 23  1  0  0  0  0
 19 20  1  0  0  0  0
 20 21  2  0  0  0  0
 21 22  1  0  0  0  0
 21 27  1  0  0  0  0
 22 23  2  0  0  0  0
 22 25  1  0  0  0  0
 23 24  1  0  0  0  0
 25 26  2  0  0  0  0
 26 27  1  0  0  0  0
M  END
>  <CHROM.1>
123.25081649,-63.54063484,60.27692162,-108.02769583,-72.92510551,-175.61719120
161.15413152,47.36564645,55.91829077,34.42014942,-1.46953666,0.81896083,1.92104289

>  <Name>
ligand

>  <RI>
0

>  <Rbt.Current_Directory>
/home/itssahil/PROJECTS/Mol_Feturizer/New_Systems/rnas/3GX7

>  <Rbt.Executable>
rbdock ($Id: //depot/dev/client3/rdock/2013.1/src/exe/rbdock.cxx#4 $)

>  <Rbt.Library>
libRbt.so (2013.1, Build901 2013/11/27)

>  <Rbt.Parameter_File>
/export/apps/rDock/src/rDock_2013.1_src/data/scripts/dock_solv.prm

>  <Rbt.Receptor>
prm/pocket_docking_8.prm

>  <SCORE>
-22.0383

>  <SCORE.INTER>
-18.2851

>  <SCORE.INTER.CONST>
1

>  <SCORE.INTER.POLAR>
0

>  <SCORE.INTER.ROT>
7

>  <SCORE.INTER.SOLV>
13.7429

>  <SCORE.INTER.VDW>
-25.0377

>  <SCORE.INTER.norm>
-0.677226

>  <SCORE.INTRA>
-3.75316

>  <SCORE.INTRA.DIHEDRAL>
-4.70533

>  <SCORE.INTRA.DIHEDRAL.0>
11.2699

>  <SCORE.INTRA.POLAR>
0

>  <SCORE.INTRA.POLAR.0>
0

>  <SCORE.INTRA.REPUL>
0

>  <SCORE.INTRA.REPUL.0>
0

>  <SCORE.INTRA.SOLV>
2.22736

>  <SCORE.INTRA.SOLV.lig_0>
-48.6447

>  <SCORE.INTRA.VDW>
-2.51418

>  <SCORE.INTRA.VDW.0>
-0.0211724

>  <SCORE.INTRA.norm>
-0.139006

>  <SCORE.RESTR>
0

>  <SCORE.RESTR.CAVITY>
0

>  <SCORE.RESTR.norm>
0

>  <SCORE.SYSTEM>
0

>  <SCORE.SYSTEM.CONST>
0

>  <SCORE.SYSTEM.DIHEDRAL>
0

>  <SCORE.SYSTEM.SOLV>
0

>  <SCORE.SYSTEM.norm>
0

>  <SCORE.heavy>
27

>  <SCORE.norm>
-0.816232

>  <RMSD>
5.920

$$$$
ligand
 OpenBabel11021811483D
libRbt.so/2013.1/901 2013/11/27
 27 29  0  0  0  0  0  0  0  0999 V2000
   47.6746   54.6481   34.1498 N   0  0  0  0  0  0  0  0  0  0  0  0
   47.9551   54.3991   32.7410 C   0  0  2  0  0  0  0  0  0  0  0  0
   49.4457   54.5055   32.4648 C   0  0  0  0  0  0  0  0  0  0  0  0
   49.9852   53.7454   31.6642 O   0  0  0  0  0  0  0  0  0  0  0  0
   47.1773   55.3475   31.8297 C   0  0  0  0  0  0  0  0  0  0  0  0
   45.6687   55.3488   32.0459 C   0  0  0  0  0  0  0  0  0  0  0  0
   45.1219   56.2378   33.5299 S   0  0  2  0  0  0  0  0  0  0  0  0
   43.6335   55.3065   33.9683 C   0  0  0  0  0  0  0  0  0  0  0  0
   44.3817   57.7084   32.7727 C   0  0  0  0  0  0  0  0  0  0  0  0
   45.4721   58.7098   32.4221 C   0  0  1  0  0  0  0  0  0  0  0  0
   46.3692   58.0895   31.5329 O   0  0  0  0  0  0  0  0  0  0  0  0
   44.9829   59.9427   31.6892 C   0  0  1  0  0  0  0  0  0  0  0  0
   44.7997   61.0067   32.5911 O   0  0  0  0  0  0  0  0  0  0  0  0
   46.1069   60.2489   30.7160 C   0  0  1  0  0  0  0  0  0  0  0  0
   46.8397   61.3554   31.1864 O   0  0  0  0  0  0  0  0  0  0  0  0
   46.9976   59.0133   30.6813 C   0  0  2  0  0  0  0  0  0  0  0  0
   50.1334   55.3546   33.0327 O   0  0  0  0  0  0  0  0  0  0  0  0
   49.4579   55.9051   27.2215 N   0  0  0  0  0  0  0  0  0  0  0  0
   49.8101   56.1784   28.5278 C   0  0  0  0  0  0  0  0  0  0  0  0
   49.0382   57.0292   29.2976 N   0  0  0  0  0  0  0  0  0  0  0  0
   47.9340   57.6110   28.7801 C   0  0  0  0  0  0  0  0  0  0  0  0
   47.5572   57.3450   27.4720 C   0  0  0  0  0  0  0  0  0  0  0  0
   48.3287   56.4904   26.6890 C   0  0  0  0  0  0  0  0  0  0  0  0
   47.9864   56.2289   25.4301 N   0  0  0  0  0  0  0  0  0  0  0  0
   46.4250   58.0399   27.2225 N   0  0  0  0  0  0  0  0  0  0  0  0
   46.0746   58.7204   28.3392 C   0  0  0  0  0  0  0  0  0  0  0  0
   47.0021   58.4643   29.3148 N   0  0  0  0  0  0  0  0  0  0  0  0
  2  1  1  1  0  0  0
  2  3  1  0  0  0  0
  2  5  1  0  0  0  0
  3  4  1  0  0  0  0
  3 17  1  0  0  0  0
  5  6  1  0  0  0  0
  7  6  1  6  0  0  0
  7  8  1  0  0  0  0
  7  9  1  0  0  0  0
 10  9  1  6  0  0  0
 10 11  1  0  0  0  0
 10 12  1  0  0  0  0
 11 16  1  0  0  0  0
 12 13  1  1  0  0  0
 12 14  1  0  0  0  0
 14 15  1  1  0  0  0
 14 16  1  0  0  0  0
 16 27  1  6  0  0  0
 18 19  2  0  0  0  0
 18 23  1  0  0  0  0
 19 20  1  0  0  0  0
 20 21  2  0  0  0  0
 21 22  1  0  0  0  0
 21 27  1  0  0  0  0
 22 23  2  0  0  0  0
 22 25  1  0  0  0  0
 23 24  1  0  0  0  0
 25 26  2  0  0  0  0
 26 27  1  0  0  0  0
M  END
>  <CHROM.1>
142.62327255,-54.92897829,75.67321183,-149.31636308,-81.15552524,59.07152960
-85.57753117,47.01285315,57.11359101,30.86493705,-2.35989904,0.86446945,-0.95803930

>  <Name>
ligand

>  <RI>
0

>  <Rbt.Current_Directory>
/home/itssahil/PROJECTS/Mol_Feturizer/New_Systems/rnas/3GX7

>  <Rbt.Executable>
rbdock ($Id: //depot/dev/client3/rdock/2013.1/src/exe/rbdock.cxx#4 $)

>  <Rbt.Library>
libRbt.so (2013.1, Build901 2013/11/27)

>  <Rbt.Parameter_File>
/export/apps/rDock/src/rDock_2013.1_src/data/scripts/dock_solv.prm

>  <Rbt.Receptor>
prm/pocket_docking_6.prm

>  <SCORE>
-15.0717

>  <SCORE.INTER>
-11.1765

>  <SCORE.INTER.CONST>
1

>  <SCORE.INTER.POLAR>
0

>  <SCORE.INTER.ROT>
7

>  <SCORE.INTER.SOLV>
17.1256

>  <SCORE.INTER.VDW>
-21.4262

>  <SCORE.INTER.norm>
-0.413944

>  <SCORE.INTRA>
-3.89519

>  <SCORE.INTRA.DIHEDRAL>
-3.49001

>  <SCORE.INTRA.DIHEDRAL.0>
11.2699

>  <SCORE.INTRA.POLAR>
0

>  <SCORE.INTRA.POLAR.0>
0

>  <SCORE.INTRA.REPUL>
0

>  <SCORE.INTRA.REPUL.0>
0

>  <SCORE.INTRA.SOLV>
1.45892

>  <SCORE.INTRA.SOLV.lig_0>
-48.6447

>  <SCORE.INTRA.VDW>
-2.87965

>  <SCORE.INTRA.VDW.0>
-0.0211724

>  <SCORE.INTRA.norm>
-0.144266

>  <SCORE.RESTR>
0

>  <SCORE.RESTR.CAVITY>
0

>  <SCORE.RESTR.norm>
0

>  <SCORE.SYSTEM>
0

>  <SCORE.SYSTEM.CONST>
0

>  <SCORE.SYSTEM.DIHEDRAL>
0

>  <SCORE.SYSTEM.SOLV>
0

>  <SCORE.SYSTEM.norm>
0

>  <SCORE.heavy>
27

>  <SCORE.norm>
-0.55821

>  <RMSD>
5.945

$$$$
ligand
 OpenBabel11021811483D
libRbt.so/2013.1/901 2013/11/27
 27 29  0  0  0  0  0  0  0  0999 V2000
   48.2828   53.4664   30.4744 N   0  0  0  0  0  0  0  0  0  0  0  0
   48.6095   54.3493   31.5876 C   0  0  2  0  0  0  0  0  0  0  0  0
   47.8084   53.9724   32.8229 C   0  0  0  0  0  0  0  0  0  0  0  0
   46.6076   53.7275   32.7341 O   0  0  0  0  0  0  0  0  0  0  0  0
   48.3813   55.8184   31.2347 C   0  0  0  0  0  0  0  0  0  0  0  0
   48.6311   56.7968   32.3762 C   0  0  0  0  0  0  0  0  0  0  0  0
   48.6282   58.5432   31.8846 S   0  0  2  0  0  0  0  0  0  0  0  0
   49.8314   59.2363   33.0452 C   0  0  0  0  0  0  0  0  0  0  0  0
   47.0784   59.0922   32.6466 C   0  0  0  0  0  0  0  0  0  0  0  0
   45.9108   58.7690   31.7264 C   0  0  1  0  0  0  0  0  0  0  0  0
   46.2886   59.0870   30.4086 O   0  0  0  0  0  0  0  0  0  0  0  0
   45.5307   57.3027   31.6824 C   0  0  1  0  0  0  0  0  0  0  0  0
   44.4487   57.0524   32.5460 O   0  0  0  0  0  0  0  0  0  0  0  0
   45.1276   57.0817   30.2357 C   0  0  1  0  0  0  0  0  0  0  0  0
   43.7246   56.9972   30.1524 O   0  0  0  0  0  0  0  0  0  0  0  0
   45.6214   58.2957   29.4588 C   0  0  2  0  0  0  0  0  0  0  0  0
   48.3482   53.9017   33.9274 O   0  0  0  0  0  0  0  0  0  0  0  0
   46.8521   54.6578   25.8622 N   0  0  0  0  0  0  0  0  0  0  0  0
   45.7388   54.7142   26.6761 C   0  0  0  0  0  0  0  0  0  0  0  0
   45.5792   55.7545   27.5730 N   0  0  0  0  0  0  0  0  0  0  0  0
   46.5138   56.7253   27.6712 C   0  0  0  0  0  0  0  0  0  0  0  0
   47.6371   56.6927   26.8582 C   0  0  0  0  0  0  0  0  0  0  0  0
   47.8068   55.6486   25.9527 C   0  0  0  0  0  0  0  0  0  0  0  0
   48.8812   55.5972   25.1696 N   0  0  0  0  0  0  0  0  0  0  0  0
   48.3884   57.7767   27.1538 N   0  0  0  0  0  0  0  0  0  0  0  0
   47.7620   58.4936   28.1164 C   0  0  0  0  0  0  0  0  0  0  0  0
   46.5968   57.8532   28.4481 N   0  0  0  0  0  0  0  0  0  0  0  0
  2  1  1  6  0  0  0
  2  3  1  0  0  0  0
  2  5  1  0  0  0  0
  3  4  1  0  0  0  0
  3 17  1  0  0  0  0
  5  6  1  0  0  0  0
  7  6  1  1  0  0  0
  7  8  1  0  0  0  0
  7  9  1  0  0  0  0
 10  9  1  1  0  0  0
 10 11  1  0  0  0  0
 10 12  1  0  0  0  0
 11 16  1  0  0  0  0
 12 13  1  1  0  0  0
 12 14  1  0  0  0  0
 14 15  1  1  0  0  0
 14 16  1  0  0  0  0
 16 27  1  6  0  0  0
 18 19  2  0  0  0  0
 18 23  1  0  0  0  0
 19 20  1  0  0  0  0
 20 21  2  0  0  0  0
 21 22  1  0  0  0  0
 21 27  1  0  0  0  0
 22 23  2  0  0  0  0
 22 25  1  0  0  0  0
 23 24  1  0  0  0  0
 25 26  2  0  0  0  0
 26 27  1  0  0  0  0
M  END
>  <CHROM.1>
-44.78060837,176.88052584,170.34399820,-147.73116600,-83.81255006,-42.39021807
154.07104564,47.11651680,56.66698545,30.13784531,-1.24033804,1.32667892,-2.02027444

>  <Name>
ligand

>  <RI>
0

>  <Rbt.Current_Directory>
/home/itssahil/PROJECTS/Mol_Feturizer/New_Systems/rnas/3GX7

>  <Rbt.Executable>
rbdock ($Id: //depot/dev/client3/rdock/2013.1/src/exe/rbdock.cxx#4 $)

>  <Rbt.Library>
libRbt.so (2013.1, Build901 2013/11/27)

>  <Rbt.Parameter_File>
/export/apps/rDock/src/rDock_2013.1_src/data/scripts/dock_solv.prm

>  <Rbt.Receptor>
prm/pocket_docking_5.prm

>  <SCORE>
-15.7949

>  <SCORE.INTER>
-10.6342

>  <SCORE.INTER.CONST>
1

>  <SCORE.INTER.POLAR>
0

>  <SCORE.INTER.ROT>
7

>  <SCORE.INTER.SOLV>
11.6632

>  <SCORE.INTER.VDW>
-19.2439

>  <SCORE.INTER.norm>
-0.393861

>  <SCORE.INTRA>
-5.16067

>  <SCORE.INTRA.DIHEDRAL>
-2.64543

>  <SCORE.INTRA.DIHEDRAL.0>
11.2699

>  <SCORE.INTRA.POLAR>
0

>  <SCORE.INTRA.POLAR.0>
0

>  <SCORE.INTRA.REPUL>
0

>  <SCORE.INTRA.REPUL.0>
0

>  <SCORE.INTRA.SOLV>
-0.606969

>  <SCORE.INTRA.SOLV.lig_0>
-48.6447

>  <SCORE.INTRA.VDW>
-3.53447

>  <SCORE.INTRA.VDW.0>
-0.0211724

>  <SCORE.INTRA.norm>
-0.191136

>  <SCORE.RESTR>
0

>  <SCORE.RESTR.CAVITY>
0

>  <SCORE.RESTR.norm>
0

>  <SCORE.SYSTEM>
0

>  <SCORE.SYSTEM.CONST>
0

>  <SCORE.SYSTEM.DIHEDRAL>
0

>  <SCORE.SYSTEM.SOLV>
0

>  <SCORE.SYSTEM.norm>
0

>  <SCORE.heavy>
27

>  <SCORE.norm>
-0.584997

>  <RMSD>
5.947

$$$$
ligand
 OpenBabel11021811483D
libRbt.so/2013.1/901 2013/11/27
 27 29  0  0  0  0  0  0  0  0999 V2000
   49.5720   55.5829   31.2411 N   0  0  0  0  0  0  0  0  0  0  0  0
   49.4646   54.9067   32.5282 C   0  0  2  0  0  0  0  0  0  0  0  0
   48.2435   54.0024   32.5577 C   0  0  0  0  0  0  0  0  0  0  0  0
   47.2789   54.2368   31.8335 O   0  0  0  0  0  0  0  0  0  0  0  0
   49.4190   55.8983   33.6899 C   0  0  0  0  0  0  0  0  0  0  0  0
   48.2997   56.9293   33.6075 C   0  0  0  0  0  0  0  0  0  0  0  0
   48.5522   58.2157   32.3535 S   0  0  2  0  0  0  0  0  0  0  0  0
   49.8792   59.1867   33.1093 C   0  0  0  0  0  0  0  0  0  0  0  0
   47.1270   59.2826   32.6916 C   0  0  0  0  0  0  0  0  0  0  0  0
   45.9739   58.9058   31.7733 C   0  0  1  0  0  0  0  0  0  0  0  0
   46.3790   59.1300   30.4444 O   0  0  0  0  0  0  0  0  0  0  0  0
   45.5820   57.4428   31.8224 C   0  0  1  0  0  0  0  0  0  0  0  0
   44.4820   57.2602   32.6801 O   0  0  0  0  0  0  0  0  0  0  0  0
   45.2040   57.1262   30.3867 C   0  0  1  0  0  0  0  0  0  0  0  0
   43.8021   57.0466   30.2825 O   0  0  0  0  0  0  0  0  0  0  0  0
   45.7227   58.2805   29.5382 C   0  0  2  0  0  0  0  0  0  0  0  0
   48.2030   53.0214   33.3009 O   0  0  0  0  0  0  0  0  0  0  0  0
   46.8481   54.5654   25.9863 N   0  0  0  0  0  0  0  0  0  0  0  0
   45.6999   54.7105   26.7384 C   0  0  0  0  0  0  0  0  0  0  0  0
   45.5768   55.7575   27.6333 N   0  0  0  0  0  0  0  0  0  0  0  0
   46.5809   56.6479   27.7901 C   0  0  0  0  0  0  0  0  0  0  0  0
   47.7409   56.5256   27.0395 C   0  0  0  0  0  0  0  0  0  0  0  0
   47.8742   55.4741   26.1366 C   0  0  0  0  0  0  0  0  0  0  0  0
   48.9824   55.3372   25.4131 N   0  0  0  0  0  0  0  0  0  0  0  0
   48.5610   57.5433   27.3843 N   0  0  0  0  0  0  0  0  0  0  0  0
   47.9432   58.3061   28.3166 C   0  0  0  0  0  0  0  0  0  0  0  0
   46.7129   57.7626   28.5790 N   0  0  0  0  0  0  0  0  0  0  0  0
  2  1  1  6  0  0  0
  2  3  1  0  0  0  0
  2  5  1  0  0  0  0
  3  4  1  0  0  0  0
  3 17  1  0  0  0  0
  5  6  1  0  0  0  0
  7  6  1  1  0  0  0
  7  8  1  0  0  0  0
  7  9  1  0  0  0  0
 10  9  1  1  0  0  0
 10 11  1  0  0  0  0
 10 12  1  0  0  0  0
 11 16  1  0  0  0  0
 12 13  1  1  0  0  0
 12 14  1  0  0  0  0
 14 15  1  1  0  0  0
 14 16  1  0  0  0  0
 16 27  1  6  0  0  0
 18 19  2  0  0  0  0
 18 23  1  0  0  0  0
 19 20  1  0  0  0  0
 20 21  2  0  0  0  0
 21 22  1  0  0  0  0
 21 27  1  0  0  0  0
 22 23  2  0  0  0  0
 22 25  1  0  0  0  0
 23 24  1  0  0  0  0
 25 26  2  0  0  0  0
 26 27  1  0  0  0  0
M  END
>  <CHROM.1>
-25.42503251,56.59928360,-72.84390580,-71.81178706,-94.68352766,-62.40000826
160.41733559,47.29243800,56.71249166,30.37854267,-1.29642051,0.91293838,-1.94697671

>  <Name>
ligand

>  <RI>
0

>  <Rbt.Current_Directory>
/home/itssahil/PROJECTS/Mol_Feturizer/New_Systems/rnas/3GX7

>  <Rbt.Executable>
rbdock ($Id: //depot/dev/client3/rdock/2013.1/src/exe/rbdock.cxx#4 $)

>  <Rbt.Library>
libRbt.so (2013.1, Build901 2013/11/27)

>  <Rbt.Parameter_File>
/export/apps/rDock/src/rDock_2013.1_src/data/scripts/dock_solv.prm

>  <Rbt.Receptor>
prm/pocket_docking_4.prm

>  <SCORE>
-18.4193

>  <SCORE.INTER>
-13.1595

>  <SCORE.INTER.CONST>
1

>  <SCORE.INTER.POLAR>
0

>  <SCORE.INTER.ROT>
7

>  <SCORE.INTER.SOLV>
12.1319

>  <SCORE.INTER.VDW>
-21.0836

>  <SCORE.INTER.norm>
-0.487389

>  <SCORE.INTRA>
-5.25976

>  <SCORE.INTRA.DIHEDRAL>
-5.61233

>  <SCORE.INTRA.DIHEDRAL.0>
11.2699

>  <SCORE.INTRA.POLAR>
0

>  <SCORE.INTRA.POLAR.0>
0

>  <SCORE.INTRA.REPUL>
0

>  <SCORE.INTRA.REPUL.0>
0

>  <SCORE.INTRA.SOLV>
1.74892

>  <SCORE.INTRA.SOLV.lig_0>
-48.6447

>  <SCORE.INTRA.VDW>
-3.32806

>  <SCORE.INTRA.VDW.0>
-0.0211724

>  <SCORE.INTRA.norm>
-0.194806

>  <SCORE.RESTR>
0

>  <SCORE.RESTR.CAVITY>
0

>  <SCORE.RESTR.norm>
0

>  <SCORE.SYSTEM>
0

>  <SCORE.SYSTEM.CONST>
0

>  <SCORE.SYSTEM.DIHEDRAL>
0

>  <SCORE.SYSTEM.SOLV>
0

>  <SCORE.SYSTEM.norm>
0

>  <SCORE.heavy>
27

>  <SCORE.norm>
-0.682195

>  <RMSD>
5.948

$$$$
ligand
 OpenBabel11021811483D
libRbt.so/2013.1/901 2013/11/27
 27 29  0  0  0  0  0  0  0  0999 V2000
   49.5854   56.2358   28.5645 N   0  0  0  0  0  0  0  0  0  0  0  0
   48.3230   56.9444   28.7370 C   0  0  2  0  0  0  0  0  0  0  0  0
   48.0289   57.8164   27.5276 C   0  0  0  0  0  0  0  0  0  0  0  0
   47.8353   59.0223   27.6632 O   0  0  0  0  0  0  0  0  0  0  0  0
   48.3121   57.7850   30.0130 C   0  0  0  0  0  0  0  0  0  0  0  0
   48.5334   56.9982   31.2993 C   0  0  0  0  0  0  0  0  0  0  0  0
   48.1442   57.9126   32.8172 S   0  0  2  0  0  0  0  0  0  0  0  0
   49.6801   58.8341   33.0753 C   0  0  0  0  0  0  0  0  0  0  0  0
   48.3367   56.5960   34.0474 C   0  0  0  0  0  0  0  0  0  0  0  0
   47.3133   55.4998   33.7913 C   0  0  1  0  0  0  0  0  0  0  0  0
   47.5622   54.4470   34.6913 O   0  0  0  0  0  0  0  0  0  0  0  0
   45.8767   55.9064   34.0509 C   0  0  1  0  0  0  0  0  0  0  0  0
   45.2478   56.2735   32.8473 O   0  0  0  0  0  0  0  0  0  0  0  0
   45.2484   54.6497   34.6255 C   0  0  1  0  0  0  0  0  0  0  0  0
   44.4399   54.0445   33.6444 O   0  0  0  0  0  0  0  0  0  0  0  0
   46.3985   53.7212   34.9951 C   0  0  2  0  0  0  0  0  0  0  0  0
   47.9848   57.3320   26.3964 O   0  0  0  0  0  0  0  0  0  0  0  0
   48.5426   54.8194   39.6728 N   0  0  0  0  0  0  0  0  0  0  0  0
   48.8977   55.3097   38.4324 C   0  0  0  0  0  0  0  0  0  0  0  0
   48.2167   54.9055   37.2987 N   0  0  0  0  0  0  0  0  0  0  0  0
   47.2005   54.0196   37.3879 C   0  0  0  0  0  0  0  0  0  0  0  0
   46.8220   53.5193   38.6250 C   0  0  0  0  0  0  0  0  0  0  0  0
   47.5023   53.9198   39.7719 C   0  0  0  0  0  0  0  0  0  0  0  0
   47.1575   53.4453   40.9661 N   0  0  0  0  0  0  0  0  0  0  0  0
   45.7859   52.6744   38.4255 N   0  0  0  0  0  0  0  0  0  0  0  0
   45.4959   52.6426   37.1035 C   0  0  0  0  0  0  0  0  0  0  0  0
   46.3659   53.4726   36.4463 N   0  0  0  0  0  0  0  0  0  0  0  0
  2  1  1  6  0  0  0
  2  3  1  0  0  0  0
  2  5  1  0  0  0  0
  3  4  1  0  0  0  0
  3 17  1  0  0  0  0
  5  6  1  0  0  0  0
  7  6  1  6  0  0  0
  7  8  1  0  0  0  0
  7  9  1  0  0  0  0
 10  9  1  1  0  0  0
 10 11  1  0  0  0  0
 10 12  1  0  0  0  0
 11 16  1  0  0  0  0
 12 13  1  6  0  0  0
 12 14  1  0  0  0  0
 14 15  1  6  0  0  0
 14 16  1  0  0  0  0
 16 27  1  1  0  0  0
 18 19  2  0  0  0  0
 18 23  1  0  0  0  0
 19 20  1  0  0  0  0
 20 21  2  0  0  0  0
 21 22  1  0  0  0  0
 21 27  1  0  0  0  0
 22 23  2  0  0  0  0
 22 25  1  0  0  0  0
 23 24  1  0  0  0  0
 25 26  2  0  0  0  0
 26 27  1  0  0  0  0
M  END
>  <CHROM.1>
-123.72659952,-59.05608990,-166.58043723,-83.59023611,-63.02005309,175.19520217
9.38619006,47.39801295,55.67943032,33.97730368,-1.41776393,0.68972152,1.85596421

>  <Name>
ligand

>  <RI>
0

>  <Rbt.Current_Directory>
/home/itssahil/PROJECTS/Mol_Feturizer/New_Systems/rnas/3GX7

>  <Rbt.Executable>
rbdock ($Id: //depot/dev/client3/rdock/2013.1/src/exe/rbdock.cxx#4 $)

>  <Rbt.Library>
libRbt.so (2013.1, Build901 2013/11/27)

>  <Rbt.Parameter_File>
/export/apps/rDock/src/rDock_2013.1_src/data/scripts/dock_solv.prm

>  <Rbt.Receptor>
prm/pocket_docking_7.prm

>  <SCORE>
-25.0838

>  <SCORE.INTER>
-20.0105

>  <SCORE.INTER.CONST>
1

>  <SCORE.INTER.POLAR>
0

>  <SCORE.INTER.ROT>
7

>  <SCORE.INTER.SOLV>
9.08625

>  <SCORE.INTER.VDW>
-24.6357

>  <SCORE.INTER.norm>
-0.741129

>  <SCORE.INTRA>
-5.07334

>  <SCORE.INTRA.DIHEDRAL>
-6.64969

>  <SCORE.INTRA.DIHEDRAL.0>
11.2699

>  <SCORE.INTRA.POLAR>
0

>  <SCORE.INTRA.POLAR.0>
0

>  <SCORE.INTRA.REPUL>
0

>  <SCORE.INTRA.REPUL.0>
0

>  <SCORE.INTRA.SOLV>
-0.158414

>  <SCORE.INTRA.SOLV.lig_0>
-48.6447

>  <SCORE.INTRA.VDW>
-1.66929

>  <SCORE.INTRA.VDW.0>
-0.0211724

>  <SCORE.INTRA.norm>
-0.187901

>  <SCORE.RESTR>
0

>  <SCORE.RESTR.CAVITY>
0

>  <SCORE.RESTR.norm>
0

>  <SCORE.SYSTEM>
0

>  <SCORE.SYSTEM.CONST>
0

>  <SCORE.SYSTEM.DIHEDRAL>
0

>  <SCORE.SYSTEM.SOLV>
0

>  <SCORE.SYSTEM.norm>
0

>  <SCORE.heavy>
27

>  <SCORE.norm>
-0.929031

>  <RMSD>
5.955

$$$$
ligand
 OpenBabel11021811483D
libRbt.so/2013.1/901 2013/11/27
 27 29  0  0  0  0  0  0  0  0999 V2000
   48.2064   54.9082   28.3777 N   0  0  0  0  0  0  0  0  0  0  0  0
   48.7798   56.0791   29.0301 C   0  0  2  0  0  0  0  0  0  0  0  0
   50.0532   55.7087   29.7722 C   0  0  0  0  0  0  0  0  0  0  0  0
   49.9984   55.2581   30.9141 O   0  0  0  0  0  0  0  0  0  0  0  0
   47.7858   56.7448   29.9807 C   0  0  0  0  0  0  0  0  0  0  0  0
   48.2619   58.0601   30.5858 C   0  0  0  0  0  0  0  0  0  0  0  0
   47.2491   58.6644   31.9644 S   0  0  2  0  0  0  0  0  0  0  0  0
   48.0089   60.2768   32.2774 C   0  0  0  0  0  0  0  0  0  0  0  0
   47.9484   57.6980   33.3286 C   0  0  0  0  0  0  0  0  0  0  0  0
   47.3404   56.3034   33.3348 C   0  0  1  0  0  0  0  0  0  0  0  0
   48.0687   55.5104   34.2409 O   0  0  0  0  0  0  0  0  0  0  0  0
   45.9076   56.2432   33.8246 C   0  0  1  0  0  0  0  0  0  0  0  0
   45.0186   56.2319   32.7344 O   0  0  0  0  0  0  0  0  0  0  0  0
   45.8450   54.9305   34.5844 C   0  0  1  0  0  0  0  0  0  0  0  0
   45.1585   53.9772   33.8083 O   0  0  0  0  0  0  0  0  0  0  0  0
   47.2863   54.4852   34.7980 C   0  0  2  0  0  0  0  0  0  0  0  0
   51.1558   55.8487   29.2420 O   0  0  0  0  0  0  0  0  0  0  0  0
   45.5719   52.8790   39.5059 N   0  0  0  0  0  0  0  0  0  0  0  0
   44.9621   52.7298   38.2767 C   0  0  0  0  0  0  0  0  0  0  0  0
   45.5638   53.2210   37.1326 N   0  0  0  0  0  0  0  0  0  0  0  0
   46.7520   53.8605   37.2026 C   0  0  0  0  0  0  0  0  0  0  0  0
   47.3862   54.0153   38.4264 C   0  0  0  0  0  0  0  0  0  0  0  0
   46.7876   53.5249   39.5839 C   0  0  0  0  0  0  0  0  0  0  0  0
   47.3781   53.6702   40.7673 N   0  0  0  0  0  0  0  0  0  0  0  0
   48.5477   54.6707   38.2058 N   0  0  0  0  0  0  0  0  0  0  0  0
   48.6656   54.9172   36.8799 C   0  0  0  0  0  0  0  0  0  0  0  0
   47.5583   54.4202   36.2439 N   0  0  0  0  0  0  0  0  0  0  0  0
  2  1  1  1  0  0  0
  2  3  1  0  0  0  0
  2  5  1  0  0  0  0
  3  4  1  0  0  0  0
  3 17  1  0  0  0  0
  5  6  1  0  0  0  0
  7  6  1  6  0  0  0
  7  8  1  0  0  0  0
  7  9  1  0  0  0  0
 10  9  1  1  0  0  0
 10 11  1  0  0  0  0
 10 12  1  0  0  0  0
 11 16  1  0  0  0  0
 12 13  1  6  0  0  0
 12 14  1  0  0  0  0
 14 15  1  6  0  0  0
 14 16  1  0  0  0  0
 16 27  1  1  0  0  0
 18 19  2  0  0  0  0
 18 23  1  0  0  0  0
 19 20  1  0  0  0  0
 20 21  2  0  0  0  0
 21 22  1  0  0  0  0
 21 27  1  0  0  0  0
 22 23  2  0  0  0  0
 22 25  1  0  0  0  0
 23 24  1  0  0  0  0
 25 26  2  0  0  0  0
 26 27  1  0  0  0  0
M  END
>  <CHROM.1>
-84.71253529,-173.74479521,-167.68953840,-174.35195585,-81.32644267,169.59556340
159.30465495,47.46245832,55.56514986,34.03533124,-1.16287038,-0.96457886
2.29145875

>  <Name>
ligand

>  <RI>
0

>  <Rbt.Current_Directory>
/home/itssahil/PROJECTS/Mol_Feturizer/New_Systems/rnas/3GX7

>  <Rbt.Executable>
rbdock ($Id: //depot/dev/client3/rdock/2013.1/src/exe/rbdock.cxx#4 $)

>  <Rbt.Library>
libRbt.so (2013.1, Build901 2013/11/27)

>  <Rbt.Parameter_File>
/export/apps/rDock/src/rDock_2013.1_src/data/scripts/dock_solv.prm

>  <Rbt.Receptor>
prm/pocket_docking_7.prm

>  <SCORE>
-23.4955

>  <SCORE.INTER>
-17.4774

>  <SCORE.INTER.CONST>
1

>  <SCORE.INTER.POLAR>
0

>  <SCORE.INTER.ROT>
7

>  <SCORE.INTER.SOLV>
6.40533

>  <SCORE.INTER.VDW>
-22.0534

>  <SCORE.INTER.norm>
-0.647313

>  <SCORE.INTRA>
-6.01804

>  <SCORE.INTRA.DIHEDRAL>
-5.9889

>  <SCORE.INTRA.DIHEDRAL.0>
11.2699

>  <SCORE.INTRA.POLAR>
0

>  <SCORE.INTRA.POLAR.0>
0

>  <SCORE.INTRA.REPUL>
0

>  <SCORE.INTRA.REPUL.0>
0

>  <SCORE.INTRA.SOLV>
-0.803995

>  <SCORE.INTRA.SOLV.lig_0>
-48.6447

>  <SCORE.INTRA.VDW>
-2.62159

>  <SCORE.INTRA.VDW.0>
-0.0211724

>  <SCORE.INTRA.norm>
-0.22289

>  <SCORE.RESTR>
0

>  <SCORE.RESTR.CAVITY>
0

>  <SCORE.RESTR.norm>
0

>  <SCORE.SYSTEM>
0

>  <SCORE.SYSTEM.CONST>
0

>  <SCORE.SYSTEM.DIHEDRAL>
0

>  <SCORE.SYSTEM.SOLV>
0

>  <SCORE.SYSTEM.norm>
0

>  <SCORE.heavy>
27

>  <SCORE.norm>
-0.870203

>  <RMSD>
5.961

$$$$
ligand
 OpenBabel11021811483D
libRbt.so/2013.1/901 2013/11/27
 27 29  0  0  0  0  0  0  0  0999 V2000
   48.8618   55.0819   31.7012 N   0  0  0  0  0  0  0  0  0  0  0  0
   48.8517   54.7064   33.1099 C   0  0  2  0  0  0  0  0  0  0  0  0
   47.4973   54.1402   33.5034 C   0  0  0  0  0  0  0  0  0  0  0  0
   46.4805   54.4920   32.9100 O   0  0  0  0  0  0  0  0  0  0  0  0
   49.2190   55.8816   34.0148 C   0  0  0  0  0  0  0  0  0  0  0  0
   48.2759   57.0755   33.9274 C   0  0  0  0  0  0  0  0  0  0  0  0
   48.5515   58.1486   32.4908 S   0  0  2  0  0  0  0  0  0  0  0  0
   50.0064   59.0830   33.0249 C   0  0  0  0  0  0  0  0  0  0  0  0
   47.2504   59.3824   32.7530 C   0  0  0  0  0  0  0  0  0  0  0  0
   46.0045   58.9886   31.9738 C   0  0  1  0  0  0  0  0  0  0  0  0
   46.2863   59.1150   30.6009 O   0  0  0  0  0  0  0  0  0  0  0  0
   45.5779   57.5459   32.1555 C   0  0  1  0  0  0  0  0  0  0  0  0
   44.5606   57.4553   33.1229 O   0  0  0  0  0  0  0  0  0  0  0  0
   45.0551   57.1531   30.7856 C   0  0  1  0  0  0  0  0  0  0  0  0
   43.6480   57.1153   30.8190 O   0  0  0  0  0  0  0  0  0  0  0  0
   45.5224   58.2334   29.8182 C   0  0  2  0  0  0  0  0  0  0  0  0
   47.3978   53.3194   34.4160 O   0  0  0  0  0  0  0  0  0  0  0  0
   46.7855   53.8552   27.1876 N   0  0  0  0  0  0  0  0  0  0  0  0
   45.8050   54.0261   28.1438 C   0  0  0  0  0  0  0  0  0  0  0  0
   45.6130   55.2606   28.7368 N   0  0  0  0  0  0  0  0  0  0  0  0
   46.3870   56.3139   28.3948 C   0  0  0  0  0  0  0  0  0  0  0  0
   47.3736   56.1668   27.4311 C   0  0  0  0  0  0  0  0  0  0  0  0
   47.5749   54.9275   26.8292 C   0  0  0  0  0  0  0  0  0  0  0  0
   48.5210   54.7660   25.9077 N   0  0  0  0  0  0  0  0  0  0  0  0
   47.9789   57.3657   27.2782 N   0  0  0  0  0  0  0  0  0  0  0  0
   47.3911   58.2610   28.1063 C   0  0  0  0  0  0  0  0  0  0  0  0
   46.4010   57.6227   28.8063 N   0  0  0  0  0  0  0  0  0  0  0  0
  2  1  1  6  0  0  0
  2  3  1  0  0  0  0
  2  5  1  0  0  0  0
  3  4  1  0  0  0  0
  3 17  1  0  0  0  0
  5  6  1  0  0  0  0
  7  6  1  1  0  0  0
  7  8  1  0  0  0  0
  7  9  1  0  0  0  0
 10  9  1  1  0  0  0
 10 11  1  0  0  0  0
 10 12  1  0  0  0  0
 11 16  1  0  0  0  0
 12 13  1  1  0  0  0
 12 14  1  0  0  0  0
 14 15  1  1  0  0  0
 14 16  1  0  0  0  0
 16 27  1  6  0  0  0
 18 19  2  0  0  0  0
 18 23  1  0  0  0  0
 19 20  1  0  0  0  0
 20 21  2  0  0  0  0
 21 22  1  0  0  0  0
 21 27  1  0  0  0  0
 22 23  2  0  0  0  0
 22 25  1  0  0  0  0
 23 24  1  0  0  0  0
 25 26  2  0  0  0  0
 26 27  1  0  0  0  0
M  END
>  <CHROM.1>
-28.00940652,60.93023405,-79.42102521,-77.68928780,-94.18339779,-68.38838424
139.79269924,47.05159756,56.59342079,30.84726653,-1.10981533,1.24316536,-2.19044796

>  <Name>
ligand

>  <RI>
0

>  <Rbt.Current_Directory>
/home/itssahil/PROJECTS/Mol_Feturizer/New_Systems/rnas/3GX7

>  <Rbt.Executable>
rbdock ($Id: //depot/dev/client3/rdock/2013.1/src/exe/rbdock.cxx#4 $)

>  <Rbt.Library>
libRbt.so (2013.1, Build901 2013/11/27)

>  <Rbt.Parameter_File>
/export/apps/rDock/src/rDock_2013.1_src/data/scripts/dock_solv.prm

>  <Rbt.Receptor>
prm/pocket_docking_3.prm

>  <SCORE>
-16.6041

>  <SCORE.INTER>
-12.0756

>  <SCORE.INTER.CONST>
1

>  <SCORE.INTER.POLAR>
0

>  <SCORE.INTER.ROT>
7

>  <SCORE.INTER.SOLV>
7.42285

>  <SCORE.INTER.VDW>
-18.7914

>  <SCORE.INTER.norm>
-0.447245

>  <SCORE.INTRA>
-4.52851

>  <SCORE.INTRA.DIHEDRAL>
-4.57542

>  <SCORE.INTRA.DIHEDRAL.0>
11.2699

>  <SCORE.INTRA.POLAR>
0

>  <SCORE.INTRA.POLAR.0>
0

>  <SCORE.INTRA.REPUL>
0

>  <SCORE.INTRA.REPUL.0>
0

>  <SCORE.INTRA.SOLV>
1.77722

>  <SCORE.INTRA.SOLV.lig_0>
-48.6447

>  <SCORE.INTRA.VDW>
-3.12941

>  <SCORE.INTRA.VDW.0>
-0.0211724

>  <SCORE.INTRA.norm>
-0.167723

>  <SCORE.RESTR>
0

>  <SCORE.RESTR.CAVITY>
0

>  <SCORE.RESTR.norm>
0

>  <SCORE.SYSTEM>
0

>  <SCORE.SYSTEM.CONST>
0

>  <SCORE.SYSTEM.DIHEDRAL>
0

>  <SCORE.SYSTEM.SOLV>
0

>  <SCORE.SYSTEM.norm>
0

>  <SCORE.heavy>
27

>  <SCORE.norm>
-0.614968

>  <RMSD>
5.984

$$$$
ligand
 OpenBabel11021811483D
libRbt.so/2013.1/901 2013/11/27
 27 29  0  0  0  0  0  0  0  0999 V2000
   49.7370   56.3273   28.6832 N   0  0  0  0  0  0  0  0  0  0  0  0
   48.4214   56.9358   28.8393 C   0  0  2  0  0  0  0  0  0  0  0  0
   48.0750   57.7810   27.6247 C   0  0  0  0  0  0  0  0  0  0  0  0
   47.8185   58.9760   27.7518 O   0  0  0  0  0  0  0  0  0  0  0  0
   48.3297   57.7743   30.1133 C   0  0  0  0  0  0  0  0  0  0  0  0
   48.5762   57.0042   31.4052 C   0  0  0  0  0  0  0  0  0  0  0  0
   48.2121   57.9366   32.9183 S   0  0  2  0  0  0  0  0  0  0  0  0
   49.7705   58.8217   33.1686 C   0  0  0  0  0  0  0  0  0  0  0  0
   48.3745   56.6229   34.1559 C   0  0  0  0  0  0  0  0  0  0  0  0
   47.3705   55.5171   33.8661 C   0  0  1  0  0  0  0  0  0  0  0  0
   47.5969   54.4682   34.7765 O   0  0  0  0  0  0  0  0  0  0  0  0
   45.9221   55.9112   34.0741 C   0  0  1  0  0  0  0  0  0  0  0  0
   45.3327   56.2706   32.8483 O   0  0  0  0  0  0  0  0  0  0  0  0
   45.2851   54.6499   34.6288 C   0  0  1  0  0  0  0  0  0  0  0  0
   44.5171   54.0359   33.6211 O   0  0  0  0  0  0  0  0  0  0  0  0
   46.4297   53.7324   35.0406 C   0  0  2  0  0  0  0  0  0  0  0  0
   48.0506   57.2856   26.4976 O   0  0  0  0  0  0  0  0  0  0  0  0
   48.4491   54.7970   39.7812 N   0  0  0  0  0  0  0  0  0  0  0  0
   48.8509   55.2794   38.5520 C   0  0  0  0  0  0  0  0  0  0  0  0
   48.1977   54.8863   37.3982 N   0  0  0  0  0  0  0  0  0  0  0  0
   47.1633   54.0190   37.4567 C   0  0  0  0  0  0  0  0  0  0  0  0
   46.7381   53.5271   38.6819 C   0  0  0  0  0  0  0  0  0  0  0  0
   47.3901   53.9165   39.8489 C   0  0  0  0  0  0  0  0  0  0  0  0
   47.0004   53.4496   41.0323 N   0  0  0  0  0  0  0  0  0  0  0  0
   45.6934   52.7009   38.4513 N   0  0  0  0  0  0  0  0  0  0  0  0
   45.4435   52.6728   37.1211 C   0  0  0  0  0  0  0  0  0  0  0  0
   46.3482   53.4861   36.4903 N   0  0  0  0  0  0  0  0  0  0  0  0
  2  1  1  6  0  0  0
  2  3  1  0  0  0  0
  2  5  1  0  0  0  0
  3  4  1  0  0  0  0
  3 17  1  0  0  0  0
  5  6  1  0  0  0  0
  7  6  1  6  0  0  0
  7  8  1  0  0  0  0
  7  9  1  0  0  0  0
 10  9  1  1  0  0  0
 10 11  1  0  0  0  0
 10 12  1  0  0  0  0
 11 16  1  0  0  0  0
 12 13  1  6  0  0  0
 12 14  1  0  0  0  0
 14 15  1  6  0  0  0
 14 16  1  0  0  0  0
 16 27  1  1  0  0  0
 18 19  2  0  0  0  0
 18 23  1  0  0  0  0
 19 20  1  0  0  0  0
 20 21  2  0  0  0  0
 21 22  1  0  0  0  0
 21 27  1  0  0  0  0
 22 23  2  0  0  0  0
 22 25  1  0  0  0  0
 23 24  1  0  0  0  0
 25 26  2  0  0  0  0
 26 27  1  0  0  0  0
M  END
>  <CHROM.1>
-121.94411389,-59.89712932,-170.85513640,-85.43535650,-60.18994175,175.27743428
7.81176343,47.41264225,55.68155234,34.04921105,-1.40181493,0.69399056,1.84448705

>  <Name>
ligand

>  <RI>
0

>  <Rbt.Current_Directory>
/home/itssahil/PROJECTS/Mol_Feturizer/New_Systems/rnas/3GX7

>  <Rbt.Executable>
rbdock ($Id: //depot/dev/client3/rdock/2013.1/src/exe/rbdock.cxx#4 $)

>  <Rbt.Library>
libRbt.so (2013.1, Build901 2013/11/27)

>  <Rbt.Parameter_File>
/export/apps/rDock/src/rDock_2013.1_src/data/scripts/dock_solv.prm

>  <Rbt.Receptor>
prm/pocket_docking_8.prm

>  <SCORE>
-25.1299

>  <SCORE.INTER>
-20.0767

>  <SCORE.INTER.CONST>
1

>  <SCORE.INTER.POLAR>
0

>  <SCORE.INTER.ROT>
7

>  <SCORE.INTER.SOLV>
9.50486

>  <SCORE.INTER.VDW>
-24.8194

>  <SCORE.INTER.norm>
-0.743581

>  <SCORE.INTRA>
-5.05319

>  <SCORE.INTRA.DIHEDRAL>
-6.73406

>  <SCORE.INTRA.DIHEDRAL.0>
11.2699

>  <SCORE.INTRA.POLAR>
0

>  <SCORE.INTRA.POLAR.0>
0

>  <SCORE.INTRA.REPUL>
0

>  <SCORE.INTRA.REPUL.0>
0

>  <SCORE.INTRA.SOLV>
-0.139758

>  <SCORE.INTRA.SOLV.lig_0>
-48.6447

>  <SCORE.INTRA.VDW>
-1.61628

>  <SCORE.INTRA.VDW.0>
-0.0211724

>  <SCORE.INTRA.norm>
-0.187155

>  <SCORE.RESTR>
0

>  <SCORE.RESTR.CAVITY>
0

>  <SCORE.RESTR.norm>
0

>  <SCORE.SYSTEM>
0

>  <SCORE.SYSTEM.CONST>
0

>  <SCORE.SYSTEM.DIHEDRAL>
0

>  <SCORE.SYSTEM.SOLV>
0

>  <SCORE.SYSTEM.norm>
0

>  <SCORE.heavy>
27

>  <SCORE.norm>
-0.930736

>  <RMSD>
5.988

$$$$
ligand
 OpenBabel11021811483D
libRbt.so/2013.1/901 2013/11/27
 27 29  0  0  0  0  0  0  0  0999 V2000
   47.8381   58.8120   27.7737 N   0  0  0  0  0  0  0  0  0  0  0  0
   48.1851   57.8737   28.8342 C   0  0  2  0  0  0  0  0  0  0  0  0
   47.3481   56.6099   28.7260 C   0  0  0  0  0  0  0  0  0  0  0  0
   47.8607   55.5077   28.9059 O   0  0  0  0  0  0  0  0  0  0  0  0
   48.0278   58.4978   30.2201 C   0  0  0  0  0  0  0  0  0  0  0  0
   48.3794   57.5750   31.3809 C   0  0  0  0  0  0  0  0  0  0  0  0
   48.0294   58.2636   33.0224 S   0  0  2  0  0  0  0  0  0  0  0  0
   49.5450   59.1998   33.3406 C   0  0  0  0  0  0  0  0  0  0  0  0
   48.3188   56.8031   34.0554 C   0  0  0  0  0  0  0  0  0  0  0  0
   47.3167   55.7152   33.6993 C   0  0  1  0  0  0  0  0  0  0  0  0
   47.5375   54.6178   34.5521 O   0  0  0  0  0  0  0  0  0  0  0  0
   45.8670   56.0977   33.9198 C   0  0  1  0  0  0  0  0  0  0  0  0
   45.2851   56.5239   32.7121 O   0  0  0  0  0  0  0  0  0  0  0  0
   45.2267   54.8081   34.4006 C   0  0  1  0  0  0  0  0  0  0  0  0
   44.4648   54.2504   33.3561 O   0  0  0  0  0  0  0  0  0  0  0  0
   46.3688   53.8690   34.7684 C   0  0  2  0  0  0  0  0  0  0  0  0
   46.1468   56.6696   28.4624 O   0  0  0  0  0  0  0  0  0  0  0  0
   48.3676   54.6612   39.5706 N   0  0  0  0  0  0  0  0  0  0  0  0
   48.7780   55.2087   38.3720 C   0  0  0  0  0  0  0  0  0  0  0  0
   48.1293   54.8829   37.1950 N   0  0  0  0  0  0  0  0  0  0  0  0
   47.0908   54.0186   37.2003 C   0  0  0  0  0  0  0  0  0  0  0  0
   46.6569   53.4619   38.3943 C   0  0  0  0  0  0  0  0  0  0  0  0
   47.3044   53.7833   39.5843 C   0  0  0  0  0  0  0  0  0  0  0  0
   46.9063   53.2538   40.7382 N   0  0  0  0  0  0  0  0  0  0  0  0
   45.6098   52.6545   38.1132 N   0  0  0  0  0  0  0  0  0  0  0  0
   45.3669   52.7010   36.7822 C   0  0  0  0  0  0  0  0  0  0  0  0
   46.2785   53.5436   36.2019 N   0  0  0  0  0  0  0  0  0  0  0  0
  2  1  1  6  0  0  0
  2  3  1  0  0  0  0
  2  5  1  0  0  0  0
  3  4  1  0  0  0  0
  3 17  1  0  0  0  0
  5  6  1  0  0  0  0
  7  6  1  6  0  0  0
  7  8  1  0  0  0  0
  7  9  1  0  0  0  0
 10  9  1  1  0  0  0
 10 11  1  0  0  0  0
 10 12  1  0  0  0  0
 11 16  1  0  0  0  0
 12 13  1  6  0  0  0
 12 14  1  0  0  0  0
 14 15  1  6  0  0  0
 14 16  1  0  0  0  0
 16 27  1  1  0  0  0
 18 19  2  0  0  0  0
 18 23  1  0  0  0  0
 19 20  1  0  0  0  0
 20 21  2  0  0  0  0
 21 22  1  0  0  0  0
 21 27  1  0  0  0  0
 22 23  2  0  0  0  0
 22 25  1  0  0  0  0
 23 24  1  0  0  0  0
 25 26  2  0  0  0  0
 26 27  1  0  0  0  0
M  END
>  <CHROM.1>
138.51933862,-179.75709295,-174.04968553,-85.72820238,-63.26802504,-177.83787238
7.55347010,47.15399372,55.72186157,34.05090210,-1.46535003,0.80676039,1.91033556

>  <Name>
ligand

>  <RI>
0

>  <Rbt.Current_Directory>
/home/itssahil/PROJECTS/Mol_Feturizer/New_Systems/rnas/3GX7

>  <Rbt.Executable>
rbdock ($Id: //depot/dev/client3/rdock/2013.1/src/exe/rbdock.cxx#4 $)

>  <Rbt.Library>
libRbt.so (2013.1, Build901 2013/11/27)

>  <Rbt.Parameter_File>
/export/apps/rDock/src/rDock_2013.1_src/data/scripts/dock_solv.prm

>  <Rbt.Receptor>
prm/pocket_docking_8.prm

>  <SCORE>
-24.1238

>  <SCORE.INTER>
-17.6211

>  <SCORE.INTER.CONST>
1

>  <SCORE.INTER.POLAR>
0

>  <SCORE.INTER.ROT>
7

>  <SCORE.INTER.SOLV>
12.9542

>  <SCORE.INTER.VDW>
-24.3321

>  <SCORE.INTER.norm>
-0.652632

>  <SCORE.INTRA>
-6.50269

>  <SCORE.INTRA.DIHEDRAL>
-7.06781

>  <SCORE.INTRA.DIHEDRAL.0>
11.2699

>  <SCORE.INTRA.POLAR>
0

>  <SCORE.INTRA.POLAR.0>
0

>  <SCORE.INTRA.REPUL>
0

>  <SCORE.INTRA.REPUL.0>
0

>  <SCORE.INTRA.SOLV>
-0.755216

>  <SCORE.INTRA.SOLV.lig_0>
-48.6447

>  <SCORE.INTRA.VDW>
-2.59118

>  <SCORE.INTRA.VDW.0>
-0.0211724

>  <SCORE.INTRA.norm>
-0.24084

>  <SCORE.RESTR>
0

>  <SCORE.RESTR.CAVITY>
0

>  <SCORE.RESTR.norm>
0

>  <SCORE.SYSTEM>
0

>  <SCORE.SYSTEM.CONST>
0

>  <SCORE.SYSTEM.DIHEDRAL>
0

>  <SCORE.SYSTEM.SOLV>
0

>  <SCORE.SYSTEM.norm>
0

>  <SCORE.heavy>
27

>  <SCORE.norm>
-0.893473

>  <RMSD>
5.995

$$$$
ligand
 OpenBabel11021811483D
libRbt.so/2013.1/901 2013/11/27
 27 29  0  0  0  0  0  0  0  0999 V2000
   43.5244   54.0536   33.9804 N   0  0  0  0  0  0  0  0  0  0  0  0
   44.0522   55.4123   34.0110 C   0  0  2  0  0  0  0  0  0  0  0  0
   43.2629   56.3144   33.0767 C   0  0  0  0  0  0  0  0  0  0  0  0
   43.3928   57.5349   33.1346 O   0  0  0  0  0  0  0  0  0  0  0  0
   45.5385   55.4535   33.6588 C   0  0  0  0  0  0  0  0  0  0  0  0
   46.1731   56.8376   33.7232 C   0  0  0  0  0  0  0  0  0  0  0  0
   47.8735   56.9158   33.0956 S   0  0  2  0  0  0  0  0  0  0  0  0
   48.7963   56.2384   34.4972 C   0  0  0  0  0  0  0  0  0  0  0  0
   48.2132   58.6842   33.2986 C   0  0  0  0  0  0  0  0  0  0  0  0
   47.6107   59.4598   32.1366 C   0  0  1  0  0  0  0  0  0  0  0  0
   48.2392   59.0347   30.9514 O   0  0  0  0  0  0  0  0  0  0  0  0
   46.1338   59.2075   31.9095 C   0  0  1  0  0  0  0  0  0  0  0  0
   45.3668   60.2217   32.5112 O   0  0  0  0  0  0  0  0  0  0  0  0
   45.9927   59.2499   30.3987 C   0  0  1  0  0  0  0  0  0  0  0  0
   45.3951   60.4680   30.0222 O   0  0  0  0  0  0  0  0  0  0  0  0
   47.4036   59.1665   29.8299 C   0  0  2  0  0  0  0  0  0  0  0  0
   42.4875   55.8390   32.2466 O   0  0  0  0  0  0  0  0  0  0  0  0
   46.2659   54.0454   29.4248 N   0  0  0  0  0  0  0  0  0  0  0  0
   45.9459   54.9148   30.4479 C   0  0  0  0  0  0  0  0  0  0  0  0
   46.3317   56.2413   30.3859 N   0  0  0  0  0  0  0  0  0  0  0  0
   47.0338   56.7030   29.3279 C   0  0  0  0  0  0  0  0  0  0  0  0
   47.3601   55.8488   28.2849 C   0  0  0  0  0  0  0  0  0  0  0  0
   46.9767   54.5114   28.3389 C   0  0  0  0  0  0  0  0  0  0  0  0
   47.2867   53.6759   27.3509 N   0  0  0  0  0  0  0  0  0  0  0  0
   48.0432   56.5669   27.3658 N   0  0  0  0  0  0  0  0  0  0  0  0
   48.1411   57.8469   27.7956 C   0  0  0  0  0  0  0  0  0  0  0  0
   47.5193   57.9469   29.0126 N   0  0  0  0  0  0  0  0  0  0  0  0
  2  1  1  6  0  0  0
  2  3  1  0  0  0  0
  2  5  1  0  0  0  0
  3  4  1  0  0  0  0
  3 17  1  0  0  0  0
  5  6  1  0  0  0  0
  7  6  1  1  0  0  0
  7  8  1  0  0  0  0
  7  9  1  0  0  0  0
 10  9  1  1  0  0  0
 10 11  1  0  0  0  0
 10 12  1  0  0  0  0
 11 16  1  0  0  0  0
 12 13  1  1  0  0  0
 12 14  1  0  0  0  0
 14 15  1  1  0  0  0
 14 16  1  0  0  0  0
 16 27  1  6  0  0  0
 18 19  2  0  0  0  0
 18 23  1  0  0  0  0
 19 20  1  0  0  0  0
 20 21  2  0  0  0  0
 21 22  1  0  0  0  0
 21 27  1  0  0  0  0
 22 23  2  0  0  0  0
 22 25  1  0  0  0  0
 23 24  1  0  0  0  0
 25 26  2  0  0  0  0
 26 27  1  0  0  0  0
M  END
>  <CHROM.1>
167.01914916,-177.73357449,-172.31829485,-78.67619801,-80.96593256,-62.64734762
71.00817098,46.35101878,57.02466336,31.27800852,2.53083386,0.96346471,0.72569453

>  <Name>
ligand

>  <RI>
0

>  <Rbt.Current_Directory>
/home/itssahil/PROJECTS/Mol_Feturizer/New_Systems/rnas/3GX7

>  <Rbt.Executable>
rbdock ($Id: //depot/dev/client3/rdock/2013.1/src/exe/rbdock.cxx#4 $)

>  <Rbt.Library>
libRbt.so (2013.1, Build901 2013/11/27)

>  <Rbt.Parameter_File>
/export/apps/rDock/src/rDock_2013.1_src/data/scripts/dock_solv.prm

>  <Rbt.Receptor>
prm/pocket_docking_5.prm

>  <SCORE>
-18.3356

>  <SCORE.INTER>
-10.7617

>  <SCORE.INTER.CONST>
1

>  <SCORE.INTER.POLAR>
0

>  <SCORE.INTER.ROT>
7

>  <SCORE.INTER.SOLV>
8.5981

>  <SCORE.INTER.VDW>
-18.3072

>  <SCORE.INTER.norm>
-0.398582

>  <SCORE.INTRA>
-7.57385

>  <SCORE.INTRA.DIHEDRAL>
-7.09912

>  <SCORE.INTRA.DIHEDRAL.0>
11.2699

>  <SCORE.INTRA.POLAR>
0

>  <SCORE.INTRA.POLAR.0>
0

>  <SCORE.INTRA.REPUL>
0

>  <SCORE.INTRA.REPUL.0>
0

>  <SCORE.INTRA.SOLV>
-0.623179

>  <SCORE.INTRA.SOLV.lig_0>
-48.6447

>  <SCORE.INTRA.VDW>
-3.7127

>  <SCORE.INTRA.VDW.0>
-0.0211724

>  <SCORE.INTRA.norm>
-0.280513

>  <SCORE.RESTR>
0

>  <SCORE.RESTR.CAVITY>
0

>  <SCORE.RESTR.norm>
0

>  <SCORE.SYSTEM>
0

>  <SCORE.SYSTEM.CONST>
0

>  <SCORE.SYSTEM.DIHEDRAL>
0

>  <SCORE.SYSTEM.SOLV>
0

>  <SCORE.SYSTEM.norm>
0

>  <SCORE.heavy>
27

>  <SCORE.norm>
-0.679095

>  <RMSD>
6.003

$$$$
ligand
 OpenBabel11021811483D
libRbt.so/2013.1/901 2013/11/27
 27 29  0  0  0  0  0  0  0  0999 V2000
   50.7676   52.7335   26.7523 N   0  0  0  0  0  0  0  0  0  0  0  0
   50.5170   53.5591   27.9275 C   0  0  2  0  0  0  0  0  0  0  0  0
   51.8127   54.1619   28.4446 C   0  0  0  0  0  0  0  0  0  0  0  0
   51.9257   55.3791   28.5691 O   0  0  0  0  0  0  0  0  0  0  0  0
   49.8173   52.7738   29.0359 C   0  0  0  0  0  0  0  0  0  0  0  0
   49.4434   53.5954   30.2639 C   0  0  0  0  0  0  0  0  0  0  0  0
   48.0625   52.9213   31.2283 S   0  0  2  0  0  0  0  0  0  0  0  0
   46.7491   52.8872   29.9839 C   0  0  0  0  0  0  0  0  0  0  0  0
   47.5824   54.3889   32.1768 C   0  0  0  0  0  0  0  0  0  0  0  0
   46.1371   54.2556   32.6330 C   0  0  1  0  0  0  0  0  0  0  0  0
   46.0854   53.2865   33.6521 O   0  0  0  0  0  0  0  0  0  0  0  0
   45.5546   55.5092   33.2541 C   0  0  1  0  0  0  0  0  0  0  0  0
   44.8075   56.2249   32.3009 O   0  0  0  0  0  0  0  0  0  0  0  0
   44.6549   54.9773   34.3549 C   0  0  1  0  0  0  0  0  0  0  0  0
   43.3112   55.0820   33.9474 O   0  0  0  0  0  0  0  0  0  0  0  0
   45.0263   53.5122   34.5470 C   0  0  2  0  0  0  0  0  0  0  0  0
   52.7647   53.4432   28.7506 O   0  0  0  0  0  0  0  0  0  0  0  0
   48.7583   54.7066   38.0583 N   0  0  0  0  0  0  0  0  0  0  0  0
   48.6438   55.1361   36.7517 C   0  0  0  0  0  0  0  0  0  0  0  0
   47.5865   54.7148   35.9663 N   0  0  0  0  0  0  0  0  0  0  0  0
   46.6558   53.8711   36.4637 C   0  0  0  0  0  0  0  0  0  0  0  0
   46.7470   53.4323   37.7763 C   0  0  0  0  0  0  0  0  0  0  0  0
   47.8085   53.8504   38.5744 C   0  0  0  0  0  0  0  0  0  0  0  0
   47.9160   53.4345   39.8337 N   0  0  0  0  0  0  0  0  0  0  0  0
   45.6928   52.6194   38.0107 N   0  0  0  0  0  0  0  0  0  0  0  0
   44.9377   52.5483   36.8893 C   0  0  0  0  0  0  0  0  0  0  0  0
   45.5230   53.3200   35.9200 N   0  0  0  0  0  0  0  0  0  0  0  0
  2  1  1  6  0  0  0
  2  3  1  0  0  0  0
  2  5  1  0  0  0  0
  3  4  1  0  0  0  0
  3 17  1  0  0  0  0
  5  6  1  0  0  0  0
  7  6  1  6  0  0  0
  7  8  1  0  0  0  0
  7  9  1  0  0  0  0
 10  9  1  1  0  0  0
 10 11  1  0  0  0  0
 10 12  1  0  0  0  0
 11 16  1  0  0  0  0
 12 13  1  6  0  0  0
 12 14  1  0  0  0  0
 14 15  1  6  0  0  0
 14 16  1  0  0  0  0
 16 27  1  1  0  0  0
 18 19  2  0  0  0  0
 18 23  1  0  0  0  0
 19 20  1  0  0  0  0
 20 21  2  0  0  0  0
 21 22  1  0  0  0  0
 21 27  1  0  0  0  0
 22 23  2  0  0  0  0
 22 25  1  0  0  0  0
 23 24  1  0  0  0  0
 25 26  2  0  0  0  0
 26 27  1  0  0  0  0
M  END
>  <CHROM.1>
123.75468310,-176.31747225,155.41516007,-58.48518846,157.33838058,72.12530405
49.42677091,47.63743211,53.90497026,33.18646921,1.09480541,0.09886187,-1.55119229

>  <Name>
ligand

>  <RI>
0

>  <Rbt.Current_Directory>
/home/itssahil/PROJECTS/Mol_Feturizer/New_Systems/rnas/3GX7

>  <Rbt.Executable>
rbdock ($Id: //depot/dev/client3/rdock/2013.1/src/exe/rbdock.cxx#4 $)

>  <Rbt.Library>
libRbt.so (2013.1, Build901 2013/11/27)

>  <Rbt.Parameter_File>
/export/apps/rDock/src/rDock_2013.1_src/data/scripts/dock_solv.prm

>  <Rbt.Receptor>
prm/pocket_docking_7.prm

>  <SCORE>
-20.091

>  <SCORE.INTER>
-15.3291

>  <SCORE.INTER.CONST>
1

>  <SCORE.INTER.POLAR>
0

>  <SCORE.INTER.ROT>
7

>  <SCORE.INTER.SOLV>
11.1291

>  <SCORE.INTER.VDW>
-22.1958

>  <SCORE.INTER.norm>
-0.567745

>  <SCORE.INTRA>
-4.76188

>  <SCORE.INTRA.DIHEDRAL>
-4.66894

>  <SCORE.INTRA.DIHEDRAL.0>
11.2699

>  <SCORE.INTRA.POLAR>
0

>  <SCORE.INTRA.POLAR.0>
0

>  <SCORE.INTRA.REPUL>
0

>  <SCORE.INTRA.REPUL.0>
0

>  <SCORE.INTRA.SOLV>
-1.04542

>  <SCORE.INTRA.SOLV.lig_0>
-48.6447

>  <SCORE.INTRA.VDW>
-1.9047

>  <SCORE.INTRA.VDW.0>
-0.0211724

>  <SCORE.INTRA.norm>
-0.176366

>  <SCORE.RESTR>
0

>  <SCORE.RESTR.CAVITY>
0

>  <SCORE.RESTR.norm>
0

>  <SCORE.SYSTEM>
0

>  <SCORE.SYSTEM.CONST>
0

>  <SCORE.SYSTEM.DIHEDRAL>
0

>  <SCORE.SYSTEM.SOLV>
0

>  <SCORE.SYSTEM.norm>
0

>  <SCORE.heavy>
27

>  <SCORE.norm>
-0.744111

>  <RMSD>
6.003

$$$$
ligand
 OpenBabel11021811483D
libRbt.so/2013.1/901 2013/11/27
 27 29  0  0  0  0  0  0  0  0999 V2000
   47.8587   59.1002   31.6860 N   0  0  0  0  0  0  0  0  0  0  0  0
   46.4323   58.8711   31.4905 C   0  0  2  0  0  0  0  0  0  0  0  0
   45.7568   60.1240   30.9581 C   0  0  0  0  0  0  0  0  0  0  0  0
   45.2466   60.1278   29.8403 O   0  0  0  0  0  0  0  0  0  0  0  0
   45.7494   58.4050   32.7756 C   0  0  0  0  0  0  0  0  0  0  0  0
   46.4109   57.2119   33.4550 C   0  0  0  0  0  0  0  0  0  0  0  0
   45.6695   55.6072   33.0469 S   0  0  2  0  0  0  0  0  0  0  0  0
   44.1017   55.7064   33.9453 C   0  0  0  0  0  0  0  0  0  0  0  0
   46.6151   54.5232   34.1491 C   0  0  0  0  0  0  0  0  0  0  0  0
   47.7882   53.9183   33.3924 C   0  0  1  0  0  0  0  0  0  0  0  0
   47.2798   53.0040   32.4512 O   0  0  0  0  0  0  0  0  0  0  0  0
   48.5926   54.9121   32.5788 C   0  0  1  0  0  0  0  0  0  0  0  0
   49.7329   55.3200   33.2945 O   0  0  0  0  0  0  0  0  0  0  0  0
   48.9859   54.1253   31.3417 C   0  0  1  0  0  0  0  0  0  0  0  0
   50.3441   53.7655   31.4327 O   0  0  0  0  0  0  0  0  0  0  0  0
   48.1171   52.8737   31.3308 C   0  0  2  0  0  0  0  0  0  0  0  0
   45.7055   61.1500   31.6371 O   0  0  0  0  0  0  0  0  0  0  0  0
   47.9459   52.0881   26.1310 N   0  0  0  0  0  0  0  0  0  0  0  0
   49.0268   51.9631   26.9801 C   0  0  0  0  0  0  0  0  0  0  0  0
   48.8868   52.2131   28.3330 N   0  0  0  0  0  0  0  0  0  0  0  0
   47.6932   52.5909   28.8412 C   0  0  0  0  0  0  0  0  0  0  0  0
   46.5918   52.7159   28.0074 C   0  0  0  0  0  0  0  0  0  0  0  0
   46.7233   52.4671   26.6438 C   0  0  0  0  0  0  0  0  0  0  0  0
   45.6794   52.5885   25.8279 N   0  0  0  0  0  0  0  0  0  0  0  0
   45.5405   53.0892   28.7707 N   0  0  0  0  0  0  0  0  0  0  0  0
   45.9478   53.1871   30.0581 C   0  0  0  0  0  0  0  0  0  0  0  0
   47.2822   52.8809   30.1176 N   0  0  0  0  0  0  0  0  0  0  0  0
  2  1  1  1  0  0  0
  2  3  1  0  0  0  0
  2  5  1  0  0  0  0
  3  4  1  0  0  0  0
  3 17  1  0  0  0  0
  5  6  1  0  0  0  0
  7  6  1  1  0  0  0
  7  8  1  0  0  0  0
  7  9  1  0  0  0  0
 10  9  1  6  0  0  0
 10 11  1  0  0  0  0
 10 12  1  0  0  0  0
 11 16  1  0  0  0  0
 12 13  1  1  0  0  0
 12 14  1  0  0  0  0
 14 15  1  1  0  0  0
 14 16  1  0  0  0  0
 16 27  1  6  0  0  0
 18 19  2  0  0  0  0
 18 23  1  0  0  0  0
 19 20  1  0  0  0  0
 20 21  2  0  0  0  0
 21 22  1  0  0  0  0
 21 27  1  0  0  0  0
 22 23  2  0  0  0  0
 22 25  1  0  0  0  0
 23 24  1  0  0  0  0
 25 26  2  0  0  0  0
 26 27  1  0  0  0  0
M  END
>  <CHROM.1>
115.65450329,-52.07381479,-96.19622626,-71.85130170,-95.45136007,-69.57031406
-170.23945094,47.03355480,55.09234525,30.87828687,2.08433798,-1.14858790
1.08988414

>  <Name>
ligand

>  <RI>
0

>  <Rbt.Current_Directory>
/home/itssahil/PROJECTS/Mol_Feturizer/New_Systems/rnas/3GX7

>  <Rbt.Executable>
rbdock ($Id: //depot/dev/client3/rdock/2013.1/src/exe/rbdock.cxx#4 $)

>  <Rbt.Library>
libRbt.so (2013.1, Build901 2013/11/27)

>  <Rbt.Parameter_File>
/export/apps/rDock/src/rDock_2013.1_src/data/scripts/dock_solv.prm

>  <Rbt.Receptor>
prm/pocket_docking_4.prm

>  <SCORE>
-15.3694

>  <SCORE.INTER>
-12.2076

>  <SCORE.INTER.CONST>
1

>  <SCORE.INTER.POLAR>
0

>  <SCORE.INTER.ROT>
7

>  <SCORE.INTER.SOLV>
13.7063

>  <SCORE.INTER.VDW>
-20.9739

>  <SCORE.INTER.norm>
-0.452134

>  <SCORE.INTRA>
-3.40583

>  <SCORE.INTRA.DIHEDRAL>
-2.03415

>  <SCORE.INTRA.DIHEDRAL.0>
11.2699

>  <SCORE.INTRA.POLAR>
0

>  <SCORE.INTRA.POLAR.0>
0

>  <SCORE.INTRA.REPUL>
0

>  <SCORE.INTRA.REPUL.0>
0

>  <SCORE.INTRA.SOLV>
0.315304

>  <SCORE.INTRA.SOLV.lig_0>
-48.6447

>  <SCORE.INTRA.VDW>
-2.54641

>  <SCORE.INTRA.VDW.0>
-0.0211724

>  <SCORE.INTRA.norm>
-0.126142

>  <SCORE.RESTR>
0.244103

>  <SCORE.RESTR.CAVITY>
0.244103

>  <SCORE.RESTR.norm>
0.00904084

>  <SCORE.SYSTEM>
0

>  <SCORE.SYSTEM.CONST>
0

>  <SCORE.SYSTEM.DIHEDRAL>
0

>  <SCORE.SYSTEM.SOLV>
0

>  <SCORE.SYSTEM.norm>
0

>  <SCORE.heavy>
27

>  <SCORE.norm>
-0.569235

>  <RMSD>
6.004

$$$$
ligand
 OpenBabel11021811483D
libRbt.so/2013.1/901 2013/11/27
 27 29  0  0  0  0  0  0  0  0999 V2000
   48.3270   53.4547   33.2951 N   0  0  0  0  0  0  0  0  0  0  0  0
   48.2377   54.8294   32.8178 C   0  0  2  0  0  0  0  0  0  0  0  0
   49.1171   55.0297   31.5946 C   0  0  0  0  0  0  0  0  0  0  0  0
   48.8786   55.9355   30.7994 O   0  0  0  0  0  0  0  0  0  0  0  0
   48.6066   55.8351   33.9074 C   0  0  0  0  0  0  0  0  0  0  0  0
   47.8932   57.1781   33.8065 C   0  0  0  0  0  0  0  0  0  0  0  0
   48.4986   58.2538   32.4770 S   0  0  2  0  0  0  0  0  0  0  0  0
   49.8276   59.1437   33.3235 C   0  0  0  0  0  0  0  0  0  0  0  0
   47.2032   59.5210   32.4698 C   0  0  0  0  0  0  0  0  0  0  0  0
   46.0896   59.1119   31.5173 C   0  0  1  0  0  0  0  0  0  0  0  0
   46.5882   59.1796   30.2031 O   0  0  0  0  0  0  0  0  0  0  0  0
   45.6126   57.6831   31.6828 C   0  0  1  0  0  0  0  0  0  0  0  0
   44.4531   57.6442   32.4784 O   0  0  0  0  0  0  0  0  0  0  0  0
   45.3067   57.2422   30.2628 C   0  0  1  0  0  0  0  0  0  0  0  0
   43.9117   57.2234   30.0729 O   0  0  0  0  0  0  0  0  0  0  0  0
   45.9419   58.2769   29.3423 C   0  0  2  0  0  0  0  0  0  0  0  0
   50.0818   54.2938   31.3840 O   0  0  0  0  0  0  0  0  0  0  0  0
   46.9609   54.3911   25.9443 N   0  0  0  0  0  0  0  0  0  0  0  0
   45.7625   54.7019   26.5545 C   0  0  0  0  0  0  0  0  0  0  0  0
   45.6788   55.7692   27.4299 N   0  0  0  0  0  0  0  0  0  0  0  0
   46.7695   56.5171   27.7064 C   0  0  0  0  0  0  0  0  0  0  0  0
   47.9824   56.2273   27.0992 C   0  0  0  0  0  0  0  0  0  0  0  0
   48.0766   55.1542   26.2171 C   0  0  0  0  0  0  0  0  0  0  0  0
   49.2333   54.8572   25.6305 N   0  0  0  0  0  0  0  0  0  0  0  0
   48.8873   57.1291   27.5407 N   0  0  0  0  0  0  0  0  0  0  0  0
   48.2737   57.9825   28.3939 C   0  0  0  0  0  0  0  0  0  0  0  0
   46.9584   57.6151   28.5072 N   0  0  0  0  0  0  0  0  0  0  0  0
  2  1  1  1  0  0  0
  2  3  1  0  0  0  0
  2  5  1  0  0  0  0
  3  4  1  0  0  0  0
  3 17  1  0  0  0  0
  5  6  1  0  0  0  0
  7  6  1  1  0  0  0
  7  8  1  0  0  0  0
  7  9  1  0  0  0  0
 10  9  1  1  0  0  0
 10 11  1  0  0  0  0
 10 12  1  0  0  0  0
 11 16  1  0  0  0  0
 12 13  1  1  0  0  0
 12 14  1  0  0  0  0
 14 15  1  1  0  0  0
 14 16  1  0  0  0  0
 16 27  1  6  0  0  0
 18 19  2  0  0  0  0
 18 23  1  0  0  0  0
 19 20  1  0  0  0  0
 20 21  2  0  0  0  0
 21 22  1  0  0  0  0
 21 27  1  0  0  0  0
 22 23  2  0  0  0  0
 22 25  1  0  0  0  0
 23 24  1  0  0  0  0
 25 26  2  0  0  0  0
 26 27  1  0  0  0  0
M  END
>  <CHROM.1>
156.54813030,-149.37949256,-74.13080339,-88.59646277,-89.66743444,-68.93135757
168.21564017,47.42511949,56.77081112,30.28658668,-1.44705676,0.73505641,-1.93841140

>  <Name>
ligand

>  <RI>
0

>  <Rbt.Current_Directory>
/home/itssahil/PROJECTS/Mol_Feturizer/New_Systems/rnas/3GX7

>  <Rbt.Executable>
rbdock ($Id: //depot/dev/client3/rdock/2013.1/src/exe/rbdock.cxx#4 $)

>  <Rbt.Library>
libRbt.so (2013.1, Build901 2013/11/27)

>  <Rbt.Parameter_File>
/export/apps/rDock/src/rDock_2013.1_src/data/scripts/dock_solv.prm

>  <Rbt.Receptor>
prm/pocket_docking_4.prm

>  <SCORE>
-16.9258

>  <SCORE.INTER>
-11.7158

>  <SCORE.INTER.CONST>
1

>  <SCORE.INTER.POLAR>
0

>  <SCORE.INTER.ROT>
7

>  <SCORE.INTER.SOLV>
12.3284

>  <SCORE.INTER.VDW>
-20.1867

>  <SCORE.INTER.norm>
-0.43392

>  <SCORE.INTRA>
-5.20993

>  <SCORE.INTRA.DIHEDRAL>
-1.83044

>  <SCORE.INTRA.DIHEDRAL.0>
11.2699

>  <SCORE.INTRA.POLAR>
0

>  <SCORE.INTRA.POLAR.0>
0

>  <SCORE.INTRA.REPUL>
0

>  <SCORE.INTRA.REPUL.0>
0

>  <SCORE.INTRA.SOLV>
-0.508007

>  <SCORE.INTRA.SOLV.lig_0>
-48.6447

>  <SCORE.INTRA.VDW>
-4.04071

>  <SCORE.INTRA.VDW.0>
-0.0211724

>  <SCORE.INTRA.norm>
-0.192961

>  <SCORE.RESTR>
0

>  <SCORE.RESTR.CAVITY>
0

>  <SCORE.RESTR.norm>
0

>  <SCORE.SYSTEM>
0

>  <SCORE.SYSTEM.CONST>
0

>  <SCORE.SYSTEM.DIHEDRAL>
0

>  <SCORE.SYSTEM.SOLV>
0

>  <SCORE.SYSTEM.norm>
0

>  <SCORE.heavy>
27

>  <SCORE.norm>
-0.626881

>  <RMSD>
6.014

$$$$
ligand
 OpenBabel11021811483D
libRbt.so/2013.1/901 2013/11/27
 27 29  0  0  0  0  0  0  0  0999 V2000
   42.8077   55.3795   33.1416 N   0  0  0  0  0  0  0  0  0  0  0  0
   43.0259   56.6736   32.5067 C   0  0  2  0  0  0  0  0  0  0  0  0
   43.0215   56.5351   30.9933 C   0  0  0  0  0  0  0  0  0  0  0  0
   43.9686   56.0079   30.4147 O   0  0  0  0  0  0  0  0  0  0  0  0
   44.3253   57.3260   32.9764 C   0  0  0  0  0  0  0  0  0  0  0  0
   44.6463   58.6611   32.3151 C   0  0  0  0  0  0  0  0  0  0  0  0
   46.3746   59.1871   32.4815 S   0  0  2  0  0  0  0  0  0  0  0  0
   46.4572   60.5139   31.2537 C   0  0  0  0  0  0  0  0  0  0  0  0
   47.2079   57.8519   31.5834 C   0  0  0  0  0  0  0  0  0  0  0  0
   47.4522   56.6776   32.5192 C   0  0  1  0  0  0  0  0  0  0  0  0
   47.2764   55.4884   31.7876 O   0  0  0  0  0  0  0  0  0  0  0  0
   48.8613   56.5942   33.0706 C   0  0  1  0  0  0  0  0  0  0  0  0
   48.9173   57.1624   34.3562 O   0  0  0  0  0  0  0  0  0  0  0  0
   49.1341   55.1020   33.1288 C   0  0  1  0  0  0  0  0  0  0  0  0
   49.0543   54.6673   34.4656 O   0  0  0  0  0  0  0  0  0  0  0  0
   48.0467   54.4308   32.2991 C   0  0  2  0  0  0  0  0  0  0  0  0
   42.0706   56.9427   30.3253 O   0  0  0  0  0  0  0  0  0  0  0  0
   51.4950   54.6925   28.3336 N   0  0  0  0  0  0  0  0  0  0  0  0
   51.1672   55.6724   29.2486 C   0  0  0  0  0  0  0  0  0  0  0  0
   50.2278   55.4253   30.2328 N   0  0  0  0  0  0  0  0  0  0  0  0
   49.6120   54.2249   30.3078 C   0  0  0  0  0  0  0  0  0  0  0  0
   49.9311   53.2231   29.4032 C   0  0  0  0  0  0  0  0  0  0  0  0
   50.8751   53.4630   28.4082 C   0  0  0  0  0  0  0  0  0  0  0  0
   51.1889   52.5162   27.5277 N   0  0  0  0  0  0  0  0  0  0  0  0
   49.1852   52.1391   29.7125 N   0  0  0  0  0  0  0  0  0  0  0  0
   48.4205   52.4280   30.7916 C   0  0  0  0  0  0  0  0  0  0  0  0
   48.6742   53.7196   31.1725 N   0  0  0  0  0  0  0  0  0  0  0  0
  2  1  1  1  0  0  0
  2  3  1  0  0  0  0
  2  5  1  0  0  0  0
  3  4  1  0  0  0  0
  3 17  1  0  0  0  0
  5  6  1  0  0  0  0
  7  6  1  6  0  0  0
  7  8  1  0  0  0  0
  7  9  1  0  0  0  0
 10  9  1  6  0  0  0
 10 11  1  0  0  0  0
 10 12  1  0  0  0  0
 11 16  1  0  0  0  0
 12 13  1  1  0  0  0
 12 14  1  0  0  0  0
 14 15  1  1  0  0  0
 14 16  1  0  0  0  0
 16 27  1  6  0  0  0
 18 19  2  0  0  0  0
 18 23  1  0  0  0  0
 19 20  1  0  0  0  0
 20 21  2  0  0  0  0
 21 22  1  0  0  0  0
 21 27  1  0  0  0  0
 22 23  2  0  0  0  0
 22 25  1  0  0  0  0
 23 24  1  0  0  0  0
 25 26  2  0  0  0  0
 26 27  1  0  0  0  0
M  END
>  <CHROM.1>
-72.80646356,177.84101483,-162.58531228,165.93231544,-85.36187010,143.34878369
65.00525351,47.40779044,55.88223271,31.39356272,2.48483742,-0.07344236,0.65537171

>  <Name>
ligand

>  <RI>
0

>  <Rbt.Current_Directory>
/home/itssahil/PROJECTS/Mol_Feturizer/New_Systems/rnas/3GX7

>  <Rbt.Executable>
rbdock ($Id: //depot/dev/client3/rdock/2013.1/src/exe/rbdock.cxx#4 $)

>  <Rbt.Library>
libRbt.so (2013.1, Build901 2013/11/27)

>  <Rbt.Parameter_File>
/export/apps/rDock/src/rDock_2013.1_src/data/scripts/dock_solv.prm

>  <Rbt.Receptor>
prm/pocket_docking_6.prm

>  <SCORE>
-20.8074

>  <SCORE.INTER>
-15.9164

>  <SCORE.INTER.CONST>
1

>  <SCORE.INTER.POLAR>
0

>  <SCORE.INTER.ROT>
7

>  <SCORE.INTER.SOLV>
12.2662

>  <SCORE.INTER.VDW>
-22.9663

>  <SCORE.INTER.norm>
-0.589496

>  <SCORE.INTRA>
-4.89102

>  <SCORE.INTRA.DIHEDRAL>
-2.63235

>  <SCORE.INTRA.DIHEDRAL.0>
11.2699

>  <SCORE.INTRA.POLAR>
0

>  <SCORE.INTRA.POLAR.0>
0

>  <SCORE.INTRA.REPUL>
0

>  <SCORE.INTRA.REPUL.0>
0

>  <SCORE.INTRA.SOLV>
-0.931426

>  <SCORE.INTRA.SOLV.lig_0>
-48.6447

>  <SCORE.INTRA.VDW>
-3.10913

>  <SCORE.INTRA.VDW.0>
-0.0211724

>  <SCORE.INTRA.norm>
-0.181149

>  <SCORE.RESTR>
0

>  <SCORE.RESTR.CAVITY>
0

>  <SCORE.RESTR.norm>
0

>  <SCORE.SYSTEM>
0

>  <SCORE.SYSTEM.CONST>
0

>  <SCORE.SYSTEM.DIHEDRAL>
0

>  <SCORE.SYSTEM.SOLV>
0

>  <SCORE.SYSTEM.norm>
0

>  <SCORE.heavy>
27

>  <SCORE.norm>
-0.770645

>  <RMSD>
6.023

$$$$
ligand
 OpenBabel11021811483D
libRbt.so/2013.1/901 2013/11/27
 27 29  0  0  0  0  0  0  0  0999 V2000
   43.5004   54.4226   33.8875 N   0  0  0  0  0  0  0  0  0  0  0  0
   44.3162   55.6072   34.1259 C   0  0  2  0  0  0  0  0  0  0  0  0
   43.7395   56.8098   33.3973 C   0  0  0  0  0  0  0  0  0  0  0  0
   43.0137   56.6539   32.4182 O   0  0  0  0  0  0  0  0  0  0  0  0
   45.7721   55.3870   33.7177 C   0  0  0  0  0  0  0  0  0  0  0  0
   46.6868   56.5858   33.9391 C   0  0  0  0  0  0  0  0  0  0  0  0
   48.3803   56.3633   33.3276 S   0  0  2  0  0  0  0  0  0  0  0  0
   49.1337   55.4592   34.7023 C   0  0  0  0  0  0  0  0  0  0  0  0
   49.0498   58.0225   33.6154 C   0  0  0  0  0  0  0  0  0  0  0  0
   48.5696   58.9667   32.5234 C   0  0  1  0  0  0  0  0  0  0  0  0
   49.2556   58.6508   31.3360 O   0  0  0  0  0  0  0  0  0  0  0  0
   47.1008   58.8320   32.1754 C   0  0  1  0  0  0  0  0  0  0  0  0
   46.3474   59.8103   32.8495 O   0  0  0  0  0  0  0  0  0  0  0  0
   47.0666   59.0644   30.6757 C   0  0  1  0  0  0  0  0  0  0  0  0
   46.5599   60.3523   30.4169 O   0  0  0  0  0  0  0  0  0  0  0  0
   48.5073   58.9662   30.1898 C   0  0  2  0  0  0  0  0  0  0  0  0
   43.9852   57.9550   33.7775 O   0  0  0  0  0  0  0  0  0  0  0  0
   49.9009   53.9433   29.4735 N   0  0  0  0  0  0  0  0  0  0  0  0
   49.9589   54.6905   30.6326 C   0  0  0  0  0  0  0  0  0  0  0  0
   49.5472   56.0107   30.6358 N   0  0  0  0  0  0  0  0  0  0  0  0
   49.0905   56.5898   29.5037 C   0  0  0  0  0  0  0  0  0  0  0  0
   49.0167   55.8558   28.3292 C   0  0  0  0  0  0  0  0  0  0  0  0
   49.4298   54.5262   28.3161 C   0  0  0  0  0  0  0  0  0  0  0  0
   49.3725   53.8086   27.1971 N   0  0  0  0  0  0  0  0  0  0  0  0
   48.5193   56.6674   27.3695 N   0  0  0  0  0  0  0  0  0  0  0  0
   48.2663   57.8818   27.9117 C   0  0  0  0  0  0  0  0  0  0  0  0
   48.6161   57.8491   29.2363 N   0  0  0  0  0  0  0  0  0  0  0  0
  2  1  1  6  0  0  0
  2  3  1  0  0  0  0
  2  5  1  0  0  0  0
  3  4  1  0  0  0  0
  3 17  1  0  0  0  0
  5  6  1  0  0  0  0
  7  6  1  1  0  0  0
  7  8  1  0  0  0  0
  7  9  1  0  0  0  0
 10  9  1  1  0  0  0
 10 11  1  0  0  0  0
 10 12  1  0  0  0  0
 11 16  1  0  0  0  0
 12 13  1  1  0  0  0
 12 14  1  0  0  0  0
 14 15  1  1  0  0  0
 14 16  1  0  0  0  0
 16 27  1  6  0  0  0
 18 19  2  0  0  0  0
 18 23  1  0  0  0  0
 19 20  1  0  0  0  0
 20 21  2  0  0  0  0
 21 22  1  0  0  0  0
 21 27  1  0  0  0  0
 22 23  2  0  0  0  0
 22 25  1  0  0  0  0
 23 24  1  0  0  0  0
 25 26  2  0  0  0  0
 26 27  1  0  0  0  0
M  END
>  <CHROM.1>
-23.20343472,-179.98812438,-175.24110373,-82.71577152,-78.20451900,-72.76578920
13.92095903,47.49156417,56.90477410,31.48745259,3.13182772,0.85821730,-0.17719998

>  <Name>
ligand

>  <RI>
0

>  <Rbt.Current_Directory>
/home/itssahil/PROJECTS/Mol_Feturizer/New_Systems/rnas/3GX7

>  <Rbt.Executable>
rbdock ($Id: //depot/dev/client3/rdock/2013.1/src/exe/rbdock.cxx#4 $)

>  <Rbt.Library>
libRbt.so (2013.1, Build901 2013/11/27)

>  <Rbt.Parameter_File>
/export/apps/rDock/src/rDock_2013.1_src/data/scripts/dock_solv.prm

>  <Rbt.Receptor>
prm/pocket_docking_4.prm

>  <SCORE>
-20.7694

>  <SCORE.INTER>
-14.8549

>  <SCORE.INTER.CONST>
1

>  <SCORE.INTER.POLAR>
0

>  <SCORE.INTER.ROT>
7

>  <SCORE.INTER.SOLV>
9.04259

>  <SCORE.INTER.VDW>
-21.1842

>  <SCORE.INTER.norm>
-0.550183

>  <SCORE.INTRA>
-5.9145

>  <SCORE.INTRA.DIHEDRAL>
-6.59669

>  <SCORE.INTRA.DIHEDRAL.0>
11.2699

>  <SCORE.INTRA.POLAR>
0

>  <SCORE.INTRA.POLAR.0>
0

>  <SCORE.INTRA.REPUL>
0

>  <SCORE.INTRA.REPUL.0>
0

>  <SCORE.INTRA.SOLV>
-0.519709

>  <SCORE.INTRA.SOLV.lig_0>
-48.6447

>  <SCORE.INTRA.VDW>
-2.3563

>  <SCORE.INTRA.VDW.0>
-0.0211724

>  <SCORE.INTRA.norm>
-0.219055

>  <SCORE.RESTR>
0

>  <SCORE.RESTR.CAVITY>
0

>  <SCORE.RESTR.norm>
0

>  <SCORE.SYSTEM>
0

>  <SCORE.SYSTEM.CONST>
0

>  <SCORE.SYSTEM.DIHEDRAL>
0

>  <SCORE.SYSTEM.SOLV>
0

>  <SCORE.SYSTEM.norm>
0

>  <SCORE.heavy>
27

>  <SCORE.norm>
-0.769238

>  <RMSD>
6.035

$$$$
ligand
 OpenBabel11021811483D
libRbt.so/2013.1/901 2013/11/27
 27 29  0  0  0  0  0  0  0  0999 V2000
   48.4080   53.2228   33.2444 N   0  0  0  0  0  0  0  0  0  0  0  0
   48.5509   54.5926   32.7663 C   0  0  2  0  0  0  0  0  0  0  0  0
   49.5591   54.6611   31.6312 C   0  0  0  0  0  0  0  0  0  0  0  0
   49.7274   55.7090   31.0119 O   0  0  0  0  0  0  0  0  0  0  0  0
   48.9502   55.5486   33.8895 C   0  0  0  0  0  0  0  0  0  0  0  0
   48.2457   56.8997   33.8603 C   0  0  0  0  0  0  0  0  0  0  0  0
   48.7483   57.9812   32.4931 S   0  0  2  0  0  0  0  0  0  0  0  0
   49.8331   59.1490   33.3501 C   0  0  0  0  0  0  0  0  0  0  0  0
   47.2537   58.9896   32.3108 C   0  0  0  0  0  0  0  0  0  0  0  0
   46.3285   58.3556   31.2829 C   0  0  1  0  0  0  0  0  0  0  0  0
   47.0069   58.3081   30.0508 O   0  0  0  0  0  0  0  0  0  0  0  0
   45.9502   56.9181   31.5779 C   0  0  1  0  0  0  0  0  0  0  0  0
   44.6937   56.8631   32.2082 O   0  0  0  0  0  0  0  0  0  0  0  0
   45.8923   56.2751   30.2041 C   0  0  1  0  0  0  0  0  0  0  0  0
   44.5463   56.0934   29.8329 O   0  0  0  0  0  0  0  0  0  0  0  0
   46.5691   57.2450   29.2436 C   0  0  2  0  0  0  0  0  0  0  0  0
   50.2244   53.6734   31.3180 O   0  0  0  0  0  0  0  0  0  0  0  0
   49.0493   52.6947   28.3340 N   0  0  0  0  0  0  0  0  0  0  0  0
   47.8495   52.9001   28.9846 C   0  0  0  0  0  0  0  0  0  0  0  0
   47.3442   54.1787   29.1342 N   0  0  0  0  0  0  0  0  0  0  0  0
   48.0209   55.2446   28.6533 C   0  0  0  0  0  0  0  0  0  0  0  0
   49.2250   55.0610   27.9898 C   0  0  0  0  0  0  0  0  0  0  0  0
   49.7421   53.7775   27.8351 C   0  0  0  0  0  0  0  0  0  0  0  0
   50.8990   53.5829   27.2074 N   0  0  0  0  0  0  0  0  0  0  0  0
   49.6728   56.2783   27.6093 N   0  0  0  0  0  0  0  0  0  0  0  0
   48.7783   57.2156   28.0019 C   0  0  0  0  0  0  0  0  0  0  0  0
   47.7473   56.5891   28.6517 N   0  0  0  0  0  0  0  0  0  0  0  0
  2  1  1  1  0  0  0
  2  3  1  0  0  0  0
  2  5  1  0  0  0  0
  3  4  1  0  0  0  0
  3 17  1  0  0  0  0
  5  6  1  0  0  0  0
  7  6  1  1  0  0  0
  7  8  1  0  0  0  0
  7  9  1  0  0  0  0
 10  9  1  1  0  0  0
 10 11  1  0  0  0  0
 10 12  1  0  0  0  0
 11 16  1  0  0  0  0
 12 13  1  6  0  0  0
 12 14  1  0  0  0  0
 14 15  1  6  0  0  0
 14 16  1  0  0  0  0
 16 27  1  1  0  0  0
 18 19  2  0  0  0  0
 18 23  1  0  0  0  0
 19 20  1  0  0  0  0
 20 21  2  0  0  0  0
 21 22  1  0  0  0  0
 21 27  1  0  0  0  0
 22 23  2  0  0  0  0
 22 25  1  0  0  0  0
 23 24  1  0  0  0  0
 25 26  2  0  0  0  0
 26 27  1  0  0  0  0
M  END
>  <CHROM.1>
173.26413488,-139.19538004,-69.98235788,-103.30964023,-91.96844606,-60.98067191
129.94743029,48.11161387,55.98808645,30.62452902,-2.01490516,0.75409833,-1.98205365

>  <Name>
ligand

>  <RI>
0

>  <Rbt.Current_Directory>
/home/itssahil/PROJECTS/Mol_Feturizer/New_Systems/rnas/3GX7

>  <Rbt.Executable>
rbdock ($Id: //depot/dev/client3/rdock/2013.1/src/exe/rbdock.cxx#4 $)

>  <Rbt.Library>
libRbt.so (2013.1, Build901 2013/11/27)

>  <Rbt.Parameter_File>
/export/apps/rDock/src/rDock_2013.1_src/data/scripts/dock_solv.prm

>  <Rbt.Receptor>
prm/pocket_docking_5.prm

>  <SCORE>
-14.0517

>  <SCORE.INTER>
-8.76873

>  <SCORE.INTER.CONST>
1

>  <SCORE.INTER.POLAR>
0

>  <SCORE.INTER.ROT>
7

>  <SCORE.INTER.SOLV>
9.88451

>  <SCORE.INTER.VDW>
-17.4073

>  <SCORE.INTER.norm>
-0.324768

>  <SCORE.INTRA>
-5.28295

>  <SCORE.INTRA.DIHEDRAL>
0.876485

>  <SCORE.INTRA.DIHEDRAL.0>
11.2699

>  <SCORE.INTRA.POLAR>
0

>  <SCORE.INTRA.POLAR.0>
0

>  <SCORE.INTRA.REPUL>
0

>  <SCORE.INTRA.REPUL.0>
0

>  <SCORE.INTRA.SOLV>
-0.419749

>  <SCORE.INTRA.SOLV.lig_0>
-48.6447

>  <SCORE.INTRA.VDW>
-5.51131

>  <SCORE.INTRA.VDW.0>
-0.0211724

>  <SCORE.INTRA.norm>
-0.195665

>  <SCORE.RESTR>
0

>  <SCORE.RESTR.CAVITY>
0

>  <SCORE.RESTR.norm>
0

>  <SCORE.SYSTEM>
0

>  <SCORE.SYSTEM.CONST>
0

>  <SCORE.SYSTEM.DIHEDRAL>
0

>  <SCORE.SYSTEM.SOLV>
0

>  <SCORE.SYSTEM.norm>
0

>  <SCORE.heavy>
27

>  <SCORE.norm>
-0.520433

>  <RMSD>
6.039

$$$$
ligand
 OpenBabel11021811483D
libRbt.so/2013.1/901 2013/11/27
 27 29  0  0  0  0  0  0  0  0999 V2000
   46.7739   53.9786   33.6890 N   0  0  0  0  0  0  0  0  0  0  0  0
   45.8222   54.4119   34.7048 C   0  0  2  0  0  0  0  0  0  0  0  0
   44.8044   53.3189   34.9861 C   0  0  0  0  0  0  0  0  0  0  0  0
   44.6001   52.9413   36.1374 O   0  0  0  0  0  0  0  0  0  0  0  0
   45.1147   55.7064   34.3065 C   0  0  0  0  0  0  0  0  0  0  0  0
   44.4047   55.6588   32.9588 C   0  0  0  0  0  0  0  0  0  0  0  0
   43.5091   57.1760   32.5260 S   0  0  2  0  0  0  0  0  0  0  0  0
   42.3979   56.5705   31.2324 C   0  0  0  0  0  0  0  0  0  0  0  0
   44.7611   58.0163   31.5209 C   0  0  0  0  0  0  0  0  0  0  0  0
   45.9815   58.3269   32.3746 C   0  0  1  0  0  0  0  0  0  0  0  0
   46.7563   57.1566   32.4763 O   0  0  0  0  0  0  0  0  0  0  0  0
   46.9148   59.3651   31.7849 C   0  0  1  0  0  0  0  0  0  0  0  0
   46.6533   60.6299   32.3423 O   0  0  0  0  0  0  0  0  0  0  0  0
   48.2940   58.8742   32.1864 C   0  0  1  0  0  0  0  0  0  0  0  0
   48.7818   59.6707   33.2400 O   0  0  0  0  0  0  0  0  0  0  0  0
   48.1205   57.4365   32.6600 C   0  0  2  0  0  0  0  0  0  0  0  0
   44.1671   52.7994   34.0694 O   0  0  0  0  0  0  0  0  0  0  0  0
   49.7803   56.4618   27.7632 N   0  0  0  0  0  0  0  0  0  0  0  0
   48.9852   57.4992   28.2066 C   0  0  0  0  0  0  0  0  0  0  0  0
   48.6443   57.5980   29.5432 N   0  0  0  0  0  0  0  0  0  0  0  0
   49.0775   56.6770   30.4318 C   0  0  0  0  0  0  0  0  0  0  0  0
   49.8835   55.6301   30.0096 C   0  0  0  0  0  0  0  0  0  0  0  0
   50.2312   55.5218   28.6657 C   0  0  0  0  0  0  0  0  0  0  0  0
   50.9979   54.5206   28.2415 N   0  0  0  0  0  0  0  0  0  0  0  0
   50.1763   54.8761   31.0926 N   0  0  0  0  0  0  0  0  0  0  0  0
   49.5901   55.4279   32.1810 C   0  0  0  0  0  0  0  0  0  0  0  0
   48.9041   56.5467   31.7865 N   0  0  0  0  0  0  0  0  0  0  0  0
  2  1  1  6  0  0  0
  2  3  1  0  0  0  0
  2  5  1  0  0  0  0
  3  4  1  0  0  0  0
  3 17  1  0  0  0  0
  5  6  1  0  0  0  0
  7  6  1  6  0  0  0
  7  8  1  0  0  0  0
  7  9  1  0  0  0  0
 10  9  1  6  0  0  0
 10 11  1  0  0  0  0
 10 12  1  0  0  0  0
 11 16  1  0  0  0  0
 12 13  1  1  0  0  0
 12 14  1  0  0  0  0
 14 15  1  1  0  0  0
 14 16  1  0  0  0  0
 16 27  1  6  0  0  0
 18 19  2  0  0  0  0
 18 23  1  0  0  0  0
 19 20  1  0  0  0  0
 20 21  2  0  0  0  0
 21 22  1  0  0  0  0
 21 27  1  0  0  0  0
 22 23  2  0  0  0  0
 22 25  1  0  0  0  0
 23 24  1  0  0  0  0
 25 26  2  0  0  0  0
 26 27  1  0  0  0  0
M  END
>  <CHROM.1>
127.53451551,55.45409434,177.54182998,-161.85016368,-63.05726342,80.28660681
76.54001502,46.93505721,56.44824752,31.99026691,-2.71662380,0.59507330,-0.30225099

>  <Name>
ligand

>  <RI>
0

>  <Rbt.Current_Directory>
/home/itssahil/PROJECTS/Mol_Feturizer/New_Systems/rnas/3GX7

>  <Rbt.Executable>
rbdock ($Id: //depot/dev/client3/rdock/2013.1/src/exe/rbdock.cxx#4 $)

>  <Rbt.Library>
libRbt.so (2013.1, Build901 2013/11/27)

>  <Rbt.Parameter_File>
/export/apps/rDock/src/rDock_2013.1_src/data/scripts/dock_solv.prm

>  <Rbt.Receptor>
prm/pocket_docking_7.prm

>  <SCORE>
-17.8258

>  <SCORE.INTER>
-13.5217

>  <SCORE.INTER.CONST>
1

>  <SCORE.INTER.POLAR>
0

>  <SCORE.INTER.ROT>
7

>  <SCORE.INTER.SOLV>
11.2446

>  <SCORE.INTER.VDW>
-21.0293

>  <SCORE.INTER.norm>
-0.500804

>  <SCORE.INTRA>
-4.30415

>  <SCORE.INTRA.DIHEDRAL>
-4.78823

>  <SCORE.INTRA.DIHEDRAL.0>
11.2699

>  <SCORE.INTRA.POLAR>
0

>  <SCORE.INTRA.POLAR.0>
0

>  <SCORE.INTRA.REPUL>
0

>  <SCORE.INTRA.REPUL.0>
0

>  <SCORE.INTRA.SOLV>
1.39457

>  <SCORE.INTRA.SOLV.lig_0>
-48.6447

>  <SCORE.INTRA.VDW>
-2.60732

>  <SCORE.INTRA.VDW.0>
-0.0211724

>  <SCORE.INTRA.norm>
-0.159413

>  <SCORE.RESTR>
0

>  <SCORE.RESTR.CAVITY>
0

>  <SCORE.RESTR.norm>
0

>  <SCORE.SYSTEM>
0

>  <SCORE.SYSTEM.CONST>
0

>  <SCORE.SYSTEM.DIHEDRAL>
0

>  <SCORE.SYSTEM.SOLV>
0

>  <SCORE.SYSTEM.norm>
0

>  <SCORE.heavy>
27

>  <SCORE.norm>
-0.660217

>  <RMSD>
6.077

$$$$
ligand
 OpenBabel11021811483D
libRbt.so/2013.1/901 2013/11/27
 27 29  0  0  0  0  0  0  0  0999 V2000
   45.6669   52.8409   36.2532 N   0  0  0  0  0  0  0  0  0  0  0  0
   46.2217   54.1091   35.7956 C   0  0  2  0  0  0  0  0  0  0  0  0
   45.5285   54.5689   34.5237 C   0  0  0  0  0  0  0  0  0  0  0  0
   44.9719   55.6636   34.4802 O   0  0  0  0  0  0  0  0  0  0  0  0
   47.7315   54.0236   35.5762 C   0  0  0  0  0  0  0  0  0  0  0  0
   48.4196   55.3618   35.3347 C   0  0  0  0  0  0  0  0  0  0  0  0
   48.0729   56.1052   33.7166 S   0  0  2  0  0  0  0  0  0  0  0  0
   49.2167   55.1873   32.6564 C   0  0  0  0  0  0  0  0  0  0  0  0
   48.9627   57.6750   33.8834 C   0  0  0  0  0  0  0  0  0  0  0  0
   48.6504   58.5714   32.6944 C   0  0  1  0  0  0  0  0  0  0  0  0
   49.2703   58.0236   31.5560 O   0  0  0  0  0  0  0  0  0  0  0  0
   47.1798   58.6552   32.3381 C   0  0  1  0  0  0  0  0  0  0  0  0
   46.6066   59.8114   32.8982 O   0  0  0  0  0  0  0  0  0  0  0  0
   47.1839   58.7361   30.8223 C   0  0  1  0  0  0  0  0  0  0  0  0
   46.9057   60.0586   30.4272 O   0  0  0  0  0  0  0  0  0  0  0  0
   48.5857   58.3440   30.3720 C   0  0  2  0  0  0  0  0  0  0  0  0
   45.5174   53.8574   33.5187 O   0  0  0  0  0  0  0  0  0  0  0  0
   45.6490   55.5281   27.0357 N   0  0  0  0  0  0  0  0  0  0  0  0
   45.3353   56.7215   27.6540 C   0  0  0  0  0  0  0  0  0  0  0  0
   46.2382   57.3249   28.5102 N   0  0  0  0  0  0  0  0  0  0  0  0
   47.4359   56.7514   28.7597 C   0  0  0  0  0  0  0  0  0  0  0  0
   47.7751   55.5558   28.1438 C   0  0  0  0  0  0  0  0  0  0  0  0
   46.8721   54.9404   27.2809 C   0  0  0  0  0  0  0  0  0  0  0  0
   47.1776   53.7900   26.6864 N   0  0  0  0  0  0  0  0  0  0  0  0
   49.0173   55.2199   28.5576 N   0  0  0  0  0  0  0  0  0  0  0  0
   49.4705   56.1762   29.4018 C   0  0  0  0  0  0  0  0  0  0  0  0
   48.4996   57.1337   29.5374 N   0  0  0  0  0  0  0  0  0  0  0  0
  2  1  1  6  0  0  0
  2  3  1  0  0  0  0
  2  5  1  0  0  0  0
  3  4  1  0  0  0  0
  3 17  1  0  0  0  0
  5  6  1  0  0  0  0
  7  6  1  1  0  0  0
  7  8  1  0  0  0  0
  7  9  1  0  0  0  0
 10  9  1  1  0  0  0
 10 11  1  0  0  0  0
 10 12  1  0  0  0  0
 11 16  1  0  0  0  0
 12 13  1  1  0  0  0
 12 14  1  0  0  0  0
 14 15  1  1  0  0  0
 14 16  1  0  0  0  0
 16 27  1  6  0  0  0
 18 19  2  0  0  0  0
 18 23  1  0  0  0  0
 19 20  1  0  0  0  0
 20 21  2  0  0  0  0
 21 22  1  0  0  0  0
 21 27  1  0  0  0  0
 22 23  2  0  0  0  0
 22 25  1  0  0  0  0
 23 24  1  0  0  0  0
 25 26  2  0  0  0  0
 26 27  1  0  0  0  0
M  END
>  <CHROM.1>
122.63712166,-169.80004371,-71.80589145,-80.48412473,-172.09340395,-70.34000638
142.27474678,47.36632385,56.33922980,31.61494595,1.75199658,1.25827993,1.61326030

>  <Name>
ligand

>  <RI>
0

>  <Rbt.Current_Directory>
/home/itssahil/PROJECTS/Mol_Feturizer/New_Systems/rnas/3GX7

>  <Rbt.Executable>
rbdock ($Id: //depot/dev/client3/rdock/2013.1/src/exe/rbdock.cxx#4 $)

>  <Rbt.Library>
libRbt.so (2013.1, Build901 2013/11/27)

>  <Rbt.Parameter_File>
/export/apps/rDock/src/rDock_2013.1_src/data/scripts/dock_solv.prm

>  <Rbt.Receptor>
prm/pocket_docking_3.prm

>  <SCORE>
-16.5216

>  <SCORE.INTER>
-10.5361

>  <SCORE.INTER.CONST>
1

>  <SCORE.INTER.POLAR>
0

>  <SCORE.INTER.ROT>
7

>  <SCORE.INTER.SOLV>
11.7296

>  <SCORE.INTER.VDW>
-19.2006

>  <SCORE.INTER.norm>
-0.390225

>  <SCORE.INTRA>
-5.98551

>  <SCORE.INTRA.DIHEDRAL>
-5.6969

>  <SCORE.INTRA.DIHEDRAL.0>
11.2699

>  <SCORE.INTRA.POLAR>
0

>  <SCORE.INTRA.POLAR.0>
0

>  <SCORE.INTRA.REPUL>
0

>  <SCORE.INTRA.REPUL.0>
0

>  <SCORE.INTRA.SOLV>
-0.663118

>  <SCORE.INTRA.SOLV.lig_0>
-48.6447

>  <SCORE.INTRA.VDW>
-2.8055

>  <SCORE.INTRA.VDW.0>
-0.0211724

>  <SCORE.INTRA.norm>
-0.221685

>  <SCORE.RESTR>
0

>  <SCORE.RESTR.CAVITY>
0

>  <SCORE.RESTR.norm>
0

>  <SCORE.SYSTEM>
0

>  <SCORE.SYSTEM.CONST>
0

>  <SCORE.SYSTEM.DIHEDRAL>
0

>  <SCORE.SYSTEM.SOLV>
0

>  <SCORE.SYSTEM.norm>
0

>  <SCORE.heavy>
27

>  <SCORE.norm>
-0.611911

>  <RMSD>
6.079

$$$$
ligand
 OpenBabel11021811483D
libRbt.so/2013.1/901 2013/11/27
 27 29  0  0  0  0  0  0  0  0999 V2000
   43.8022   53.9394   34.5577 N   0  0  0  0  0  0  0  0  0  0  0  0
   44.1898   55.3231   34.3112 C   0  0  2  0  0  0  0  0  0  0  0  0
   43.3267   55.9345   33.2199 C   0  0  0  0  0  0  0  0  0  0  0  0
   43.3134   57.1509   33.0465 O   0  0  0  0  0  0  0  0  0  0  0  0
   45.6691   55.4436   33.9481 C   0  0  0  0  0  0  0  0  0  0  0  0
   46.1631   56.8706   33.7422 C   0  0  0  0  0  0  0  0  0  0  0  0
   47.8580   56.9960   33.1075 S   0  0  2  0  0  0  0  0  0  0  0  0
   48.8072   56.3722   34.5163 C   0  0  0  0  0  0  0  0  0  0  0  0
   48.1386   58.7779   33.2815 C   0  0  0  0  0  0  0  0  0  0  0  0
   47.5267   59.5123   32.0980 C   0  0  1  0  0  0  0  0  0  0  0  0
   48.1740   59.0757   30.9272 O   0  0  0  0  0  0  0  0  0  0  0  0
   46.0579   59.2198   31.8664 C   0  0  1  0  0  0  0  0  0  0  0  0
   45.2625   60.2288   32.4394 O   0  0  0  0  0  0  0  0  0  0  0  0
   45.9272   59.2247   30.3540 C   0  0  1  0  0  0  0  0  0  0  0  0
   45.3037   60.4193   29.9457 O   0  0  0  0  0  0  0  0  0  0  0  0
   47.3440   59.1621   29.7972 C   0  0  2  0  0  0  0  0  0  0  0  0
   42.6334   55.2237   32.4916 O   0  0  0  0  0  0  0  0  0  0  0  0
   46.5259   53.9683   29.5994 N   0  0  0  0  0  0  0  0  0  0  0  0
   46.2060   54.8469   30.6147 C   0  0  0  0  0  0  0  0  0  0  0  0
   46.4995   56.1929   30.4941 N   0  0  0  0  0  0  0  0  0  0  0  0
   47.1104   56.6654   29.3854 C   0  0  0  0  0  0  0  0  0  0  0  0
   47.4345   55.8017   28.3497 C   0  0  0  0  0  0  0  0  0  0  0  0
   47.1436   54.4447   28.4624 C   0  0  0  0  0  0  0  0  0  0  0  0
   47.4533   53.6004   27.4819 N   0  0  0  0  0  0  0  0  0  0  0  0
   48.0171   56.5331   27.3736 N   0  0  0  0  0  0  0  0  0  0  0  0
   48.0539   57.8296   27.7615 C   0  0  0  0  0  0  0  0  0  0  0  0
   47.4947   57.9275   29.0087 N   0  0  0  0  0  0  0  0  0  0  0  0
  2  1  1  6  0  0  0
  2  3  1  0  0  0  0
  2  5  1  0  0  0  0
  3  4  1  0  0  0  0
  3 17  1  0  0  0  0
  5  6  1  0  0  0  0
  7  6  1  1  0  0  0
  7  8  1  0  0  0  0
  7  9  1  0  0  0  0
 10  9  1  1  0  0  0
 10 11  1  0  0  0  0
 10 12  1  0  0  0  0
 11 16  1  0  0  0  0
 12 13  1  1  0  0  0
 12 14  1  0  0  0  0
 14 15  1  6  0  0  0
 14 16  1  0  0  0  0
 16 27  1  6  0  0  0
 18 19  2  0  0  0  0
 18 23  1  0  0  0  0
 19 20  1  0  0  0  0
 20 21  2  0  0  0  0
 21 22  1  0  0  0  0
 21 27  1  0  0  0  0
 22 23  2  0  0  0  0
 22 25  1  0  0  0  0
 23 24  1  0  0  0  0
 25 26  2  0  0  0  0
 26 27  1  0  0  0  0
M  END
>  <CHROM.1>
165.69314739,-177.16949993,-172.58348076,-67.72447659,-81.88797433,-62.03985144
66.65577570,46.38548477,56.96563528,31.34599803,2.72621181,1.03452887,0.61950124

>  <Name>
ligand

>  <RI>
0

>  <Rbt.Current_Directory>
/home/itssahil/PROJECTS/Mol_Feturizer/New_Systems/rnas/3GX7

>  <Rbt.Executable>
rbdock ($Id: //depot/dev/client3/rdock/2013.1/src/exe/rbdock.cxx#4 $)

>  <Rbt.Library>
libRbt.so (2013.1, Build901 2013/11/27)

>  <Rbt.Parameter_File>
/export/apps/rDock/src/rDock_2013.1_src/data/scripts/dock_solv.prm

>  <Rbt.Receptor>
prm/pocket_docking_7.prm

>  <SCORE>
-18.0375

>  <SCORE.INTER>
-10.3982

>  <SCORE.INTER.CONST>
1

>  <SCORE.INTER.POLAR>
0

>  <SCORE.INTER.ROT>
7

>  <SCORE.INTER.SOLV>
9.0789

>  <SCORE.INTER.VDW>
-18.2251

>  <SCORE.INTER.norm>
-0.38512

>  <SCORE.INTRA>
-7.63923

>  <SCORE.INTRA.DIHEDRAL>
-7.34372

>  <SCORE.INTRA.DIHEDRAL.0>
11.2699

>  <SCORE.INTRA.POLAR>
0

>  <SCORE.INTRA.POLAR.0>
0

>  <SCORE.INTRA.REPUL>
0

>  <SCORE.INTRA.REPUL.0>
0

>  <SCORE.INTRA.SOLV>
-0.655263

>  <SCORE.INTRA.SOLV.lig_0>
-48.6447

>  <SCORE.INTRA.VDW>
-3.63974

>  <SCORE.INTRA.VDW.0>
-0.0211724

>  <SCORE.INTRA.norm>
-0.282935

>  <SCORE.RESTR>
0

>  <SCORE.RESTR.CAVITY>
0

>  <SCORE.RESTR.norm>
0

>  <SCORE.SYSTEM>
0

>  <SCORE.SYSTEM.CONST>
0

>  <SCORE.SYSTEM.DIHEDRAL>
0

>  <SCORE.SYSTEM.SOLV>
0

>  <SCORE.SYSTEM.norm>
0

>  <SCORE.heavy>
27

>  <SCORE.norm>
-0.668054

>  <RMSD>
6.079

$$$$
ligand
 OpenBabel11021811483D
libRbt.so/2013.1/901 2013/11/27
 27 29  0  0  0  0  0  0  0  0999 V2000
   50.0771   55.8260   27.5289 N   0  0  0  0  0  0  0  0  0  0  0  0
   51.1219   55.4585   28.4769 C   0  0  2  0  0  0  0  0  0  0  0  0
   52.3537   54.9504   27.7459 C   0  0  0  0  0  0  0  0  0  0  0  0
   52.2832   53.9578   27.0250 O   0  0  0  0  0  0  0  0  0  0  0  0
   50.6356   54.4179   29.4846 C   0  0  0  0  0  0  0  0  0  0  0  0
   49.6101   54.9302   30.4888 C   0  0  0  0  0  0  0  0  0  0  0  0
   49.0574   53.6947   31.6969 S   0  0  2  0  0  0  0  0  0  0  0  0
   48.1240   52.5620   30.6382 C   0  0  0  0  0  0  0  0  0  0  0  0
   47.7025   54.5997   32.4899 C   0  0  0  0  0  0  0  0  0  0  0  0
   46.9642   53.6805   33.4515 C   0  0  1  0  0  0  0  0  0  0  0  0
   47.8067   53.4247   34.5493 O   0  0  0  0  0  0  0  0  0  0  0  0
   45.7072   54.2765   34.0524 C   0  0  1  0  0  0  0  0  0  0  0  0
   44.5732   53.8447   33.3405 O   0  0  0  0  0  0  0  0  0  0  0  0
   45.6946   53.7298   35.4685 C   0  0  1  0  0  0  0  0  0  0  0  0
   44.7301   52.7085   35.5633 O   0  0  0  0  0  0  0  0  0  0  0  0
   47.0834   53.1574   35.7235 C   0  0  2  0  0  0  0  0  0  0  0  0
   53.4366   55.5254   27.8596 O   0  0  0  0  0  0  0  0  0  0  0  0
   47.6569   53.5393   40.9397 N   0  0  0  0  0  0  0  0  0  0  0  0
   46.9146   52.6207   40.2255 C   0  0  0  0  0  0  0  0  0  0  0  0
   46.8783   52.6723   38.8440 N   0  0  0  0  0  0  0  0  0  0  0  0
   47.5615   53.6267   38.1748 C   0  0  0  0  0  0  0  0  0  0  0  0
   48.3198   54.5557   38.8718 C   0  0  0  0  0  0  0  0  0  0  0  0
   48.3617   54.5122   40.2628 C   0  0  0  0  0  0  0  0  0  0  0  0
   49.0782   55.3992   40.9484 N   0  0  0  0  0  0  0  0  0  0  0  0
   48.8993   55.3742   37.9655 N   0  0  0  0  0  0  0  0  0  0  0  0
   48.5381   54.9762   36.7230 C   0  0  0  0  0  0  0  0  0  0  0  0
   47.7074   53.8924   36.8366 N   0  0  0  0  0  0  0  0  0  0  0  0
  2  1  1  6  0  0  0
  2  3  1  0  0  0  0
  2  5  1  0  0  0  0
  3  4  1  0  0  0  0
  3 17  1  0  0  0  0
  5  6  1  0  0  0  0
  7  6  1  6  0  0  0
  7  8  1  0  0  0  0
  7  9  1  0  0  0  0
 10  9  1  6  0  0  0
 10 11  1  0  0  0  0
 10 12  1  0  0  0  0
 11 16  1  0  0  0  0
 12 13  1  6  0  0  0
 12 14  1  0  0  0  0
 14 15  1  6  0  0  0
 14 16  1  0  0  0  0
 16 27  1  1  0  0  0
 18 19  2  0  0  0  0
 18 23  1  0  0  0  0
 19 20  1  0  0  0  0
 20 21  2  0  0  0  0
 21 22  1  0  0  0  0
 21 27  1  0  0  0  0
 22 23  2  0  0  0  0
 22 25  1  0  0  0  0
 23 24  1  0  0  0  0
 25 26  2  0  0  0  0
 26 27  1  0  0  0  0
M  END
>  <CHROM.1>
-60.53013208,-69.51003862,-179.11515772,-68.36062507,173.28617946,70.22260618
-160.32849087,48.44213339,54.11274712,34.00436244,1.21132395,-0.31982209
-1.60527953

>  <Name>
ligand

>  <RI>
0

>  <Rbt.Current_Directory>
/home/itssahil/PROJECTS/Mol_Feturizer/New_Systems/rnas/3GX7

>  <Rbt.Executable>
rbdock ($Id: //depot/dev/client3/rdock/2013.1/src/exe/rbdock.cxx#4 $)

>  <Rbt.Library>
libRbt.so (2013.1, Build901 2013/11/27)

>  <Rbt.Parameter_File>
/export/apps/rDock/src/rDock_2013.1_src/data/scripts/dock_solv.prm

>  <Rbt.Receptor>
prm/pocket_docking_7.prm

>  <SCORE>
-26.0946

>  <SCORE.INTER>
-20.0168

>  <SCORE.INTER.CONST>
1

>  <SCORE.INTER.POLAR>
0

>  <SCORE.INTER.ROT>
7

>  <SCORE.INTER.SOLV>
18.9027

>  <SCORE.INTER.VDW>
-27.9121

>  <SCORE.INTER.norm>
-0.741365

>  <SCORE.INTRA>
-6.07776

>  <SCORE.INTRA.DIHEDRAL>
-7.37007

>  <SCORE.INTRA.DIHEDRAL.0>
11.2699

>  <SCORE.INTRA.POLAR>
0

>  <SCORE.INTRA.POLAR.0>
0

>  <SCORE.INTRA.REPUL>
0

>  <SCORE.INTRA.REPUL.0>
0

>  <SCORE.INTRA.SOLV>
-0.567138

>  <SCORE.INTRA.SOLV.lig_0>
-48.6447

>  <SCORE.INTRA.VDW>
-2.10916

>  <SCORE.INTRA.VDW.0>
-0.0211724

>  <SCORE.INTRA.norm>
-0.225102

>  <SCORE.RESTR>
0

>  <SCORE.RESTR.CAVITY>
0

>  <SCORE.RESTR.norm>
0

>  <SCORE.SYSTEM>
0

>  <SCORE.SYSTEM.CONST>
0

>  <SCORE.SYSTEM.DIHEDRAL>
0

>  <SCORE.SYSTEM.SOLV>
0

>  <SCORE.SYSTEM.norm>
0

>  <SCORE.heavy>
27

>  <SCORE.norm>
-0.966467

>  <RMSD>
6.099

$$$$
ligand
 OpenBabel11021811483D
libRbt.so/2013.1/901 2013/11/27
 27 29  0  0  0  0  0  0  0  0999 V2000
   47.1512   57.2349   28.7833 N   0  0  0  0  0  0  0  0  0  0  0  0
   46.2696   57.5486   29.9013 C   0  0  2  0  0  0  0  0  0  0  0  0
   44.8131   57.4231   29.4863 C   0  0  0  0  0  0  0  0  0  0  0  0
   44.4467   57.8106   28.3792 O   0  0  0  0  0  0  0  0  0  0  0  0
   46.5422   58.9414   30.4675 C   0  0  0  0  0  0  0  0  0  0  0  0
   47.8564   59.0772   31.2272 C   0  0  0  0  0  0  0  0  0  0  0  0
   47.7041   58.9214   33.0283 S   0  0  2  0  0  0  0  0  0  0  0  0
   49.4170   59.1848   33.5493 C   0  0  0  0  0  0  0  0  0  0  0  0
   47.5819   57.1205   33.1889 C   0  0  0  0  0  0  0  0  0  0  0  0
   46.1712   56.6683   32.8423 C   0  0  1  0  0  0  0  0  0  0  0  0
   46.0358   55.3202   33.2225 O   0  0  0  0  0  0  0  0  0  0  0  0
   45.0741   57.3988   33.5902 C   0  0  1  0  0  0  0  0  0  0  0  0
   44.5477   58.4342   32.7965 O   0  0  0  0  0  0  0  0  0  0  0  0
   44.0310   56.3232   33.8337 C   0  0  1  0  0  0  0  0  0  0  0  0
   42.9524   56.5137   32.9490 O   0  0  0  0  0  0  0  0  0  0  0  0
   44.7093   54.9897   33.5456 C   0  0  2  0  0  0  0  0  0  0  0  0
   43.9807   56.9287   30.2472 O   0  0  0  0  0  0  0  0  0  0  0  0
   41.8801   53.1367   37.5762 N   0  0  0  0  0  0  0  0  0  0  0  0
   41.4615   53.9395   36.5345 C   0  0  0  0  0  0  0  0  0  0  0  0
   42.3525   54.3349   35.5536 N   0  0  0  0  0  0  0  0  0  0  0  0
   43.6461   53.9480   35.6052 C   0  0  0  0  0  0  0  0  0  0  0  0
   44.0870   53.1353   36.6391 C   0  0  0  0  0  0  0  0  0  0  0  0
   43.1974   52.7329   37.6317 C   0  0  0  0  0  0  0  0  0  0  0  0
   43.6041   51.9589   38.6346 N   0  0  0  0  0  0  0  0  0  0  0  0
   45.4021   52.8951   36.4389 N   0  0  0  0  0  0  0  0  0  0  0  0
   45.7930   53.5209   35.3038 C   0  0  0  0  0  0  0  0  0  0  0  0
   44.7137   54.1791   34.7750 N   0  0  0  0  0  0  0  0  0  0  0  0
  2  1  1  6  0  0  0
  2  3  1  0  0  0  0
  2  5  1  0  0  0  0
  3  4  1  0  0  0  0
  3 17  1  0  0  0  0
  5  6  1  0  0  0  0
  7  6  1  6  0  0  0
  7  8  1  0  0  0  0
  7  9  1  0  0  0  0
 10  9  1  1  0  0  0
 10 11  1  0  0  0  0
 10 12  1  0  0  0  0
 11 16  1  0  0  0  0
 12 13  1  6  0  0  0
 12 14  1  0  0  0  0
 14 15  1  6  0  0  0
 14 16  1  0  0  0  0
 16 27  1  1  0  0  0
 18 19  2  0  0  0  0
 18 23  1  0  0  0  0
 19 20  1  0  0  0  0
 20 21  2  0  0  0  0
 21 22  1  0  0  0  0
 21 27  1  0  0  0  0
 22 23  2  0  0  0  0
 22 25  1  0  0  0  0
 23 24  1  0  0  0  0
 25 26  2  0  0  0  0
 26 27  1  0  0  0  0
M  END
>  <CHROM.1>
-39.72980967,-70.85158414,-96.98564140,-178.35513059,-78.58685363,-168.75339899
161.91143168,45.16929840,56.13441408,33.42905870,1.12165127,-0.46963550,-1.08522219

>  <Name>
ligand

>  <RI>
0

>  <Rbt.Current_Directory>
/home/itssahil/PROJECTS/Mol_Feturizer/New_Systems/rnas/3GX7

>  <Rbt.Executable>
rbdock ($Id: //depot/dev/client3/rdock/2013.1/src/exe/rbdock.cxx#4 $)

>  <Rbt.Library>
libRbt.so (2013.1, Build901 2013/11/27)

>  <Rbt.Parameter_File>
/export/apps/rDock/src/rDock_2013.1_src/data/scripts/dock_solv.prm

>  <Rbt.Receptor>
prm/pocket_docking_8.prm

>  <SCORE>
-20.3842

>  <SCORE.INTER>
-15.4662

>  <SCORE.INTER.CONST>
1

>  <SCORE.INTER.POLAR>
0

>  <SCORE.INTER.ROT>
7

>  <SCORE.INTER.SOLV>
8.32782

>  <SCORE.INTER.VDW>
-21.3534

>  <SCORE.INTER.norm>
-0.572822

>  <SCORE.INTRA>
-4.91795

>  <SCORE.INTRA.DIHEDRAL>
-2.81269

>  <SCORE.INTRA.DIHEDRAL.0>
11.2699

>  <SCORE.INTRA.POLAR>
0

>  <SCORE.INTRA.POLAR.0>
0

>  <SCORE.INTRA.REPUL>
0

>  <SCORE.INTRA.REPUL.0>
0

>  <SCORE.INTRA.SOLV>
1.05805

>  <SCORE.INTRA.SOLV.lig_0>
-48.6447

>  <SCORE.INTRA.VDW>
-4.04063

>  <SCORE.INTRA.VDW.0>
-0.0211724

>  <SCORE.INTRA.norm>
-0.182146

>  <SCORE.RESTR>
0

>  <SCORE.RESTR.CAVITY>
0

>  <SCORE.RESTR.norm>
0

>  <SCORE.SYSTEM>
0

>  <SCORE.SYSTEM.CONST>
0

>  <SCORE.SYSTEM.DIHEDRAL>
0

>  <SCORE.SYSTEM.SOLV>
0

>  <SCORE.SYSTEM.norm>
0

>  <SCORE.heavy>
27

>  <SCORE.norm>
-0.754969

>  <RMSD>
6.115

$$$$
ligand
 OpenBabel11021811483D
libRbt.so/2013.1/901 2013/11/27
 27 29  0  0  0  0  0  0  0  0999 V2000
   46.8798   55.9229   29.3232 N   0  0  0  0  0  0  0  0  0  0  0  0
   47.7046   57.1135   29.4892 C   0  0  2  0  0  0  0  0  0  0  0  0
   47.8790   57.8334   28.1621 C   0  0  0  0  0  0  0  0  0  0  0  0
   47.6424   57.2537   27.1049 O   0  0  0  0  0  0  0  0  0  0  0  0
   49.0671   56.7818   30.0963 C   0  0  0  0  0  0  0  0  0  0  0  0
   49.0234   56.3014   31.5420 C   0  0  0  0  0  0  0  0  0  0  0  0
   48.2705   57.4752   32.7025 S   0  0  2  0  0  0  0  0  0  0  0  0
   49.4320   58.8595   32.6043 C   0  0  0  0  0  0  0  0  0  0  0  0
   48.7685   56.7359   34.2803 C   0  0  0  0  0  0  0  0  0  0  0  0
   48.1508   55.3523   34.4171 C   0  0  1  0  0  0  0  0  0  0  0  0
   48.5977   54.7890   35.6267 O   0  0  0  0  0  0  0  0  0  0  0  0
   46.6386   55.3448   34.5160 C   0  0  1  0  0  0  0  0  0  0  0  0
   46.0680   55.0780   33.2582 O   0  0  0  0  0  0  0  0  0  0  0  0
   46.3502   54.2157   35.4888 C   0  0  1  0  0  0  0  0  0  0  0  0
   45.8721   53.0995   34.7759 O   0  0  0  0  0  0  0  0  0  0  0  0
   47.6746   53.8742   36.1601 C   0  0  2  0  0  0  0  0  0  0  0  0
   48.2539   59.0057   28.1250 O   0  0  0  0  0  0  0  0  0  0  0  0
   44.9565   52.8847   40.5552 N   0  0  0  0  0  0  0  0  0  0  0  0
   44.7195   52.4162   39.2788 C   0  0  0  0  0  0  0  0  0  0  0  0
   45.5456   52.7852   38.2330 N   0  0  0  0  0  0  0  0  0  0  0  0
   46.5906   53.6153   38.4439 C   0  0  0  0  0  0  0  0  0  0  0  0
   46.8517   54.0925   39.7198 C   0  0  0  0  0  0  0  0  0  0  0  0
   46.0250   53.7271   40.7789 C   0  0  0  0  0  0  0  0  0  0  0  0
   46.2562   54.1805   42.0082 N   0  0  0  0  0  0  0  0  0  0  0  0
   47.9472   54.8810   39.6459 N   0  0  0  0  0  0  0  0  0  0  0  0
   48.3871   54.8994   38.3658 C   0  0  0  0  0  0  0  0  0  0  0  0
   47.5548   54.1184   37.6075 N   0  0  0  0  0  0  0  0  0  0  0  0
  2  1  1  6  0  0  0
  2  3  1  0  0  0  0
  2  5  1  0  0  0  0
  3  4  1  0  0  0  0
  3 17  1  0  0  0  0
  5  6  1  0  0  0  0
  7  6  1  6  0  0  0
  7  8  1  0  0  0  0
  7  9  1  0  0  0  0
 10  9  1  1  0  0  0
 10 11  1  0  0  0  0
 10 12  1  0  0  0  0
 11 16  1  0  0  0  0
 12 13  1  6  0  0  0
 12 14  1  0  0  0  0
 14 15  1  6  0  0  0
 14 16  1  0  0  0  0
 16 27  1  1  0  0  0
 18 19  2  0  0  0  0
 18 23  1  0  0  0  0
 19 20  1  0  0  0  0
 20 21  2  0  0  0  0
 21 22  1  0  0  0  0
 21 27  1  0  0  0  0
 22 23  2  0  0  0  0
 22 25  1  0  0  0  0
 23 24  1  0  0  0  0
 25 26  2  0  0  0  0
 26 27  1  0  0  0  0
M  END
>  <CHROM.1>
-17.40315311,-67.53009827,-58.59215794,-63.99395353,-62.83156607,177.81622420
167.11349254,47.36774417,55.43564607,34.64526012,1.33252524,-0.79379670,-1.37658439

>  <Name>
ligand

>  <RI>
0

>  <Rbt.Current_Directory>
/home/itssahil/PROJECTS/Mol_Feturizer/New_Systems/rnas/3GX7

>  <Rbt.Executable>
rbdock ($Id: //depot/dev/client3/rdock/2013.1/src/exe/rbdock.cxx#4 $)

>  <Rbt.Library>
libRbt.so (2013.1, Build901 2013/11/27)

>  <Rbt.Parameter_File>
/export/apps/rDock/src/rDock_2013.1_src/data/scripts/dock_solv.prm

>  <Rbt.Receptor>
prm/pocket_docking_8.prm

>  <SCORE>
-23.1149

>  <SCORE.INTER>
-17.1899

>  <SCORE.INTER.CONST>
1

>  <SCORE.INTER.POLAR>
0

>  <SCORE.INTER.ROT>
7

>  <SCORE.INTER.SOLV>
10.5838

>  <SCORE.INTER.VDW>
-23.2546

>  <SCORE.INTER.norm>
-0.636665

>  <SCORE.INTRA>
-5.92492

>  <SCORE.INTRA.DIHEDRAL>
-7.69506

>  <SCORE.INTRA.DIHEDRAL.0>
11.2699

>  <SCORE.INTRA.POLAR>
0

>  <SCORE.INTRA.POLAR.0>
0

>  <SCORE.INTRA.REPUL>
0

>  <SCORE.INTRA.REPUL.0>
0

>  <SCORE.INTRA.SOLV>
0.4829

>  <SCORE.INTRA.SOLV.lig_0>
-48.6447

>  <SCORE.INTRA.VDW>
-2.31884

>  <SCORE.INTRA.VDW.0>
-0.0211724

>  <SCORE.INTRA.norm>
-0.219441

>  <SCORE.RESTR>
0

>  <SCORE.RESTR.CAVITY>
0

>  <SCORE.RESTR.norm>
0

>  <SCORE.SYSTEM>
0

>  <SCORE.SYSTEM.CONST>
0

>  <SCORE.SYSTEM.DIHEDRAL>
0

>  <SCORE.SYSTEM.SOLV>
0

>  <SCORE.SYSTEM.norm>
0

>  <SCORE.heavy>
27

>  <SCORE.norm>
-0.856106

>  <RMSD>
6.120

$$$$
ligand
 OpenBabel11021811483D
libRbt.so/2013.1/901 2013/11/27
 27 29  0  0  0  0  0  0  0  0999 V2000
   49.0422   52.9817   29.0413 N   0  0  0  0  0  0  0  0  0  0  0  0
   50.1530   53.8186   28.6039 C   0  0  2  0  0  0  0  0  0  0  0  0
   51.3645   52.9661   28.2648 C   0  0  0  0  0  0  0  0  0  0  0  0
   51.2201   51.8373   27.8014 O   0  0  0  0  0  0  0  0  0  0  0  0
   50.5196   54.8701   29.6502 C   0  0  0  0  0  0  0  0  0  0  0  0
   49.4724   55.9575   29.8587 C   0  0  0  0  0  0  0  0  0  0  0  0
   47.9463   55.3891   30.6585 S   0  0  2  0  0  0  0  0  0  0  0  0
   47.1206   56.9633   30.9974 C   0  0  0  0  0  0  0  0  0  0  0  0
   48.5764   54.9833   32.3084 C   0  0  0  0  0  0  0  0  0  0  0  0
   47.5396   54.1697   33.0685 C   0  0  1  0  0  0  0  0  0  0  0  0
   48.1289   53.7112   34.2614 O   0  0  0  0  0  0  0  0  0  0  0  0
   46.3218   54.9563   33.5097 C   0  0  1  0  0  0  0  0  0  0  0  0
   45.2661   54.7743   32.5979 O   0  0  0  0  0  0  0  0  0  0  0  0
   45.9775   54.3536   34.8597 C   0  0  1  0  0  0  0  0  0  0  0  0
   44.8489   53.5229   34.7230 O   0  0  0  0  0  0  0  0  0  0  0  0
   47.1836   53.5248   35.2837 C   0  0  2  0  0  0  0  0  0  0  0  0
   52.5058   53.3926   28.4435 O   0  0  0  0  0  0  0  0  0  0  0  0
   47.2365   53.2458   40.5375 N   0  0  0  0  0  0  0  0  0  0  0  0
   46.5218   52.4709   39.6467 C   0  0  0  0  0  0  0  0  0  0  0  0
   46.6311   52.6882   38.2853 N   0  0  0  0  0  0  0  0  0  0  0  0
   47.4318   53.6666   37.8087 C   0  0  0  0  0  0  0  0  0  0  0  0
   48.1647   54.4528   38.6854 C   0  0  0  0  0  0  0  0  0  0  0  0
   48.0605   54.2419   40.0578 C   0  0  0  0  0  0  0  0  0  0  0  0
   48.7508   54.9907   40.9140 N   0  0  0  0  0  0  0  0  0  0  0  0
   48.8793   55.3317   37.9479 N   0  0  0  0  0  0  0  0  0  0  0  0
   48.6266   55.1093   36.6366 C   0  0  0  0  0  0  0  0  0  0  0  0
   47.7295   54.0785   36.5343 N   0  0  0  0  0  0  0  0  0  0  0  0
  2  1  1  1  0  0  0
  2  3  1  0  0  0  0
  2  5  1  0  0  0  0
  3  4  1  0  0  0  0
  3 17  1  0  0  0  0
  5  6  1  0  0  0  0
  7  6  1  6  0  0  0
  7  8  1  0  0  0  0
  7  9  1  0  0  0  0
 10  9  1  1  0  0  0
 10 11  1  0  0  0  0
 10 12  1  0  0  0  0
 11 16  1  0  0  0  0
 12 13  1  6  0  0  0
 12 14  1  0  0  0  0
 14 15  1  6  0  0  0
 14 16  1  0  0  0  0
 16 27  1  1  0  0  0
 18 19  2  0  0  0  0
 18 23  1  0  0  0  0
 19 20  1  0  0  0  0
 20 21  2  0  0  0  0
 21 22  1  0  0  0  0
 21 27  1  0  0  0  0
 22 23  2  0  0  0  0
 22 25  1  0  0  0  0
 23 24  1  0  0  0  0
 25 26  2  0  0  0  0
 26 27  1  0  0  0  0
M  END
>  <CHROM.1>
32.36200461,-68.30819519,69.46420267,170.12719278,-166.52067281,171.72038757
-151.95079286,48.18885085,54.22126951,33.80644074,-1.29671447,-0.31923352
1.66656431

>  <Name>
ligand

>  <RI>
0

>  <Rbt.Current_Directory>
/home/itssahil/PROJECTS/Mol_Feturizer/New_Systems/rnas/3GX7

>  <Rbt.Executable>
rbdock ($Id: //depot/dev/client3/rdock/2013.1/src/exe/rbdock.cxx#4 $)

>  <Rbt.Library>
libRbt.so (2013.1, Build901 2013/11/27)

>  <Rbt.Parameter_File>
/export/apps/rDock/src/rDock_2013.1_src/data/scripts/dock_solv.prm

>  <Rbt.Receptor>
prm/pocket_docking_6.prm

>  <SCORE>
-16.9641

>  <SCORE.INTER>
-12.7049

>  <SCORE.INTER.CONST>
1

>  <SCORE.INTER.POLAR>
0

>  <SCORE.INTER.ROT>
7

>  <SCORE.INTER.SOLV>
13.5847

>  <SCORE.INTER.VDW>
-21.2648

>  <SCORE.INTER.norm>
-0.470553

>  <SCORE.INTRA>
-4.2592

>  <SCORE.INTRA.DIHEDRAL>
-6.01657

>  <SCORE.INTRA.DIHEDRAL.0>
11.2699

>  <SCORE.INTRA.POLAR>
0

>  <SCORE.INTRA.POLAR.0>
0

>  <SCORE.INTRA.REPUL>
0

>  <SCORE.INTRA.REPUL.0>
0

>  <SCORE.INTRA.SOLV>
1.5552

>  <SCORE.INTRA.SOLV.lig_0>
-48.6447

>  <SCORE.INTRA.VDW>
-2.02852

>  <SCORE.INTRA.VDW.0>
-0.0211724

>  <SCORE.INTRA.norm>
-0.157748

>  <SCORE.RESTR>
0

>  <SCORE.RESTR.CAVITY>
0

>  <SCORE.RESTR.norm>
0

>  <SCORE.SYSTEM>
0

>  <SCORE.SYSTEM.CONST>
0

>  <SCORE.SYSTEM.DIHEDRAL>
0

>  <SCORE.SYSTEM.SOLV>
0

>  <SCORE.SYSTEM.norm>
0

>  <SCORE.heavy>
27

>  <SCORE.norm>
-0.628301

>  <RMSD>
6.122

$$$$
ligand
 OpenBabel11021811483D
libRbt.so/2013.1/901 2013/11/27
 27 29  0  0  0  0  0  0  0  0999 V2000
   48.1392   58.6118   31.5761 N   0  0  0  0  0  0  0  0  0  0  0  0
   48.0500   57.7975   32.7821 C   0  0  2  0  0  0  0  0  0  0  0  0
   49.0969   58.2266   33.7967 C   0  0  0  0  0  0  0  0  0  0  0  0
   49.9795   59.0210   33.4809 O   0  0  0  0  0  0  0  0  0  0  0  0
   48.1887   56.3073   32.4740 C   0  0  0  0  0  0  0  0  0  0  0  0
   47.0868   55.7309   31.5929 C   0  0  0  0  0  0  0  0  0  0  0  0
   46.8200   53.9474   31.7915 S   0  0  2  0  0  0  0  0  0  0  0  0
   48.1669   53.2771   30.7858 C   0  0  0  0  0  0  0  0  0  0  0  0
   45.4165   53.7026   30.6716 C   0  0  0  0  0  0  0  0  0  0  0  0
   44.1210   54.0556   31.3868 C   0  0  1  0  0  0  0  0  0  0  0  0
   43.9698   53.1817   32.4795 O   0  0  0  0  0  0  0  0  0  0  0  0
   44.0929   55.4457   31.9895 C   0  0  1  0  0  0  0  0  0  0  0  0
   43.4352   56.3397   31.1252 O   0  0  0  0  0  0  0  0  0  0  0  0
   43.3062   55.2617   33.2746 C   0  0  1  0  0  0  0  0  0  0  0  0
   42.0100   55.7848   33.1044 O   0  0  0  0  0  0  0  0  0  0  0  0
   43.2313   53.7607   33.5249 C   0  0  2  0  0  0  0  0  0  0  0  0
   49.0750   57.7910   34.9483 O   0  0  0  0  0  0  0  0  0  0  0  0
   47.5957   54.2972   36.4141 N   0  0  0  0  0  0  0  0  0  0  0  0
   47.3431   54.7832   35.1473 C   0  0  0  0  0  0  0  0  0  0  0  0
   46.1271   54.5419   34.5345 N   0  0  0  0  0  0  0  0  0  0  0  0
   45.1730   53.8208   35.1632 C   0  0  0  0  0  0  0  0  0  0  0  0
   45.4025   53.3288   36.4395 C   0  0  0  0  0  0  0  0  0  0  0  0
   46.6241   53.5659   37.0641 C   0  0  0  0  0  0  0  0  0  0  0  0
   46.8645   53.0960   38.2855 N   0  0  0  0  0  0  0  0  0  0  0  0
   44.2913   52.6646   36.8285 N   0  0  0  0  0  0  0  0  0  0  0  0
   43.3691   52.7389   35.8401 C   0  0  0  0  0  0  0  0  0  0  0  0
   43.9020   53.4536   34.7994 N   0  0  0  0  0  0  0  0  0  0  0  0
  2  1  1  6  0  0  0
  2  3  1  0  0  0  0
  2  5  1  0  0  0  0
  3  4  1  0  0  0  0
  3 17  1  0  0  0  0
  5  6  1  0  0  0  0
  7  6  1  6  0  0  0
  7  8  1  0  0  0  0
  7  9  1  0  0  0  0
 10  9  1  1  0  0  0
 10 11  1  0  0  0  0
 10 12  1  0  0  0  0
 11 16  1  0  0  0  0
 12 13  1  6  0  0  0
 12 14  1  0  0  0  0
 14 15  1  6  0  0  0
 14 16  1  0  0  0  0
 16 27  1  1  0  0  0
 18 19  2  0  0  0  0
 18 23  1  0  0  0  0
 19 20  1  0  0  0  0
 20 21  2  0  0  0  0
 21 22  1  0  0  0  0
 21 27  1  0  0  0  0
 22 23  2  0  0  0  0
 22 25  1  0  0  0  0
 23 24  1  0  0  0  0
 25 26  2  0  0  0  0
 26 27  1  0  0  0  0
M  END
>  <CHROM.1>
-9.64593268,-63.26189794,-155.11326834,-79.85834576,-83.06145909,-62.11020594
61.00029273,46.00876091,54.98117085,33.59334561,0.54656780,-0.57219407,-1.17423704

>  <Name>
ligand

>  <RI>
0

>  <Rbt.Current_Directory>
/home/itssahil/PROJECTS/Mol_Feturizer/New_Systems/rnas/3GX7

>  <Rbt.Executable>
rbdock ($Id: //depot/dev/client3/rdock/2013.1/src/exe/rbdock.cxx#4 $)

>  <Rbt.Library>
libRbt.so (2013.1, Build901 2013/11/27)

>  <Rbt.Parameter_File>
/export/apps/rDock/src/rDock_2013.1_src/data/scripts/dock_solv.prm

>  <Rbt.Receptor>
prm/pocket_docking_8.prm

>  <SCORE>
-14.7456

>  <SCORE.INTER>
-8.51233

>  <SCORE.INTER.CONST>
1

>  <SCORE.INTER.POLAR>
0

>  <SCORE.INTER.ROT>
7

>  <SCORE.INTER.SOLV>
10.0225

>  <SCORE.INTER.VDW>
-17.2824

>  <SCORE.INTER.norm>
-0.315272

>  <SCORE.INTRA>
-6.2333

>  <SCORE.INTRA.DIHEDRAL>
-5.01938

>  <SCORE.INTRA.DIHEDRAL.0>
11.2699

>  <SCORE.INTRA.POLAR>
0

>  <SCORE.INTRA.POLAR.0>
0

>  <SCORE.INTRA.REPUL>
0

>  <SCORE.INTRA.REPUL.0>
0

>  <SCORE.INTRA.SOLV>
-0.0241789

>  <SCORE.INTRA.SOLV.lig_0>
-48.6447

>  <SCORE.INTRA.VDW>
-3.71153

>  <SCORE.INTRA.VDW.0>
-0.0211724

>  <SCORE.INTRA.norm>
-0.230863

>  <SCORE.RESTR>
0

>  <SCORE.RESTR.CAVITY>
0

>  <SCORE.RESTR.norm>
0

>  <SCORE.SYSTEM>
0

>  <SCORE.SYSTEM.CONST>
0

>  <SCORE.SYSTEM.DIHEDRAL>
0

>  <SCORE.SYSTEM.SOLV>
0

>  <SCORE.SYSTEM.norm>
0

>  <SCORE.heavy>
27

>  <SCORE.norm>
-0.546135

>  <RMSD>
6.128

$$$$
ligand
 OpenBabel11021811483D
libRbt.so/2013.1/901 2013/11/27
 27 29  0  0  0  0  0  0  0  0999 V2000
   47.0378   54.7673   32.5987 N   0  0  0  0  0  0  0  0  0  0  0  0
   47.3145   54.1971   33.9116 C   0  0  2  0  0  0  0  0  0  0  0  0
   46.2047   54.5432   34.8904 C   0  0  0  0  0  0  0  0  0  0  0  0
   46.1936   54.0518   36.0165 O   0  0  0  0  0  0  0  0  0  0  0  0
   48.6661   54.6552   34.4577 C   0  0  0  0  0  0  0  0  0  0  0  0
   48.7756   56.1524   34.7205 C   0  0  0  0  0  0  0  0  0  0  0  0
   48.6992   57.1855   33.2311 S   0  0  2  0  0  0  0  0  0  0  0  0
   49.4793   58.7085   33.8201 C   0  0  0  0  0  0  0  0  0  0  0  0
   46.9541   57.6729   33.2635 C   0  0  0  0  0  0  0  0  0  0  0  0
   46.7351   58.8603   32.3378 C   0  0  1  0  0  0  0  0  0  0  0  0
   47.6242   58.7422   31.2534 O   0  0  0  0  0  0  0  0  0  0  0  0
   45.3572   58.9236   31.7101 C   0  0  1  0  0  0  0  0  0  0  0  0
   44.5296   59.7996   32.4359 O   0  0  0  0  0  0  0  0  0  0  0  0
   45.6241   59.4647   30.3172 C   0  0  1  0  0  0  0  0  0  0  0  0
   45.2322   60.8159   30.2611 O   0  0  0  0  0  0  0  0  0  0  0  0
   47.1262   59.3502   30.0891 C   0  0  2  0  0  0  0  0  0  0  0  0
   45.3050   55.3223   34.5741 O   0  0  0  0  0  0  0  0  0  0  0  0
   45.7342   54.9022   27.6473 N   0  0  0  0  0  0  0  0  0  0  0  0
   45.2072   55.4458   28.8013 C   0  0  0  0  0  0  0  0  0  0  0  0
   45.7026   56.6347   29.3048 N   0  0  0  0  0  0  0  0  0  0  0  0
   46.7139   57.2763   28.6794 C   0  0  0  0  0  0  0  0  0  0  0  0
   47.2539   56.7520   27.5144 C   0  0  0  0  0  0  0  0  0  0  0  0
   46.7622   55.5550   27.0004 C   0  0  0  0  0  0  0  0  0  0  0  0
   47.2724   55.0336   25.8877 N   0  0  0  0  0  0  0  0  0  0  0  0
   48.2285   57.5921   27.1003 N   0  0  0  0  0  0  0  0  0  0  0  0
   48.3042   58.6329   27.9628 C   0  0  0  0  0  0  0  0  0  0  0  0
   47.3702   58.4507   28.9488 N   0  0  0  0  0  0  0  0  0  0  0  0
  2  1  1  6  0  0  0
  2  3  1  0  0  0  0
  2  5  1  0  0  0  0
  3  4  1  0  0  0  0
  3 17  1  0  0  0  0
  5  6  1  0  0  0  0
  7  6  1  1  0  0  0
  7  8  1  0  0  0  0
  7  9  1  0  0  0  0
 10  9  1  1  0  0  0
 10 11  1  0  0  0  0
 10 12  1  0  0  0  0
 11 16  1  0  0  0  0
 12 13  1  1  0  0  0
 12 14  1  0  0  0  0
 14 15  1  1  0  0  0
 14 16  1  0  0  0  0
 16 27  1  6  0  0  0
 18 19  2  0  0  0  0
 18 23  1  0  0  0  0
 19 20  1  0  0  0  0
 20 21  2  0  0  0  0
 21 22  1  0  0  0  0
 21 27  1  0  0  0  0
 22 23  2  0  0  0  0
 22 25  1  0  0  0  0
 23 24  1  0  0  0  0
 25 26  2  0  0  0  0
 26 27  1  0  0  0  0
M  END
>  <CHROM.1>
173.32177947,63.82062914,-66.14429587,-159.01495623,163.85126019,32.95789829
72.58005963,46.94030132,57.05424874,31.27058211,-0.62361590,1.47818257,-2.28680041

>  <Name>
ligand

>  <RI>
0

>  <Rbt.Current_Directory>
/home/itssahil/PROJECTS/Mol_Feturizer/New_Systems/rnas/3GX7

>  <Rbt.Executable>
rbdock ($Id: //depot/dev/client3/rdock/2013.1/src/exe/rbdock.cxx#4 $)

>  <Rbt.Library>
libRbt.so (2013.1, Build901 2013/11/27)

>  <Rbt.Parameter_File>
/export/apps/rDock/src/rDock_2013.1_src/data/scripts/dock_solv.prm

>  <Rbt.Receptor>
prm/pocket_docking_3.prm

>  <SCORE>
-15.7356

>  <SCORE.INTER>
-13.237

>  <SCORE.INTER.CONST>
1

>  <SCORE.INTER.POLAR>
0

>  <SCORE.INTER.ROT>
7

>  <SCORE.INTER.SOLV>
11.9035

>  <SCORE.INTER.VDW>
-21.0592

>  <SCORE.INTER.norm>
-0.49026

>  <SCORE.INTRA>
-2.49853

>  <SCORE.INTRA.DIHEDRAL>
-3.45002

>  <SCORE.INTRA.DIHEDRAL.0>
11.2699

>  <SCORE.INTRA.POLAR>
0

>  <SCORE.INTRA.POLAR.0>
0

>  <SCORE.INTRA.REPUL>
0

>  <SCORE.INTRA.REPUL.0>
0

>  <SCORE.INTRA.SOLV>
2.45692

>  <SCORE.INTRA.SOLV.lig_0>
-48.6447

>  <SCORE.INTRA.VDW>
-2.00198

>  <SCORE.INTRA.VDW.0>
-0.0211724

>  <SCORE.INTRA.norm>
-0.092538

>  <SCORE.RESTR>
0

>  <SCORE.RESTR.CAVITY>
0

>  <SCORE.RESTR.norm>
0

>  <SCORE.SYSTEM>
0

>  <SCORE.SYSTEM.CONST>
0

>  <SCORE.SYSTEM.DIHEDRAL>
0

>  <SCORE.SYSTEM.SOLV>
0

>  <SCORE.SYSTEM.norm>
0

>  <SCORE.heavy>
27

>  <SCORE.norm>
-0.582798

>  <RMSD>
6.150

$$$$
ligand
 OpenBabel11021811483D
libRbt.so/2013.1/901 2013/11/27
 27 29  0  0  0  0  0  0  0  0999 V2000
   48.0650   54.4283   30.3755 N   0  0  0  0  0  0  0  0  0  0  0  0
   48.8846   54.6257   31.5649 C   0  0  2  0  0  0  0  0  0  0  0  0
   48.2244   53.9965   32.7806 C   0  0  0  0  0  0  0  0  0  0  0  0
   48.7144   53.0009   33.3084 O   0  0  0  0  0  0  0  0  0  0  0  0
   49.1688   56.1051   31.8211 C   0  0  0  0  0  0  0  0  0  0  0  0
   47.9294   56.9696   32.0192 C   0  0  0  0  0  0  0  0  0  0  0  0
   48.1990   58.7438   31.7527 S   0  0  2  0  0  0  0  0  0  0  0  0
   49.1993   59.1678   33.2000 C   0  0  0  0  0  0  0  0  0  0  0  0
   46.5869   59.3969   32.2610 C   0  0  0  0  0  0  0  0  0  0  0  0
   45.5319   59.0188   31.2321 C   0  0  1  0  0  0  0  0  0  0  0  0
   46.0840   59.1978   29.9501 O   0  0  0  0  0  0  0  0  0  0  0  0
   45.1026   57.5661   31.2749 C   0  0  1  0  0  0  0  0  0  0  0  0
   43.9120   57.4300   32.0117 O   0  0  0  0  0  0  0  0  0  0  0  0
   44.8754   57.2179   29.8150 C   0  0  1  0  0  0  0  0  0  0  0  0
   43.4917   57.1643   29.5604 O   0  0  0  0  0  0  0  0  0  0  0  0
   45.5102   58.3373   28.9994 C   0  0  2  0  0  0  0  0  0  0  0  0
   47.1948   54.4749   33.2576 O   0  0  0  0  0  0  0  0  0  0  0  0
   47.0055   54.3790   25.8722 N   0  0  0  0  0  0  0  0  0  0  0  0
   45.7975   54.5502   26.5176 C   0  0  0  0  0  0  0  0  0  0  0  0
   45.5780   55.6630   27.3086 N   0  0  0  0  0  0  0  0  0  0  0  0
   46.5447   56.5936   27.4674 C   0  0  0  0  0  0  0  0  0  0  0  0
   47.7637   56.4455   26.8225 C   0  0  0  0  0  0  0  0  0  0  0  0
   47.9942   55.3279   26.0247 C   0  0  0  0  0  0  0  0  0  0  0  0
   49.1598   55.1659   25.4039 N   0  0  0  0  0  0  0  0  0  0  0  0
   48.5289   57.5127   27.1431 N   0  0  0  0  0  0  0  0  0  0  0  0
   47.8203   58.3303   27.9568 C   0  0  0  0  0  0  0  0  0  0  0  0
   46.5863   57.7729   28.1674 N   0  0  0  0  0  0  0  0  0  0  0  0
  2  1  1  6  0  0  0
  2  3  1  0  0  0  0
  2  5  1  0  0  0  0
  3  4  1  0  0  0  0
  3 17  1  0  0  0  0
  5  6  1  0  0  0  0
  7  6  1  1  0  0  0
  7  8  1  0  0  0  0
  7  9  1  0  0  0  0
 10  9  1  1  0  0  0
 10 11  1  0  0  0  0
 10 12  1  0  0  0  0
 11 16  1  0  0  0  0
 12 13  1  1  0  0  0
 12 14  1  0  0  0  0
 14 15  1  1  0  0  0
 14 16  1  0  0  0  0
 16 27  1  6  0  0  0
 18 19  2  0  0  0  0
 18 23  1  0  0  0  0
 19 20  1  0  0  0  0
 20 21  2  0  0  0  0
 21 22  1  0  0  0  0
 21 27  1  0  0  0  0
 22 23  2  0  0  0  0
 22 25  1  0  0  0  0
 23 24  1  0  0  0  0
 25 26  2  0  0  0  0
 26 27  1  0  0  0  0
M  END
>  <CHROM.1>
110.80064504,59.25011664,-159.92165929,-70.83625257,-70.62469098,-42.02698564
155.76698672,47.05097362,56.72366507,29.96734649,-1.45464435,0.97501130,-1.86313819

>  <Name>
ligand

>  <RI>
0

>  <Rbt.Current_Directory>
/home/itssahil/PROJECTS/Mol_Feturizer/New_Systems/rnas/3GX7

>  <Rbt.Executable>
rbdock ($Id: //depot/dev/client3/rdock/2013.1/src/exe/rbdock.cxx#4 $)

>  <Rbt.Library>
libRbt.so (2013.1, Build901 2013/11/27)

>  <Rbt.Parameter_File>
/export/apps/rDock/src/rDock_2013.1_src/data/scripts/dock_solv.prm

>  <Rbt.Receptor>
prm/pocket_docking_4.prm

>  <SCORE>
-17.2799

>  <SCORE.INTER>
-12.513

>  <SCORE.INTER.CONST>
1

>  <SCORE.INTER.POLAR>
0

>  <SCORE.INTER.ROT>
7

>  <SCORE.INTER.SOLV>
9.87922

>  <SCORE.INTER.VDW>
-19.9017

>  <SCORE.INTER.norm>
-0.463444

>  <SCORE.INTRA>
-4.76694

>  <SCORE.INTRA.DIHEDRAL>
-5.58041

>  <SCORE.INTRA.DIHEDRAL.0>
11.2699

>  <SCORE.INTRA.POLAR>
0

>  <SCORE.INTRA.POLAR.0>
0

>  <SCORE.INTRA.REPUL>
0

>  <SCORE.INTRA.REPUL.0>
0

>  <SCORE.INTRA.SOLV>
0.373032

>  <SCORE.INTRA.SOLV.lig_0>
-48.6447

>  <SCORE.INTRA.VDW>
-2.16325

>  <SCORE.INTRA.VDW.0>
-0.0211724

>  <SCORE.INTRA.norm>
-0.176553

>  <SCORE.RESTR>
0

>  <SCORE.RESTR.CAVITY>
0

>  <SCORE.RESTR.norm>
0

>  <SCORE.SYSTEM>
0

>  <SCORE.SYSTEM.CONST>
0

>  <SCORE.SYSTEM.DIHEDRAL>
0

>  <SCORE.SYSTEM.SOLV>
0

>  <SCORE.SYSTEM.norm>
0

>  <SCORE.heavy>
27

>  <SCORE.norm>
-0.639997

>  <RMSD>
6.156

$$$$
ligand
 OpenBabel11021811483D
libRbt.so/2013.1/901 2013/11/27
 27 29  0  0  0  0  0  0  0  0999 V2000
   47.9224   58.8956   28.2826 N   0  0  0  0  0  0  0  0  0  0  0  0
   47.3622   58.1941   29.4313 C   0  0  2  0  0  0  0  0  0  0  0  0
   46.0290   57.5588   29.0728 C   0  0  0  0  0  0  0  0  0  0  0  0
   45.0896   58.2559   28.6967 O   0  0  0  0  0  0  0  0  0  0  0  0
   47.2031   59.1165   30.6392 C   0  0  0  0  0  0  0  0  0  0  0  0
   47.1269   58.4027   31.9835 C   0  0  0  0  0  0  0  0  0  0  0  0
   45.7798   57.1951   32.1191 S   0  0  2  0  0  0  0  0  0  0  0  0
   44.4391   58.2343   32.7493 C   0  0  0  0  0  0  0  0  0  0  0  0
   46.2700   56.3310   33.6347 C   0  0  0  0  0  0  0  0  0  0  0  0
   45.5565   54.9897   33.7150 C   0  0  1  0  0  0  0  0  0  0  0  0
   46.2395   54.1834   34.6444 O   0  0  0  0  0  0  0  0  0  0  0  0
   44.1334   55.0632   34.2306 C   0  0  1  0  0  0  0  0  0  0  0  0
   43.2246   55.0726   33.1568 O   0  0  0  0  0  0  0  0  0  0  0  0
   43.9850   53.7945   35.0508 C   0  0  1  0  0  0  0  0  0  0  0  0
   43.2117   52.8639   34.3307 O   0  0  0  0  0  0  0  0  0  0  0  0
   45.3917   53.2482   35.2609 C   0  0  2  0  0  0  0  0  0  0  0  0
   45.8705   56.3400   29.1483 O   0  0  0  0  0  0  0  0  0  0  0  0
   48.6514   54.8083   39.0851 N   0  0  0  0  0  0  0  0  0  0  0  0
   48.7352   55.0651   37.7316 C   0  0  0  0  0  0  0  0  0  0  0  0
   47.7795   54.5684   36.8642 N   0  0  0  0  0  0  0  0  0  0  0  0
   46.7556   53.8185   37.3278 C   0  0  0  0  0  0  0  0  0  0  0  0
   46.6475   53.5539   38.6851 C   0  0  0  0  0  0  0  0  0  0  0  0
   47.6055   54.0490   39.5659 C   0  0  0  0  0  0  0  0  0  0  0  0
   47.5218   53.7997   40.8701 N   0  0  0  0  0  0  0  0  0  0  0  0
   45.5388   52.8029   38.8690 N   0  0  0  0  0  0  0  0  0  0  0  0
   44.9427   52.6023   37.6702 C   0  0  0  0  0  0  0  0  0  0  0  0
   45.6867   53.2267   36.7035 N   0  0  0  0  0  0  0  0  0  0  0  0
  2  1  1  6  0  0  0
  2  3  1  0  0  0  0
  2  5  1  0  0  0  0
  3  4  1  0  0  0  0
  3 17  1  0  0  0  0
  5  6  1  0  0  0  0
  7  6  1  1  0  0  0
  7  8  1  0  0  0  0
  7  9  1  0  0  0  0
 10  9  1  1  0  0  0
 10 11  1  0  0  0  0
 10 12  1  0  0  0  0
 11 16  1  0  0  0  0
 12 13  1  6  0  0  0
 12 14  1  0  0  0  0
 14 15  1  6  0  0  0
 14 16  1  0  0  0  0
 16 27  1  1  0  0  0
 18 19  2  0  0  0  0
 18 23  1  0  0  0  0
 19 20  1  0  0  0  0
 20 21  2  0  0  0  0
 21 22  1  0  0  0  0
 21 27  1  0  0  0  0
 22 23  2  0  0  0  0
 22 25  1  0  0  0  0
 23 24  1  0  0  0  0
 25 26  2  0  0  0  0
 26 27  1  0  0  0  0
M  END
>  <CHROM.1>
-60.41700918,-158.42144311,-57.84384935,-89.67096394,-161.56842313,162.19972325
-11.01556662,46.03515798,55.53155904,34.19533950,-1.62552747,0.57055649,2.07263178

>  <Name>
ligand

>  <RI>
0

>  <Rbt.Current_Directory>
/home/itssahil/PROJECTS/Mol_Feturizer/New_Systems/rnas/3GX7

>  <Rbt.Executable>
rbdock ($Id: //depot/dev/client3/rdock/2013.1/src/exe/rbdock.cxx#4 $)

>  <Rbt.Library>
libRbt.so (2013.1, Build901 2013/11/27)

>  <Rbt.Parameter_File>
/export/apps/rDock/src/rDock_2013.1_src/data/scripts/dock_solv.prm

>  <Rbt.Receptor>
prm/pocket_docking_7.prm

>  <SCORE>
-19.4614

>  <SCORE.INTER>
-14.7037

>  <SCORE.INTER.CONST>
1

>  <SCORE.INTER.POLAR>
0

>  <SCORE.INTER.ROT>
7

>  <SCORE.INTER.SOLV>
12.8102

>  <SCORE.INTER.VDW>
-22.3392

>  <SCORE.INTER.norm>
-0.54458

>  <SCORE.INTRA>
-4.75775

>  <SCORE.INTRA.DIHEDRAL>
-2.42786

>  <SCORE.INTRA.DIHEDRAL.0>
11.2699

>  <SCORE.INTRA.POLAR>
0

>  <SCORE.INTRA.POLAR.0>
0

>  <SCORE.INTRA.REPUL>
0

>  <SCORE.INTRA.REPUL.0>
0

>  <SCORE.INTRA.SOLV>
-0.678438

>  <SCORE.INTRA.SOLV.lig_0>
-48.6447

>  <SCORE.INTRA.VDW>
-3.2046

>  <SCORE.INTRA.VDW.0>
-0.0211724

>  <SCORE.INTRA.norm>
-0.176213

>  <SCORE.RESTR>
0

>  <SCORE.RESTR.CAVITY>
0

>  <SCORE.RESTR.norm>
0

>  <SCORE.SYSTEM>
0

>  <SCORE.SYSTEM.CONST>
0

>  <SCORE.SYSTEM.DIHEDRAL>
0

>  <SCORE.SYSTEM.SOLV>
0

>  <SCORE.SYSTEM.norm>
0

>  <SCORE.heavy>
27

>  <SCORE.norm>
-0.720793

>  <RMSD>
6.156

$$$$
ligand
 OpenBabel11021811483D
libRbt.so/2013.1/901 2013/11/27
 27 29  0  0  0  0  0  0  0  0999 V2000
   42.7207   55.2357   32.8668 N   0  0  0  0  0  0  0  0  0  0  0  0
   42.5530   56.4352   32.0554 C   0  0  2  0  0  0  0  0  0  0  0  0
   41.9224   56.0918   30.7160 C   0  0  0  0  0  0  0  0  0  0  0  0
   41.8881   56.9248   29.8133 O   0  0  0  0  0  0  0  0  0  0  0  0
   43.8762   57.1704   31.8463 C   0  0  0  0  0  0  0  0  0  0  0  0
   44.6083   57.5470   33.1288 C   0  0  0  0  0  0  0  0  0  0  0  0
   46.3050   58.1393   32.8804 S   0  0  2  0  0  0  0  0  0  0  0  0
   46.0243   59.5666   31.8039 C   0  0  0  0  0  0  0  0  0  0  0  0
   46.8991   56.9253   31.6733 C   0  0  0  0  0  0  0  0  0  0  0  0
   46.9502   55.5464   32.3140 C   0  0  1  0  0  0  0  0  0  0  0  0
   46.9706   54.5848   31.2867 O   0  0  0  0  0  0  0  0  0  0  0  0
   48.1991   55.2764   33.1287 C   0  0  1  0  0  0  0  0  0  0  0  0
   47.9499   55.5033   34.4945 O   0  0  0  0  0  0  0  0  0  0  0  0
   48.4838   53.8080   32.8697 C   0  0  1  0  0  0  0  0  0  0  0  0
   48.1125   53.0566   34.0011 O   0  0  0  0  0  0  0  0  0  0  0  0
   47.6276   53.4055   31.6755 C   0  0  2  0  0  0  0  0  0  0  0  0
   41.4419   54.9764   30.5125 O   0  0  0  0  0  0  0  0  0  0  0  0
   51.5077   54.7630   28.3913 N   0  0  0  0  0  0  0  0  0  0  0  0
   50.9059   55.5301   29.3682 C   0  0  0  0  0  0  0  0  0  0  0  0
   49.8899   55.0037   30.1447 N   0  0  0  0  0  0  0  0  0  0  0  0
   49.4666   53.7350   29.9529 C   0  0  0  0  0  0  0  0  0  0  0  0
   50.0619   52.9437   28.9816 C   0  0  0  0  0  0  0  0  0  0  0  0
   51.0850   53.4653   28.1943 C   0  0  0  0  0  0  0  0  0  0  0  0
   51.6631   52.7232   27.2534 N   0  0  0  0  0  0  0  0  0  0  0  0
   49.4605   51.7336   29.0139 N   0  0  0  0  0  0  0  0  0  0  0  0
   48.5176   51.7397   29.9854 C   0  0  0  0  0  0  0  0  0  0  0  0
   48.5094   52.9756   30.5771 N   0  0  0  0  0  0  0  0  0  0  0  0
  2  1  1  6  0  0  0
  2  3  1  0  0  0  0
  2  5  1  0  0  0  0
  3  4  1  0  0  0  0
  3 17  1  0  0  0  0
  5  6  1  0  0  0  0
  7  6  1  6  0  0  0
  7  8  1  0  0  0  0
  7  9  1  0  0  0  0
 10  9  1  6  0  0  0
 10 11  1  0  0  0  0
 10 12  1  0  0  0  0
 11 16  1  0  0  0  0
 12 13  1  1  0  0  0
 12 14  1  0  0  0  0
 14 15  1  1  0  0  0
 14 16  1  0  0  0  0
 16 27  1  6  0  0  0
 18 19  2  0  0  0  0
 18 23  1  0  0  0  0
 19 20  1  0  0  0  0
 20 21  2  0  0  0  0
 21 22  1  0  0  0  0
 21 27  1  0  0  0  0
 22 23  2  0  0  0  0
 22 25  1  0  0  0  0
 23 24  1  0  0  0  0
 25 26  2  0  0  0  0
 26 27  1  0  0  0  0
M  END
>  <CHROM.1>
-168.69042487,-55.53992667,169.30669836,58.93396295,-65.59632061,160.58506715
53.39717604,47.03804888,55.18536748,31.21176161,2.58992903,-0.12901280,0.83964586

>  <Name>
ligand

>  <RI>
0

>  <Rbt.Current_Directory>
/home/itssahil/PROJECTS/Mol_Feturizer/New_Systems/rnas/3GX7

>  <Rbt.Executable>
rbdock ($Id: //depot/dev/client3/rdock/2013.1/src/exe/rbdock.cxx#4 $)

>  <Rbt.Library>
libRbt.so (2013.1, Build901 2013/11/27)

>  <Rbt.Parameter_File>
/export/apps/rDock/src/rDock_2013.1_src/data/scripts/dock_solv.prm

>  <Rbt.Receptor>
prm/pocket_docking_5.prm

>  <SCORE>
-18.9046

>  <SCORE.INTER>
-14.1839

>  <SCORE.INTER.CONST>
1

>  <SCORE.INTER.POLAR>
0

>  <SCORE.INTER.ROT>
7

>  <SCORE.INTER.SOLV>
11.4973

>  <SCORE.INTER.VDW>
-21.5551

>  <SCORE.INTER.norm>
-0.52533

>  <SCORE.INTRA>
-4.72206

>  <SCORE.INTRA.DIHEDRAL>
-6.21003

>  <SCORE.INTRA.DIHEDRAL.0>
11.2699

>  <SCORE.INTRA.POLAR>
0

>  <SCORE.INTRA.POLAR.0>
0

>  <SCORE.INTRA.REPUL>
0

>  <SCORE.INTRA.REPUL.0>
0

>  <SCORE.INTRA.SOLV>
0.0883632

>  <SCORE.INTRA.SOLV.lig_0>
-48.6447

>  <SCORE.INTRA.VDW>
-1.66123

>  <SCORE.INTRA.VDW.0>
-0.0211724

>  <SCORE.INTRA.norm>
-0.174891

>  <SCORE.RESTR>
0.00132543

>  <SCORE.RESTR.CAVITY>
0.00132543

>  <SCORE.RESTR.norm>
4.90902e-05

>  <SCORE.SYSTEM>
0

>  <SCORE.SYSTEM.CONST>
0

>  <SCORE.SYSTEM.DIHEDRAL>
0

>  <SCORE.SYSTEM.SOLV>
0

>  <SCORE.SYSTEM.norm>
0

>  <SCORE.heavy>
27

>  <SCORE.norm>
-0.700172

>  <RMSD>
6.163

$$$$
ligand
 OpenBabel11021811483D
libRbt.so/2013.1/901 2013/11/27
 27 29  0  0  0  0  0  0  0  0999 V2000
   47.4750   56.5079   27.4900 N   0  0  0  0  0  0  0  0  0  0  0  0
   47.8248   56.7026   28.8919 C   0  0  2  0  0  0  0  0  0  0  0  0
   48.2505   58.1397   29.1430 C   0  0  0  0  0  0  0  0  0  0  0  0
   48.3094   58.5792   30.2889 O   0  0  0  0  0  0  0  0  0  0  0  0
   48.9197   55.7376   29.3445 C   0  0  0  0  0  0  0  0  0  0  0  0
   49.0397   55.5689   30.8544 C   0  0  0  0  0  0  0  0  0  0  0  0
   47.5730   54.8578   31.6510 S   0  0  2  0  0  0  0  0  0  0  0  0
   46.5788   56.3413   31.9436 C   0  0  0  0  0  0  0  0  0  0  0  0
   48.2212   54.5592   33.3167 C   0  0  0  0  0  0  0  0  0  0  0  0
   47.2172   53.7467   34.1207 C   0  0  1  0  0  0  0  0  0  0  0  0
   47.8403   53.3333   35.3129 O   0  0  0  0  0  0  0  0  0  0  0  0
   45.9930   54.5209   34.5660 C   0  0  1  0  0  0  0  0  0  0  0  0
   44.9225   54.2928   33.6822 O   0  0  0  0  0  0  0  0  0  0  0  0
   45.6891   53.9492   35.9391 C   0  0  1  0  0  0  0  0  0  0  0  0
   44.5751   53.0929   35.8492 O   0  0  0  0  0  0  0  0  0  0  0  0
   46.9204   53.1566   36.3598 C   0  0  2  0  0  0  0  0  0  0  0  0
   48.5469   58.8825   28.2066 O   0  0  0  0  0  0  0  0  0  0  0  0
   47.0277   53.0757   41.6196 N   0  0  0  0  0  0  0  0  0  0  0  0
   46.3018   52.2697   40.7661 C   0  0  0  0  0  0  0  0  0  0  0  0
   46.3974   52.4353   39.3965 N   0  0  0  0  0  0  0  0  0  0  0  0
   47.1954   53.3928   38.8750 C   0  0  0  0  0  0  0  0  0  0  0  0
   47.9393   54.2094   39.7138 C   0  0  0  0  0  0  0  0  0  0  0  0
   47.8490   54.0507   41.0941 C   0  0  0  0  0  0  0  0  0  0  0  0
   48.5500   54.8293   41.9142 N   0  0  0  0  0  0  0  0  0  0  0  0
   48.6483   55.0579   38.9362 N   0  0  0  0  0  0  0  0  0  0  0  0
   48.3813   54.7869   37.6370 C   0  0  0  0  0  0  0  0  0  0  0  0
   47.4807   53.7556   37.5829 N   0  0  0  0  0  0  0  0  0  0  0  0
  2  1  1  6  0  0  0
  2  3  1  0  0  0  0
  2  5  1  0  0  0  0
  3  4  1  0  0  0  0
  3 17  1  0  0  0  0
  5  6  1  0  0  0  0
  7  6  1  6  0  0  0
  7  8  1  0  0  0  0
  7  9  1  0  0  0  0
 10  9  1  1  0  0  0
 10 11  1  0  0  0  0
 10 12  1  0  0  0  0
 11 16  1  0  0  0  0
 12 13  1  6  0  0  0
 12 14  1  0  0  0  0
 14 15  1  6  0  0  0
 14 16  1  0  0  0  0
 16 27  1  1  0  0  0
 18 19  2  0  0  0  0
 18 23  1  0  0  0  0
 19 20  1  0  0  0  0
 20 21  2  0  0  0  0
 21 22  1  0  0  0  0
 21 27  1  0  0  0  0
 22 23  2  0  0  0  0
 22 25  1  0  0  0  0
 23 24  1  0  0  0  0
 25 26  2  0  0  0  0
 26 27  1  0  0  0  0
M  END
>  <CHROM.1>
164.45269341,-161.84995886,62.92954093,-86.51785101,-170.91217672,169.78416742
-153.49994755,47.38770180,54.85133822,34.68375907,1.47470054,-0.76818429
-1.32650742

>  <Name>
ligand

>  <RI>
0

>  <Rbt.Current_Directory>
/home/itssahil/PROJECTS/Mol_Feturizer/New_Systems/rnas/3GX7

>  <Rbt.Executable>
rbdock ($Id: //depot/dev/client3/rdock/2013.1/src/exe/rbdock.cxx#4 $)

>  <Rbt.Library>
libRbt.so (2013.1, Build901 2013/11/27)

>  <Rbt.Parameter_File>
/export/apps/rDock/src/rDock_2013.1_src/data/scripts/dock_solv.prm

>  <Rbt.Receptor>
prm/pocket_docking_8.prm

>  <SCORE>
-17.9407

>  <SCORE.INTER>
-12.7077

>  <SCORE.INTER.CONST>
1

>  <SCORE.INTER.POLAR>
0

>  <SCORE.INTER.ROT>
7

>  <SCORE.INTER.SOLV>
10.0318

>  <SCORE.INTER.VDW>
-20.0824

>  <SCORE.INTER.norm>
-0.470654

>  <SCORE.INTRA>
-5.23304

>  <SCORE.INTRA.DIHEDRAL>
-4.82539

>  <SCORE.INTRA.DIHEDRAL.0>
11.2699

>  <SCORE.INTRA.POLAR>
0

>  <SCORE.INTRA.POLAR.0>
0

>  <SCORE.INTRA.REPUL>
0

>  <SCORE.INTRA.REPUL.0>
0

>  <SCORE.INTRA.SOLV>
-0.462611

>  <SCORE.INTRA.SOLV.lig_0>
-48.6447

>  <SCORE.INTRA.VDW>
-2.58904

>  <SCORE.INTRA.VDW.0>
-0.0211724

>  <SCORE.INTRA.norm>
-0.193816

>  <SCORE.RESTR>
0

>  <SCORE.RESTR.CAVITY>
0

>  <SCORE.RESTR.norm>
0

>  <SCORE.SYSTEM>
0

>  <SCORE.SYSTEM.CONST>
0

>  <SCORE.SYSTEM.DIHEDRAL>
0

>  <SCORE.SYSTEM.SOLV>
0

>  <SCORE.SYSTEM.norm>
0

>  <SCORE.heavy>
27

>  <SCORE.norm>
-0.664471

>  <RMSD>
6.188

$$$$
ligand
 OpenBabel11021811483D
libRbt.so/2013.1/901 2013/11/27
 27 29  0  0  0  0  0  0  0  0999 V2000
   47.9265   54.8553   28.8555 N   0  0  0  0  0  0  0  0  0  0  0  0
   48.7438   55.9151   29.4339 C   0  0  2  0  0  0  0  0  0  0  0  0
   50.0567   55.3546   29.9553 C   0  0  0  0  0  0  0  0  0  0  0  0
   50.0601   54.4860   30.8244 O   0  0  0  0  0  0  0  0  0  0  0  0
   48.0060   56.6604   30.5452 C   0  0  0  0  0  0  0  0  0  0  0  0
   48.8035   57.7802   31.2032 C   0  0  0  0  0  0  0  0  0  0  0  0
   47.9753   58.5655   32.6134 S   0  0  2  0  0  0  0  0  0  0  0  0
   49.3528   59.4563   33.3776 C   0  0  0  0  0  0  0  0  0  0  0  0
   47.8327   57.1498   33.7355 C   0  0  0  0  0  0  0  0  0  0  0  0
   46.5962   56.3368   33.3823 C   0  0  1  0  0  0  0  0  0  0  0  0
   46.7129   55.0727   33.9896 O   0  0  0  0  0  0  0  0  0  0  0  0
   45.2954   56.9071   33.9107 C   0  0  1  0  0  0  0  0  0  0  0  0
   44.6466   57.6529   32.9098 O   0  0  0  0  0  0  0  0  0  0  0  0
   44.4868   55.6749   34.2739 C   0  0  1  0  0  0  0  0  0  0  0  0
   43.4921   55.4684   33.2989 O   0  0  0  0  0  0  0  0  0  0  0  0
   45.4612   54.5036   34.2773 C   0  0  2  0  0  0  0  0  0  0  0  0
   51.1337   55.7564   29.5139 O   0  0  0  0  0  0  0  0  0  0  0  0
   48.3496   53.7259   38.6058 N   0  0  0  0  0  0  0  0  0  0  0  0
   48.7072   54.3810   37.4448 C   0  0  0  0  0  0  0  0  0  0  0  0
   47.8104   54.4897   36.3977 N   0  0  0  0  0  0  0  0  0  0  0  0
   46.5756   53.9496   36.4929 C   0  0  0  0  0  0  0  0  0  0  0  0
   46.1924   53.2930   37.6531 C   0  0  0  0  0  0  0  0  0  0  0  0
   47.0888   53.1778   38.7123 C   0  0  0  0  0  0  0  0  0  0  0  0
   46.7410   52.5457   39.8301 N   0  0  0  0  0  0  0  0  0  0  0  0
   44.9206   52.8683   37.4823 N   0  0  0  0  0  0  0  0  0  0  0  0
   44.4923   53.2519   36.2567 C   0  0  0  0  0  0  0  0  0  0  0  0
   45.5089   53.9242   35.6304 N   0  0  0  0  0  0  0  0  0  0  0  0
  2  1  1  1  0  0  0
  2  3  1  0  0  0  0
  2  5  1  0  0  0  0
  3  4  1  0  0  0  0
  3 17  1  0  0  0  0
  5  6  1  0  0  0  0
  7  6  1  6  0  0  0
  7  8  1  0  0  0  0
  7  9  1  0  0  0  0
 10  9  1  1  0  0  0
 10 11  1  0  0  0  0
 10 12  1  0  0  0  0
 11 16  1  0  0  0  0
 12 13  1  6  0  0  0
 12 14  1  0  0  0  0
 14 15  1  6  0  0  0
 14 16  1  0  0  0  0
 16 27  1  1  0  0  0
 18 19  2  0  0  0  0
 18 23  1  0  0  0  0
 19 20  1  0  0  0  0
 20 21  2  0  0  0  0
 21 22  1  0  0  0  0
 21 27  1  0  0  0  0
 22 23  2  0  0  0  0
 22 25  1  0  0  0  0
 23 24  1  0  0  0  0
 25 26  2  0  0  0  0
 26 27  1  0  0  0  0
M  END
>  <CHROM.1>
-59.49038584,179.68126208,-175.04252900,164.90120819,-83.72565605,163.42270778
1.29381726,47.20472616,55.51156520,33.92707315,-1.22692395,-0.25670199,2.08669951

>  <Name>
ligand

>  <RI>
0

>  <Rbt.Current_Directory>
/home/itssahil/PROJECTS/Mol_Feturizer/New_Systems/rnas/3GX7

>  <Rbt.Executable>
rbdock ($Id: //depot/dev/client3/rdock/2013.1/src/exe/rbdock.cxx#4 $)

>  <Rbt.Library>
libRbt.so (2013.1, Build901 2013/11/27)

>  <Rbt.Parameter_File>
/export/apps/rDock/src/rDock_2013.1_src/data/scripts/dock_solv.prm

>  <Rbt.Receptor>
prm/pocket_docking_6.prm

>  <SCORE>
-23.5636

>  <SCORE.INTER>
-17.4226

>  <SCORE.INTER.CONST>
1

>  <SCORE.INTER.POLAR>
0

>  <SCORE.INTER.ROT>
7

>  <SCORE.INTER.SOLV>
9.93053

>  <SCORE.INTER.VDW>
-23.1919

>  <SCORE.INTER.norm>
-0.645281

>  <SCORE.INTRA>
-6.14103

>  <SCORE.INTRA.DIHEDRAL>
-6.30292

>  <SCORE.INTRA.DIHEDRAL.0>
11.2699

>  <SCORE.INTRA.POLAR>
0

>  <SCORE.INTRA.POLAR.0>
0

>  <SCORE.INTRA.REPUL>
0

>  <SCORE.INTRA.REPUL.0>
0

>  <SCORE.INTRA.SOLV>
-0.860442

>  <SCORE.INTRA.SOLV.lig_0>
-48.6447

>  <SCORE.INTRA.VDW>
-2.55935

>  <SCORE.INTRA.VDW.0>
-0.0211724

>  <SCORE.INTRA.norm>
-0.227446

>  <SCORE.RESTR>
0

>  <SCORE.RESTR.CAVITY>
0

>  <SCORE.RESTR.norm>
0

>  <SCORE.SYSTEM>
0

>  <SCORE.SYSTEM.CONST>
0

>  <SCORE.SYSTEM.DIHEDRAL>
0

>  <SCORE.SYSTEM.SOLV>
0

>  <SCORE.SYSTEM.norm>
0

>  <SCORE.heavy>
27

>  <SCORE.norm>
-0.872726

>  <RMSD>
6.204

$$$$
ligand
 OpenBabel11021811483D
libRbt.so/2013.1/901 2013/11/27
 27 29  0  0  0  0  0  0  0  0999 V2000
   49.4035   54.3408   29.3925 N   0  0  0  0  0  0  0  0  0  0  0  0
   49.5484   55.3578   30.4269 C   0  0  2  0  0  0  0  0  0  0  0  0
   49.7425   54.7123   31.7890 C   0  0  0  0  0  0  0  0  0  0  0  0
   49.5014   53.5184   31.9509 O   0  0  0  0  0  0  0  0  0  0  0  0
   48.3559   56.3128   30.4571 C   0  0  0  0  0  0  0  0  0  0  0  0
   48.6594   57.6978   31.0159 C   0  0  0  0  0  0  0  0  0  0  0  0
   47.3443   58.3959   32.0525 S   0  0  2  0  0  0  0  0  0  0  0  0
   47.9578   60.0786   32.3116 C   0  0  0  0  0  0  0  0  0  0  0  0
   47.7557   57.6435   33.6489 C   0  0  0  0  0  0  0  0  0  0  0  0
   47.4127   56.1615   33.6220 C   0  0  1  0  0  0  0  0  0  0  0  0
   48.1861   55.5135   34.6029 O   0  0  0  0  0  0  0  0  0  0  0  0
   45.9756   55.8411   33.9806 C   0  0  1  0  0  0  0  0  0  0  0  0
   45.2078   55.6691   32.8145 O   0  0  0  0  0  0  0  0  0  0  0  0
   46.0823   54.5383   34.7523 C   0  0  1  0  0  0  0  0  0  0  0  0
   45.6546   53.4766   33.9323 O   0  0  0  0  0  0  0  0  0  0  0  0
   47.5546   54.3625   35.1029 C   0  0  2  0  0  0  0  0  0  0  0  0
   50.1476   55.3711   32.7473 O   0  0  0  0  0  0  0  0  0  0  0  0
   45.4705   52.8484   39.6907 N   0  0  0  0  0  0  0  0  0  0  0  0
   44.9753   52.6475   38.4182 C   0  0  0  0  0  0  0  0  0  0  0  0
   45.6637   53.1212   37.3163 N   0  0  0  0  0  0  0  0  0  0  0  0
   46.8254   53.7938   37.4699 C   0  0  0  0  0  0  0  0  0  0  0  0
   47.3452   54.0010   38.7390 C   0  0  0  0  0  0  0  0  0  0  0  0
   46.6587   53.5285   39.8545 C   0  0  0  0  0  0  0  0  0  0  0  0
   47.1388   53.7239   41.0799 N   0  0  0  0  0  0  0  0  0  0  0  0
   48.5055   54.6804   38.6005 N   0  0  0  0  0  0  0  0  0  0  0  0
   48.7341   54.8914   37.2829 C   0  0  0  0  0  0  0  0  0  0  0  0
   47.6994   54.3468   36.5684 N   0  0  0  0  0  0  0  0  0  0  0  0
  2  1  1  6  0  0  0
  2  3  1  0  0  0  0
  2  5  1  0  0  0  0
  3  4  1  0  0  0  0
  3 17  1  0  0  0  0
  5  6  1  0  0  0  0
  7  6  1  6  0  0  0
  7  8  1  0  0  0  0
  7  9  1  0  0  0  0
 10  9  1  1  0  0  0
 10 11  1  0  0  0  0
 10 12  1  0  0  0  0
 11 16  1  0  0  0  0
 12 13  1  6  0  0  0
 12 14  1  0  0  0  0
 14 15  1  6  0  0  0
 14 16  1  0  0  0  0
 16 27  1  1  0  0  0
 18 19  2  0  0  0  0
 18 23  1  0  0  0  0
 19 20  1  0  0  0  0
 20 21  2  0  0  0  0
 21 22  1  0  0  0  0
 21 27  1  0  0  0  0
 22 23  2  0  0  0  0
 22 25  1  0  0  0  0
 23 24  1  0  0  0  0
 25 26  2  0  0  0  0
 26 27  1  0  0  0  0
M  END
>  <CHROM.1>
-14.39196490,-154.07790567,-141.16987446,-172.31182470,-72.27210864,157.24547353
150.18373300,47.54236736,55.24949970,34.56609117,-1.00874609,-1.13598841
2.48358985

>  <Name>
ligand

>  <RI>
0

>  <Rbt.Current_Directory>
/home/itssahil/PROJECTS/Mol_Feturizer/New_Systems/rnas/3GX7

>  <Rbt.Executable>
rbdock ($Id: //depot/dev/client3/rdock/2013.1/src/exe/rbdock.cxx#4 $)

>  <Rbt.Library>
libRbt.so (2013.1, Build901 2013/11/27)

>  <Rbt.Parameter_File>
/export/apps/rDock/src/rDock_2013.1_src/data/scripts/dock_solv.prm

>  <Rbt.Receptor>
prm/pocket_docking_7.prm

>  <SCORE>
-22.5728

>  <SCORE.INTER>
-18.629

>  <SCORE.INTER.CONST>
1

>  <SCORE.INTER.POLAR>
0

>  <SCORE.INTER.ROT>
7

>  <SCORE.INTER.SOLV>
8.16754

>  <SCORE.INTER.VDW>
-23.4085

>  <SCORE.INTER.norm>
-0.689965

>  <SCORE.INTRA>
-3.94372

>  <SCORE.INTRA.DIHEDRAL>
0.556952

>  <SCORE.INTRA.DIHEDRAL.0>
11.2699

>  <SCORE.INTRA.POLAR>
0

>  <SCORE.INTRA.POLAR.0>
0

>  <SCORE.INTRA.REPUL>
0

>  <SCORE.INTRA.REPUL.0>
0

>  <SCORE.INTRA.SOLV>
-0.551228

>  <SCORE.INTRA.SOLV.lig_0>
-48.6447

>  <SCORE.INTRA.VDW>
-3.94658

>  <SCORE.INTRA.VDW.0>
-0.0211724

>  <SCORE.INTRA.norm>
-0.146064

>  <SCORE.RESTR>
0

>  <SCORE.RESTR.CAVITY>
0

>  <SCORE.RESTR.norm>
0

>  <SCORE.SYSTEM>
0

>  <SCORE.SYSTEM.CONST>
0

>  <SCORE.SYSTEM.DIHEDRAL>
0

>  <SCORE.SYSTEM.SOLV>
0

>  <SCORE.SYSTEM.norm>
0

>  <SCORE.heavy>
27

>  <SCORE.norm>
-0.836028

>  <RMSD>
6.215

$$$$
ligand
 OpenBabel11021811483D
libRbt.so/2013.1/901 2013/11/27
 27 29  0  0  0  0  0  0  0  0999 V2000
   45.6092   53.3229   36.6923 N   0  0  0  0  0  0  0  0  0  0  0  0
   46.1283   54.1699   35.6252 C   0  0  2  0  0  0  0  0  0  0  0  0
   45.4490   53.8449   34.3052 C   0  0  0  0  0  0  0  0  0  0  0  0
   44.7328   52.8517   34.2028 O   0  0  0  0  0  0  0  0  0  0  0  0
   47.6450   54.0453   35.4867 C   0  0  0  0  0  0  0  0  0  0  0  0
   48.3790   55.3649   35.2804 C   0  0  0  0  0  0  0  0  0  0  0  0
   48.0883   56.1436   33.6677 S   0  0  2  0  0  0  0  0  0  0  0  0
   49.3147   55.2953   32.6424 C   0  0  0  0  0  0  0  0  0  0  0  0
   48.9142   57.7363   33.9229 C   0  0  0  0  0  0  0  0  0  0  0  0
   48.5621   58.6854   32.7872 C   0  0  1  0  0  0  0  0  0  0  0  0
   49.3119   58.3142   31.6557 O   0  0  0  0  0  0  0  0  0  0  0  0
   47.1162   58.6209   32.3380 C   0  0  1  0  0  0  0  0  0  0  0  0
   46.3701   59.6481   32.9439 O   0  0  0  0  0  0  0  0  0  0  0  0
   47.1993   58.8291   30.8367 C   0  0  1  0  0  0  0  0  0  0  0  0
   46.7805   60.1369   30.5255 O   0  0  0  0  0  0  0  0  0  0  0  0
   48.6632   58.6483   30.4552 C   0  0  2  0  0  0  0  0  0  0  0  0
   45.6007   54.5709   33.3222 O   0  0  0  0  0  0  0  0  0  0  0  0
   47.4779   56.7460   25.6950 N   0  0  0  0  0  0  0  0  0  0  0  0
   47.1521   57.9757   26.2305 C   0  0  0  0  0  0  0  0  0  0  0  0
   47.5507   58.3089   27.5120 N   0  0  0  0  0  0  0  0  0  0  0  0
   48.2569   57.4334   28.2605 C   0  0  0  0  0  0  0  0  0  0  0  0
   48.6015   56.1948   27.7400 C   0  0  0  0  0  0  0  0  0  0  0  0
   48.2039   55.8500   26.4509 C   0  0  0  0  0  0  0  0  0  0  0  0
   48.5195   54.6638   25.9376 N   0  0  0  0  0  0  0  0  0  0  0  0
   49.3071   55.5350   28.6855 N   0  0  0  0  0  0  0  0  0  0  0  0
   49.4265   56.3290   29.7755 C   0  0  0  0  0  0  0  0  0  0  0  0
   48.7793   57.5110   29.5268 N   0  0  0  0  0  0  0  0  0  0  0  0
  2  1  1  1  0  0  0
  2  3  1  0  0  0  0
  2  5  1  0  0  0  0
  3  4  1  0  0  0  0
  3 17  1  0  0  0  0
  5  6  1  0  0  0  0
  7  6  1  1  0  0  0
  7  8  1  0  0  0  0
  7  9  1  0  0  0  0
 10  9  1  1  0  0  0
 10 11  1  0  0  0  0
 10 12  1  0  0  0  0
 11 16  1  0  0  0  0
 12 13  1  1  0  0  0
 12 14  1  0  0  0  0
 14 15  1  1  0  0  0
 14 16  1  0  0  0  0
 16 27  1  6  0  0  0
 18 19  2  0  0  0  0
 18 23  1  0  0  0  0
 19 20  1  0  0  0  0
 20 21  2  0  0  0  0
 21 22  1  0  0  0  0
 21 27  1  0  0  0  0
 22 23  2  0  0  0  0
 22 25  1  0  0  0  0
 23 24  1  0  0  0  0
 25 26  2  0  0  0  0
 26 27  1  0  0  0  0
M  END
>  <CHROM.1>
-10.29467967,-137.12530565,-69.62267176,-84.65470464,-168.64703073,-76.56817711
178.73497556,47.66346374,56.53213478,31.41470594,2.45042993,1.32891593,1.03229462

>  <Name>
ligand

>  <RI>
0

>  <Rbt.Current_Directory>
/home/itssahil/PROJECTS/Mol_Feturizer/New_Systems/rnas/3GX7

>  <Rbt.Executable>
rbdock ($Id: //depot/dev/client3/rdock/2013.1/src/exe/rbdock.cxx#4 $)

>  <Rbt.Library>
libRbt.so (2013.1, Build901 2013/11/27)

>  <Rbt.Parameter_File>
/export/apps/rDock/src/rDock_2013.1_src/data/scripts/dock_solv.prm

>  <Rbt.Receptor>
prm/pocket_docking_5.prm

>  <SCORE>
-17.2519

>  <SCORE.INTER>
-14.2685

>  <SCORE.INTER.CONST>
1

>  <SCORE.INTER.POLAR>
0

>  <SCORE.INTER.ROT>
7

>  <SCORE.INTER.SOLV>
11.344

>  <SCORE.INTER.VDW>
-21.5603

>  <SCORE.INTER.norm>
-0.528464

>  <SCORE.INTRA>
-2.98341

>  <SCORE.INTRA.DIHEDRAL>
-0.388832

>  <SCORE.INTRA.DIHEDRAL.0>
11.2699

>  <SCORE.INTRA.POLAR>
0

>  <SCORE.INTRA.POLAR.0>
0

>  <SCORE.INTRA.REPUL>
0

>  <SCORE.INTRA.REPUL.0>
0

>  <SCORE.INTRA.SOLV>
-0.599838

>  <SCORE.INTRA.SOLV.lig_0>
-48.6447

>  <SCORE.INTRA.VDW>
-2.48907

>  <SCORE.INTRA.VDW.0>
-0.0211724

>  <SCORE.INTRA.norm>
-0.110496

>  <SCORE.RESTR>
0

>  <SCORE.RESTR.CAVITY>
0

>  <SCORE.RESTR.norm>
0

>  <SCORE.SYSTEM>
0

>  <SCORE.SYSTEM.CONST>
0

>  <SCORE.SYSTEM.DIHEDRAL>
0

>  <SCORE.SYSTEM.SOLV>
0

>  <SCORE.SYSTEM.norm>
0

>  <SCORE.heavy>
27

>  <SCORE.norm>
-0.63896

>  <RMSD>
6.229

$$$$
ligand
 OpenBabel11021811483D
libRbt.so/2013.1/901 2013/11/27
 27 29  0  0  0  0  0  0  0  0999 V2000
   47.9923   55.0150   28.7048 N   0  0  0  0  0  0  0  0  0  0  0  0
   48.8460   55.9614   29.4126 C   0  0  2  0  0  0  0  0  0  0  0  0
   50.1890   55.3298   29.7400 C   0  0  0  0  0  0  0  0  0  0  0  0
   50.2540   54.3661   30.4995 O   0  0  0  0  0  0  0  0  0  0  0  0
   48.1818   56.4858   30.6849 C   0  0  0  0  0  0  0  0  0  0  0  0
   49.0059   57.5039   31.4639 C   0  0  0  0  0  0  0  0  0  0  0  0
   48.2061   58.1265   32.9685 S   0  0  2  0  0  0  0  0  0  0  0  0
   49.4785   59.2449   33.6051 C   0  0  0  0  0  0  0  0  0  0  0  0
   48.4336   56.7049   34.0690 C   0  0  0  0  0  0  0  0  0  0  0  0
   47.4269   55.6188   33.7201 C   0  0  1  0  0  0  0  0  0  0  0  0
   47.6245   54.5376   34.5988 O   0  0  0  0  0  0  0  0  0  0  0  0
   45.9777   56.0189   33.9102 C   0  0  1  0  0  0  0  0  0  0  0  0
   45.4182   56.4251   32.6850 O   0  0  0  0  0  0  0  0  0  0  0  0
   45.3181   54.7454   34.4077 C   0  0  1  0  0  0  0  0  0  0  0  0
   44.5671   54.1730   33.3632 O   0  0  0  0  0  0  0  0  0  0  0  0
   46.4456   53.8040   34.8124 C   0  0  2  0  0  0  0  0  0  0  0  0
   51.2291   55.7685   29.2478 O   0  0  0  0  0  0  0  0  0  0  0  0
   48.3692   54.6894   39.6291 N   0  0  0  0  0  0  0  0  0  0  0  0
   48.8016   55.2098   38.4260 C   0  0  0  0  0  0  0  0  0  0  0  0
   48.1707   54.8618   37.2456 N   0  0  0  0  0  0  0  0  0  0  0  0
   47.1284   54.0020   37.2522 C   0  0  0  0  0  0  0  0  0  0  0  0
   46.6726   53.4725   38.4504 C   0  0  0  0  0  0  0  0  0  0  0  0
   47.3020   53.8164   39.6438 C   0  0  0  0  0  0  0  0  0  0  0  0
   46.8827   53.3131   40.8019 N   0  0  0  0  0  0  0  0  0  0  0  0
   45.6266   52.6638   38.1692 N   0  0  0  0  0  0  0  0  0  0  0  0
   45.4057   52.6830   36.8337 C   0  0  0  0  0  0  0  0  0  0  0  0
   46.3304   53.5094   36.2507 N   0  0  0  0  0  0  0  0  0  0  0  0
  2  1  1  1  0  0  0
  2  3  1  0  0  0  0
  2  5  1  0  0  0  0
  3  4  1  0  0  0  0
  3 17  1  0  0  0  0
  5  6  1  0  0  0  0
  7  6  1  6  0  0  0
  7  8  1  0  0  0  0
  7  9  1  0  0  0  0
 10  9  1  1  0  0  0
 10 11  1  0  0  0  0
 10 12  1  0  0  0  0
 11 16  1  0  0  0  0
 12 13  1  6  0  0  0
 12 14  1  0  0  0  0
 14 15  1  6  0  0  0
 14 16  1  0  0  0  0
 16 27  1  1  0  0  0
 18 19  2  0  0  0  0
 18 23  1  0  0  0  0
 19 20  1  0  0  0  0
 20 21  2  0  0  0  0
 21 22  1  0  0  0  0
 21 27  1  0  0  0  0
 22 23  2  0  0  0  0
 22 25  1  0  0  0  0
 23 24  1  0  0  0  0
 25 26  2  0  0  0  0
 26 27  1  0  0  0  0
M  END
>  <CHROM.1>
-63.81494246,-178.80481635,179.73083440,178.80222571,-77.27754819,-179.52868208
7.83895936,47.65232971,55.29204759,34.27975315,1.21539752,-0.72918809,-1.50555287

>  <Name>
ligand

>  <RI>
0

>  <Rbt.Current_Directory>
/home/itssahil/PROJECTS/Mol_Feturizer/New_Systems/rnas/3GX7

>  <Rbt.Executable>
rbdock ($Id: //depot/dev/client3/rdock/2013.1/src/exe/rbdock.cxx#4 $)

>  <Rbt.Library>
libRbt.so (2013.1, Build901 2013/11/27)

>  <Rbt.Parameter_File>
/export/apps/rDock/src/rDock_2013.1_src/data/scripts/dock_solv.prm

>  <Rbt.Receptor>
prm/pocket_docking_7.prm

>  <SCORE>
-26.5501

>  <SCORE.INTER>
-19.4366

>  <SCORE.INTER.CONST>
1

>  <SCORE.INTER.POLAR>
0

>  <SCORE.INTER.ROT>
7

>  <SCORE.INTER.SOLV>
6.29199

>  <SCORE.INTER.VDW>
-23.3217

>  <SCORE.INTER.norm>
-0.719875

>  <SCORE.INTRA>
-7.11344

>  <SCORE.INTRA.DIHEDRAL>
-7.71052

>  <SCORE.INTRA.DIHEDRAL.0>
11.2699

>  <SCORE.INTRA.POLAR>
0

>  <SCORE.INTRA.POLAR.0>
0

>  <SCORE.INTRA.REPUL>
0

>  <SCORE.INTRA.REPUL.0>
0

>  <SCORE.INTRA.SOLV>
-0.678743

>  <SCORE.INTRA.SOLV.lig_0>
-48.6447

>  <SCORE.INTRA.VDW>
-2.91881

>  <SCORE.INTRA.VDW.0>
-0.0211724

>  <SCORE.INTRA.norm>
-0.263461

>  <SCORE.RESTR>
0

>  <SCORE.RESTR.CAVITY>
0

>  <SCORE.RESTR.norm>
0

>  <SCORE.SYSTEM>
0

>  <SCORE.SYSTEM.CONST>
0

>  <SCORE.SYSTEM.DIHEDRAL>
0

>  <SCORE.SYSTEM.SOLV>
0

>  <SCORE.SYSTEM.norm>
0

>  <SCORE.heavy>
27

>  <SCORE.norm>
-0.983336

>  <RMSD>
6.238

$$$$
ligand
 OpenBabel11021811483D
libRbt.so/2013.1/901 2013/11/27
 27 29  0  0  0  0  0  0  0  0999 V2000
   49.2205   55.8099   28.6168 N   0  0  0  0  0  0  0  0  0  0  0  0
   49.8640   55.5132   29.8909 C   0  0  2  0  0  0  0  0  0  0  0  0
   50.1216   54.0216   30.0261 C   0  0  0  0  0  0  0  0  0  0  0  0
   49.3151   53.3022   30.6109 O   0  0  0  0  0  0  0  0  0  0  0  0
   49.0419   56.0196   31.0752 C   0  0  0  0  0  0  0  0  0  0  0  0
   49.0019   57.5358   31.2245 C   0  0  0  0  0  0  0  0  0  0  0  0
   47.9072   58.1336   32.5419 S   0  0  2  0  0  0  0  0  0  0  0  0
   48.5072   59.8275   32.7550 C   0  0  0  0  0  0  0  0  0  0  0  0
   48.6624   57.3310   33.9804 C   0  0  0  0  0  0  0  0  0  0  0  0
   48.2218   55.8763   34.0473 C   0  0  1  0  0  0  0  0  0  0  0  0
   48.7751   55.3023   35.2069 O   0  0  0  0  0  0  0  0  0  0  0  0
   46.7260   55.6772   34.1865 C   0  0  1  0  0  0  0  0  0  0  0  0
   46.1489   55.4165   32.9303 O   0  0  0  0  0  0  0  0  0  0  0  0
   46.6101   54.4661   35.0944 C   0  0  1  0  0  0  0  0  0  0  0  0
   46.2463   53.3434   34.3265 O   0  0  0  0  0  0  0  0  0  0  0  0
   47.9884   54.2513   35.7071 C   0  0  2  0  0  0  0  0  0  0  0  0
   51.1358   53.5108   29.5498 O   0  0  0  0  0  0  0  0  0  0  0  0
   45.2618   53.0602   40.0465 N   0  0  0  0  0  0  0  0  0  0  0  0
   44.9953   52.6970   38.7419 C   0  0  0  0  0  0  0  0  0  0  0  0
   45.8291   53.1058   37.7172 N   0  0  0  0  0  0  0  0  0  0  0  0
   46.9108   53.8726   37.9771 C   0  0  0  0  0  0  0  0  0  0  0  0
   47.2018   54.2434   39.2816 C   0  0  0  0  0  0  0  0  0  0  0  0
   46.3676   53.8373   40.3198 C   0  0  0  0  0  0  0  0  0  0  0  0
   46.6273   54.1890   41.5764 N   0  0  0  0  0  0  0  0  0  0  0  0
   48.3300   54.9874   39.2539 N   0  0  0  0  0  0  0  0  0  0  0  0
   48.7610   55.0806   37.9740 C   0  0  0  0  0  0  0  0  0  0  0  0
   47.8899   54.3937   37.1695 N   0  0  0  0  0  0  0  0  0  0  0  0
  2  1  1  6  0  0  0
  2  3  1  0  0  0  0
  2  5  1  0  0  0  0
  3  4  1  0  0  0  0
  3 17  1  0  0  0  0
  5  6  1  0  0  0  0
  7  6  1  6  0  0  0
  7  8  1  0  0  0  0
  7  9  1  0  0  0  0
 10  9  1  1  0  0  0
 10 11  1  0  0  0  0
 10 12  1  0  0  0  0
 11 16  1  0  0  0  0
 12 13  1  6  0  0  0
 12 14  1  0  0  0  0
 14 15  1  6  0  0  0
 14 16  1  0  0  0  0
 16 27  1  1  0  0  0
 18 19  2  0  0  0  0
 18 23  1  0  0  0  0
 19 20  1  0  0  0  0
 20 21  2  0  0  0  0
 21 22  1  0  0  0  0
 21 27  1  0  0  0  0
 22 23  2  0  0  0  0
 22 25  1  0  0  0  0
 23 24  1  0  0  0  0
 25 26  2  0  0  0  0
 26 27  1  0  0  0  0
M  END
>  <CHROM.1>
-94.76872710,-70.24024638,174.86098596,162.99658119,-79.49643705,-177.30421069
157.51114264,47.87017022,55.15983571,34.64513976,-0.19880822,-1.26883343
-3.11407605

>  <Name>
ligand

>  <RI>
0

>  <Rbt.Current_Directory>
/home/itssahil/PROJECTS/Mol_Feturizer/New_Systems/rnas/3GX7

>  <Rbt.Executable>
rbdock ($Id: //depot/dev/client3/rdock/2013.1/src/exe/rbdock.cxx#4 $)

>  <Rbt.Library>
libRbt.so (2013.1, Build901 2013/11/27)

>  <Rbt.Parameter_File>
/export/apps/rDock/src/rDock_2013.1_src/data/scripts/dock_solv.prm

>  <Rbt.Receptor>
prm/pocket_docking_7.prm

>  <SCORE>
-23.8757

>  <SCORE.INTER>
-18.6964

>  <SCORE.INTER.CONST>
1

>  <SCORE.INTER.POLAR>
0

>  <SCORE.INTER.ROT>
7

>  <SCORE.INTER.SOLV>
11.8491

>  <SCORE.INTER.VDW>
-24.6807

>  <SCORE.INTER.norm>
-0.692461

>  <SCORE.INTRA>
-5.17929

>  <SCORE.INTRA.DIHEDRAL>
-6.97945

>  <SCORE.INTRA.DIHEDRAL.0>
11.2699

>  <SCORE.INTRA.POLAR>
0

>  <SCORE.INTRA.POLAR.0>
0

>  <SCORE.INTRA.REPUL>
0

>  <SCORE.INTRA.REPUL.0>
0

>  <SCORE.INTRA.SOLV>
-0.0807999

>  <SCORE.INTRA.SOLV.lig_0>
-48.6447

>  <SCORE.INTRA.VDW>
-1.64917

>  <SCORE.INTRA.VDW.0>
-0.0211724

>  <SCORE.INTRA.norm>
-0.191826

>  <SCORE.RESTR>
0

>  <SCORE.RESTR.CAVITY>
0

>  <SCORE.RESTR.norm>
0

>  <SCORE.SYSTEM>
0

>  <SCORE.SYSTEM.CONST>
0

>  <SCORE.SYSTEM.DIHEDRAL>
0

>  <SCORE.SYSTEM.SOLV>
0

>  <SCORE.SYSTEM.norm>
0

>  <SCORE.heavy>
27

>  <SCORE.norm>
-0.884286

>  <RMSD>
6.250

$$$$
ligand
 OpenBabel11021811483D
libRbt.so/2013.1/901 2013/11/27
 27 29  0  0  0  0  0  0  0  0999 V2000
   44.0151   52.3452   35.9081 N   0  0  0  0  0  0  0  0  0  0  0  0
   44.3225   53.3129   34.8619 C   0  0  2  0  0  0  0  0  0  0  0  0
   45.7847   53.7226   34.9242 C   0  0  0  0  0  0  0  0  0  0  0  0
   46.2372   54.2593   35.9327 O   0  0  0  0  0  0  0  0  0  0  0  0
   43.4221   54.5447   34.9437 C   0  0  0  0  0  0  0  0  0  0  0  0
   43.5139   55.4849   33.7478 C   0  0  0  0  0  0  0  0  0  0  0  0
   44.8876   56.6676   33.8241 S   0  0  2  0  0  0  0  0  0  0  0  0
   44.2095   58.0542   32.8795 C   0  0  0  0  0  0  0  0  0  0  0  0
   46.0064   55.9450   32.5953 C   0  0  0  0  0  0  0  0  0  0  0  0
   47.3548   56.6473   32.6525 C   0  0  1  0  0  0  0  0  0  0  0  0
   48.2816   55.8795   31.9231 O   0  0  0  0  0  0  0  0  0  0  0  0
   47.3804   58.0155   32.0014 C   0  0  1  0  0  0  0  0  0  0  0  0
   47.2229   59.0214   32.9721 O   0  0  0  0  0  0  0  0  0  0  0  0
   48.7600   58.0855   31.3720 C   0  0  1  0  0  0  0  0  0  0  0  0
   49.5829   58.9230   32.1493 O   0  0  0  0  0  0  0  0  0  0  0  0
   49.3112   56.6652   31.3788 C   0  0  2  0  0  0  0  0  0  0  0  0
   46.5378   53.5197   33.9713 O   0  0  0  0  0  0  0  0  0  0  0  0
   47.6371   56.8664   26.3948 N   0  0  0  0  0  0  0  0  0  0  0  0
   47.0839   57.4659   27.5081 C   0  0  0  0  0  0  0  0  0  0  0  0
   47.6639   57.3016   28.7527 N   0  0  0  0  0  0  0  0  0  0  0  0
   48.7746   56.5461   28.8978 C   0  0  0  0  0  0  0  0  0  0  0  0
   49.3517   55.9402   27.7915 C   0  0  0  0  0  0  0  0  0  0  0  0
   48.7743   56.0992   26.5345 C   0  0  0  0  0  0  0  0  0  0  0  0
   49.3102   55.5201   25.4632 N   0  0  0  0  0  0  0  0  0  0  0  0
   50.4429   55.2652   28.2168 N   0  0  0  0  0  0  0  0  0  0  0  0
   50.5736   55.4426   29.5526 C   0  0  0  0  0  0  0  0  0  0  0  0
   49.5450   56.2355   29.9898 N   0  0  0  0  0  0  0  0  0  0  0  0
  2  1  1  1  0  0  0
  2  3  1  0  0  0  0
  2  5  1  0  0  0  0
  3  4  1  0  0  0  0
  3 17  1  0  0  0  0
  5  6  1  0  0  0  0
  7  6  1  6  0  0  0
  7  8  1  0  0  0  0
  7  9  1  0  0  0  0
 10  9  1  6  0  0  0
 10 11  1  0  0  0  0
 10 12  1  0  0  0  0
 11 16  1  0  0  0  0
 12 13  1  1  0  0  0
 12 14  1  0  0  0  0
 14 15  1  1  0  0  0
 14 16  1  0  0  0  0
 16 27  1  6  0  0  0
 18 19  2  0  0  0  0
 18 23  1  0  0  0  0
 19 20  1  0  0  0  0
 20 21  2  0  0  0  0
 21 22  1  0  0  0  0
 21 27  1  0  0  0  0
 22 23  2  0  0  0  0
 22 25  1  0  0  0  0
 23 24  1  0  0  0  0
 25 26  2  0  0  0  0
 26 27  1  0  0  0  0
M  END
>  <CHROM.1>
-60.34179901,-169.78416860,-83.56817387,-150.81120552,-170.40038183,166.68305887
77.38196224,47.11184386,56.10520551,31.59756396,3.10181596,1.02337777,0.30287801

>  <Name>
ligand

>  <RI>
0

>  <Rbt.Current_Directory>
/home/itssahil/PROJECTS/Mol_Feturizer/New_Systems/rnas/3GX7

>  <Rbt.Executable>
rbdock ($Id: //depot/dev/client3/rdock/2013.1/src/exe/rbdock.cxx#4 $)

>  <Rbt.Library>
libRbt.so (2013.1, Build901 2013/11/27)

>  <Rbt.Parameter_File>
/export/apps/rDock/src/rDock_2013.1_src/data/scripts/dock_solv.prm

>  <Rbt.Receptor>
prm/pocket_docking_5.prm

>  <SCORE>
-14.0532

>  <SCORE.INTER>
-9.6994

>  <SCORE.INTER.CONST>
1

>  <SCORE.INTER.POLAR>
0

>  <SCORE.INTER.ROT>
7

>  <SCORE.INTER.SOLV>
14.337

>  <SCORE.INTER.VDW>
-19.5119

>  <SCORE.INTER.norm>
-0.359237

>  <SCORE.INTRA>
-4.35376

>  <SCORE.INTRA.DIHEDRAL>
-1.39328

>  <SCORE.INTRA.DIHEDRAL.0>
11.2699

>  <SCORE.INTRA.POLAR>
0

>  <SCORE.INTRA.POLAR.0>
0

>  <SCORE.INTRA.REPUL>
0

>  <SCORE.INTRA.REPUL.0>
0

>  <SCORE.INTRA.SOLV>
-0.664332

>  <SCORE.INTRA.SOLV.lig_0>
-48.6447

>  <SCORE.INTRA.VDW>
-3.32495

>  <SCORE.INTRA.VDW.0>
-0.0211724

>  <SCORE.INTRA.norm>
-0.16125

>  <SCORE.RESTR>
0

>  <SCORE.RESTR.CAVITY>
0

>  <SCORE.RESTR.norm>
0

>  <SCORE.SYSTEM>
0

>  <SCORE.SYSTEM.CONST>
0

>  <SCORE.SYSTEM.DIHEDRAL>
0

>  <SCORE.SYSTEM.SOLV>
0

>  <SCORE.SYSTEM.norm>
0

>  <SCORE.heavy>
27

>  <SCORE.norm>
-0.520487

>  <RMSD>
6.271

$$$$
ligand
 OpenBabel11021811483D
libRbt.so/2013.1/901 2013/11/27
 27 29  0  0  0  0  0  0  0  0999 V2000
   41.8231   55.1993   30.4839 N   0  0  0  0  0  0  0  0  0  0  0  0
   41.7772   55.1966   31.9410 C   0  0  2  0  0  0  0  0  0  0  0  0
   40.3400   55.2571   32.4315 C   0  0  0  0  0  0  0  0  0  0  0  0
   40.0794   55.0661   33.6170 O   0  0  0  0  0  0  0  0  0  0  0  0
   42.5908   56.3438   32.5383 C   0  0  0  0  0  0  0  0  0  0  0  0
   44.0861   56.2857   32.2497 C   0  0  0  0  0  0  0  0  0  0  0  0
   45.0837   57.4592   33.2083 S   0  0  2  0  0  0  0  0  0  0  0  0
   44.7536   59.0037   32.3249 C   0  0  0  0  0  0  0  0  0  0  0  0
   46.7381   57.0661   32.5819 C   0  0  0  0  0  0  0  0  0  0  0  0
   47.0823   55.6213   32.9115 C   0  0  1  0  0  0  0  0  0  0  0  0
   46.4485   54.7920   31.9677 O   0  0  0  0  0  0  0  0  0  0  0  0
   48.5558   55.2844   32.8027 C   0  0  1  0  0  0  0  0  0  0  0  0
   49.1641   55.3382   34.0700 O   0  0  0  0  0  0  0  0  0  0  0  0
   48.5587   53.8654   32.2636 C   0  0  1  0  0  0  0  0  0  0  0  0
   48.8802   52.9738   33.3049 O   0  0  0  0  0  0  0  0  0  0  0  0
   47.1464   53.5903   31.7624 C   0  0  2  0  0  0  0  0  0  0  0  0
   39.4177   55.5023   31.6533 O   0  0  0  0  0  0  0  0  0  0  0  0
   45.8417   55.2605   26.9466 N   0  0  0  0  0  0  0  0  0  0  0  0
   45.5865   55.8657   28.1605 C   0  0  0  0  0  0  0  0  0  0  0  0
   46.0072   55.2764   29.3387 N   0  0  0  0  0  0  0  0  0  0  0  0
   46.6661   54.0970   29.3190 C   0  0  0  0  0  0  0  0  0  0  0  0
   46.9397   53.4746   28.1100 C   0  0  0  0  0  0  0  0  0  0  0  0
   46.5193   54.0599   26.9186 C   0  0  0  0  0  0  0  0  0  0  0  0
   46.7669   53.4739   25.7501 N   0  0  0  0  0  0  0  0  0  0  0  0
   47.6107   52.3326   28.3798 N   0  0  0  0  0  0  0  0  0  0  0  0
   47.7775   52.2296   29.7194 C   0  0  0  0  0  0  0  0  0  0  0  0
   47.1962   53.3177   30.3160 N   0  0  0  0  0  0  0  0  0  0  0  0
  2  1  1  6  0  0  0
  2  3  1  0  0  0  0
  2  5  1  0  0  0  0
  3  4  1  0  0  0  0
  3 17  1  0  0  0  0
  5  6  1  0  0  0  0
  7  6  1  6  0  0  0
  7  8  1  0  0  0  0
  7  9  1  0  0  0  0
 10  9  1  6  0  0  0
 10 11  1  0  0  0  0
 10 12  1  0  0  0  0
 11 16  1  0  0  0  0
 12 13  1  1  0  0  0
 12 14  1  0  0  0  0
 14 15  1  1  0  0  0
 14 16  1  0  0  0  0
 16 27  1  6  0  0  0
 18 19  2  0  0  0  0
 18 23  1  0  0  0  0
 19 20  1  0  0  0  0
 20 21  2  0  0  0  0
 21 22  1  0  0  0  0
 21 27  1  0  0  0  0
 22 23  2  0  0  0  0
 22 25  1  0  0  0  0
 23 24  1  0  0  0  0
 25 26  2  0  0  0  0
 26 27  1  0  0  0  0
M  END
>  <CHROM.1>
169.22133608,-63.45525367,-169.06375689,-77.08320241,-61.92371526,79.88798897
0.45750071,45.47587929,55.08362909,31.12678158,2.62115390,-0.19004396,1.19670531

>  <Name>
ligand

>  <RI>
0

>  <Rbt.Current_Directory>
/home/itssahil/PROJECTS/Mol_Feturizer/New_Systems/rnas/3GX7

>  <Rbt.Executable>
rbdock ($Id: //depot/dev/client3/rdock/2013.1/src/exe/rbdock.cxx#4 $)

>  <Rbt.Library>
libRbt.so (2013.1, Build901 2013/11/27)

>  <Rbt.Parameter_File>
/export/apps/rDock/src/rDock_2013.1_src/data/scripts/dock_solv.prm

>  <Rbt.Receptor>
prm/pocket_docking_7.prm

>  <SCORE>
-14.1918

>  <SCORE.INTER>
-8.88036

>  <SCORE.INTER.CONST>
1

>  <SCORE.INTER.POLAR>
0

>  <SCORE.INTER.ROT>
7

>  <SCORE.INTER.SOLV>
11.1534

>  <SCORE.INTER.VDW>
-17.9047

>  <SCORE.INTER.norm>
-0.328902

>  <SCORE.INTRA>
-5.31142

>  <SCORE.INTRA.DIHEDRAL>
-5.98078

>  <SCORE.INTRA.DIHEDRAL.0>
11.2699

>  <SCORE.INTRA.POLAR>
0

>  <SCORE.INTRA.POLAR.0>
0

>  <SCORE.INTRA.REPUL>
0

>  <SCORE.INTRA.REPUL.0>
0

>  <SCORE.INTRA.SOLV>
-0.34545

>  <SCORE.INTRA.SOLV.lig_0>
-48.6447

>  <SCORE.INTRA.VDW>
-2.14831

>  <SCORE.INTRA.VDW.0>
-0.0211724

>  <SCORE.INTRA.norm>
-0.196719

>  <SCORE.RESTR>
0

>  <SCORE.RESTR.CAVITY>
0

>  <SCORE.RESTR.norm>
0

>  <SCORE.SYSTEM>
0

>  <SCORE.SYSTEM.CONST>
0

>  <SCORE.SYSTEM.DIHEDRAL>
0

>  <SCORE.SYSTEM.SOLV>
0

>  <SCORE.SYSTEM.norm>
0

>  <SCORE.heavy>
27

>  <SCORE.norm>
-0.525622

>  <RMSD>
6.274

$$$$
ligand
 OpenBabel11021811483D
libRbt.so/2013.1/901 2013/11/27
 27 29  0  0  0  0  0  0  0  0999 V2000
   47.0642   55.0152   34.9697 N   0  0  0  0  0  0  0  0  0  0  0  0
   47.5635   55.2845   33.6267 C   0  0  2  0  0  0  0  0  0  0  0  0
   48.9543   54.6994   33.4452 C   0  0  0  0  0  0  0  0  0  0  0  0
   49.1214   53.6965   32.7551 O   0  0  0  0  0  0  0  0  0  0  0  0
   47.5712   56.7797   33.3117 C   0  0  0  0  0  0  0  0  0  0  0  0
   48.0471   57.1353   31.9082 C   0  0  0  0  0  0  0  0  0  0  0  0
   48.1624   58.9161   31.5814 S   0  0  2  0  0  0  0  0  0  0  0  0
   49.1495   59.4689   32.9938 C   0  0  0  0  0  0  0  0  0  0  0  0
   46.5107   59.4492   32.1024 C   0  0  0  0  0  0  0  0  0  0  0  0
   45.4831   59.0281   31.0624 C   0  0  1  0  0  0  0  0  0  0  0  0
   46.0488   59.2098   29.7868 O   0  0  0  0  0  0  0  0  0  0  0  0
   45.0974   57.5636   31.1154 C   0  0  1  0  0  0  0  0  0  0  0  0
   43.9005   57.3994   31.8361 O   0  0  0  0  0  0  0  0  0  0  0  0
   44.9028   57.1928   29.6563 C   0  0  1  0  0  0  0  0  0  0  0  0
   43.5252   57.0945   29.3820 O   0  0  0  0  0  0  0  0  0  0  0  0
   45.5156   58.3221   28.8375 C   0  0  2  0  0  0  0  0  0  0  0  0
   49.9329   55.2213   33.9802 O   0  0  0  0  0  0  0  0  0  0  0  0
   49.2379   54.6264   28.4244 N   0  0  0  0  0  0  0  0  0  0  0  0
   48.3160   54.8030   29.4363 C   0  0  0  0  0  0  0  0  0  0  0  0
   47.4033   55.8403   29.3786 N   0  0  0  0  0  0  0  0  0  0  0  0
   47.4062   56.6997   28.3360 C   0  0  0  0  0  0  0  0  0  0  0  0
   48.3190   56.5369   27.3045 C   0  0  0  0  0  0  0  0  0  0  0  0
   49.2424   55.4960   27.3543 C   0  0  0  0  0  0  0  0  0  0  0  0
   50.1298   55.3284   26.3772 N   0  0  0  0  0  0  0  0  0  0  0  0
   48.0931   57.5151   26.3994 N   0  0  0  0  0  0  0  0  0  0  0  0
   47.0576   58.2754   26.8266 C   0  0  0  0  0  0  0  0  0  0  0  0
   46.6207   57.7816   28.0279 N   0  0  0  0  0  0  0  0  0  0  0  0
  2  1  1  1  0  0  0
  2  3  1  0  0  0  0
  2  5  1  0  0  0  0
  3  4  1  0  0  0  0
  3 17  1  0  0  0  0
  5  6  1  0  0  0  0
  7  6  1  1  0  0  0
  7  8  1  0  0  0  0
  7  9  1  0  0  0  0
 10  9  1  1  0  0  0
 10 11  1  0  0  0  0
 10 12  1  0  0  0  0
 11 16  1  0  0  0  0
 12 13  1  1  0  0  0
 12 14  1  0  0  0  0
 14 15  1  6  0  0  0
 14 16  1  0  0  0  0
 16 27  1  6  0  0  0
 18 19  2  0  0  0  0
 18 23  1  0  0  0  0
 19 20  1  0  0  0  0
 20 21  2  0  0  0  0
 21 22  1  0  0  0  0
 21 27  1  0  0  0  0
 22 23  2  0  0  0  0
 22 25  1  0  0  0  0
 23 24  1  0  0  0  0
 25 26  2  0  0  0  0
 26 27  1  0  0  0  0
M  END
>  <CHROM.1>
106.91356751,-178.45455444,-175.97367933,51.34842592,-74.21484531,-39.03945935
85.43992841,47.36227556,56.93931043,30.51388389,-1.41783817,0.72637033,-1.52031382

>  <Name>
ligand

>  <RI>
0

>  <Rbt.Current_Directory>
/home/itssahil/PROJECTS/Mol_Feturizer/New_Systems/rnas/3GX7

>  <Rbt.Executable>
rbdock ($Id: //depot/dev/client3/rdock/2013.1/src/exe/rbdock.cxx#4 $)

>  <Rbt.Library>
libRbt.so (2013.1, Build901 2013/11/27)

>  <Rbt.Parameter_File>
/export/apps/rDock/src/rDock_2013.1_src/data/scripts/dock_solv.prm

>  <Rbt.Receptor>
prm/pocket_docking_7.prm

>  <SCORE>
-16.0583

>  <SCORE.INTER>
-10.5101

>  <SCORE.INTER.CONST>
1

>  <SCORE.INTER.POLAR>
0

>  <SCORE.INTER.ROT>
7

>  <SCORE.INTER.SOLV>
13.4077

>  <SCORE.INTER.VDW>
-19.7426

>  <SCORE.INTER.norm>
-0.389263

>  <SCORE.INTRA>
-5.54817

>  <SCORE.INTRA.DIHEDRAL>
-6.50364

>  <SCORE.INTRA.DIHEDRAL.0>
11.2699

>  <SCORE.INTRA.POLAR>
0

>  <SCORE.INTRA.POLAR.0>
0

>  <SCORE.INTRA.REPUL>
0

>  <SCORE.INTRA.REPUL.0>
0

>  <SCORE.INTRA.SOLV>
-0.670569

>  <SCORE.INTRA.SOLV.lig_0>
-48.6447

>  <SCORE.INTRA.VDW>
-1.96107

>  <SCORE.INTRA.VDW.0>
-0.0211724

>  <SCORE.INTRA.norm>
-0.205488

>  <SCORE.RESTR>
0

>  <SCORE.RESTR.CAVITY>
0

>  <SCORE.RESTR.norm>
0

>  <SCORE.SYSTEM>
0

>  <SCORE.SYSTEM.CONST>
0

>  <SCORE.SYSTEM.DIHEDRAL>
0

>  <SCORE.SYSTEM.SOLV>
0

>  <SCORE.SYSTEM.norm>
0

>  <SCORE.heavy>
27

>  <SCORE.norm>
-0.594751

>  <RMSD>
6.276

$$$$
ligand
 OpenBabel11021811483D
libRbt.so/2013.1/901 2013/11/27
 27 29  0  0  0  0  0  0  0  0999 V2000
   49.9770   53.8774   31.6766 N   0  0  0  0  0  0  0  0  0  0  0  0
   48.6348   54.2929   31.2875 C   0  0  2  0  0  0  0  0  0  0  0  0
   47.8871   53.1433   30.6325 C   0  0  0  0  0  0  0  0  0  0  0  0
   48.5042   52.2256   30.0968 O   0  0  0  0  0  0  0  0  0  0  0  0
   48.6615   55.5063   30.3590 C   0  0  0  0  0  0  0  0  0  0  0  0
   49.1037   56.8070   31.0188 C   0  0  0  0  0  0  0  0  0  0  0  0
   47.8325   57.6032   32.0393 S   0  0  2  0  0  0  0  0  0  0  0  0
   48.7820   58.9424   32.8009 C   0  0  0  0  0  0  0  0  0  0  0  0
   47.7444   56.4326   33.4198 C   0  0  0  0  0  0  0  0  0  0  0  0
   46.4476   55.6410   33.3403 C   0  0  1  0  0  0  0  0  0  0  0  0
   46.5795   54.4985   34.1512 O   0  0  0  0  0  0  0  0  0  0  0  0
   45.2323   56.3674   33.8806 C   0  0  1  0  0  0  0  0  0  0  0  0
   44.5106   56.9613   32.8293 O   0  0  0  0  0  0  0  0  0  0  0  0
   44.4202   55.2653   34.5364 C   0  0  1  0  0  0  0  0  0  0  0  0
   43.3213   54.9473   33.7156 O   0  0  0  0  0  0  0  0  0  0  0  0
   45.3443   54.0599   34.6565 C   0  0  2  0  0  0  0  0  0  0  0  0
   46.6562   53.1101   30.6323 O   0  0  0  0  0  0  0  0  0  0  0  0
   48.5035   54.2692   38.8588 N   0  0  0  0  0  0  0  0  0  0  0  0
   48.7414   54.7443   37.5850 C   0  0  0  0  0  0  0  0  0  0  0  0
   47.7875   54.5994   36.5943 N   0  0  0  0  0  0  0  0  0  0  0  0
   46.6135   53.9842   36.8567 C   0  0  0  0  0  0  0  0  0  0  0  0
   46.3502   53.5054   38.1316 C   0  0  0  0  0  0  0  0  0  0  0  0
   47.3050   53.6459   39.1353 C   0  0  0  0  0  0  0  0  0  0  0  0
   47.0726   53.1868   40.3623 N   0  0  0  0  0  0  0  0  0  0  0  0
   45.1157   52.9551   38.1157 N   0  0  0  0  0  0  0  0  0  0  0  0
   44.5937   53.0882   36.8737 C   0  0  0  0  0  0  0  0  0  0  0  0
   45.5121   53.7251   36.0808 N   0  0  0  0  0  0  0  0  0  0  0  0
  2  1  1  6  0  0  0
  2  3  1  0  0  0  0
  2  5  1  0  0  0  0
  3  4  1  0  0  0  0
  3 17  1  0  0  0  0
  5  6  1  0  0  0  0
  7  6  1  6  0  0  0
  7  8  1  0  0  0  0
  7  9  1  0  0  0  0
 10  9  1  1  0  0  0
 10 11  1  0  0  0  0
 10 12  1  0  0  0  0
 11 16  1  0  0  0  0
 12 13  1  6  0  0  0
 12 14  1  0  0  0  0
 14 15  1  6  0  0  0
 14 16  1  0  0  0  0
 16 27  1  1  0  0  0
 18 19  2  0  0  0  0
 18 23  1  0  0  0  0
 19 20  1  0  0  0  0
 20 21  2  0  0  0  0
 21 22  1  0  0  0  0
 21 27  1  0  0  0  0
 22 23  2  0  0  0  0
 22 25  1  0  0  0  0
 23 24  1  0  0  0  0
 25 26  2  0  0  0  0
 26 27  1  0  0  0  0
M  END
>  <CHROM.1>
-24.10152105,-69.44677883,-77.43674768,172.77608552,-107.53883536,162.64040510
9.43049332,46.96740982,54.87984967,34.20869992,-1.35664720,-0.00721041,1.82627008

>  <Name>
ligand

>  <RI>
0

>  <Rbt.Current_Directory>
/home/itssahil/PROJECTS/Mol_Feturizer/New_Systems/rnas/3GX7

>  <Rbt.Executable>
rbdock ($Id: //depot/dev/client3/rdock/2013.1/src/exe/rbdock.cxx#4 $)

>  <Rbt.Library>
libRbt.so (2013.1, Build901 2013/11/27)

>  <Rbt.Parameter_File>
/export/apps/rDock/src/rDock_2013.1_src/data/scripts/dock_solv.prm

>  <Rbt.Receptor>
prm/pocket_docking_6.prm

>  <SCORE>
-18.4164

>  <SCORE.INTER>
-13.9737

>  <SCORE.INTER.CONST>
1

>  <SCORE.INTER.POLAR>
0

>  <SCORE.INTER.ROT>
7

>  <SCORE.INTER.SOLV>
13.0228

>  <SCORE.INTER.VDW>
-21.9234

>  <SCORE.INTER.norm>
-0.517546

>  <SCORE.INTRA>
-4.44268

>  <SCORE.INTRA.DIHEDRAL>
-2.4639

>  <SCORE.INTRA.DIHEDRAL.0>
11.2699

>  <SCORE.INTRA.POLAR>
0

>  <SCORE.INTRA.POLAR.0>
0

>  <SCORE.INTRA.REPUL>
0

>  <SCORE.INTRA.REPUL.0>
0

>  <SCORE.INTRA.SOLV>
0.952843

>  <SCORE.INTRA.SOLV.lig_0>
-48.6447

>  <SCORE.INTRA.VDW>
-3.68715

>  <SCORE.INTRA.VDW.0>
-0.0211724

>  <SCORE.INTRA.norm>
-0.164544

>  <SCORE.RESTR>
0

>  <SCORE.RESTR.CAVITY>
0

>  <SCORE.RESTR.norm>
0

>  <SCORE.SYSTEM>
0

>  <SCORE.SYSTEM.CONST>
0

>  <SCORE.SYSTEM.DIHEDRAL>
0

>  <SCORE.SYSTEM.SOLV>
0

>  <SCORE.SYSTEM.norm>
0

>  <SCORE.heavy>
27

>  <SCORE.norm>
-0.68209

>  <RMSD>
6.280

$$$$
ligand
 OpenBabel11021811483D
libRbt.so/2013.1/901 2013/11/27
 27 29  0  0  0  0  0  0  0  0999 V2000
   47.1860   53.2832   33.2610 N   0  0  0  0  0  0  0  0  0  0  0  0
   47.9055   54.4163   33.8302 C   0  0  2  0  0  0  0  0  0  0  0  0
   47.4765   54.6551   35.2684 C   0  0  0  0  0  0  0  0  0  0  0  0
   46.3368   54.3742   35.6318 O   0  0  0  0  0  0  0  0  0  0  0  0
   47.7148   55.6858   33.0014 C   0  0  0  0  0  0  0  0  0  0  0  0
   48.4915   56.8983   33.5007 C   0  0  0  0  0  0  0  0  0  0  0  0
   48.7066   58.2134   32.2696 S   0  0  2  0  0  0  0  0  0  0  0  0
   49.9181   59.2733   33.0964 C   0  0  0  0  0  0  0  0  0  0  0  0
   47.1900   59.1664   32.5446 C   0  0  0  0  0  0  0  0  0  0  0  0
   46.1738   58.8390   31.4607 C   0  0  1  0  0  0  0  0  0  0  0  0
   46.7948   59.0107   30.2096 O   0  0  0  0  0  0  0  0  0  0  0  0
   45.6897   57.4030   31.4644 C   0  0  1  0  0  0  0  0  0  0  0  0
   44.4599   57.3038   32.1403 O   0  0  0  0  0  0  0  0  0  0  0  0
   45.5222   57.0790   29.9909 C   0  0  1  0  0  0  0  0  0  0  0  0
   44.1517   57.0800   29.6682 O   0  0  0  0  0  0  0  0  0  0  0  0
   46.2374   58.1825   29.2213 C   0  0  2  0  0  0  0  0  0  0  0  0
   48.2620   55.1274   36.0908 O   0  0  0  0  0  0  0  0  0  0  0  0
   50.5387   55.1534   29.3050 N   0  0  0  0  0  0  0  0  0  0  0  0
   49.7155   55.4999   30.3573 C   0  0  0  0  0  0  0  0  0  0  0  0
   48.6181   56.3150   30.1487 N   0  0  0  0  0  0  0  0  0  0  0  0
   48.3410   56.7901   28.9146 C   0  0  0  0  0  0  0  0  0  0  0  0
   49.1505   56.4490   27.8412 C   0  0  0  0  0  0  0  0  0  0  0  0
   50.2581   55.6295   28.0417 C   0  0  0  0  0  0  0  0  0  0  0  0
   51.0497   55.2974   27.0252 N   0  0  0  0  0  0  0  0  0  0  0  0
   48.6420   57.0442   26.7392 N   0  0  0  0  0  0  0  0  0  0  0  0
   47.5313   57.7350   27.0885 C   0  0  0  0  0  0  0  0  0  0  0  0
   47.3317   57.5869   28.4361 N   0  0  0  0  0  0  0  0  0  0  0  0
  2  1  1  6  0  0  0
  2  3  1  0  0  0  0
  2  5  1  0  0  0  0
  3  4  1  0  0  0  0
  3 17  1  0  0  0  0
  5  6  1  0  0  0  0
  7  6  1  1  0  0  0
  7  8  1  0  0  0  0
  7  9  1  0  0  0  0
 10  9  1  1  0  0  0
 10 11  1  0  0  0  0
 10 12  1  0  0  0  0
 11 16  1  0  0  0  0
 12 13  1  1  0  0  0
 12 14  1  0  0  0  0
 14 15  1  6  0  0  0
 14 16  1  0  0  0  0
 16 27  1  6  0  0  0
 18 19  2  0  0  0  0
 18 23  1  0  0  0  0
 19 20  1  0  0  0  0
 20 21  2  0  0  0  0
 21 22  1  0  0  0  0
 21 27  1  0  0  0  0
 22 23  2  0  0  0  0
 22 25  1  0  0  0  0
 23 24  1  0  0  0  0
 25 26  2  0  0  0  0
 26 27  1  0  0  0  0
M  END
>  <CHROM.1>
-30.15341976,-177.28868565,161.11000152,-169.05661268,-101.70306682,-52.40248632
59.66199278,47.74820407,56.73471645,31.13388598,-1.79936772,0.59543756,-1.24389594

>  <Name>
ligand

>  <RI>
0

>  <Rbt.Current_Directory>
/home/itssahil/PROJECTS/Mol_Feturizer/New_Systems/rnas/3GX7

>  <Rbt.Executable>
rbdock ($Id: //depot/dev/client3/rdock/2013.1/src/exe/rbdock.cxx#4 $)

>  <Rbt.Library>
libRbt.so (2013.1, Build901 2013/11/27)

>  <Rbt.Parameter_File>
/export/apps/rDock/src/rDock_2013.1_src/data/scripts/dock_solv.prm

>  <Rbt.Receptor>
prm/pocket_docking_4.prm

>  <SCORE>
-16.2142

>  <SCORE.INTER>
-10.3066

>  <SCORE.INTER.CONST>
1

>  <SCORE.INTER.POLAR>
0

>  <SCORE.INTER.ROT>
7

>  <SCORE.INTER.SOLV>
13.0333

>  <SCORE.INTER.VDW>
-19.4822

>  <SCORE.INTER.norm>
-0.381726

>  <SCORE.INTRA>
-5.90763

>  <SCORE.INTRA.DIHEDRAL>
-3.02064

>  <SCORE.INTRA.DIHEDRAL.0>
11.2699

>  <SCORE.INTRA.POLAR>
0

>  <SCORE.INTRA.POLAR.0>
0

>  <SCORE.INTRA.REPUL>
0

>  <SCORE.INTRA.REPUL.0>
0

>  <SCORE.INTRA.SOLV>
-0.583882

>  <SCORE.INTRA.SOLV.lig_0>
-48.6447

>  <SCORE.INTRA.VDW>
-4.10537

>  <SCORE.INTRA.VDW.0>
-0.0211724

>  <SCORE.INTRA.norm>
-0.218801

>  <SCORE.RESTR>
0

>  <SCORE.RESTR.CAVITY>
0

>  <SCORE.RESTR.norm>
0

>  <SCORE.SYSTEM>
0

>  <SCORE.SYSTEM.CONST>
0

>  <SCORE.SYSTEM.DIHEDRAL>
0

>  <SCORE.SYSTEM.SOLV>
0

>  <SCORE.SYSTEM.norm>
0

>  <SCORE.heavy>
27

>  <SCORE.norm>
-0.600527

>  <RMSD>
6.311

$$$$
ligand
 OpenBabel11021811483D
libRbt.so/2013.1/901 2013/11/27
 27 29  0  0  0  0  0  0  0  0999 V2000
   51.0909   53.5874   29.4103 N   0  0  0  0  0  0  0  0  0  0  0  0
   50.1854   54.7081   29.1875 C   0  0  2  0  0  0  0  0  0  0  0  0
   50.8626   55.7870   28.3587 C   0  0  0  0  0  0  0  0  0  0  0  0
   50.1930   56.5560   27.6730 O   0  0  0  0  0  0  0  0  0  0  0  0
   49.6701   55.2932   30.5017 C   0  0  0  0  0  0  0  0  0  0  0  0
   48.9997   54.2878   31.4303 C   0  0  0  0  0  0  0  0  0  0  0  0
   48.1512   55.0271   32.8533 S   0  0  2  0  0  0  0  0  0  0  0  0
   49.5393   55.7804   33.7369 C   0  0  0  0  0  0  0  0  0  0  0  0
   47.8737   53.5517   33.8680 C   0  0  0  0  0  0  0  0  0  0  0  0
   47.0318   53.9142   35.0823 C   0  0  1  0  0  0  0  0  0  0  0  0
   45.6779   53.8993   34.6989 O   0  0  0  0  0  0  0  0  0  0  0  0
   47.1252   52.9291   36.2301 C   0  0  1  0  0  0  0  0  0  0  0  0
   48.0500   53.3821   37.1886 O   0  0  0  0  0  0  0  0  0  0  0  0
   45.7195   52.9142   36.8029 C   0  0  1  0  0  0  0  0  0  0  0  0
   45.7008   53.6442   38.0067 O   0  0  0  0  0  0  0  0  0  0  0  0
   44.8250   53.5908   35.7717 C   0  0  2  0  0  0  0  0  0  0  0  0
   52.0878   55.9109   28.3644 O   0  0  0  0  0  0  0  0  0  0  0  0
   42.1490   51.6996   31.6551 N   0  0  0  0  0  0  0  0  0  0  0  0
   43.0970   52.7026   31.6717 C   0  0  0  0  0  0  0  0  0  0  0  0
   43.7028   53.0737   32.8582 N   0  0  0  0  0  0  0  0  0  0  0  0
   43.3699   52.4660   34.0181 C   0  0  0  0  0  0  0  0  0  0  0  0
   42.4250   51.4506   34.0237 C   0  0  0  0  0  0  0  0  0  0  0  0
   41.8090   51.0708   32.8342 C   0  0  0  0  0  0  0  0  0  0  0  0
   40.8956   50.1034   32.8215 N   0  0  0  0  0  0  0  0  0  0  0  0
   42.2962   51.0180   35.2978 N   0  0  0  0  0  0  0  0  0  0  0  0
   43.1422   51.7219   36.0862 C   0  0  0  0  0  0  0  0  0  0  0  0
   43.8155   52.6250   35.3059 N   0  0  0  0  0  0  0  0  0  0  0  0
  2  1  1  1  0  0  0
  2  3  1  0  0  0  0
  2  5  1  0  0  0  0
  3  4  1  0  0  0  0
  3 17  1  0  0  0  0
  5  6  1  0  0  0  0
  7  6  1  6  0  0  0
  7  8  1  0  0  0  0
  7  9  1  0  0  0  0
 10  9  1  6  0  0  0
 10 11  1  0  0  0  0
 10 12  1  0  0  0  0
 11 16  1  0  0  0  0
 12 13  1  1  0  0  0
 12 14  1  0  0  0  0
 14 15  1  1  0  0  0
 14 16  1  0  0  0  0
 16 27  1  6  0  0  0
 18 19  2  0  0  0  0
 18 23  1  0  0  0  0
 19 20  1  0  0  0  0
 20 21  2  0  0  0  0
 21 22  1  0  0  0  0
 21 27  1  0  0  0  0
 22 23  2  0  0  0  0
 22 25  1  0  0  0  0
 23 24  1  0  0  0  0
 25 26  2  0  0  0  0
 26 27  1  0  0  0  0
M  END
>  <CHROM.1>
154.15683182,-54.98223609,-170.36362732,-63.74377072,-174.29033911,83.44122301
-26.08199975,46.48300959,53.57033739,33.15444936,0.58010526,-0.43755962,-1.56366166

>  <Name>
ligand

>  <RI>
0

>  <Rbt.Current_Directory>
/home/itssahil/PROJECTS/Mol_Feturizer/New_Systems/rnas/3GX7

>  <Rbt.Executable>
rbdock ($Id: //depot/dev/client3/rdock/2013.1/src/exe/rbdock.cxx#4 $)

>  <Rbt.Library>
libRbt.so (2013.1, Build901 2013/11/27)

>  <Rbt.Parameter_File>
/export/apps/rDock/src/rDock_2013.1_src/data/scripts/dock_solv.prm

>  <Rbt.Receptor>
prm/pocket_docking_8.prm

>  <SCORE>
-18.0906

>  <SCORE.INTER>
-13.3636

>  <SCORE.INTER.CONST>
1

>  <SCORE.INTER.POLAR>
0

>  <SCORE.INTER.ROT>
7

>  <SCORE.INTER.SOLV>
12.7403

>  <SCORE.INTER.VDW>
-21.4225

>  <SCORE.INTER.norm>
-0.494947

>  <SCORE.INTRA>
-4.727

>  <SCORE.INTRA.DIHEDRAL>
-5.32563

>  <SCORE.INTRA.DIHEDRAL.0>
11.2699

>  <SCORE.INTRA.POLAR>
0

>  <SCORE.INTRA.POLAR.0>
0

>  <SCORE.INTRA.REPUL>
0

>  <SCORE.INTRA.REPUL.0>
0

>  <SCORE.INTRA.SOLV>
-0.402786

>  <SCORE.INTRA.SOLV.lig_0>
-48.6447

>  <SCORE.INTRA.VDW>
-1.8628

>  <SCORE.INTRA.VDW.0>
-0.0211724

>  <SCORE.INTRA.norm>
-0.175074

>  <SCORE.RESTR>
0

>  <SCORE.RESTR.CAVITY>
0

>  <SCORE.RESTR.norm>
0

>  <SCORE.SYSTEM>
0

>  <SCORE.SYSTEM.CONST>
0

>  <SCORE.SYSTEM.DIHEDRAL>
0

>  <SCORE.SYSTEM.SOLV>
0

>  <SCORE.SYSTEM.norm>
0

>  <SCORE.heavy>
27

>  <SCORE.norm>
-0.670022

>  <RMSD>
6.314

$$$$
ligand
 OpenBabel11021811483D
libRbt.so/2013.1/901 2013/11/27
 27 29  0  0  0  0  0  0  0  0999 V2000
   42.2188   53.9596   32.8979 N   0  0  0  0  0  0  0  0  0  0  0  0
   42.6044   53.1073   31.7797 C   0  0  2  0  0  0  0  0  0  0  0  0
   42.7229   51.6594   32.2260 C   0  0  0  0  0  0  0  0  0  0  0  0
   42.4926   50.7453   31.4379 O   0  0  0  0  0  0  0  0  0  0  0  0
   43.9086   53.5720   31.1332 C   0  0  0  0  0  0  0  0  0  0  0  0
   44.2952   52.8236   29.8631 C   0  0  0  0  0  0  0  0  0  0  0  0
   45.7593   53.4819   29.0179 S   0  0  2  0  0  0  0  0  0  0  0  0
   45.8130   52.4353   27.5426 C   0  0  0  0  0  0  0  0  0  0  0  0
   47.0740   52.7251   30.0093 C   0  0  0  0  0  0  0  0  0  0  0  0
   47.7668   53.7918   30.8440 C   0  0  1  0  0  0  0  0  0  0  0  0
   46.8813   54.2001   31.8586 O   0  0  0  0  0  0  0  0  0  0  0  0
   49.0060   53.3141   31.5738 C   0  0  1  0  0  0  0  0  0  0  0  0
   50.1617   53.6488   30.8450 O   0  0  0  0  0  0  0  0  0  0  0  0
   48.9601   54.0714   32.8886 C   0  0  1  0  0  0  0  0  0  0  0  0
   49.9107   55.1096   32.8598 O   0  0  0  0  0  0  0  0  0  0  0  0
   47.5574   54.6551   33.0028 C   0  0  2  0  0  0  0  0  0  0  0  0
   43.0549   51.3797   33.3784 O   0  0  0  0  0  0  0  0  0  0  0  0
   47.6944   54.1042   38.2337 N   0  0  0  0  0  0  0  0  0  0  0  0
   48.5862   54.7734   37.4201 C   0  0  0  0  0  0  0  0  0  0  0  0
   48.3907   54.8141   36.0517 N   0  0  0  0  0  0  0  0  0  0  0  0
   47.3296   54.1931   35.4913 C   0  0  0  0  0  0  0  0  0  0  0  0
   46.4169   53.5207   36.2905 C   0  0  0  0  0  0  0  0  0  0  0  0
   46.6059   53.4736   37.6691 C   0  0  0  0  0  0  0  0  0  0  0  0
   45.7444   52.8276   38.4507 N   0  0  0  0  0  0  0  0  0  0  0  0
   45.4619   53.0104   35.4813 N   0  0  0  0  0  0  0  0  0  0  0  0
   45.7420   53.3556   34.2026 C   0  0  0  0  0  0  0  0  0  0  0  0
   46.8989   54.0900   34.1927 N   0  0  0  0  0  0  0  0  0  0  0  0
  2  1  1  1  0  0  0
  2  3  1  0  0  0  0
  2  5  1  0  0  0  0
  3  4  1  0  0  0  0
  3 17  1  0  0  0  0
  5  6  1  0  0  0  0
  7  6  1  1  0  0  0
  7  8  1  0  0  0  0
  7  9  1  0  0  0  0
 10  9  1  1  0  0  0
 10 11  1  0  0  0  0
 10 12  1  0  0  0  0
 11 16  1  0  0  0  0
 12 13  1  6  0  0  0
 12 14  1  0  0  0  0
 14 15  1  6  0  0  0
 14 16  1  0  0  0  0
 16 27  1  1  0  0  0
 18 19  2  0  0  0  0
 18 23  1  0  0  0  0
 19 20  1  0  0  0  0
 20 21  2  0  0  0  0
 21 22  1  0  0  0  0
 21 27  1  0  0  0  0
 22 23  2  0  0  0  0
 22 25  1  0  0  0  0
 23 24  1  0  0  0  0
 25 26  2  0  0  0  0
 26 27  1  0  0  0  0
M  END
>  <CHROM.1>
149.99262284,-173.56631044,174.57032392,-176.03277241,-109.28787151,71.16092285
173.52364181,46.23218051,53.42097886,32.91413939,1.94212423,-0.31692848,-1.62900397

>  <Name>
ligand

>  <RI>
0

>  <Rbt.Current_Directory>
/home/itssahil/PROJECTS/Mol_Feturizer/New_Systems/rnas/3GX7

>  <Rbt.Executable>
rbdock ($Id: //depot/dev/client3/rdock/2013.1/src/exe/rbdock.cxx#4 $)

>  <Rbt.Library>
libRbt.so (2013.1, Build901 2013/11/27)

>  <Rbt.Parameter_File>
/export/apps/rDock/src/rDock_2013.1_src/data/scripts/dock_solv.prm

>  <Rbt.Receptor>
prm/pocket_docking_8.prm

>  <SCORE>
-20.2725

>  <SCORE.INTER>
-14.6219

>  <SCORE.INTER.CONST>
1

>  <SCORE.INTER.POLAR>
0

>  <SCORE.INTER.ROT>
7

>  <SCORE.INTER.SOLV>
12.3089

>  <SCORE.INTER.VDW>
-22.1176

>  <SCORE.INTER.norm>
-0.541553

>  <SCORE.INTRA>
-5.65058

>  <SCORE.INTRA.DIHEDRAL>
-3.59354

>  <SCORE.INTRA.DIHEDRAL.0>
11.2699

>  <SCORE.INTRA.POLAR>
0

>  <SCORE.INTRA.POLAR.0>
0

>  <SCORE.INTRA.REPUL>
0

>  <SCORE.INTRA.REPUL.0>
0

>  <SCORE.INTRA.SOLV>
-0.831299

>  <SCORE.INTRA.SOLV.lig_0>
-48.6447

>  <SCORE.INTRA.VDW>
-3.43817

>  <SCORE.INTRA.VDW.0>
-0.0211724

>  <SCORE.INTRA.norm>
-0.209281

>  <SCORE.RESTR>
0

>  <SCORE.RESTR.CAVITY>
0

>  <SCORE.RESTR.norm>
0

>  <SCORE.SYSTEM>
0

>  <SCORE.SYSTEM.CONST>
0

>  <SCORE.SYSTEM.DIHEDRAL>
0

>  <SCORE.SYSTEM.SOLV>
0

>  <SCORE.SYSTEM.norm>
0

>  <SCORE.heavy>
27

>  <SCORE.norm>
-0.750834

>  <RMSD>
6.321

$$$$
ligand
 OpenBabel11021811483D
libRbt.so/2013.1/901 2013/11/27
 27 29  0  0  0  0  0  0  0  0999 V2000
   47.4619   54.3833   35.5589 N   0  0  0  0  0  0  0  0  0  0  0  0
   46.0236   54.1532   35.4960 C   0  0  2  0  0  0  0  0  0  0  0  0
   45.6488   52.8945   36.2606 C   0  0  0  0  0  0  0  0  0  0  0  0
   44.4789   52.5217   36.3086 O   0  0  0  0  0  0  0  0  0  0  0  0
   45.5235   54.0677   34.0547 C   0  0  0  0  0  0  0  0  0  0  0  0
   45.7738   55.3150   33.2156 C   0  0  0  0  0  0  0  0  0  0  0  0
   44.8678   56.7870   33.7667 S   0  0  2  0  0  0  0  0  0  0  0  0
   43.2556   56.5179   32.9899 C   0  0  0  0  0  0  0  0  0  0  0  0
   45.5678   58.0344   32.6540 C   0  0  0  0  0  0  0  0  0  0  0  0
   47.0579   58.1840   32.9225 C   0  0  1  0  0  0  0  0  0  0  0  0
   47.7063   57.0231   32.4620 O   0  0  0  0  0  0  0  0  0  0  0  0
   47.7205   59.3251   32.1773 C   0  0  1  0  0  0  0  0  0  0  0  0
   47.8261   60.4553   33.0082 O   0  0  0  0  0  0  0  0  0  0  0  0
   49.0945   58.7778   31.8352 C   0  0  1  0  0  0  0  0  0  0  0  0
   50.0514   59.3588   32.6891 O   0  0  0  0  0  0  0  0  0  0  0  0
   49.0324   57.2740   32.0723 C   0  0  2  0  0  0  0  0  0  0  0  0
   46.5082   52.2277   36.8379 O   0  0  0  0  0  0  0  0  0  0  0  0
   48.3296   57.2881   26.8579 N   0  0  0  0  0  0  0  0  0  0  0  0
   47.8902   58.2133   27.7830 C   0  0  0  0  0  0  0  0  0  0  0  0
   48.1693   58.0463   29.1271 N   0  0  0  0  0  0  0  0  0  0  0  0
   48.8684   56.9719   29.5544 C   0  0  0  0  0  0  0  0  0  0  0  0
   49.3260   56.0333   28.6415 C   0  0  0  0  0  0  0  0  0  0  0  0
   49.0490   56.1926   27.2863 C   0  0  0  0  0  0  0  0  0  0  0  0
   49.4741   55.2989   26.3970 N   0  0  0  0  0  0  0  0  0  0  0  0
   49.9964   55.0837   29.3315 N   0  0  0  0  0  0  0  0  0  0  0  0
   49.9843   55.4078   30.6458 C   0  0  0  0  0  0  0  0  0  0  0  0
   49.2874   56.5776   30.8000 N   0  0  0  0  0  0  0  0  0  0  0  0
  2  1  1  6  0  0  0
  2  3  1  0  0  0  0
  2  5  1  0  0  0  0
  3  4  1  0  0  0  0
  3 17  1  0  0  0  0
  5  6  1  0  0  0  0
  7  6  1  6  0  0  0
  7  8  1  0  0  0  0
  7  9  1  0  0  0  0
 10  9  1  6  0  0  0
 10 11  1  0  0  0  0
 10 12  1  0  0  0  0
 11 16  1  0  0  0  0
 12 13  1  1  0  0  0
 12 14  1  0  0  0  0
 14 15  1  1  0  0  0
 14 16  1  0  0  0  0
 16 27  1  6  0  0  0
 18 19  2  0  0  0  0
 18 23  1  0  0  0  0
 19 20  1  0  0  0  0
 20 21  2  0  0  0  0
 21 22  1  0  0  0  0
 21 27  1  0  0  0  0
 22 23  2  0  0  0  0
 22 25  1  0  0  0  0
 23 24  1  0  0  0  0
 25 26  2  0  0  0  0
 26 27  1  0  0  0  0
M  END
>  <CHROM.1>
-179.02230330,-59.79663625,-65.48880517,-82.78411595,-63.29755204,70.77472214
76.72422155,47.38184119,56.40143720,32.07411717,-2.77581685,1.08231669,0.02397280

>  <Name>
ligand

>  <RI>
0

>  <Rbt.Current_Directory>
/home/itssahil/PROJECTS/Mol_Feturizer/New_Systems/rnas/3GX7

>  <Rbt.Executable>
rbdock ($Id: //depot/dev/client3/rdock/2013.1/src/exe/rbdock.cxx#4 $)

>  <Rbt.Library>
libRbt.so (2013.1, Build901 2013/11/27)

>  <Rbt.Parameter_File>
/export/apps/rDock/src/rDock_2013.1_src/data/scripts/dock_solv.prm

>  <Rbt.Receptor>
prm/pocket_docking_4.prm

>  <SCORE>
-20.4325

>  <SCORE.INTER>
-15.6277

>  <SCORE.INTER.CONST>
1

>  <SCORE.INTER.POLAR>
0

>  <SCORE.INTER.ROT>
7

>  <SCORE.INTER.SOLV>
13.3484

>  <SCORE.INTER.VDW>
-23.1346

>  <SCORE.INTER.norm>
-0.578803

>  <SCORE.INTRA>
-4.80481

>  <SCORE.INTRA.DIHEDRAL>
-6.94197

>  <SCORE.INTRA.DIHEDRAL.0>
11.2699

>  <SCORE.INTRA.POLAR>
0

>  <SCORE.INTRA.POLAR.0>
0

>  <SCORE.INTRA.REPUL>
0

>  <SCORE.INTRA.REPUL.0>
0

>  <SCORE.INTRA.SOLV>
0.411167

>  <SCORE.INTRA.SOLV.lig_0>
-48.6447

>  <SCORE.INTRA.VDW>
-1.53941

>  <SCORE.INTRA.VDW.0>
-0.0211724

>  <SCORE.INTRA.norm>
-0.177956

>  <SCORE.RESTR>
0

>  <SCORE.RESTR.CAVITY>
0

>  <SCORE.RESTR.norm>
0

>  <SCORE.SYSTEM>
0

>  <SCORE.SYSTEM.CONST>
0

>  <SCORE.SYSTEM.DIHEDRAL>
0

>  <SCORE.SYSTEM.SOLV>
0

>  <SCORE.SYSTEM.norm>
0

>  <SCORE.heavy>
27

>  <SCORE.norm>
-0.756759

>  <RMSD>
6.322

$$$$
ligand
 OpenBabel11021811483D
libRbt.so/2013.1/901 2013/11/27
 27 29  0  0  0  0  0  0  0  0999 V2000
   47.7047   54.7703   34.9797 N   0  0  0  0  0  0  0  0  0  0  0  0
   48.1123   55.2460   33.6633 C   0  0  2  0  0  0  0  0  0  0  0  0
   48.3546   54.0770   32.7229 C   0  0  0  0  0  0  0  0  0  0  0  0
   48.8756   53.0441   33.1369 O   0  0  0  0  0  0  0  0  0  0  0  0
   49.3540   56.1334   33.7382 C   0  0  0  0  0  0  0  0  0  0  0  0
   49.0687   57.6294   33.7957 C   0  0  0  0  0  0  0  0  0  0  0  0
   48.4038   58.3284   32.2592 S   0  0  2  0  0  0  0  0  0  0  0  0
   48.1245   60.0482   32.7482 C   0  0  0  0  0  0  0  0  0  0  0  0
   46.7097   57.6877   32.3178 C   0  0  0  0  0  0  0  0  0  0  0  0
   45.9503   58.1290   31.0755 C   0  0  1  0  0  0  0  0  0  0  0  0
   46.8878   58.4146   30.0656 O   0  0  0  0  0  0  0  0  0  0  0  0
   45.0446   57.0691   30.4815 C   0  0  1  0  0  0  0  0  0  0  0  0
   43.7201   57.2589   30.9161 O   0  0  0  0  0  0  0  0  0  0  0  0
   45.1589   57.2996   28.9855 C   0  0  1  0  0  0  0  0  0  0  0  0
   43.9901   57.9341   28.5229 O   0  0  0  0  0  0  0  0  0  0  0  0
   46.3613   58.2122   28.7790 C   0  0  2  0  0  0  0  0  0  0  0  0
   48.0298   54.1437   31.5370 O   0  0  0  0  0  0  0  0  0  0  0  0
   50.5437   55.0199   28.7960 N   0  0  0  0  0  0  0  0  0  0  0  0
   49.8223   55.4908   29.8743 C   0  0  0  0  0  0  0  0  0  0  0  0
   48.7414   56.3312   29.6802 N   0  0  0  0  0  0  0  0  0  0  0  0
   48.3815   56.7096   28.4341 C   0  0  0  0  0  0  0  0  0  0  0  0
   49.0877   56.2428   27.3354 C   0  0  0  0  0  0  0  0  0  0  0  0
   50.1780   55.3969   27.5210 C   0  0  0  0  0  0  0  0  0  0  0  0
   50.8713   54.9447   26.4794 N   0  0  0  0  0  0  0  0  0  0  0  0
   48.5125   56.7621   26.2279 N   0  0  0  0  0  0  0  0  0  0  0  0
   47.4596   57.5274   26.6000 C   0  0  0  0  0  0  0  0  0  0  0  0
   47.3656   57.5048   27.9669 N   0  0  0  0  0  0  0  0  0  0  0  0
  2  1  1  1  0  0  0
  2  3  1  0  0  0  0
  2  5  1  0  0  0  0
  3  4  1  0  0  0  0
  3 17  1  0  0  0  0
  5  6  1  0  0  0  0
  7  6  1  1  0  0  0
  7  8  1  0  0  0  0
  7  9  1  0  0  0  0
 10  9  1  1  0  0  0
 10 11  1  0  0  0  0
 10 12  1  0  0  0  0
 11 16  1  0  0  0  0
 12 13  1  1  0  0  0
 12 14  1  0  0  0  0
 14 15  1  1  0  0  0
 14 16  1  0  0  0  0
 16 27  1  6  0  0  0
 18 19  2  0  0  0  0
 18 23  1  0  0  0  0
 19 20  1  0  0  0  0
 20 21  2  0  0  0  0
 21 22  1  0  0  0  0
 21 27  1  0  0  0  0
 22 23  2  0  0  0  0
 22 25  1  0  0  0  0
 23 24  1  0  0  0  0
 25 26  2  0  0  0  0
 26 27  1  0  0  0  0
M  END
>  <CHROM.1>
-37.76732897,-95.28083365,-69.46568671,177.14719921,-178.53817882,22.97709277
23.99281275,47.78632199,56.66131627,30.47442498,-1.54511330,0.66464698,-1.47448329

>  <Name>
ligand

>  <RI>
0

>  <Rbt.Current_Directory>
/home/itssahil/PROJECTS/Mol_Feturizer/New_Systems/rnas/3GX7

>  <Rbt.Executable>
rbdock ($Id: //depot/dev/client3/rdock/2013.1/src/exe/rbdock.cxx#4 $)

>  <Rbt.Library>
libRbt.so (2013.1, Build901 2013/11/27)

>  <Rbt.Parameter_File>
/export/apps/rDock/src/rDock_2013.1_src/data/scripts/dock_solv.prm

>  <Rbt.Receptor>
prm/pocket_docking_3.prm

>  <SCORE>
-14.7228

>  <SCORE.INTER>
-11.6294

>  <SCORE.INTER.CONST>
1

>  <SCORE.INTER.POLAR>
0

>  <SCORE.INTER.ROT>
7

>  <SCORE.INTER.SOLV>
12.1537

>  <SCORE.INTER.VDW>
-20.0708

>  <SCORE.INTER.norm>
-0.430719

>  <SCORE.INTRA>
-3.40937

>  <SCORE.INTRA.DIHEDRAL>
-0.132534

>  <SCORE.INTRA.DIHEDRAL.0>
11.2699

>  <SCORE.INTRA.POLAR>
0

>  <SCORE.INTRA.POLAR.0>
0

>  <SCORE.INTRA.REPUL>
0

>  <SCORE.INTRA.REPUL.0>
0

>  <SCORE.INTRA.SOLV>
0.0733499

>  <SCORE.INTRA.SOLV.lig_0>
-48.6447

>  <SCORE.INTRA.VDW>
-3.37978

>  <SCORE.INTRA.VDW.0>
-0.0211724

>  <SCORE.INTRA.norm>
-0.126273

>  <SCORE.RESTR>
0.31601

>  <SCORE.RESTR.CAVITY>
0.31601

>  <SCORE.RESTR.norm>
0.0117041

>  <SCORE.SYSTEM>
0

>  <SCORE.SYSTEM.CONST>
0

>  <SCORE.SYSTEM.DIHEDRAL>
0

>  <SCORE.SYSTEM.SOLV>
0

>  <SCORE.SYSTEM.norm>
0

>  <SCORE.heavy>
27

>  <SCORE.norm>
-0.545288

>  <RMSD>
6.323

$$$$
ligand
 OpenBabel11021811483D
libRbt.so/2013.1/901 2013/11/27
 27 29  0  0  0  0  0  0  0  0999 V2000
   45.6852   52.9244   35.8396 N   0  0  0  0  0  0  0  0  0  0  0  0
   45.6562   54.2722   35.2843 C   0  0  2  0  0  0  0  0  0  0  0  0
   44.4107   54.4757   34.4375 C   0  0  0  0  0  0  0  0  0  0  0  0
   43.9763   53.5611   33.7413 O   0  0  0  0  0  0  0  0  0  0  0  0
   46.9101   54.5778   34.4664 C   0  0  0  0  0  0  0  0  0  0  0  0
   47.0379   56.0257   34.0082 C   0  0  0  0  0  0  0  0  0  0  0  0
   48.4993   56.3662   32.9885 S   0  0  2  0  0  0  0  0  0  0  0  0
   49.8103   55.6349   33.9992 C   0  0  0  0  0  0  0  0  0  0  0  0
   48.7443   58.1250   33.3497 C   0  0  0  0  0  0  0  0  0  0  0  0
   48.0269   58.9685   32.3064 C   0  0  1  0  0  0  0  0  0  0  0  0
   48.7498   58.8864   31.1019 O   0  0  0  0  0  0  0  0  0  0  0  0
   46.6317   58.4890   31.9599 C   0  0  1  0  0  0  0  0  0  0  0  0
   45.6707   59.2183   32.6835 O   0  0  0  0  0  0  0  0  0  0  0  0
   46.5159   58.7726   30.4731 C   0  0  1  0  0  0  0  0  0  0  0  0
   45.7015   59.9047   30.2785 O   0  0  0  0  0  0  0  0  0  0  0  0
   47.9276   59.0572   29.9757 C   0  0  2  0  0  0  0  0  0  0  0  0
   43.8163   55.5541   34.4388 O   0  0  0  0  0  0  0  0  0  0  0  0
   50.3100   54.4560   29.0609 N   0  0  0  0  0  0  0  0  0  0  0  0
   50.1713   55.1241   30.2606 C   0  0  0  0  0  0  0  0  0  0  0  0
   49.5084   56.3366   30.3141 N   0  0  0  0  0  0  0  0  0  0  0  0
   48.9948   56.8879   29.1927 C   0  0  0  0  0  0  0  0  0  0  0  0
   49.1162   56.2306   27.9773 C   0  0  0  0  0  0  0  0  0  0  0  0
   49.7827   55.0099   27.9134 C   0  0  0  0  0  0  0  0  0  0  0  0
   49.9147   54.3683   26.7553 N   0  0  0  0  0  0  0  0  0  0  0  0
   48.5099   56.9906   27.0382 N   0  0  0  0  0  0  0  0  0  0  0  0
   48.0005   58.0956   27.6319 C   0  0  0  0  0  0  0  0  0  0  0  0
   48.2938   58.0461   28.9696 N   0  0  0  0  0  0  0  0  0  0  0  0
  2  1  1  6  0  0  0
  2  3  1  0  0  0  0
  2  5  1  0  0  0  0
  3  4  1  0  0  0  0
  3 17  1  0  0  0  0
  5  6  1  0  0  0  0
  7  6  1  1  0  0  0
  7  8  1  0  0  0  0
  7  9  1  0  0  0  0
 10  9  1  1  0  0  0
 10 11  1  0  0  0  0
 10 12  1  0  0  0  0
 11 16  1  0  0  0  0
 12 13  1  1  0  0  0
 12 14  1  0  0  0  0
 14 15  1  1  0  0  0
 14 16  1  0  0  0  0
 16 27  1  6  0  0  0
 18 19  2  0  0  0  0
 18 23  1  0  0  0  0
 19 20  1  0  0  0  0
 20 21  2  0  0  0  0
 21 22  1  0  0  0  0
 21 27  1  0  0  0  0
 22 23  2  0  0  0  0
 22 25  1  0  0  0  0
 23 24  1  0  0  0  0
 25 26  2  0  0  0  0
 26 27  1  0  0  0  0
M  END
>  <CHROM.1>
-37.15740579,-172.29717872,-177.94058461,-50.19540300,-93.04254698,-72.88025265
18.58357517,47.62128509,56.54431688,31.50749174,-2.45883566,0.91531617,-0.49432931

>  <Name>
ligand

>  <RI>
0

>  <Rbt.Current_Directory>
/home/itssahil/PROJECTS/Mol_Feturizer/New_Systems/rnas/3GX7

>  <Rbt.Executable>
rbdock ($Id: //depot/dev/client3/rdock/2013.1/src/exe/rbdock.cxx#4 $)

>  <Rbt.Library>
libRbt.so (2013.1, Build901 2013/11/27)

>  <Rbt.Parameter_File>
/export/apps/rDock/src/rDock_2013.1_src/data/scripts/dock_solv.prm

>  <Rbt.Receptor>
prm/pocket_docking_4.prm

>  <SCORE>
-17.1313

>  <SCORE.INTER>
-11.9184

>  <SCORE.INTER.CONST>
1

>  <SCORE.INTER.POLAR>
0

>  <SCORE.INTER.ROT>
7

>  <SCORE.INTER.SOLV>
11.4086

>  <SCORE.INTER.VDW>
-20.0151

>  <SCORE.INTER.norm>
-0.441423

>  <SCORE.INTRA>
-5.21287

>  <SCORE.INTRA.DIHEDRAL>
-4.78437

>  <SCORE.INTRA.DIHEDRAL.0>
11.2699

>  <SCORE.INTRA.POLAR>
0

>  <SCORE.INTRA.POLAR.0>
0

>  <SCORE.INTRA.REPUL>
0

>  <SCORE.INTRA.REPUL.0>
0

>  <SCORE.INTRA.SOLV>
-0.687592

>  <SCORE.INTRA.SOLV.lig_0>
-48.6447

>  <SCORE.INTRA.VDW>
-2.47688

>  <SCORE.INTRA.VDW.0>
-0.0211724

>  <SCORE.INTRA.norm>
-0.193069

>  <SCORE.RESTR>
0

>  <SCORE.RESTR.CAVITY>
0

>  <SCORE.RESTR.norm>
0

>  <SCORE.SYSTEM>
0

>  <SCORE.SYSTEM.CONST>
0

>  <SCORE.SYSTEM.DIHEDRAL>
0

>  <SCORE.SYSTEM.SOLV>
0

>  <SCORE.SYSTEM.norm>
0

>  <SCORE.heavy>
27

>  <SCORE.norm>
-0.634492

>  <RMSD>
6.323

$$$$
ligand
 OpenBabel11021811483D
libRbt.so/2013.1/901 2013/11/27
 27 29  0  0  0  0  0  0  0  0999 V2000
   44.9032   54.6340   35.0081 N   0  0  0  0  0  0  0  0  0  0  0  0
   45.7939   54.6544   33.8541 C   0  0  2  0  0  0  0  0  0  0  0  0
   47.0234   53.7989   34.1114 C   0  0  0  0  0  0  0  0  0  0  0  0
   47.4341   53.6298   35.2571 O   0  0  0  0  0  0  0  0  0  0  0  0
   46.2062   56.0771   33.4786 C   0  0  0  0  0  0  0  0  0  0  0  0
   47.0273   56.1887   32.1995 C   0  0  0  0  0  0  0  0  0  0  0  0
   48.6959   56.8616   32.4327 S   0  0  2  0  0  0  0  0  0  0  0  0
   49.1859   56.0568   33.9777 C   0  0  0  0  0  0  0  0  0  0  0  0
   48.2945   58.5223   33.0368 C   0  0  0  0  0  0  0  0  0  0  0  0
   47.6130   59.3191   31.9344 C   0  0  1  0  0  0  0  0  0  0  0  0
   48.1188   58.8793   30.6970 O   0  0  0  0  0  0  0  0  0  0  0  0
   46.1147   59.1117   31.8417 C   0  0  1  0  0  0  0  0  0  0  0  0
   45.4359   60.1464   32.5107 O   0  0  0  0  0  0  0  0  0  0  0  0
   45.8389   59.1631   30.3498 C   0  0  1  0  0  0  0  0  0  0  0  0
   45.2465   60.3996   30.0295 O   0  0  0  0  0  0  0  0  0  0  0  0
   47.1896   59.0394   29.6557 C   0  0  2  0  0  0  0  0  0  0  0  0
   47.6226   53.2596   33.1806 O   0  0  0  0  0  0  0  0  0  0  0  0
   49.7586   54.6283   28.3805 N   0  0  0  0  0  0  0  0  0  0  0  0
   50.1264   55.6008   29.2883 C   0  0  0  0  0  0  0  0  0  0  0  0
   49.3203   56.7049   29.4965 N   0  0  0  0  0  0  0  0  0  0  0  0
   48.1664   56.8515   28.8091 C   0  0  0  0  0  0  0  0  0  0  0  0
   47.7735   55.8831   27.8972 C   0  0  0  0  0  0  0  0  0  0  0  0
   48.5790   54.7684   27.6802 C   0  0  0  0  0  0  0  0  0  0  0  0
   48.2216   53.8327   26.8044 N   0  0  0  0  0  0  0  0  0  0  0  0
   46.5912   56.2724   27.3701 N   0  0  0  0  0  0  0  0  0  0  0  0
   46.2261   57.4471   27.9354 C   0  0  0  0  0  0  0  0  0  0  0  0
   47.1942   57.8195   28.8308 N   0  0  0  0  0  0  0  0  0  0  0  0
  2  1  1  1  0  0  0
  2  3  1  0  0  0  0
  2  5  1  0  0  0  0
  3  4  1  0  0  0  0
  3 17  1  0  0  0  0
  5  6  1  0  0  0  0
  7  6  1  1  0  0  0
  7  8  1  0  0  0  0
  7  9  1  0  0  0  0
 10  9  1  1  0  0  0
 10 11  1  0  0  0  0
 10 12  1  0  0  0  0
 11 16  1  0  0  0  0
 12 13  1  1  0  0  0
 12 14  1  0  0  0  0
 14 15  1  1  0  0  0
 14 16  1  0  0  0  0
 16 27  1  6  0  0  0
 18 19  2  0  0  0  0
 18 23  1  0  0  0  0
 19 20  1  0  0  0  0
 20 21  2  0  0  0  0
 21 22  1  0  0  0  0
 21 27  1  0  0  0  0
 22 23  2  0  0  0  0
 22 25  1  0  0  0  0
 23 24  1  0  0  0  0
 25 26  2  0  0  0  0
 26 27  1  0  0  0  0
M  END
>  <CHROM.1>
-27.83764477,-174.29886600,-118.00261010,40.02066733,-66.36051078,-31.22638190
-17.25617905,47.43841892,56.68195059,31.12019545,-1.88203510,1.17115226,-0.98457088

>  <Name>
ligand

>  <RI>
0

>  <Rbt.Current_Directory>
/home/itssahil/PROJECTS/Mol_Feturizer/New_Systems/rnas/3GX7

>  <Rbt.Executable>
rbdock ($Id: //depot/dev/client3/rdock/2013.1/src/exe/rbdock.cxx#4 $)

>  <Rbt.Library>
libRbt.so (2013.1, Build901 2013/11/27)

>  <Rbt.Parameter_File>
/export/apps/rDock/src/rDock_2013.1_src/data/scripts/dock_solv.prm

>  <Rbt.Receptor>
prm/pocket_docking_3.prm

>  <SCORE>
-10.3438

>  <SCORE.INTER>
-8.58772

>  <SCORE.INTER.CONST>
1

>  <SCORE.INTER.POLAR>
0

>  <SCORE.INTER.ROT>
7

>  <SCORE.INTER.SOLV>
10.1673

>  <SCORE.INTER.VDW>
-17.3809

>  <SCORE.INTER.norm>
-0.318064

>  <SCORE.INTRA>
-1.77169

>  <SCORE.INTRA.DIHEDRAL>
0.367956

>  <SCORE.INTRA.DIHEDRAL.0>
11.2699

>  <SCORE.INTRA.POLAR>
0

>  <SCORE.INTRA.POLAR.0>
0

>  <SCORE.INTRA.REPUL>
0

>  <SCORE.INTRA.REPUL.0>
0

>  <SCORE.INTRA.SOLV>
-0.447468

>  <SCORE.INTRA.SOLV.lig_0>
-48.6447

>  <SCORE.INTRA.VDW>
-1.73193

>  <SCORE.INTRA.VDW.0>
-0.0211724

>  <SCORE.INTRA.norm>
-0.0656181

>  <SCORE.RESTR>
0.0156112

>  <SCORE.RESTR.CAVITY>
0.0156112

>  <SCORE.RESTR.norm>
0.000578192

>  <SCORE.SYSTEM>
0

>  <SCORE.SYSTEM.CONST>
0

>  <SCORE.SYSTEM.DIHEDRAL>
0

>  <SCORE.SYSTEM.SOLV>
0

>  <SCORE.SYSTEM.norm>
0

>  <SCORE.heavy>
27

>  <SCORE.norm>
-0.383104

>  <RMSD>
6.326

$$$$
ligand
 OpenBabel11021811483D
libRbt.so/2013.1/901 2013/11/27
 27 29  0  0  0  0  0  0  0  0999 V2000
   47.0760   59.0441   31.3853 N   0  0  0  0  0  0  0  0  0  0  0  0
   45.9247   58.1620   31.2368 C   0  0  2  0  0  0  0  0  0  0  0  0
   45.3814   58.2249   29.8189 C   0  0  0  0  0  0  0  0  0  0  0  0
   44.9389   57.2145   29.2775 O   0  0  0  0  0  0  0  0  0  0  0  0
   44.8225   58.4905   32.2428 C   0  0  0  0  0  0  0  0  0  0  0  0
   43.6296   57.5423   32.2172 C   0  0  0  0  0  0  0  0  0  0  0  0
   44.0501   55.7967   32.4770 S   0  0  2  0  0  0  0  0  0  0  0  0
   42.4502   55.1229   32.9881 C   0  0  0  0  0  0  0  0  0  0  0  0
   44.8927   55.9008   34.0780 C   0  0  0  0  0  0  0  0  0  0  0  0
   45.2275   54.5021   34.5742 C   0  0  1  0  0  0  0  0  0  0  0  0
   46.5488   54.5120   35.0583 O   0  0  0  0  0  0  0  0  0  0  0  0
   44.3854   54.0300   35.7424 C   0  0  1  0  0  0  0  0  0  0  0  0
   43.3274   53.2224   35.2871 O   0  0  0  0  0  0  0  0  0  0  0  0
   45.3589   53.2209   36.5801 C   0  0  1  0  0  0  0  0  0  0  0  0
   45.0960   51.8491   36.4019 O   0  0  0  0  0  0  0  0  0  0  0  0
   46.7535   53.5532   36.0644 C   0  0  2  0  0  0  0  0  0  0  0  0
   45.3711   59.2859   29.1938 O   0  0  0  0  0  0  0  0  0  0  0  0
   47.2826   54.1754   41.2622 N   0  0  0  0  0  0  0  0  0  0  0  0
   46.3301   53.4454   40.5803 C   0  0  0  0  0  0  0  0  0  0  0  0
   46.3437   53.3947   39.1984 N   0  0  0  0  0  0  0  0  0  0  0  0
   47.2837   54.0650   38.4964 C   0  0  0  0  0  0  0  0  0  0  0  0
   48.2549   54.7990   39.1611 C   0  0  0  0  0  0  0  0  0  0  0  0
   48.2486   54.8566   40.5523 C   0  0  0  0  0  0  0  0  0  0  0  0
   49.1683   55.5612   41.2066 N   0  0  0  0  0  0  0  0  0  0  0  0
   49.0630   55.3491   38.2276 N   0  0  0  0  0  0  0  0  0  0  0  0
   48.6353   54.9695   37.0005 C   0  0  0  0  0  0  0  0  0  0  0  0
   47.5312   54.1720   37.1511 N   0  0  0  0  0  0  0  0  0  0  0  0
  2  1  1  6  0  0  0
  2  3  1  0  0  0  0
  2  5  1  0  0  0  0
  3  4  1  0  0  0  0
  3 17  1  0  0  0  0
  5  6  1  0  0  0  0
  7  6  1  1  0  0  0
  7  8  1  0  0  0  0
  7  9  1  0  0  0  0
 10  9  1  1  0  0  0
 10 11  1  0  0  0  0
 10 12  1  0  0  0  0
 11 16  1  0  0  0  0
 12 13  1  6  0  0  0
 12 14  1  0  0  0  0
 14 15  1  6  0  0  0
 14 16  1  0  0  0  0
 16 27  1  1  0  0  0
 18 19  2  0  0  0  0
 18 23  1  0  0  0  0
 19 20  1  0  0  0  0
 20 21  2  0  0  0  0
 21 22  1  0  0  0  0
 21 27  1  0  0  0  0
 22 23  2  0  0  0  0
 22 25  1  0  0  0  0
 23 24  1  0  0  0  0
 25 26  2  0  0  0  0
 26 27  1  0  0  0  0
M  END
>  <CHROM.1>
143.45138301,-175.62094067,56.66547527,159.93792774,174.52210655,135.28115007
135.10678493,45.88988704,55.38460348,35.19706828,-1.93004993,0.67135474,2.19185445

>  <Name>
ligand

>  <RI>
0

>  <Rbt.Current_Directory>
/home/itssahil/PROJECTS/Mol_Feturizer/New_Systems/rnas/3GX7

>  <Rbt.Executable>
rbdock ($Id: //depot/dev/client3/rdock/2013.1/src/exe/rbdock.cxx#4 $)

>  <Rbt.Library>
libRbt.so (2013.1, Build901 2013/11/27)

>  <Rbt.Parameter_File>
/export/apps/rDock/src/rDock_2013.1_src/data/scripts/dock_solv.prm

>  <Rbt.Receptor>
prm/pocket_docking_8.prm

>  <SCORE>
-19.9379

>  <SCORE.INTER>
-16.1963

>  <SCORE.INTER.CONST>
1

>  <SCORE.INTER.POLAR>
0

>  <SCORE.INTER.ROT>
7

>  <SCORE.INTER.SOLV>
15.382

>  <SCORE.INTER.VDW>
-24.1915

>  <SCORE.INTER.norm>
-0.599862

>  <SCORE.INTRA>
-3.74165

>  <SCORE.INTRA.DIHEDRAL>
-3.17651

>  <SCORE.INTRA.DIHEDRAL.0>
11.2699

>  <SCORE.INTRA.POLAR>
0

>  <SCORE.INTRA.POLAR.0>
0

>  <SCORE.INTRA.REPUL>
0

>  <SCORE.INTRA.REPUL.0>
0

>  <SCORE.INTRA.SOLV>
-0.692426

>  <SCORE.INTRA.SOLV.lig_0>
-48.6447

>  <SCORE.INTRA.VDW>
-1.80718

>  <SCORE.INTRA.VDW.0>
-0.0211724

>  <SCORE.INTRA.norm>
-0.13858

>  <SCORE.RESTR>
0

>  <SCORE.RESTR.CAVITY>
0

>  <SCORE.RESTR.norm>
0

>  <SCORE.SYSTEM>
0

>  <SCORE.SYSTEM.CONST>
0

>  <SCORE.SYSTEM.DIHEDRAL>
0

>  <SCORE.SYSTEM.SOLV>
0

>  <SCORE.SYSTEM.norm>
0

>  <SCORE.heavy>
27

>  <SCORE.norm>
-0.738441

>  <RMSD>
6.330

$$$$
ligand
 OpenBabel11021811483D
libRbt.so/2013.1/901 2013/11/27
 27 29  0  0  0  0  0  0  0  0999 V2000
   47.5424   54.8678   35.1636 N   0  0  0  0  0  0  0  0  0  0  0  0
   46.1714   54.3721   35.1453 C   0  0  2  0  0  0  0  0  0  0  0  0
   46.0649   53.0638   35.9113 C   0  0  0  0  0  0  0  0  0  0  0  0
   47.0706   52.5315   36.3751 O   0  0  0  0  0  0  0  0  0  0  0  0
   45.6487   54.1969   33.7202 C   0  0  0  0  0  0  0  0  0  0  0  0
   45.6061   55.4760   32.8927 C   0  0  0  0  0  0  0  0  0  0  0  0
   44.3950   56.7008   33.4623 S   0  0  2  0  0  0  0  0  0  0  0  0
   42.8453   55.9413   32.9177 C   0  0  0  0  0  0  0  0  0  0  0  0
   44.6027   57.9772   32.1928 C   0  0  0  0  0  0  0  0  0  0  0  0
   45.9518   58.6589   32.3655 C   0  0  1  0  0  0  0  0  0  0  0  0
   46.9595   57.7021   32.1431 O   0  0  0  0  0  0  0  0  0  0  0  0
   46.2320   59.7631   31.3662 C   0  0  1  0  0  0  0  0  0  0  0  0
   45.9334   61.0178   31.9280 O   0  0  0  0  0  0  0  0  0  0  0  0
   47.7205   59.6331   31.0987 C   0  0  1  0  0  0  0  0  0  0  0  0
   48.4046   60.6650   31.7694 O   0  0  0  0  0  0  0  0  0  0  0  0
   48.1441   58.2807   31.6581 C   0  0  2  0  0  0  0  0  0  0  0  0
   44.9732   52.5207   36.0833 O   0  0  0  0  0  0  0  0  0  0  0  0
   48.0963   57.3541   26.4789 N   0  0  0  0  0  0  0  0  0  0  0  0
   47.4101   58.3243   27.1810 C   0  0  0  0  0  0  0  0  0  0  0  0
   47.5434   58.4209   28.5541 N   0  0  0  0  0  0  0  0  0  0  0  0
   48.3401   57.5628   29.2282 C   0  0  0  0  0  0  0  0  0  0  0  0
   49.0447   56.5847   28.5422 C   0  0  0  0  0  0  0  0  0  0  0  0
   48.9160   56.4791   27.1598 C   0  0  0  0  0  0  0  0  0  0  0  0
   49.5789   55.5427   26.4860 N   0  0  0  0  0  0  0  0  0  0  0  0
   49.7618   55.8843   29.4491 N   0  0  0  0  0  0  0  0  0  0  0  0
   49.5383   56.4042   30.6790 C   0  0  0  0  0  0  0  0  0  0  0  0
   48.6574   57.4469   30.5580 N   0  0  0  0  0  0  0  0  0  0  0  0
  2  1  1  6  0  0  0
  2  3  1  0  0  0  0
  2  5  1  0  0  0  0
  3  4  1  0  0  0  0
  3 17  1  0  0  0  0
  5  6  1  0  0  0  0
  7  6  1  6  0  0  0
  7  8  1  0  0  0  0
  7  9  1  0  0  0  0
 10  9  1  6  0  0  0
 10 11  1  0  0  0  0
 10 12  1  0  0  0  0
 11 16  1  0  0  0  0
 12 13  1  1  0  0  0
 12 14  1  0  0  0  0
 14 15  1  1  0  0  0
 14 16  1  0  0  0  0
 16 27  1  6  0  0  0
 18 19  2  0  0  0  0
 18 23  1  0  0  0  0
 19 20  1  0  0  0  0
 20 21  2  0  0  0  0
 21 22  1  0  0  0  0
 21 27  1  0  0  0  0
 22 23  2  0  0  0  0
 22 25  1  0  0  0  0
 23 24  1  0  0  0  0
 25 26  2  0  0  0  0
 26 27  1  0  0  0  0
M  END
>  <CHROM.1>
-4.14598591,-60.98120299,-67.51060842,-74.04816301,-70.16010181,64.02891058
88.84473194,46.90168422,56.78229525,31.69237519,-2.20864610,0.93026951,-0.52310192

>  <Name>
ligand

>  <RI>
0

>  <Rbt.Current_Directory>
/home/itssahil/PROJECTS/Mol_Feturizer/New_Systems/rnas/3GX7

>  <Rbt.Executable>
rbdock ($Id: //depot/dev/client3/rdock/2013.1/src/exe/rbdock.cxx#4 $)

>  <Rbt.Library>
libRbt.so (2013.1, Build901 2013/11/27)

>  <Rbt.Parameter_File>
/export/apps/rDock/src/rDock_2013.1_src/data/scripts/dock_solv.prm

>  <Rbt.Receptor>
prm/pocket_docking_4.prm

>  <SCORE>
-20.7863

>  <SCORE.INTER>
-15.6792

>  <SCORE.INTER.CONST>
1

>  <SCORE.INTER.POLAR>
0

>  <SCORE.INTER.ROT>
7

>  <SCORE.INTER.SOLV>
14.0311

>  <SCORE.INTER.VDW>
-23.3965

>  <SCORE.INTER.norm>
-0.580712

>  <SCORE.INTRA>
-5.10704

>  <SCORE.INTRA.DIHEDRAL>
-7.74179

>  <SCORE.INTRA.DIHEDRAL.0>
11.2699

>  <SCORE.INTRA.POLAR>
0

>  <SCORE.INTRA.POLAR.0>
0

>  <SCORE.INTRA.REPUL>
0

>  <SCORE.INTRA.REPUL.0>
0

>  <SCORE.INTRA.SOLV>
0.280302

>  <SCORE.INTRA.SOLV.lig_0>
-48.6447

>  <SCORE.INTRA.VDW>
-1.3763

>  <SCORE.INTRA.VDW.0>
-0.0211724

>  <SCORE.INTRA.norm>
-0.18915

>  <SCORE.RESTR>
0

>  <SCORE.RESTR.CAVITY>
0

>  <SCORE.RESTR.norm>
0

>  <SCORE.SYSTEM>
0

>  <SCORE.SYSTEM.CONST>
0

>  <SCORE.SYSTEM.DIHEDRAL>
0

>  <SCORE.SYSTEM.SOLV>
0

>  <SCORE.SYSTEM.norm>
0

>  <SCORE.heavy>
27

>  <SCORE.norm>
-0.769861

>  <RMSD>
6.339

$$$$
ligand
 OpenBabel11021811483D
libRbt.so/2013.1/901 2013/11/27
 27 29  0  0  0  0  0  0  0  0999 V2000
   48.7927   55.7186   30.3494 N   0  0  0  0  0  0  0  0  0  0  0  0
   49.6542   54.7869   31.0672 C   0  0  2  0  0  0  0  0  0  0  0  0
   49.6074   53.4106   30.4243 C   0  0  0  0  0  0  0  0  0  0  0  0
   50.4169   53.1042   29.5522 O   0  0  0  0  0  0  0  0  0  0  0  0
   49.2845   54.6945   32.5469 C   0  0  0  0  0  0  0  0  0  0  0  0
   49.5195   55.9708   33.3459 C   0  0  0  0  0  0  0  0  0  0  0  0
   48.6179   57.4202   32.7314 S   0  0  2  0  0  0  0  0  0  0  0  0
   49.5398   58.7654   33.5158 C   0  0  0  0  0  0  0  0  0  0  0  0
   47.1494   57.3623   33.7917 C   0  0  0  0  0  0  0  0  0  0  0  0
   46.3046   56.1488   33.4334 C   0  0  1  0  0  0  0  0  0  0  0  0
   46.8029   55.0410   34.1438 O   0  0  0  0  0  0  0  0  0  0  0  0
   44.8485   56.2529   33.8402 C   0  0  1  0  0  0  0  0  0  0  0  0
   44.0647   56.6682   32.7484 O   0  0  0  0  0  0  0  0  0  0  0  0
   44.4909   54.8364   34.2523 C   0  0  1  0  0  0  0  0  0  0  0  0
   43.7120   54.2415   33.2413 O   0  0  0  0  0  0  0  0  0  0  0  0
   45.8073   54.0844   34.4033 C   0  0  2  0  0  0  0  0  0  0  0  0
   48.7642   52.5818   30.7687 O   0  0  0  0  0  0  0  0  0  0  0  0
   48.5717   54.4308   38.8667 N   0  0  0  0  0  0  0  0  0  0  0  0
   48.7941   55.0812   37.6699 C   0  0  0  0  0  0  0  0  0  0  0  0
   47.9572   54.8661   36.5902 N   0  0  0  0  0  0  0  0  0  0  0  0
   46.9158   54.0109   36.6889 C   0  0  0  0  0  0  0  0  0  0  0  0
   46.6693   53.3519   37.8842 C   0  0  0  0  0  0  0  0  0  0  0  0
   47.5071   53.5614   38.9764 C   0  0  0  0  0  0  0  0  0  0  0  0
   47.2900   52.9329   40.1288 N   0  0  0  0  0  0  0  0  0  0  0  0
   45.5744   52.5792   37.7077 N   0  0  0  0  0  0  0  0  0  0  0  0
   45.1205   52.7463   36.4432 C   0  0  0  0  0  0  0  0  0  0  0  0
   45.9433   53.6322   35.7982 N   0  0  0  0  0  0  0  0  0  0  0  0
  2  1  1  6  0  0  0
  2  3  1  0  0  0  0
  2  5  1  0  0  0  0
  3  4  1  0  0  0  0
  3 17  1  0  0  0  0
  5  6  1  0  0  0  0
  7  6  1  1  0  0  0
  7  8  1  0  0  0  0
  7  9  1  0  0  0  0
 10  9  1  1  0  0  0
 10 11  1  0  0  0  0
 10 12  1  0  0  0  0
 11 16  1  0  0  0  0
 12 13  1  6  0  0  0
 12 14  1  0  0  0  0
 14 15  1  6  0  0  0
 14 16  1  0  0  0  0
 16 27  1  1  0  0  0
 18 19  2  0  0  0  0
 18 23  1  0  0  0  0
 19 20  1  0  0  0  0
 20 21  2  0  0  0  0
 21 22  1  0  0  0  0
 21 27  1  0  0  0  0
 22 23  2  0  0  0  0
 22 25  1  0  0  0  0
 23 24  1  0  0  0  0
 25 26  2  0  0  0  0
 26 27  1  0  0  0  0
M  END
>  <CHROM.1>
91.49607111,-66.02226255,58.60767163,-161.79329304,-68.33396779,85.38635394
-3.38096512,47.38481510,54.90102228,34.29001171,-1.24812287,-0.08576283,1.83608840

>  <Name>
ligand

>  <RI>
0

>  <Rbt.Current_Directory>
/home/itssahil/PROJECTS/Mol_Feturizer/New_Systems/rnas/3GX7

>  <Rbt.Executable>
rbdock ($Id: //depot/dev/client3/rdock/2013.1/src/exe/rbdock.cxx#4 $)

>  <Rbt.Library>
libRbt.so (2013.1, Build901 2013/11/27)

>  <Rbt.Parameter_File>
/export/apps/rDock/src/rDock_2013.1_src/data/scripts/dock_solv.prm

>  <Rbt.Receptor>
prm/pocket_docking_7.prm

>  <SCORE>
-23.4656

>  <SCORE.INTER>
-19.6847

>  <SCORE.INTER.CONST>
1

>  <SCORE.INTER.POLAR>
0

>  <SCORE.INTER.ROT>
7

>  <SCORE.INTER.SOLV>
10.4516

>  <SCORE.INTER.VDW>
-24.8736

>  <SCORE.INTER.norm>
-0.729061

>  <SCORE.INTRA>
-3.78096

>  <SCORE.INTRA.DIHEDRAL>
-4.14335

>  <SCORE.INTRA.DIHEDRAL.0>
11.2699

>  <SCORE.INTRA.POLAR>
0

>  <SCORE.INTRA.POLAR.0>
0

>  <SCORE.INTRA.REPUL>
0

>  <SCORE.INTRA.REPUL.0>
0

>  <SCORE.INTRA.SOLV>
2.0051

>  <SCORE.INTRA.SOLV.lig_0>
-48.6447

>  <SCORE.INTRA.VDW>
-2.71183

>  <SCORE.INTRA.VDW.0>
-0.0211724

>  <SCORE.INTRA.norm>
-0.140035

>  <SCORE.RESTR>
0

>  <SCORE.RESTR.CAVITY>
0

>  <SCORE.RESTR.norm>
0

>  <SCORE.SYSTEM>
0

>  <SCORE.SYSTEM.CONST>
0

>  <SCORE.SYSTEM.DIHEDRAL>
0

>  <SCORE.SYSTEM.SOLV>
0

>  <SCORE.SYSTEM.norm>
0

>  <SCORE.heavy>
27

>  <SCORE.norm>
-0.869097

>  <RMSD>
6.339

$$$$
ligand
 OpenBabel11021811483D
libRbt.so/2013.1/901 2013/11/27
 27 29  0  0  0  0  0  0  0  0999 V2000
   46.6516   58.1086   31.1112 N   0  0  0  0  0  0  0  0  0  0  0  0
   46.7530   58.8586   32.3573 C   0  0  2  0  0  0  0  0  0  0  0  0
   47.2009   60.2857   32.0884 C   0  0  0  0  0  0  0  0  0  0  0  0
   48.3686   60.5247   31.7897 O   0  0  0  0  0  0  0  0  0  0  0  0
   47.6968   58.1844   33.3521 C   0  0  0  0  0  0  0  0  0  0  0  0
   47.2890   56.7758   33.7670 C   0  0  0  0  0  0  0  0  0  0  0  0
   48.5125   55.9079   34.7874 S   0  0  2  0  0  0  0  0  0  0  0  0
   49.8597   55.6790   33.6010 C   0  0  0  0  0  0  0  0  0  0  0  0
   47.7986   54.2424   34.8037 C   0  0  0  0  0  0  0  0  0  0  0  0
   46.7254   54.1540   35.8784 C   0  0  1  0  0  0  0  0  0  0  0  0
   45.4678   54.1979   35.2486 O   0  0  0  0  0  0  0  0  0  0  0  0
   46.7258   52.8578   36.6636 C   0  0  1  0  0  0  0  0  0  0  0  0
   47.4164   53.0224   37.8780 O   0  0  0  0  0  0  0  0  0  0  0  0
   45.2524   52.5915   36.9135 C   0  0  1  0  0  0  0  0  0  0  0  0
   44.9469   52.8938   38.2544 O   0  0  0  0  0  0  0  0  0  0  0  0
   44.4812   53.5199   35.9837 C   0  0  2  0  0  0  0  0  0  0  0  0
   46.4034   61.2212   32.1603 O   0  0  0  0  0  0  0  0  0  0  0  0
   43.1835   52.6110   30.9663 N   0  0  0  0  0  0  0  0  0  0  0  0
   44.0587   53.5537   31.4665 C   0  0  0  0  0  0  0  0  0  0  0  0
   44.2791   53.6516   32.8282 N   0  0  0  0  0  0  0  0  0  0  0  0
   43.6353   52.8321   33.6882 C   0  0  0  0  0  0  0  0  0  0  0  0
   42.7568   51.8726   33.2072 C   0  0  0  0  0  0  0  0  0  0  0  0
   42.5279   51.7672   31.8378 C   0  0  0  0  0  0  0  0  0  0  0  0
   41.6835   50.8572   31.3589 N   0  0  0  0  0  0  0  0  0  0  0  0
   42.2701   51.1935   34.2697 N   0  0  0  0  0  0  0  0  0  0  0  0
   42.8285   51.6896   35.3988 C   0  0  0  0  0  0  0  0  0  0  0  0
   43.6783   52.7077   35.0539 N   0  0  0  0  0  0  0  0  0  0  0  0
  2  1  1  6  0  0  0
  2  3  1  0  0  0  0
  2  5  1  0  0  0  0
  3  4  1  0  0  0  0
  3 17  1  0  0  0  0
  5  6  1  0  0  0  0
  7  6  1  6  0  0  0
  7  8  1  0  0  0  0
  7  9  1  0  0  0  0
 10  9  1  6  0  0  0
 10 11  1  0  0  0  0
 10 12  1  0  0  0  0
 11 16  1  0  0  0  0
 12 13  1  1  0  0  0
 12 14  1  0  0  0  0
 14 15  1  1  0  0  0
 14 16  1  0  0  0  0
 16 27  1  6  0  0  0
 18 19  2  0  0  0  0
 18 23  1  0  0  0  0
 19 20  1  0  0  0  0
 20 21  2  0  0  0  0
 21 22  1  0  0  0  0
 21 27  1  0  0  0  0
 22 23  2  0  0  0  0
 22 25  1  0  0  0  0
 23 24  1  0  0  0  0
 25 26  2  0  0  0  0
 26 27  1  0  0  0  0
M  END
>  <CHROM.1>
-74.19812713,-60.27587345,172.96878871,-67.52607307,-83.11145159,103.83814507
-15.87737144,45.72035519,54.79608425,34.02896212,0.81114504,-0.74048126,-0.81276058

>  <Name>
ligand

>  <RI>
0

>  <Rbt.Current_Directory>
/home/itssahil/PROJECTS/Mol_Feturizer/New_Systems/rnas/3GX7

>  <Rbt.Executable>
rbdock ($Id: //depot/dev/client3/rdock/2013.1/src/exe/rbdock.cxx#4 $)

>  <Rbt.Library>
libRbt.so (2013.1, Build901 2013/11/27)

>  <Rbt.Parameter_File>
/export/apps/rDock/src/rDock_2013.1_src/data/scripts/dock_solv.prm

>  <Rbt.Receptor>
prm/pocket_docking_8.prm

>  <SCORE>
-22.176

>  <SCORE.INTER>
-18.3821

>  <SCORE.INTER.CONST>
1

>  <SCORE.INTER.POLAR>
0

>  <SCORE.INTER.ROT>
7

>  <SCORE.INTER.SOLV>
9.99166

>  <SCORE.INTER.VDW>
-23.8519

>  <SCORE.INTER.norm>
-0.680818

>  <SCORE.INTRA>
-3.79387

>  <SCORE.INTRA.DIHEDRAL>
-2.95001

>  <SCORE.INTRA.DIHEDRAL.0>
11.2699

>  <SCORE.INTRA.POLAR>
0

>  <SCORE.INTRA.POLAR.0>
0

>  <SCORE.INTRA.REPUL>
0

>  <SCORE.INTRA.REPUL.0>
0

>  <SCORE.INTRA.SOLV>
-0.393073

>  <SCORE.INTRA.SOLV.lig_0>
-48.6447

>  <SCORE.INTRA.VDW>
-2.12232

>  <SCORE.INTRA.VDW.0>
-0.0211724

>  <SCORE.INTRA.norm>
-0.140514

>  <SCORE.RESTR>
0

>  <SCORE.RESTR.CAVITY>
0

>  <SCORE.RESTR.norm>
0

>  <SCORE.SYSTEM>
0

>  <SCORE.SYSTEM.CONST>
0

>  <SCORE.SYSTEM.DIHEDRAL>
0

>  <SCORE.SYSTEM.SOLV>
0

>  <SCORE.SYSTEM.norm>
0

>  <SCORE.heavy>
27

>  <SCORE.norm>
-0.821331

>  <RMSD>
6.346

$$$$
ligand
 OpenBabel11021811483D
libRbt.so/2013.1/901 2013/11/27
 27 29  0  0  0  0  0  0  0  0999 V2000
   47.6341   54.0020   33.0744 N   0  0  0  0  0  0  0  0  0  0  0  0
   48.6490   54.6035   33.9310 C   0  0  2  0  0  0  0  0  0  0  0  0
   48.1110   54.8056   35.3379 C   0  0  0  0  0  0  0  0  0  0  0  0
   48.8543   55.1879   36.2386 O   0  0  0  0  0  0  0  0  0  0  0  0
   49.1615   55.9264   33.3634 C   0  0  0  0  0  0  0  0  0  0  0  0
   48.0872   56.9823   33.1321 C   0  0  0  0  0  0  0  0  0  0  0  0
   48.6243   58.3950   32.1286 S   0  0  2  0  0  0  0  0  0  0  0  0
   49.8115   59.1854   33.2424 C   0  0  0  0  0  0  0  0  0  0  0  0
   47.1986   59.4957   32.3285 C   0  0  0  0  0  0  0  0  0  0  0  0
   46.1101   59.1117   31.3374 C   0  0  1  0  0  0  0  0  0  0  0  0
   46.6436   59.2092   30.0389 O   0  0  0  0  0  0  0  0  0  0  0  0
   45.6266   57.6804   31.4563 C   0  0  1  0  0  0  0  0  0  0  0  0
   44.4462   57.6253   32.2196 O   0  0  0  0  0  0  0  0  0  0  0  0
   45.3580   57.2738   30.0186 C   0  0  1  0  0  0  0  0  0  0  0  0
   43.9685   57.2626   29.7913 O   0  0  0  0  0  0  0  0  0  0  0  0
   46.0191   58.3286   29.1401 C   0  0  2  0  0  0  0  0  0  0  0  0
   46.9255   54.5952   35.5961 O   0  0  0  0  0  0  0  0  0  0  0  0
   50.1222   55.0359   29.0575 N   0  0  0  0  0  0  0  0  0  0  0  0
   49.3455   55.4083   30.1359 C   0  0  0  0  0  0  0  0  0  0  0  0
   48.2972   56.2950   29.9707 N   0  0  0  0  0  0  0  0  0  0  0  0
   48.0237   56.8153   28.7541 C   0  0  0  0  0  0  0  0  0  0  0  0
   48.7867   56.4495   27.6550 C   0  0  0  0  0  0  0  0  0  0  0  0
   49.8447   55.5581   27.8118 C   0  0  0  0  0  0  0  0  0  0  0  0
   50.5915   55.2011   26.7701 N   0  0  0  0  0  0  0  0  0  0  0  0
   48.2929   57.1010   26.5785 N   0  0  0  0  0  0  0  0  0  0  0  0
   47.2357   57.8513   26.9685 C   0  0  0  0  0  0  0  0  0  0  0  0
   47.0564   57.6845   28.3168 N   0  0  0  0  0  0  0  0  0  0  0  0
  2  1  1  6  0  0  0
  2  3  1  0  0  0  0
  2  5  1  0  0  0  0
  3  4  1  0  0  0  0
  3 17  1  0  0  0  0
  5  6  1  0  0  0  0
  7  6  1  1  0  0  0
  7  8  1  0  0  0  0
  7  9  1  0  0  0  0
 10  9  1  1  0  0  0
 10 11  1  0  0  0  0
 10 12  1  0  0  0  0
 11 16  1  0  0  0  0
 12 13  1  1  0  0  0
 12 14  1  0  0  0  0
 14 15  1  1  0  0  0
 14 16  1  0  0  0  0
 16 27  1  6  0  0  0
 18 19  2  0  0  0  0
 18 23  1  0  0  0  0
 19 20  1  0  0  0  0
 20 21  2  0  0  0  0
 21 22  1  0  0  0  0
 21 27  1  0  0  0  0
 22 23  2  0  0  0  0
 22 25  1  0  0  0  0
 23 24  1  0  0  0  0
 25 26  2  0  0  0  0
 26 27  1  0  0  0  0
M  END
>  <CHROM.1>
173.35375025,57.67517132,-167.03396065,-68.04616254,-83.27424755,-58.77887751
65.97416240,47.73320354,56.87295087,31.05575196,-1.56429301,0.67599670,-1.39486639

>  <Name>
ligand

>  <RI>
0

>  <Rbt.Current_Directory>
/home/itssahil/PROJECTS/Mol_Feturizer/New_Systems/rnas/3GX7

>  <Rbt.Executable>
rbdock ($Id: //depot/dev/client3/rdock/2013.1/src/exe/rbdock.cxx#4 $)

>  <Rbt.Library>
libRbt.so (2013.1, Build901 2013/11/27)

>  <Rbt.Parameter_File>
/export/apps/rDock/src/rDock_2013.1_src/data/scripts/dock_solv.prm

>  <Rbt.Receptor>
prm/pocket_docking_3.prm

>  <SCORE>
-20.0755

>  <SCORE.INTER>
-13.2086

>  <SCORE.INTER.CONST>
1

>  <SCORE.INTER.POLAR>
0

>  <SCORE.INTER.ROT>
7

>  <SCORE.INTER.SOLV>
11.2549

>  <SCORE.INTER.VDW>
-20.824

>  <SCORE.INTER.norm>
-0.489207

>  <SCORE.INTRA>
-6.86696

>  <SCORE.INTRA.DIHEDRAL>
-6.83395

>  <SCORE.INTRA.DIHEDRAL.0>
11.2699

>  <SCORE.INTRA.POLAR>
0

>  <SCORE.INTRA.POLAR.0>
0

>  <SCORE.INTRA.REPUL>
0

>  <SCORE.INTRA.REPUL.0>
0

>  <SCORE.INTRA.SOLV>
0.291215

>  <SCORE.INTRA.SOLV.lig_0>
-48.6447

>  <SCORE.INTRA.VDW>
-3.59559

>  <SCORE.INTRA.VDW.0>
-0.0211724

>  <SCORE.INTRA.norm>
-0.254332

>  <SCORE.RESTR>
0

>  <SCORE.RESTR.CAVITY>
0

>  <SCORE.RESTR.norm>
0

>  <SCORE.SYSTEM>
0

>  <SCORE.SYSTEM.CONST>
0

>  <SCORE.SYSTEM.DIHEDRAL>
0

>  <SCORE.SYSTEM.SOLV>
0

>  <SCORE.SYSTEM.norm>
0

>  <SCORE.heavy>
27

>  <SCORE.norm>
-0.743539

>  <RMSD>
6.361

$$$$
ligand
 OpenBabel11021811483D
libRbt.so/2013.1/901 2013/11/27
 27 29  0  0  0  0  0  0  0  0999 V2000
   46.4376   53.9888   33.9252 N   0  0  0  0  0  0  0  0  0  0  0  0
   47.3742   54.9213   33.3096 C   0  0  2  0  0  0  0  0  0  0  0  0
   48.6798   54.2221   32.9688 C   0  0  0  0  0  0  0  0  0  0  0  0
   48.7769   53.0016   33.0734 O   0  0  0  0  0  0  0  0  0  0  0  0
   47.6383   56.1341   34.2008 C   0  0  0  0  0  0  0  0  0  0  0  0
   48.3822   57.2775   33.5212 C   0  0  0  0  0  0  0  0  0  0  0  0
   47.7020   57.7665   31.9119 S   0  0  2  0  0  0  0  0  0  0  0  0
   48.6263   59.2883   31.5882 C   0  0  0  0  0  0  0  0  0  0  0  0
   46.1060   58.4515   32.4289 C   0  0  0  0  0  0  0  0  0  0  0  0
   45.1016   58.3278   31.2929 C   0  0  1  0  0  0  0  0  0  0  0  0
   45.7329   58.7321   30.1019 O   0  0  0  0  0  0  0  0  0  0  0  0
   44.6258   56.9143   31.0242 C   0  0  1  0  0  0  0  0  0  0  0  0
   43.3905   56.6860   31.6574 O   0  0  0  0  0  0  0  0  0  0  0  0
   44.4735   56.8699   29.5145 C   0  0  1  0  0  0  0  0  0  0  0  0
   43.1060   56.9255   29.1840 O   0  0  0  0  0  0  0  0  0  0  0  0
   45.1892   58.1003   28.9712 C   0  0  2  0  0  0  0  0  0  0  0  0
   49.6559   54.8638   32.5792 O   0  0  0  0  0  0  0  0  0  0  0  0
   47.0431   54.3283   25.8058 N   0  0  0  0  0  0  0  0  0  0  0  0
   45.8493   54.3543   26.4980 C   0  0  0  0  0  0  0  0  0  0  0  0
   45.5238   55.4389   27.2918 N   0  0  0  0  0  0  0  0  0  0  0  0
   46.3724   56.4838   27.4076 C   0  0  0  0  0  0  0  0  0  0  0  0
   47.5744   56.4822   26.7153 C   0  0  0  0  0  0  0  0  0  0  0  0
   47.9111   55.3942   25.9143 C   0  0  0  0  0  0  0  0  0  0  0  0
   49.0627   55.3723   25.2483 N   0  0  0  0  0  0  0  0  0  0  0  0
   48.2126   57.6393   27.0000 N   0  0  0  0  0  0  0  0  0  0  0  0
   47.4398   58.3703   27.8373 C   0  0  0  0  0  0  0  0  0  0  0  0
   46.2940   57.6659   28.0997 N   0  0  0  0  0  0  0  0  0  0  0  0
  2  1  1  1  0  0  0
  2  3  1  0  0  0  0
  2  5  1  0  0  0  0
  3  4  1  0  0  0  0
  3 17  1  0  0  0  0
  5  6  1  0  0  0  0
  7  6  1  1  0  0  0
  7  8  1  0  0  0  0
  7  9  1  0  0  0  0
 10  9  1  1  0  0  0
 10 11  1  0  0  0  0
 10 12  1  0  0  0  0
 11 16  1  0  0  0  0
 12 13  1  1  0  0  0
 12 14  1  0  0  0  0
 14 15  1  1  0  0  0
 14 16  1  0  0  0  0
 16 27  1  6  0  0  0
 18 19  2  0  0  0  0
 18 23  1  0  0  0  0
 19 20  1  0  0  0  0
 20 21  2  0  0  0  0
 21 22  1  0  0  0  0
 21 27  1  0  0  0  0
 22 23  2  0  0  0  0
 22 25  1  0  0  0  0
 23 24  1  0  0  0  0
 25 26  2  0  0  0  0
 26 27  1  0  0  0  0
M  END
>  <CHROM.1>
8.44318223,-168.47487156,48.95203360,170.17506313,-153.31973473,-44.89784171
139.80603502,46.78511457,56.51275552,30.14778918,-1.40657413,0.71870531,-1.64851227

>  <Name>
ligand

>  <RI>
0

>  <Rbt.Current_Directory>
/home/itssahil/PROJECTS/Mol_Feturizer/New_Systems/rnas/3GX7

>  <Rbt.Executable>
rbdock ($Id: //depot/dev/client3/rdock/2013.1/src/exe/rbdock.cxx#4 $)

>  <Rbt.Library>
libRbt.so (2013.1, Build901 2013/11/27)

>  <Rbt.Parameter_File>
/export/apps/rDock/src/rDock_2013.1_src/data/scripts/dock_solv.prm

>  <Rbt.Receptor>
prm/pocket_docking_6.prm

>  <SCORE>
-15.3515

>  <SCORE.INTER>
-11.1569

>  <SCORE.INTER.CONST>
1

>  <SCORE.INTER.POLAR>
0

>  <SCORE.INTER.ROT>
7

>  <SCORE.INTER.SOLV>
12.8795

>  <SCORE.INTER.VDW>
-19.9978

>  <SCORE.INTER.norm>
-0.413219

>  <SCORE.INTRA>
-4.19457

>  <SCORE.INTRA.DIHEDRAL>
-3.63544

>  <SCORE.INTRA.DIHEDRAL.0>
11.2699

>  <SCORE.INTRA.POLAR>
0

>  <SCORE.INTRA.POLAR.0>
0

>  <SCORE.INTRA.REPUL>
0

>  <SCORE.INTRA.REPUL.0>
0

>  <SCORE.INTRA.SOLV>
-0.483127

>  <SCORE.INTRA.SOLV.lig_0>
-48.6447

>  <SCORE.INTRA.VDW>
-2.13528

>  <SCORE.INTRA.VDW.0>
-0.0211724

>  <SCORE.INTRA.norm>
-0.155354

>  <SCORE.RESTR>
0

>  <SCORE.RESTR.CAVITY>
0

>  <SCORE.RESTR.norm>
0

>  <SCORE.SYSTEM>
0

>  <SCORE.SYSTEM.CONST>
0

>  <SCORE.SYSTEM.DIHEDRAL>
0

>  <SCORE.SYSTEM.SOLV>
0

>  <SCORE.SYSTEM.norm>
0

>  <SCORE.heavy>
27

>  <SCORE.norm>
-0.568573

>  <RMSD>
6.364

$$$$
ligand
 OpenBabel11021811483D
libRbt.so/2013.1/901 2013/11/27
 27 29  0  0  0  0  0  0  0  0999 V2000
   46.6824   55.0253   34.7264 N   0  0  0  0  0  0  0  0  0  0  0  0
   47.4817   55.3155   33.5421 C   0  0  2  0  0  0  0  0  0  0  0  0
   48.8230   54.6046   33.6139 C   0  0  0  0  0  0  0  0  0  0  0  0
   49.0468   53.6267   32.9043 O   0  0  0  0  0  0  0  0  0  0  0  0
   47.6865   56.8173   33.3478 C   0  0  0  0  0  0  0  0  0  0  0  0
   48.3904   57.2046   32.0528 C   0  0  0  0  0  0  0  0  0  0  0  0
   48.7467   58.9761   31.8907 S   0  0  2  0  0  0  0  0  0  0  0  0
   49.5659   59.3150   33.4684 C   0  0  0  0  0  0  0  0  0  0  0  0
   47.1037   59.6685   32.2150 C   0  0  0  0  0  0  0  0  0  0  0  0
   46.1507   59.2757   31.0959 C   0  0  1  0  0  0  0  0  0  0  0  0
   46.8850   59.2057   29.8975 O   0  0  0  0  0  0  0  0  0  0  0  0
   45.5255   57.9043   31.2535 C   0  0  1  0  0  0  0  0  0  0  0  0
   44.2414   58.0146   31.8173 O   0  0  0  0  0  0  0  0  0  0  0  0
   45.4460   57.3827   29.8302 C   0  0  1  0  0  0  0  0  0  0  0  0
   44.1131   57.4569   29.3824 O   0  0  0  0  0  0  0  0  0  0  0  0
   46.3286   58.2932   28.9858 C   0  0  2  0  0  0  0  0  0  0  0  0
   49.7053   54.9980   34.3775 O   0  0  0  0  0  0  0  0  0  0  0  0
   47.6747   53.7665   26.6661 N   0  0  0  0  0  0  0  0  0  0  0  0
   46.4286   54.1653   27.1056 C   0  0  0  0  0  0  0  0  0  0  0  0
   46.2586   55.4025   27.6996 N   0  0  0  0  0  0  0  0  0  0  0  0
   47.3103   56.2344   27.8655 C   0  0  0  0  0  0  0  0  0  0  0  0
   48.5703   55.8571   27.4249 C   0  0  0  0  0  0  0  0  0  0  0  0
   48.7512   54.6130   26.8264 C   0  0  0  0  0  0  0  0  0  0  0  0
   49.9538   54.2316   26.4038 N   0  0  0  0  0  0  0  0  0  0  0  0
   49.4215   56.8699   27.7024 N   0  0  0  0  0  0  0  0  0  0  0  0
   48.7293   57.8743   28.2897 C   0  0  0  0  0  0  0  0  0  0  0  0
   47.4172   57.4943   28.3980 N   0  0  0  0  0  0  0  0  0  0  0  0
  2  1  1  1  0  0  0
  2  3  1  0  0  0  0
  2  5  1  0  0  0  0
  3  4  1  0  0  0  0
  3 17  1  0  0  0  0
  5  6  1  0  0  0  0
  7  6  1  1  0  0  0
  7  8  1  0  0  0  0
  7  9  1  0  0  0  0
 10  9  1  1  0  0  0
 10 11  1  0  0  0  0
 10 12  1  0  0  0  0
 11 16  1  0  0  0  0
 12 13  1  6  0  0  0
 12 14  1  0  0  0  0
 14 15  1  6  0  0  0
 14 16  1  0  0  0  0
 16 27  1  1  0  0  0
 18 19  2  0  0  0  0
 18 23  1  0  0  0  0
 19 20  1  0  0  0  0
 20 21  2  0  0  0  0
 21 22  1  0  0  0  0
 21 27  1  0  0  0  0
 22 23  2  0  0  0  0
 22 25  1  0  0  0  0
 23 24  1  0  0  0  0
 25 26  2  0  0  0  0
 26 27  1  0  0  0  0
M  END
>  <CHROM.1>
106.72636299,-173.99465734,-175.39755290,50.77003258,-66.46090826,-32.99472361
154.88363854,47.54114975,56.78765589,30.48835281,-1.53232942,0.99172738,-1.87129606

>  <Name>
ligand

>  <RI>
0

>  <Rbt.Current_Directory>
/home/itssahil/PROJECTS/Mol_Feturizer/New_Systems/rnas/3GX7

>  <Rbt.Executable>
rbdock ($Id: //depot/dev/client3/rdock/2013.1/src/exe/rbdock.cxx#4 $)

>  <Rbt.Library>
libRbt.so (2013.1, Build901 2013/11/27)

>  <Rbt.Parameter_File>
/export/apps/rDock/src/rDock_2013.1_src/data/scripts/dock_solv.prm

>  <Rbt.Receptor>
prm/pocket_docking_3.prm

>  <SCORE>
-15.531

>  <SCORE.INTER>
-11.2965

>  <SCORE.INTER.CONST>
1

>  <SCORE.INTER.POLAR>
0

>  <SCORE.INTER.ROT>
7

>  <SCORE.INTER.SOLV>
9.96584

>  <SCORE.INTER.VDW>
-19.1196

>  <SCORE.INTER.norm>
-0.418388

>  <SCORE.INTRA>
-4.23449

>  <SCORE.INTRA.DIHEDRAL>
-5.64821

>  <SCORE.INTRA.DIHEDRAL.0>
11.2699

>  <SCORE.INTRA.POLAR>
0

>  <SCORE.INTRA.POLAR.0>
0

>  <SCORE.INTRA.REPUL>
0

>  <SCORE.INTRA.REPUL.0>
0

>  <SCORE.INTRA.SOLV>
-0.559513

>  <SCORE.INTRA.SOLV.lig_0>
-48.6447

>  <SCORE.INTRA.VDW>
-1.13063

>  <SCORE.INTRA.VDW.0>
-0.0211724

>  <SCORE.INTRA.norm>
-0.156833

>  <SCORE.RESTR>
0

>  <SCORE.RESTR.CAVITY>
0

>  <SCORE.RESTR.norm>
0

>  <SCORE.SYSTEM>
0

>  <SCORE.SYSTEM.CONST>
0

>  <SCORE.SYSTEM.DIHEDRAL>
0

>  <SCORE.SYSTEM.SOLV>
0

>  <SCORE.SYSTEM.norm>
0

>  <SCORE.heavy>
27

>  <SCORE.norm>
-0.575221

>  <RMSD>
6.368

$$$$
ligand
 OpenBabel11021811483D
libRbt.so/2013.1/901 2013/11/27
 27 29  0  0  0  0  0  0  0  0999 V2000
   47.2595   52.9222   35.7690 N   0  0  0  0  0  0  0  0  0  0  0  0
   47.2930   54.0922   34.8998 C   0  0  2  0  0  0  0  0  0  0  0  0
   48.3026   55.1081   35.4080 C   0  0  0  0  0  0  0  0  0  0  0  0
   48.8733   55.8628   34.6241 O   0  0  0  0  0  0  0  0  0  0  0  0
   45.9148   54.7373   34.7605 C   0  0  0  0  0  0  0  0  0  0  0  0
   45.8456   55.8901   33.7661 C   0  0  0  0  0  0  0  0  0  0  0  0
   44.3106   56.8544   33.8374 S   0  0  2  0  0  0  0  0  0  0  0  0
   43.1047   55.6381   33.2531 C   0  0  0  0  0  0  0  0  0  0  0  0
   44.4989   57.8746   32.3516 C   0  0  0  0  0  0  0  0  0  0  0  0
   45.7795   58.6905   32.4476 C   0  0  1  0  0  0  0  0  0  0  0  0
   46.8667   57.8336   32.1947 O   0  0  0  0  0  0  0  0  0  0  0  0
   45.9018   59.7941   31.4164 C   0  0  1  0  0  0  0  0  0  0  0  0
   45.5050   61.0254   31.9691 O   0  0  0  0  0  0  0  0  0  0  0  0
   47.3821   59.8064   31.0806 C   0  0  1  0  0  0  0  0  0  0  0  0
   47.9893   60.9160   31.6993 O   0  0  0  0  0  0  0  0  0  0  0  0
   47.9641   58.5157   31.6434 C   0  0  2  0  0  0  0  0  0  0  0  0
   48.5605   55.1946   36.6090 O   0  0  0  0  0  0  0  0  0  0  0  0
   50.2756   54.0050   30.2312 N   0  0  0  0  0  0  0  0  0  0  0  0
   49.8916   54.4112   31.4932 C   0  0  0  0  0  0  0  0  0  0  0  0
   49.2923   55.6434   31.6798 N   0  0  0  0  0  0  0  0  0  0  0  0
   49.0817   56.4699   30.6318 C   0  0  0  0  0  0  0  0  0  0  0  0
   49.4531   56.0792   29.3538 C   0  0  0  0  0  0  0  0  0  0  0  0
   50.0580   54.8407   29.1563 C   0  0  0  0  0  0  0  0  0  0  0  0
   50.4270   54.4520   27.9385 N   0  0  0  0  0  0  0  0  0  0  0  0
   49.1196   57.0785   28.5069 N   0  0  0  0  0  0  0  0  0  0  0  0
   48.5380   58.0755   29.2143 C   0  0  0  0  0  0  0  0  0  0  0  0
   48.5076   57.7123   30.5353 N   0  0  0  0  0  0  0  0  0  0  0  0
  2  1  1  1  0  0  0
  2  3  1  0  0  0  0
  2  5  1  0  0  0  0
  3  4  1  0  0  0  0
  3 17  1  0  0  0  0
  5  6  1  0  0  0  0
  7  6  1  6  0  0  0
  7  8  1  0  0  0  0
  7  9  1  0  0  0  0
 10  9  1  6  0  0  0
 10 11  1  0  0  0  0
 10 12  1  0  0  0  0
 11 16  1  0  0  0  0
 12 13  1  1  0  0  0
 12 14  1  0  0  0  0
 14 15  1  1  0  0  0
 14 16  1  0  0  0  0
 16 27  1  6  0  0  0
 18 19  2  0  0  0  0
 18 23  1  0  0  0  0
 19 20  1  0  0  0  0
 20 21  2  0  0  0  0
 21 22  1  0  0  0  0
 21 27  1  0  0  0  0
 22 23  2  0  0  0  0
 22 25  1  0  0  0  0
 23 24  1  0  0  0  0
 25 26  2  0  0  0  0
 26 27  1  0  0  0  0
M  END
>  <CHROM.1>
150.94249779,-174.66118896,-168.69036521,-67.06241197,-58.40919438,75.71558121
-64.30079405,47.42282327,56.70025073,32.24411266,-2.48848385,0.73627118,-0.74033601

>  <Name>
ligand

>  <RI>
0

>  <Rbt.Current_Directory>
/home/itssahil/PROJECTS/Mol_Feturizer/New_Systems/rnas/3GX7

>  <Rbt.Executable>
rbdock ($Id: //depot/dev/client3/rdock/2013.1/src/exe/rbdock.cxx#4 $)

>  <Rbt.Library>
libRbt.so (2013.1, Build901 2013/11/27)

>  <Rbt.Parameter_File>
/export/apps/rDock/src/rDock_2013.1_src/data/scripts/dock_solv.prm

>  <Rbt.Receptor>
prm/pocket_docking_4.prm

>  <SCORE>
-22.8413

>  <SCORE.INTER>
-17.8787

>  <SCORE.INTER.CONST>
1

>  <SCORE.INTER.POLAR>
0

>  <SCORE.INTER.ROT>
7

>  <SCORE.INTER.SOLV>
13.3754

>  <SCORE.INTER.VDW>
-24.6443

>  <SCORE.INTER.norm>
-0.662175

>  <SCORE.INTRA>
-4.96253

>  <SCORE.INTRA.DIHEDRAL>
-6.40948

>  <SCORE.INTRA.DIHEDRAL.0>
11.2699

>  <SCORE.INTRA.POLAR>
0

>  <SCORE.INTRA.POLAR.0>
0

>  <SCORE.INTRA.REPUL>
0

>  <SCORE.INTRA.REPUL.0>
0

>  <SCORE.INTRA.SOLV>
-0.973002

>  <SCORE.INTRA.SOLV.lig_0>
-48.6447

>  <SCORE.INTRA.VDW>
-1.27129

>  <SCORE.INTRA.VDW.0>
-0.0211724

>  <SCORE.INTRA.norm>
-0.183797

>  <SCORE.RESTR>
0

>  <SCORE.RESTR.CAVITY>
0

>  <SCORE.RESTR.norm>
0

>  <SCORE.SYSTEM>
0

>  <SCORE.SYSTEM.CONST>
0

>  <SCORE.SYSTEM.DIHEDRAL>
0

>  <SCORE.SYSTEM.SOLV>
0

>  <SCORE.SYSTEM.norm>
0

>  <SCORE.heavy>
27

>  <SCORE.norm>
-0.845972

>  <RMSD>
6.368

$$$$
ligand
 OpenBabel11021811483D
libRbt.so/2013.1/901 2013/11/27
 27 29  0  0  0  0  0  0  0  0999 V2000
   45.6610   55.2056   28.3566 N   0  0  0  0  0  0  0  0  0  0  0  0
   45.7214   54.4125   29.5784 C   0  0  2  0  0  0  0  0  0  0  0  0
   45.2120   53.0028   29.3274 C   0  0  0  0  0  0  0  0  0  0  0  0
   45.4406   52.4404   28.2591 O   0  0  0  0  0  0  0  0  0  0  0  0
   44.9407   55.0639   30.7189 C   0  0  0  0  0  0  0  0  0  0  0  0
   45.2532   56.5379   30.9480 C   0  0  0  0  0  0  0  0  0  0  0  0
   44.5751   57.2208   32.4859 S   0  0  2  0  0  0  0  0  0  0  0  0
   44.8366   58.9928   32.2282 C   0  0  0  0  0  0  0  0  0  0  0  0
   45.9296   56.8489   33.6309 C   0  0  0  0  0  0  0  0  0  0  0  0
   45.9559   55.3570   33.9283 C   0  0  1  0  0  0  0  0  0  0  0  0
   47.1041   55.0816   34.6939 O   0  0  0  0  0  0  0  0  0  0  0  0
   44.7961   54.8618   34.7686 C   0  0  1  0  0  0  0  0  0  0  0  0
   43.7964   54.3118   33.9457 O   0  0  0  0  0  0  0  0  0  0  0  0
   45.4216   53.7917   35.6449 C   0  0  1  0  0  0  0  0  0  0  0  0
   45.0469   52.5218   35.1658 O   0  0  0  0  0  0  0  0  0  0  0  0
   46.9308   53.9655   35.5292 C   0  0  2  0  0  0  0  0  0  0  0  0
   44.5689   52.4019   30.1886 O   0  0  0  0  0  0  0  0  0  0  0  0
   46.3533   53.4727   40.7357 N   0  0  0  0  0  0  0  0  0  0  0  0
   45.5428   52.9777   39.7342 C   0  0  0  0  0  0  0  0  0  0  0  0
   45.8512   53.2079   38.4059 N   0  0  0  0  0  0  0  0  0  0  0  0
   46.9448   53.9268   38.0701 C   0  0  0  0  0  0  0  0  0  0  0  0
   47.7774   54.4278   39.0598 C   0  0  0  0  0  0  0  0  0  0  0  0
   47.4744   54.2018   40.3999 C   0  0  0  0  0  0  0  0  0  0  0  0
   48.2579   54.6804   41.3630 N   0  0  0  0  0  0  0  0  0  0  0  0
   48.7875   55.0875   38.4503 N   0  0  0  0  0  0  0  0  0  0  0  0
   48.6196   55.0017   37.1096 C   0  0  0  0  0  0  0  0  0  0  0  0
   47.4795   54.2842   36.8581 N   0  0  0  0  0  0  0  0  0  0  0  0
  2  1  1  6  0  0  0
  2  3  1  0  0  0  0
  2  5  1  0  0  0  0
  3  4  1  0  0  0  0
  3 17  1  0  0  0  0
  5  6  1  0  0  0  0
  7  6  1  6  0  0  0
  7  8  1  0  0  0  0
  7  9  1  0  0  0  0
 10  9  1  1  0  0  0
 10 11  1  0  0  0  0
 10 12  1  0  0  0  0
 11 16  1  0  0  0  0
 12 13  1  6  0  0  0
 12 14  1  0  0  0  0
 14 15  1  6  0  0  0
 14 16  1  0  0  0  0
 16 27  1  1  0  0  0
 18 19  2  0  0  0  0
 18 23  1  0  0  0  0
 19 20  1  0  0  0  0
 20 21  2  0  0  0  0
 21 22  1  0  0  0  0
 21 27  1  0  0  0  0
 22 23  2  0  0  0  0
 22 25  1  0  0  0  0
 23 24  1  0  0  0  0
 25 26  2  0  0  0  0
 26 27  1  0  0  0  0
M  END
>  <CHROM.1>
36.36951231,-49.41248785,-168.78360125,-168.54043614,-73.02698261,173.42232701
140.84494868,45.96657547,54.69069950,34.56056582,-2.99807987,1.34085569,3.07680443

>  <Name>
ligand

>  <RI>
0

>  <Rbt.Current_Directory>
/home/itssahil/PROJECTS/Mol_Feturizer/New_Systems/rnas/3GX7

>  <Rbt.Executable>
rbdock ($Id: //depot/dev/client3/rdock/2013.1/src/exe/rbdock.cxx#4 $)

>  <Rbt.Library>
libRbt.so (2013.1, Build901 2013/11/27)

>  <Rbt.Parameter_File>
/export/apps/rDock/src/rDock_2013.1_src/data/scripts/dock_solv.prm

>  <Rbt.Receptor>
prm/pocket_docking_7.prm

>  <SCORE>
-19.2876

>  <SCORE.INTER>
-14.7583

>  <SCORE.INTER.CONST>
1

>  <SCORE.INTER.POLAR>
0

>  <SCORE.INTER.ROT>
7

>  <SCORE.INTER.SOLV>
11.6626

>  <SCORE.INTER.VDW>
-21.9931

>  <SCORE.INTER.norm>
-0.546605

>  <SCORE.INTRA>
-4.52927

>  <SCORE.INTRA.DIHEDRAL>
-5.94105

>  <SCORE.INTRA.DIHEDRAL.0>
11.2699

>  <SCORE.INTRA.POLAR>
0

>  <SCORE.INTRA.POLAR.0>
0

>  <SCORE.INTRA.REPUL>
0

>  <SCORE.INTRA.REPUL.0>
0

>  <SCORE.INTRA.SOLV>
0.0524977

>  <SCORE.INTRA.SOLV.lig_0>
-48.6447

>  <SCORE.INTRA.VDW>
-1.58499

>  <SCORE.INTRA.VDW.0>
-0.0211724

>  <SCORE.INTRA.norm>
-0.167751

>  <SCORE.RESTR>
0

>  <SCORE.RESTR.CAVITY>
0

>  <SCORE.RESTR.norm>
0

>  <SCORE.SYSTEM>
0

>  <SCORE.SYSTEM.CONST>
0

>  <SCORE.SYSTEM.DIHEDRAL>
0

>  <SCORE.SYSTEM.SOLV>
0

>  <SCORE.SYSTEM.norm>
0

>  <SCORE.heavy>
27

>  <SCORE.norm>
-0.714356

>  <RMSD>
6.375

$$$$
ligand
 OpenBabel11021811483D
libRbt.so/2013.1/901 2013/11/27
 27 29  0  0  0  0  0  0  0  0999 V2000
   47.9162   53.9654   31.7466 N   0  0  0  0  0  0  0  0  0  0  0  0
   49.0198   54.6413   32.4181 C   0  0  2  0  0  0  0  0  0  0  0  0
   48.8332   54.6029   33.9259 C   0  0  0  0  0  0  0  0  0  0  0  0
   49.6099   55.2047   34.6637 O   0  0  0  0  0  0  0  0  0  0  0  0
   49.1796   56.0836   31.9394 C   0  0  0  0  0  0  0  0  0  0  0  0
   47.9436   56.9573   32.1175 C   0  0  0  0  0  0  0  0  0  0  0  0
   48.1625   58.6839   31.6053 S   0  0  2  0  0  0  0  0  0  0  0  0
   49.2259   59.3104   32.9288 C   0  0  0  0  0  0  0  0  0  0  0  0
   46.5651   59.3764   32.1078 C   0  0  0  0  0  0  0  0  0  0  0  0
   45.4934   58.9767   31.1045 C   0  0  1  0  0  0  0  0  0  0  0  0
   46.0124   59.1622   29.8097 O   0  0  0  0  0  0  0  0  0  0  0  0
   45.0915   57.5167   31.1605 C   0  0  1  0  0  0  0  0  0  0  0  0
   43.9209   57.3612   31.9251 O   0  0  0  0  0  0  0  0  0  0  0  0
   44.8369   57.1605   29.7071 C   0  0  1  0  0  0  0  0  0  0  0  0
   43.4487   57.0815   29.4848 O   0  0  0  0  0  0  0  0  0  0  0  0
   45.4323   58.2891   28.8745 C   0  0  2  0  0  0  0  0  0  0  0  0
   47.9019   53.9749   34.4304 O   0  0  0  0  0  0  0  0  0  0  0  0
   46.9871   54.2783   25.8445 N   0  0  0  0  0  0  0  0  0  0  0  0
   45.8005   54.4190   26.5353 C   0  0  0  0  0  0  0  0  0  0  0  0
   45.5601   55.5524   27.2902 N   0  0  0  0  0  0  0  0  0  0  0  0
   46.4857   56.5335   27.3691 C   0  0  0  0  0  0  0  0  0  0  0  0
   47.6823   56.4164   26.6774 C   0  0  0  0  0  0  0  0  0  0  0  0
   47.9336   55.2785   25.9154 C   0  0  0  0  0  0  0  0  0  0  0  0
   49.0785   55.1460   25.2507 N   0  0  0  0  0  0  0  0  0  0  0  0
   48.4070   57.5311   26.9211 N   0  0  0  0  0  0  0  0  0  0  0  0
   47.6939   58.3477   27.7320 C   0  0  0  0  0  0  0  0  0  0  0  0
   46.4988   57.7418   28.0190 N   0  0  0  0  0  0  0  0  0  0  0  0
  2  1  1  6  0  0  0
  2  3  1  0  0  0  0
  2  5  1  0  0  0  0
  3  4  1  0  0  0  0
  3 17  1  0  0  0  0
  5  6  1  0  0  0  0
  7  6  1  1  0  0  0
  7  8  1  0  0  0  0
  7  9  1  0  0  0  0
 10  9  1  1  0  0  0
 10 11  1  0  0  0  0
 10 12  1  0  0  0  0
 11 16  1  0  0  0  0
 12 13  1  1  0  0  0
 12 14  1  0  0  0  0
 14 15  1  1  0  0  0
 14 16  1  0  0  0  0
 16 27  1  6  0  0  0
 18 19  2  0  0  0  0
 18 23  1  0  0  0  0
 19 20  1  0  0  0  0
 20 21  2  0  0  0  0
 21 22  1  0  0  0  0
 21 27  1  0  0  0  0
 22 23  2  0  0  0  0
 22 25  1  0  0  0  0
 23 24  1  0  0  0  0
 25 26  2  0  0  0  0
 26 27  1  0  0  0  0
M  END
>  <CHROM.1>
-174.68611057,57.66240371,177.77387094,-72.19019424,-76.93948157,-44.71947852
152.73643732,47.10111852,56.76393194,30.09767928,-1.23700096,0.87527582,-1.87168653

>  <Name>
ligand

>  <RI>
0

>  <Rbt.Current_Directory>
/home/itssahil/PROJECTS/Mol_Feturizer/New_Systems/rnas/3GX7

>  <Rbt.Executable>
rbdock ($Id: //depot/dev/client3/rdock/2013.1/src/exe/rbdock.cxx#4 $)

>  <Rbt.Library>
libRbt.so (2013.1, Build901 2013/11/27)

>  <Rbt.Parameter_File>
/export/apps/rDock/src/rDock_2013.1_src/data/scripts/dock_solv.prm

>  <Rbt.Receptor>
prm/pocket_docking_5.prm

>  <SCORE>
-19.1056

>  <SCORE.INTER>
-13.617

>  <SCORE.INTER.CONST>
1

>  <SCORE.INTER.POLAR>
0

>  <SCORE.INTER.ROT>
7

>  <SCORE.INTER.SOLV>
11.5664

>  <SCORE.INTER.VDW>
-21.2002

>  <SCORE.INTER.norm>
-0.504335

>  <SCORE.INTRA>
-5.4886

>  <SCORE.INTRA.DIHEDRAL>
-6.98473

>  <SCORE.INTRA.DIHEDRAL.0>
11.2699

>  <SCORE.INTRA.POLAR>
0

>  <SCORE.INTRA.POLAR.0>
0

>  <SCORE.INTRA.REPUL>
0

>  <SCORE.INTRA.REPUL.0>
0

>  <SCORE.INTRA.SOLV>
-0.0404465

>  <SCORE.INTRA.SOLV.lig_0>
-48.6447

>  <SCORE.INTRA.VDW>
-1.97601

>  <SCORE.INTRA.VDW.0>
-0.0211724

>  <SCORE.INTRA.norm>
-0.203282

>  <SCORE.RESTR>
0

>  <SCORE.RESTR.CAVITY>
0

>  <SCORE.RESTR.norm>
0

>  <SCORE.SYSTEM>
0

>  <SCORE.SYSTEM.CONST>
0

>  <SCORE.SYSTEM.DIHEDRAL>
0

>  <SCORE.SYSTEM.SOLV>
0

>  <SCORE.SYSTEM.norm>
0

>  <SCORE.heavy>
27

>  <SCORE.norm>
-0.707616

>  <RMSD>
6.376

$$$$
ligand
 OpenBabel11021811483D
libRbt.so/2013.1/901 2013/11/27
 27 29  0  0  0  0  0  0  0  0999 V2000
   48.9301   54.7787   36.0375 N   0  0  0  0  0  0  0  0  0  0  0  0
   48.0034   55.2906   35.0351 C   0  0  2  0  0  0  0  0  0  0  0  0
   47.4725   54.1599   34.1696 C   0  0  0  0  0  0  0  0  0  0  0  0
   48.2481   53.4248   33.5629 O   0  0  0  0  0  0  0  0  0  0  0  0
   48.6461   56.3692   34.1642 C   0  0  0  0  0  0  0  0  0  0  0  0
   47.6603   57.2636   33.4220 C   0  0  0  0  0  0  0  0  0  0  0  0
   48.4299   58.4588   32.2947 S   0  0  2  0  0  0  0  0  0  0  0  0
   49.5321   59.3458   33.4230 C   0  0  0  0  0  0  0  0  0  0  0  0
   47.0851   59.6623   32.1305 C   0  0  0  0  0  0  0  0  0  0  0  0
   46.1229   59.2122   31.0414 C   0  0  1  0  0  0  0  0  0  0  0  0
   46.8166   59.2063   29.8170 O   0  0  0  0  0  0  0  0  0  0  0  0
   45.6037   57.7980   31.2049 C   0  0  1  0  0  0  0  0  0  0  0  0
   44.3362   57.8104   31.8149 O   0  0  0  0  0  0  0  0  0  0  0  0
   45.5104   57.2850   29.7792 C   0  0  1  0  0  0  0  0  0  0  0  0
   44.1603   57.2672   29.3797 O   0  0  0  0  0  0  0  0  0  0  0  0
   46.2945   58.2645   28.9149 C   0  0  2  0  0  0  0  0  0  0  0  0
   46.2619   53.9596   34.0663 O   0  0  0  0  0  0  0  0  0  0  0  0
   50.4984   55.1855   29.6439 N   0  0  0  0  0  0  0  0  0  0  0  0
   49.6255   55.6804   30.5917 C   0  0  0  0  0  0  0  0  0  0  0  0
   48.5650   56.4839   30.2148 N   0  0  0  0  0  0  0  0  0  0  0  0
   48.3730   56.8024   28.9159 C   0  0  0  0  0  0  0  0  0  0  0  0
   49.2337   56.3104   27.9458 C   0  0  0  0  0  0  0  0  0  0  0  0
   50.3048   55.5014   28.3157 C   0  0  0  0  0  0  0  0  0  0  0  0
   51.1444   55.0259   27.3997 N   0  0  0  0  0  0  0  0  0  0  0  0
   48.8066   56.7696   26.7483 N   0  0  0  0  0  0  0  0  0  0  0  0
   47.6970   57.5215   26.9389 C   0  0  0  0  0  0  0  0  0  0  0  0
   47.4156   57.5514   28.2797 N   0  0  0  0  0  0  0  0  0  0  0  0
  2  1  1  1  0  0  0
  2  3  1  0  0  0  0
  2  5  1  0  0  0  0
  3  4  1  0  0  0  0
  3 17  1  0  0  0  0
  5  6  1  0  0  0  0
  7  6  1  1  0  0  0
  7  8  1  0  0  0  0
  7  9  1  0  0  0  0
 10  9  1  1  0  0  0
 10 11  1  0  0  0  0
 10 12  1  0  0  0  0
 11 16  1  0  0  0  0
 12 13  1  6  0  0  0
 12 14  1  0  0  0  0
 14 15  1  6  0  0  0
 14 16  1  0  0  0  0
 16 27  1  1  0  0  0
 18 19  2  0  0  0  0
 18 23  1  0  0  0  0
 19 20  1  0  0  0  0
 20 21  2  0  0  0  0
 21 22  1  0  0  0  0
 21 27  1  0  0  0  0
 22 23  2  0  0  0  0
 22 25  1  0  0  0  0
 23 24  1  0  0  0  0
 25 26  2  0  0  0  0
 26 27  1  0  0  0  0
M  END
>  <CHROM.1>
-56.12213470,-160.84659688,-175.61252777,-56.68019035,-85.12031959,-63.76413967
59.97936573,47.78191736,56.84314406,31.06665368,-1.62876112,0.71643658,-1.29953231

>  <Name>
ligand

>  <RI>
0

>  <Rbt.Current_Directory>
/home/itssahil/PROJECTS/Mol_Feturizer/New_Systems/rnas/3GX7

>  <Rbt.Executable>
rbdock ($Id: //depot/dev/client3/rdock/2013.1/src/exe/rbdock.cxx#4 $)

>  <Rbt.Library>
libRbt.so (2013.1, Build901 2013/11/27)

>  <Rbt.Parameter_File>
/export/apps/rDock/src/rDock_2013.1_src/data/scripts/dock_solv.prm

>  <Rbt.Receptor>
prm/pocket_docking_4.prm

>  <SCORE>
-19.7849

>  <SCORE.INTER>
-13.2796

>  <SCORE.INTER.CONST>
1

>  <SCORE.INTER.POLAR>
0

>  <SCORE.INTER.ROT>
7

>  <SCORE.INTER.SOLV>
15.5111

>  <SCORE.INTER.VDW>
-22.2901

>  <SCORE.INTER.norm>
-0.491836

>  <SCORE.INTRA>
-6.50535

>  <SCORE.INTRA.DIHEDRAL>
-5.48074

>  <SCORE.INTRA.DIHEDRAL.0>
11.2699

>  <SCORE.INTRA.POLAR>
0

>  <SCORE.INTRA.POLAR.0>
0

>  <SCORE.INTRA.REPUL>
0

>  <SCORE.INTRA.REPUL.0>
0

>  <SCORE.INTRA.SOLV>
-0.671674

>  <SCORE.INTRA.SOLV.lig_0>
-48.6447

>  <SCORE.INTRA.VDW>
-3.42915

>  <SCORE.INTRA.VDW.0>
-0.0211724

>  <SCORE.INTRA.norm>
-0.240939

>  <SCORE.RESTR>
0

>  <SCORE.RESTR.CAVITY>
0

>  <SCORE.RESTR.norm>
0

>  <SCORE.SYSTEM>
0

>  <SCORE.SYSTEM.CONST>
0

>  <SCORE.SYSTEM.DIHEDRAL>
0

>  <SCORE.SYSTEM.SOLV>
0

>  <SCORE.SYSTEM.norm>
0

>  <SCORE.heavy>
27

>  <SCORE.norm>
-0.732775

>  <RMSD>
6.381

$$$$
ligand
 OpenBabel11021811483D
libRbt.so/2013.1/901 2013/11/27
 27 29  0  0  0  0  0  0  0  0999 V2000
   44.6072   54.1280   34.0286 N   0  0  0  0  0  0  0  0  0  0  0  0
   45.8987   53.4858   34.2412 C   0  0  2  0  0  0  0  0  0  0  0  0
   46.1601   53.2872   35.7250 C   0  0  0  0  0  0  0  0  0  0  0  0
   47.1949   52.7454   36.1067 O   0  0  0  0  0  0  0  0  0  0  0  0
   47.0395   54.2765   33.6022 C   0  0  0  0  0  0  0  0  0  0  0  0
   46.8700   54.5542   32.1133 C   0  0  0  0  0  0  0  0  0  0  0  0
   48.3711   55.1431   31.2820 S   0  0  2  0  0  0  0  0  0  0  0  0
   49.5355   53.8157   31.6786 C   0  0  0  0  0  0  0  0  0  0  0  0
   48.9108   56.4179   32.4515 C   0  0  0  0  0  0  0  0  0  0  0  0
   48.4793   57.7887   31.9524 C   0  0  1  0  0  0  0  0  0  0  0  0
   48.9685   57.9540   30.6433 O   0  0  0  0  0  0  0  0  0  0  0  0
   46.9796   57.9735   31.8368 C   0  0  1  0  0  0  0  0  0  0  0  0
   46.4792   58.6313   32.9751 O   0  0  0  0  0  0  0  0  0  0  0  0
   46.8210   58.8401   30.6006 C   0  0  1  0  0  0  0  0  0  0  0  0
   46.5122   60.1566   30.9930 O   0  0  0  0  0  0  0  0  0  0  0  0
   48.1628   58.8147   29.8794 C   0  0  2  0  0  0  0  0  0  0  0  0
   45.3451   53.6686   36.5657 O   0  0  0  0  0  0  0  0  0  0  0  0
   49.8099   55.2007   26.4284 N   0  0  0  0  0  0  0  0  0  0  0  0
   50.2946   55.4580   27.6948 C   0  0  0  0  0  0  0  0  0  0  0  0
   49.7345   56.4576   28.4690 N   0  0  0  0  0  0  0  0  0  0  0  0
   48.7113   57.2014   27.9942 C   0  0  0  0  0  0  0  0  0  0  0  0
   48.2036   56.9555   26.7271 C   0  0  0  0  0  0  0  0  0  0  0  0
   48.7617   55.9517   25.9399 C   0  0  0  0  0  0  0  0  0  0  0  0
   48.2922   55.7061   24.7195 N   0  0  0  0  0  0  0  0  0  0  0  0
   47.1910   57.8255   26.5156 N   0  0  0  0  0  0  0  0  0  0  0  0
   47.0407   58.5978   27.6173 C   0  0  0  0  0  0  0  0  0  0  0  0
   47.9778   58.2222   28.5440 N   0  0  0  0  0  0  0  0  0  0  0  0
  2  1  1  1  0  0  0
  2  3  1  0  0  0  0
  2  5  1  0  0  0  0
  3  4  1  0  0  0  0
  3 17  1  0  0  0  0
  5  6  1  0  0  0  0
  7  6  1  1  0  0  0
  7  8  1  0  0  0  0
  7  9  1  0  0  0  0
 10  9  1  6  0  0  0
 10 11  1  0  0  0  0
 10 12  1  0  0  0  0
 11 16  1  0  0  0  0
 12 13  1  1  0  0  0
 12 14  1  0  0  0  0
 14 15  1  1  0  0  0
 14 16  1  0  0  0  0
 16 27  1  6  0  0  0
 18 19  2  0  0  0  0
 18 23  1  0  0  0  0
 19 20  1  0  0  0  0
 20 21  2  0  0  0  0
 21 22  1  0  0  0  0
 21 27  1  0  0  0  0
 22 23  2  0  0  0  0
 22 25  1  0  0  0  0
 23 24  1  0  0  0  0
 25 26  2  0  0  0  0
 26 27  1  0  0  0  0
M  END
>  <CHROM.1>
179.17100553,-55.46349652,-166.54842895,55.95820889,-99.17657546,-54.46837333
-15.31919761,47.72194879,56.20610771,30.79490097,-2.21997302,1.14861580,-0.59038519

>  <Name>
ligand

>  <RI>
0

>  <Rbt.Current_Directory>
/home/itssahil/PROJECTS/Mol_Feturizer/New_Systems/rnas/3GX7

>  <Rbt.Executable>
rbdock ($Id: //depot/dev/client3/rdock/2013.1/src/exe/rbdock.cxx#4 $)

>  <Rbt.Library>
libRbt.so (2013.1, Build901 2013/11/27)

>  <Rbt.Parameter_File>
/export/apps/rDock/src/rDock_2013.1_src/data/scripts/dock_solv.prm

>  <Rbt.Receptor>
prm/pocket_docking_7.prm

>  <SCORE>
-15.605

>  <SCORE.INTER>
-11.1322

>  <SCORE.INTER.CONST>
1

>  <SCORE.INTER.POLAR>
0

>  <SCORE.INTER.ROT>
7

>  <SCORE.INTER.SOLV>
12.9248

>  <SCORE.INTER.VDW>
-19.9964

>  <SCORE.INTER.norm>
-0.412303

>  <SCORE.INTRA>
-4.47286

>  <SCORE.INTRA.DIHEDRAL>
-4.93024

>  <SCORE.INTRA.DIHEDRAL.0>
11.2699

>  <SCORE.INTRA.POLAR>
0

>  <SCORE.INTRA.POLAR.0>
0

>  <SCORE.INTRA.REPUL>
0

>  <SCORE.INTRA.REPUL.0>
0

>  <SCORE.INTRA.SOLV>
-0.0418544

>  <SCORE.INTRA.SOLV.lig_0>
-48.6447

>  <SCORE.INTRA.VDW>
-1.98682

>  <SCORE.INTRA.VDW.0>
-0.0211724

>  <SCORE.INTRA.norm>
-0.165662

>  <SCORE.RESTR>
0

>  <SCORE.RESTR.CAVITY>
0

>  <SCORE.RESTR.norm>
0

>  <SCORE.SYSTEM>
0

>  <SCORE.SYSTEM.CONST>
0

>  <SCORE.SYSTEM.DIHEDRAL>
0

>  <SCORE.SYSTEM.SOLV>
0

>  <SCORE.SYSTEM.norm>
0

>  <SCORE.heavy>
27

>  <SCORE.norm>
-0.577965

>  <RMSD>
6.383

$$$$
ligand
 OpenBabel11021811483D
libRbt.so/2013.1/901 2013/11/27
 27 29  0  0  0  0  0  0  0  0999 V2000
   45.6694   55.5558   28.4029 N   0  0  0  0  0  0  0  0  0  0  0  0
   44.8621   56.7675   28.4761 C   0  0  2  0  0  0  0  0  0  0  0  0
   45.7482   58.0022   28.4735 C   0  0  0  0  0  0  0  0  0  0  0  0
   45.2767   59.1061   28.7361 O   0  0  0  0  0  0  0  0  0  0  0  0
   43.9506   56.7708   29.7025 C   0  0  0  0  0  0  0  0  0  0  0  0
   44.6586   56.5095   31.0265 C   0  0  0  0  0  0  0  0  0  0  0  0
   43.8284   57.2168   32.4763 S   0  0  2  0  0  0  0  0  0  0  0  0
   44.4991   58.8976   32.4794 C   0  0  0  0  0  0  0  0  0  0  0  0
   44.8046   56.4679   33.8067 C   0  0  0  0  0  0  0  0  0  0  0  0
   44.5675   54.9654   33.8346 C   0  0  1  0  0  0  0  0  0  0  0  0
   45.5301   54.3841   34.6807 O   0  0  0  0  0  0  0  0  0  0  0  0
   43.2315   54.5493   34.4164 C   0  0  1  0  0  0  0  0  0  0  0  0
   42.3032   54.3109   33.3867 O   0  0  0  0  0  0  0  0  0  0  0  0
   43.5508   53.2659   35.1616 C   0  0  1  0  0  0  0  0  0  0  0  0
   43.0751   52.1678   34.4198 O   0  0  0  0  0  0  0  0  0  0  0  0
   45.0687   53.1975   35.2745 C   0  0  2  0  0  0  0  0  0  0  0  0
   46.9489   57.9164   28.2141 O   0  0  0  0  0  0  0  0  0  0  0  0
   48.6423   54.6630   38.8474 N   0  0  0  0  0  0  0  0  0  0  0  0
   48.6656   54.8630   37.4820 C   0  0  0  0  0  0  0  0  0  0  0  0
   47.6298   54.4035   36.6893 N   0  0  0  0  0  0  0  0  0  0  0  0
   46.5851   53.7458   37.2386 C   0  0  0  0  0  0  0  0  0  0  0  0
   46.5374   53.5399   38.6094 C   0  0  0  0  0  0  0  0  0  0  0  0
   47.5761   53.9981   39.4154 C   0  0  0  0  0  0  0  0  0  0  0  0
   47.5506   53.8038   40.7314 N   0  0  0  0  0  0  0  0  0  0  0  0
   45.3921   52.8767   38.8844 N   0  0  0  0  0  0  0  0  0  0  0  0
   44.7157   52.6747   37.7292 C   0  0  0  0  0  0  0  0  0  0  0  0
   45.4440   53.2086   36.6985 N   0  0  0  0  0  0  0  0  0  0  0  0
  2  1  1  1  0  0  0
  2  3  1  0  0  0  0
  2  5  1  0  0  0  0
  3  4  1  0  0  0  0
  3 17  1  0  0  0  0
  5  6  1  0  0  0  0
  7  6  1  6  0  0  0
  7  8  1  0  0  0  0
  7  9  1  0  0  0  0
 10  9  1  1  0  0  0
 10 11  1  0  0  0  0
 10 12  1  0  0  0  0
 11 16  1  0  0  0  0
 12 13  1  6  0  0  0
 12 14  1  0  0  0  0
 14 15  1  6  0  0  0
 14 16  1  0  0  0  0
 16 27  1  1  0  0  0
 18 19  2  0  0  0  0
 18 23  1  0  0  0  0
 19 20  1  0  0  0  0
 20 21  2  0  0  0  0
 21 22  1  0  0  0  0
 21 27  1  0  0  0  0
 22 23  2  0  0  0  0
 22 25  1  0  0  0  0
 23 24  1  0  0  0  0
 25 26  2  0  0  0  0
 26 27  1  0  0  0  0
M  END
>  <CHROM.1>
-168.70811090,52.52924614,153.80743940,-85.76266509,-67.15489707,168.15608177
-34.53013602,45.29993731,55.25119410,34.06369335,-1.75841396,0.52852008,2.07918937

>  <Name>
ligand

>  <RI>
0

>  <Rbt.Current_Directory>
/home/itssahil/PROJECTS/Mol_Feturizer/New_Systems/rnas/3GX7

>  <Rbt.Executable>
rbdock ($Id: //depot/dev/client3/rdock/2013.1/src/exe/rbdock.cxx#4 $)

>  <Rbt.Library>
libRbt.so (2013.1, Build901 2013/11/27)

>  <Rbt.Parameter_File>
/export/apps/rDock/src/rDock_2013.1_src/data/scripts/dock_solv.prm

>  <Rbt.Receptor>
prm/pocket_docking_6.prm

>  <SCORE>
-22.3858

>  <SCORE.INTER>
-18.1627

>  <SCORE.INTER.CONST>
1

>  <SCORE.INTER.POLAR>
0

>  <SCORE.INTER.ROT>
7

>  <SCORE.INTER.SOLV>
10.56

>  <SCORE.INTER.VDW>
-23.8951

>  <SCORE.INTER.norm>
-0.672692

>  <SCORE.INTRA>
-4.22308

>  <SCORE.INTRA.DIHEDRAL>
-4.36811

>  <SCORE.INTRA.DIHEDRAL.0>
11.2699

>  <SCORE.INTRA.POLAR>
0

>  <SCORE.INTRA.POLAR.0>
0

>  <SCORE.INTRA.REPUL>
0

>  <SCORE.INTRA.REPUL.0>
0

>  <SCORE.INTRA.SOLV>
-0.175412

>  <SCORE.INTRA.SOLV.lig_0>
-48.6447

>  <SCORE.INTRA.VDW>
-1.95132

>  <SCORE.INTRA.VDW.0>
-0.0211724

>  <SCORE.INTRA.norm>
-0.15641

>  <SCORE.RESTR>
0

>  <SCORE.RESTR.CAVITY>
0

>  <SCORE.RESTR.norm>
0

>  <SCORE.SYSTEM>
0

>  <SCORE.SYSTEM.CONST>
0

>  <SCORE.SYSTEM.DIHEDRAL>
0

>  <SCORE.SYSTEM.SOLV>
0

>  <SCORE.SYSTEM.norm>
0

>  <SCORE.heavy>
27

>  <SCORE.norm>
-0.829102

>  <RMSD>
6.398

$$$$
ligand
 OpenBabel11021811483D
libRbt.so/2013.1/901 2013/11/27
 27 29  0  0  0  0  0  0  0  0999 V2000
   45.8173   53.3155   30.2863 N   0  0  0  0  0  0  0  0  0  0  0  0
   47.1032   53.7323   29.7402 C   0  0  2  0  0  0  0  0  0  0  0  0
   48.0805   52.5685   29.7235 C   0  0  0  0  0  0  0  0  0  0  0  0
   47.9678   51.6508   30.5328 O   0  0  0  0  0  0  0  0  0  0  0  0
   47.6943   54.9109   30.5125 C   0  0  0  0  0  0  0  0  0  0  0  0
   48.1014   54.5961   31.9471 C   0  0  0  0  0  0  0  0  0  0  0  0
   48.5167   56.0512   32.9480 S   0  0  2  0  0  0  0  0  0  0  0  0
   49.3424   55.2803   34.3618 C   0  0  0  0  0  0  0  0  0  0  0  0
   46.8967   56.4206   33.6711 C   0  0  0  0  0  0  0  0  0  0  0  0
   46.0533   55.1552   33.7157 C   0  0  1  0  0  0  0  0  0  0  0  0
   46.6240   54.2795   34.6580 O   0  0  0  0  0  0  0  0  0  0  0  0
   44.6284   55.3643   34.1873 C   0  0  1  0  0  0  0  0  0  0  0  0
   43.7598   55.4701   33.0858 O   0  0  0  0  0  0  0  0  0  0  0  0
   44.3305   54.1107   34.9899 C   0  0  1  0  0  0  0  0  0  0  0  0
   43.4933   53.2654   34.2367 O   0  0  0  0  0  0  0  0  0  0  0  0
   45.6695   53.4277   35.2383 C   0  0  2  0  0  0  0  0  0  0  0  0
   48.9942   52.5239   28.8992 O   0  0  0  0  0  0  0  0  0  0  0  0
   48.7402   54.9628   39.2256 N   0  0  0  0  0  0  0  0  0  0  0  0
   48.8627   55.2672   37.8849 C   0  0  0  0  0  0  0  0  0  0  0  0
   47.9548   54.7694   36.9682 N   0  0  0  0  0  0  0  0  0  0  0  0
   46.9408   53.9721   37.3703 C   0  0  0  0  0  0  0  0  0  0  0  0
   46.7943   53.6590   38.7136 C   0  0  0  0  0  0  0  0  0  0  0  0
   47.7040   54.1549   39.6437 C   0  0  0  0  0  0  0  0  0  0  0  0
   47.5832   53.8596   40.9354 N   0  0  0  0  0  0  0  0  0  0  0  0
   45.7053   52.8672   38.8332 N   0  0  0  0  0  0  0  0  0  0  0  0
   45.1584   52.6878   37.6079 C   0  0  0  0  0  0  0  0  0  0  0  0
   45.9146   53.3675   36.6892 N   0  0  0  0  0  0  0  0  0  0  0  0
  2  1  1  1  0  0  0
  2  3  1  0  0  0  0
  2  5  1  0  0  0  0
  3  4  1  0  0  0  0
  3 17  1  0  0  0  0
  5  6  1  0  0  0  0
  7  6  1  6  0  0  0
  7  8  1  0  0  0  0
  7  9  1  0  0  0  0
 10  9  1  1  0  0  0
 10 11  1  0  0  0  0
 10 12  1  0  0  0  0
 11 16  1  0  0  0  0
 12 13  1  6  0  0  0
 12 14  1  0  0  0  0
 14 15  1  6  0  0  0
 14 16  1  0  0  0  0
 16 27  1  1  0  0  0
 18 19  2  0  0  0  0
 18 23  1  0  0  0  0
 19 20  1  0  0  0  0
 20 21  2  0  0  0  0
 21 22  1  0  0  0  0
 21 27  1  0  0  0  0
 22 23  2  0  0  0  0
 22 25  1  0  0  0  0
 23 24  1  0  0  0  0
 25 26  2  0  0  0  0
 26 27  1  0  0  0  0
M  END
>  <CHROM.1>
-27.01622334,66.76361477,-169.43681060,-165.65673345,25.14865463,68.50332617
-3.39646193,46.90161891,54.22061424,34.49452837,1.51014733,-0.23585963,-1.62345408

>  <Name>
ligand

>  <RI>
0

>  <Rbt.Current_Directory>
/home/itssahil/PROJECTS/Mol_Feturizer/New_Systems/rnas/3GX7

>  <Rbt.Executable>
rbdock ($Id: //depot/dev/client3/rdock/2013.1/src/exe/rbdock.cxx#4 $)

>  <Rbt.Library>
libRbt.so (2013.1, Build901 2013/11/27)

>  <Rbt.Parameter_File>
/export/apps/rDock/src/rDock_2013.1_src/data/scripts/dock_solv.prm

>  <Rbt.Receptor>
prm/pocket_docking_6.prm

>  <SCORE>
-18.5292

>  <SCORE.INTER>
-16.3252

>  <SCORE.INTER.CONST>
1

>  <SCORE.INTER.POLAR>
0

>  <SCORE.INTER.ROT>
7

>  <SCORE.INTER.SOLV>
8.74391

>  <SCORE.INTER.VDW>
-22.0648

>  <SCORE.INTER.norm>
-0.604637

>  <SCORE.INTRA>
-2.20589

>  <SCORE.INTRA.DIHEDRAL>
-4.09284

>  <SCORE.INTRA.DIHEDRAL.0>
11.2699

>  <SCORE.INTRA.POLAR>
0

>  <SCORE.INTRA.POLAR.0>
0

>  <SCORE.INTRA.REPUL>
0

>  <SCORE.INTRA.REPUL.0>
0

>  <SCORE.INTRA.SOLV>
0.451837

>  <SCORE.INTRA.SOLV.lig_0>
-48.6447

>  <SCORE.INTRA.VDW>
-0.385387

>  <SCORE.INTRA.VDW.0>
-0.0211724

>  <SCORE.INTRA.norm>
-0.0816996

>  <SCORE.RESTR>
0.00191619

>  <SCORE.RESTR.CAVITY>
0.00191619

>  <SCORE.RESTR.norm>
7.09699e-05

>  <SCORE.SYSTEM>
0

>  <SCORE.SYSTEM.CONST>
0

>  <SCORE.SYSTEM.DIHEDRAL>
0

>  <SCORE.SYSTEM.SOLV>
0

>  <SCORE.SYSTEM.norm>
0

>  <SCORE.heavy>
27

>  <SCORE.norm>
-0.686266

>  <RMSD>
6.400

$$$$
ligand
 OpenBabel11021811483D
libRbt.so/2013.1/901 2013/11/27
 27 29  0  0  0  0  0  0  0  0999 V2000
   47.8355   54.8238   32.7088 N   0  0  0  0  0  0  0  0  0  0  0  0
   48.7778   54.8324   33.8212 C   0  0  2  0  0  0  0  0  0  0  0  0
   48.0387   54.8594   35.1488 C   0  0  0  0  0  0  0  0  0  0  0  0
   48.6585   54.9818   36.2027 O   0  0  0  0  0  0  0  0  0  0  0  0
   49.7526   56.0057   33.7322 C   0  0  0  0  0  0  0  0  0  0  0  0
   49.1191   57.3792   33.9185 C   0  0  0  0  0  0  0  0  0  0  0  0
   47.9829   57.8702   32.5921 S   0  0  2  0  0  0  0  0  0  0  0  0
   47.9467   59.6665   32.8082 C   0  0  0  0  0  0  0  0  0  0  0  0
   46.3960   57.4144   33.3390 C   0  0  0  0  0  0  0  0  0  0  0  0
   45.2743   57.6304   32.3341 C   0  0  1  0  0  0  0  0  0  0  0  0
   45.8237   57.5606   31.0403 O   0  0  0  0  0  0  0  0  0  0  0  0
   44.1933   56.5687   32.3590 C   0  0  1  0  0  0  0  0  0  0  0  0
   43.0986   57.0040   33.1277 O   0  0  0  0  0  0  0  0  0  0  0  0
   43.8026   56.4227   30.8994 C   0  0  1  0  0  0  0  0  0  0  0  0
   42.5638   57.0566   30.6849 O   0  0  0  0  0  0  0  0  0  0  0  0
   44.8890   57.1189   30.0892 C   0  0  2  0  0  0  0  0  0  0  0  0
   46.8116   54.7645   35.1896 O   0  0  0  0  0  0  0  0  0  0  0  0
   47.7332   56.3328   25.7329 N   0  0  0  0  0  0  0  0  0  0  0  0
   47.2845   57.5278   26.2579 C   0  0  0  0  0  0  0  0  0  0  0  0
   46.5406   57.5451   27.4235 N   0  0  0  0  0  0  0  0  0  0  0  0
   46.2358   56.3930   28.0601 C   0  0  0  0  0  0  0  0  0  0  0  0
   46.6824   55.1811   27.5545 C   0  0  0  0  0  0  0  0  0  0  0  0
   47.4312   55.1537   26.3809 C   0  0  0  0  0  0  0  0  0  0  0  0
   47.8622   54.0000   25.8776 N   0  0  0  0  0  0  0  0  0  0  0  0
   46.2496   54.2063   28.3850 N   0  0  0  0  0  0  0  0  0  0  0  0
   45.5588   54.7731   29.4020 C   0  0  0  0  0  0  0  0  0  0  0  0
   45.5414   56.1304   29.2140 N   0  0  0  0  0  0  0  0  0  0  0  0
  2  1  1  6  0  0  0
  2  3  1  0  0  0  0
  2  5  1  0  0  0  0
  3  4  1  0  0  0  0
  3 17  1  0  0  0  0
  5  6  1  0  0  0  0
  7  6  1  1  0  0  0
  7  8  1  0  0  0  0
  7  9  1  0  0  0  0
 10  9  1  1  0  0  0
 10 11  1  0  0  0  0
 10 12  1  0  0  0  0
 11 16  1  0  0  0  0
 12 13  1  1  0  0  0
 12 14  1  0  0  0  0
 14 15  1  1  0  0  0
 14 16  1  0  0  0  0
 16 27  1  6  0  0  0
 18 19  2  0  0  0  0
 18 23  1  0  0  0  0
 19 20  1  0  0  0  0
 20 21  2  0  0  0  0
 21 22  1  0  0  0  0
 21 27  1  0  0  0  0
 22 23  2  0  0  0  0
 22 25  1  0  0  0  0
 23 24  1  0  0  0  0
 25 26  2  0  0  0  0
 26 27  1  0  0  0  0
M  END
>  <CHROM.1>
-173.94855117,67.20217868,-66.95575739,-159.68789749,-175.06657884,24.48656485
-88.69888606,46.63977951,56.36600213,31.09483062,-1.40982360,0.29730054,-1.66341798

>  <Name>
ligand

>  <RI>
0

>  <Rbt.Current_Directory>
/home/itssahil/PROJECTS/Mol_Feturizer/New_Systems/rnas/3GX7

>  <Rbt.Executable>
rbdock ($Id: //depot/dev/client3/rdock/2013.1/src/exe/rbdock.cxx#4 $)

>  <Rbt.Library>
libRbt.so (2013.1, Build901 2013/11/27)

>  <Rbt.Parameter_File>
/export/apps/rDock/src/rDock_2013.1_src/data/scripts/dock_solv.prm

>  <Rbt.Receptor>
prm/pocket_docking_3.prm

>  <SCORE>
-13.4219

>  <SCORE.INTER>
-13.0835

>  <SCORE.INTER.CONST>
1

>  <SCORE.INTER.POLAR>
0

>  <SCORE.INTER.ROT>
7

>  <SCORE.INTER.SOLV>
8.04219

>  <SCORE.INTER.VDW>
-19.6698

>  <SCORE.INTER.norm>
-0.484576

>  <SCORE.INTRA>
-0.892184

>  <SCORE.INTRA.DIHEDRAL>
-1.86147

>  <SCORE.INTRA.DIHEDRAL.0>
11.2699

>  <SCORE.INTRA.POLAR>
0

>  <SCORE.INTRA.POLAR.0>
0

>  <SCORE.INTRA.REPUL>
0

>  <SCORE.INTRA.REPUL.0>
0

>  <SCORE.INTRA.SOLV>
3.07492

>  <SCORE.INTRA.SOLV.lig_0>
-48.6447

>  <SCORE.INTRA.VDW>
-1.49891

>  <SCORE.INTRA.VDW.0>
-0.0211724

>  <SCORE.INTRA.norm>
-0.0330438

>  <SCORE.RESTR>
0.55381

>  <SCORE.RESTR.CAVITY>
0.55381

>  <SCORE.RESTR.norm>
0.0205115

>  <SCORE.SYSTEM>
0

>  <SCORE.SYSTEM.CONST>
0

>  <SCORE.SYSTEM.DIHEDRAL>
0

>  <SCORE.SYSTEM.SOLV>
0

>  <SCORE.SYSTEM.norm>
0

>  <SCORE.heavy>
27

>  <SCORE.norm>
-0.497108

>  <RMSD>
6.405

$$$$
ligand
 OpenBabel11021811483D
libRbt.so/2013.1/901 2013/11/27
 27 29  0  0  0  0  0  0  0  0999 V2000
   46.8153   53.5231   29.0214 N   0  0  0  0  0  0  0  0  0  0  0  0
   47.7368   53.7970   30.1175 C   0  0  2  0  0  0  0  0  0  0  0  0
   48.9654   52.9079   30.0190 C   0  0  0  0  0  0  0  0  0  0  0  0
   50.0908   53.3884   30.1306 O   0  0  0  0  0  0  0  0  0  0  0  0
   47.0666   53.6276   31.4802 C   0  0  0  0  0  0  0  0  0  0  0  0
   47.9241   54.0405   32.6706 C   0  0  0  0  0  0  0  0  0  0  0  0
   48.5348   55.7474   32.6021 S   0  0  2  0  0  0  0  0  0  0  0  0
   49.8869   55.6848   33.8032 C   0  0  0  0  0  0  0  0  0  0  0  0
   47.2612   56.5872   33.5801 C   0  0  0  0  0  0  0  0  0  0  0  0
   45.9237   56.5066   32.8595 C   0  0  1  0  0  0  0  0  0  0  0  0
   45.3609   55.2428   33.1173 O   0  0  0  0  0  0  0  0  0  0  0  0
   44.8881   57.5028   33.3407 C   0  0  1  0  0  0  0  0  0  0  0  0
   44.8639   58.6283   32.4971 O   0  0  0  0  0  0  0  0  0  0  0  0
   43.5829   56.7330   33.2493 C   0  0  1  0  0  0  0  0  0  0  0  0
   42.8565   57.1819   32.1298 O   0  0  0  0  0  0  0  0  0  0  0  0
   43.9570   55.2668   33.0713 C   0  0  2  0  0  0  0  0  0  0  0  0
   48.8536   51.6960   29.8316 O   0  0  0  0  0  0  0  0  0  0  0  0
   45.1132   52.7693   37.5557 N   0  0  0  0  0  0  0  0  0  0  0  0
   45.9708   53.4252   36.6959 C   0  0  0  0  0  0  0  0  0  0  0  0
   45.4865   54.0306   35.5507 N   0  0  0  0  0  0  0  0  0  0  0  0
   44.1694   53.9817   35.2533 C   0  0  0  0  0  0  0  0  0  0  0  0
   43.2884   53.3341   36.1067 C   0  0  0  0  0  0  0  0  0  0  0  0
   43.7669   52.7210   37.2615 C   0  0  0  0  0  0  0  0  0  0  0  0
   42.9375   52.0895   38.0883 N   0  0  0  0  0  0  0  0  0  0  0  0
   42.0490   53.4480   35.5793 N   0  0  0  0  0  0  0  0  0  0  0  0
   42.1265   54.1594   34.4300 C   0  0  0  0  0  0  0  0  0  0  0  0
   43.4368   54.4975   34.2142 N   0  0  0  0  0  0  0  0  0  0  0  0
  2  1  1  6  0  0  0
  2  3  1  0  0  0  0
  2  5  1  0  0  0  0
  3  4  1  0  0  0  0
  3 17  1  0  0  0  0
  5  6  1  0  0  0  0
  7  6  1  1  0  0  0
  7  8  1  0  0  0  0
  7  9  1  0  0  0  0
 10  9  1  1  0  0  0
 10 11  1  0  0  0  0
 10 12  1  0  0  0  0
 11 16  1  0  0  0  0
 12 13  1  6  0  0  0
 12 14  1  0  0  0  0
 14 15  1  6  0  0  0
 14 16  1  0  0  0  0
 16 27  1  1  0  0  0
 18 19  2  0  0  0  0
 18 23  1  0  0  0  0
 19 20  1  0  0  0  0
 20 21  2  0  0  0  0
 21 22  1  0  0  0  0
 21 27  1  0  0  0  0
 22 23  2  0  0  0  0
 22 25  1  0  0  0  0
 23 24  1  0  0  0  0
 25 26  2  0  0  0  0
 26 27  1  0  0  0  0
M  END
>  <CHROM.1>
132.21242090,-173.78480659,56.17448048,-162.01098063,-65.20671301,80.88671349
7.68654374,45.86132648,54.63054789,33.36788655,0.49355513,0.63413483,-0.69772421

>  <Name>
ligand

>  <RI>
0

>  <Rbt.Current_Directory>
/home/itssahil/PROJECTS/Mol_Feturizer/New_Systems/rnas/3GX7

>  <Rbt.Executable>
rbdock ($Id: //depot/dev/client3/rdock/2013.1/src/exe/rbdock.cxx#4 $)

>  <Rbt.Library>
libRbt.so (2013.1, Build901 2013/11/27)

>  <Rbt.Parameter_File>
/export/apps/rDock/src/rDock_2013.1_src/data/scripts/dock_solv.prm

>  <Rbt.Receptor>
prm/pocket_docking_6.prm

>  <SCORE>
-17.5273

>  <SCORE.INTER>
-11.7195

>  <SCORE.INTER.CONST>
1

>  <SCORE.INTER.POLAR>
0

>  <SCORE.INTER.ROT>
7

>  <SCORE.INTER.SOLV>
7.89464

>  <SCORE.INTER.VDW>
-18.7112

>  <SCORE.INTER.norm>
-0.434057

>  <SCORE.INTRA>
-5.80776

>  <SCORE.INTRA.DIHEDRAL>
-4.69061

>  <SCORE.INTRA.DIHEDRAL.0>
11.2699

>  <SCORE.INTRA.POLAR>
0

>  <SCORE.INTRA.POLAR.0>
0

>  <SCORE.INTRA.REPUL>
0

>  <SCORE.INTRA.REPUL.0>
0

>  <SCORE.INTRA.SOLV>
-0.696077

>  <SCORE.INTRA.SOLV.lig_0>
-48.6447

>  <SCORE.INTRA.VDW>
-3.11441

>  <SCORE.INTRA.VDW.0>
-0.0211724

>  <SCORE.INTRA.norm>
-0.215102

>  <SCORE.RESTR>
0

>  <SCORE.RESTR.CAVITY>
0

>  <SCORE.RESTR.norm>
0

>  <SCORE.SYSTEM>
0

>  <SCORE.SYSTEM.CONST>
0

>  <SCORE.SYSTEM.DIHEDRAL>
0

>  <SCORE.SYSTEM.SOLV>
0

>  <SCORE.SYSTEM.norm>
0

>  <SCORE.heavy>
27

>  <SCORE.norm>
-0.649159

>  <RMSD>
6.410

$$$$
ligand
 OpenBabel11021811483D
libRbt.so/2013.1/901 2013/11/27
 27 29  0  0  0  0  0  0  0  0999 V2000
   45.6506   59.5686   29.7107 N   0  0  0  0  0  0  0  0  0  0  0  0
   46.1360   59.6221   31.0844 C   0  0  2  0  0  0  0  0  0  0  0  0
   45.4952   60.7784   31.8341 C   0  0  0  0  0  0  0  0  0  0  0  0
   44.3528   60.6762   32.2750 O   0  0  0  0  0  0  0  0  0  0  0  0
   47.6591   59.7285   31.1460 C   0  0  0  0  0  0  0  0  0  0  0  0
   48.2882   59.1738   32.4185 C   0  0  0  0  0  0  0  0  0  0  0  0
   47.9074   57.4309   32.7484 S   0  0  2  0  0  0  0  0  0  0  0  0
   49.1945   57.0119   33.9495 C   0  0  0  0  0  0  0  0  0  0  0  0
   48.5856   56.6623   31.2540 C   0  0  0  0  0  0  0  0  0  0  0  0
   48.0678   55.2372   31.1290 C   0  0  1  0  0  0  0  0  0  0  0  0
   48.1234   54.8666   29.7726 O   0  0  0  0  0  0  0  0  0  0  0  0
   48.9003   54.1988   31.8537 C   0  0  1  0  0  0  0  0  0  0  0  0
   48.3350   53.9085   33.1088 O   0  0  0  0  0  0  0  0  0  0  0  0
   48.8348   52.9881   30.9404 C   0  0  1  0  0  0  0  0  0  0  0  0
   47.9583   52.0355   31.4944 O   0  0  0  0  0  0  0  0  0  0  0  0
   48.2890   53.4816   29.6063 C   0  0  2  0  0  0  0  0  0  0  0  0
   46.1093   61.8302   32.0154 O   0  0  0  0  0  0  0  0  0  0  0  0
   52.7521   55.1686   27.3885 N   0  0  0  0  0  0  0  0  0  0  0  0
   52.0636   55.7181   28.4511 C   0  0  0  0  0  0  0  0  0  0  0  0
   50.8946   55.1350   28.9045 N   0  0  0  0  0  0  0  0  0  0  0  0
   50.4057   54.0249   28.3093 C   0  0  0  0  0  0  0  0  0  0  0  0
   51.0848   53.4516   27.2444 C   0  0  0  0  0  0  0  0  0  0  0  0
   52.2622   54.0321   26.7804 C   0  0  0  0  0  0  0  0  0  0  0  0
   52.9235   53.5000   25.7558 N   0  0  0  0  0  0  0  0  0  0  0  0
   50.3890   52.3603   26.8547 N   0  0  0  0  0  0  0  0  0  0  0  0
   49.3037   52.2257   27.6527 C   0  0  0  0  0  0  0  0  0  0  0  0
   49.3003   53.2520   28.5606 N   0  0  0  0  0  0  0  0  0  0  0  0
  2  1  1  6  0  0  0
  2  3  1  0  0  0  0
  2  5  1  0  0  0  0
  3  4  1  0  0  0  0
  3 17  1  0  0  0  0
  5  6  1  0  0  0  0
  7  6  1  6  0  0  0
  7  8  1  0  0  0  0
  7  9  1  0  0  0  0
 10  9  1  6  0  0  0
 10 11  1  0  0  0  0
 10 12  1  0  0  0  0
 11 16  1  0  0  0  0
 12 13  1  1  0  0  0
 12 14  1  0  0  0  0
 14 15  1  1  0  0  0
 14 16  1  0  0  0  0
 16 27  1  6  0  0  0
 18 19  2  0  0  0  0
 18 23  1  0  0  0  0
 19 20  1  0  0  0  0
 20 21  2  0  0  0  0
 21 22  1  0  0  0  0
 21 27  1  0  0  0  0
 22 23  2  0  0  0  0
 22 25  1  0  0  0  0
 23 24  1  0  0  0  0
 25 26  2  0  0  0  0
 26 27  1  0  0  0  0
M  END
>  <CHROM.1>
79.09734039,-153.59676975,57.57493284,162.56250150,-165.33818049,155.84276804
34.36891229,48.74248500,55.98588939,30.30054191,-2.61880866,-0.94266295,2.77428655

>  <Name>
ligand

>  <RI>
0

>  <Rbt.Current_Directory>
/home/itssahil/PROJECTS/Mol_Feturizer/New_Systems/rnas/3GX7

>  <Rbt.Executable>
rbdock ($Id: //depot/dev/client3/rdock/2013.1/src/exe/rbdock.cxx#4 $)

>  <Rbt.Library>
libRbt.so (2013.1, Build901 2013/11/27)

>  <Rbt.Parameter_File>
/export/apps/rDock/src/rDock_2013.1_src/data/scripts/dock_solv.prm

>  <Rbt.Receptor>
prm/blind_docking_100.prm

>  <SCORE>
-16.8209

>  <SCORE.INTER>
-12.7195

>  <SCORE.INTER.CONST>
1

>  <SCORE.INTER.POLAR>
0

>  <SCORE.INTER.ROT>
7

>  <SCORE.INTER.SOLV>
14.5115

>  <SCORE.INTER.VDW>
-21.5835

>  <SCORE.INTER.norm>
-0.471091

>  <SCORE.INTRA>
-4.10509

>  <SCORE.INTRA.DIHEDRAL>
-2.31877

>  <SCORE.INTRA.DIHEDRAL.0>
11.2699

>  <SCORE.INTRA.POLAR>
0

>  <SCORE.INTRA.POLAR.0>
0

>  <SCORE.INTRA.REPUL>
0

>  <SCORE.INTRA.REPUL.0>
0

>  <SCORE.INTRA.SOLV>
-0.333529

>  <SCORE.INTRA.SOLV.lig_0>
-48.6447

>  <SCORE.INTRA.VDW>
-2.77894

>  <SCORE.INTRA.VDW.0>
-0.0211724

>  <SCORE.INTRA.norm>
-0.15204

>  <SCORE.RESTR>
0.00366282

>  <SCORE.RESTR.CAVITY>
0.00366282

>  <SCORE.RESTR.norm>
0.00013566

>  <SCORE.SYSTEM>
0

>  <SCORE.SYSTEM.CONST>
0

>  <SCORE.SYSTEM.DIHEDRAL>
0

>  <SCORE.SYSTEM.SOLV>
0

>  <SCORE.SYSTEM.norm>
0

>  <SCORE.heavy>
27

>  <SCORE.norm>
-0.622995

>  <RMSD>
6.429

$$$$
ligand
 OpenBabel11021811483D
libRbt.so/2013.1/901 2013/11/27
 27 29  0  0  0  0  0  0  0  0999 V2000
   48.0162   54.9683   35.5586 N   0  0  0  0  0  0  0  0  0  0  0  0
   46.6871   54.4259   35.3044 C   0  0  2  0  0  0  0  0  0  0  0  0
   46.5525   53.0357   35.9035 C   0  0  0  0  0  0  0  0  0  0  0  0
   47.5522   52.3618   36.1408 O   0  0  0  0  0  0  0  0  0  0  0  0
   46.3611   54.3947   33.8119 C   0  0  0  0  0  0  0  0  0  0  0  0
   46.0516   55.7541   33.1962 C   0  0  0  0  0  0  0  0  0  0  0  0
   44.6228   56.6024   33.9245 S   0  0  2  0  0  0  0  0  0  0  0  0
   43.3208   55.3695   33.6803 C   0  0  0  0  0  0  0  0  0  0  0  0
   44.2271   57.7700   32.5963 C   0  0  0  0  0  0  0  0  0  0  0  0
   45.3657   58.7655   32.4314 C   0  0  1  0  0  0  0  0  0  0  0  0
   46.4163   58.1229   31.7505 O   0  0  0  0  0  0  0  0  0  0  0  0
   45.0278   59.9733   31.5807 C   0  0  1  0  0  0  0  0  0  0  0  0
   44.6759   61.0632   32.3975 O   0  0  0  0  0  0  0  0  0  0  0  0
   46.3183   60.2553   30.8327 C   0  0  1  0  0  0  0  0  0  0  0  0
   46.9483   61.3790   31.4011 O   0  0  0  0  0  0  0  0  0  0  0  0
   47.1977   59.0235   31.0077 C   0  0  2  0  0  0  0  0  0  0  0  0
   45.4446   52.5658   36.1644 O   0  0  0  0  0  0  0  0  0  0  0  0
   45.4294   55.8687   27.1862 N   0  0  0  0  0  0  0  0  0  0  0  0
   44.8181   56.1913   28.3808 C   0  0  0  0  0  0  0  0  0  0  0  0
   45.4367   57.0451   29.2756 N   0  0  0  0  0  0  0  0  0  0  0  0
   46.6507   57.5687   28.9972 C   0  0  0  0  0  0  0  0  0  0  0  0
   47.2803   57.2639   27.7995 C   0  0  0  0  0  0  0  0  0  0  0  0
   46.6656   56.4045   26.8927 C   0  0  0  0  0  0  0  0  0  0  0  0
   47.2575   56.0955   25.7419 N   0  0  0  0  0  0  0  0  0  0  0  0
   48.4594   57.9245   27.7768 N   0  0  0  0  0  0  0  0  0  0  0  0
   48.5793   58.6443   28.9171 C   0  0  0  0  0  0  0  0  0  0  0  0
   47.4642   58.4334   29.6850 N   0  0  0  0  0  0  0  0  0  0  0  0
  2  1  1  6  0  0  0
  2  3  1  0  0  0  0
  2  5  1  0  0  0  0
  3  4  1  0  0  0  0
  3 17  1  0  0  0  0
  5  6  1  0  0  0  0
  7  6  1  6  0  0  0
  7  8  1  0  0  0  0
  7  9  1  0  0  0  0
 10  9  1  6  0  0  0
 10 11  1  0  0  0  0
 10 12  1  0  0  0  0
 11 16  1  0  0  0  0
 12 13  1  1  0  0  0
 12 14  1  0  0  0  0
 14 15  1  1  0  0  0
 14 16  1  0  0  0  0
 16 27  1  6  0  0  0
 18 19  2  0  0  0  0
 18 23  1  0  0  0  0
 19 20  1  0  0  0  0
 20 21  2  0  0  0  0
 21 22  1  0  0  0  0
 21 27  1  0  0  0  0
 22 23  2  0  0  0  0
 22 25  1  0  0  0  0
 23 24  1  0  0  0  0
 25 26  2  0  0  0  0
 26 27  1  0  0  0  0
M  END
>  <CHROM.1>
-21.80986095,-73.97259158,-60.41467912,-56.90388015,-65.27286938,76.53779855
30.13755767,46.15469511,56.91358448,31.64598003,-1.91168327,1.31750790,-0.69944023

>  <Name>
ligand

>  <RI>
0

>  <Rbt.Current_Directory>
/home/itssahil/PROJECTS/Mol_Feturizer/New_Systems/rnas/3GX7

>  <Rbt.Executable>
rbdock ($Id: //depot/dev/client3/rdock/2013.1/src/exe/rbdock.cxx#4 $)

>  <Rbt.Library>
libRbt.so (2013.1, Build901 2013/11/27)

>  <Rbt.Parameter_File>
/export/apps/rDock/src/rDock_2013.1_src/data/scripts/dock_solv.prm

>  <Rbt.Receptor>
prm/pocket_docking_4.prm

>  <SCORE>
-20.0749

>  <SCORE.INTER>
-14.6124

>  <SCORE.INTER.CONST>
1

>  <SCORE.INTER.POLAR>
0

>  <SCORE.INTER.ROT>
7

>  <SCORE.INTER.SOLV>
19.0487

>  <SCORE.INTER.VDW>
-24.3578

>  <SCORE.INTER.norm>
-0.541199

>  <SCORE.INTRA>
-5.46248

>  <SCORE.INTRA.DIHEDRAL>
-5.97953

>  <SCORE.INTRA.DIHEDRAL.0>
11.2699

>  <SCORE.INTRA.POLAR>
0

>  <SCORE.INTRA.POLAR.0>
0

>  <SCORE.INTRA.REPUL>
0

>  <SCORE.INTRA.REPUL.0>
0

>  <SCORE.INTRA.SOLV>
0.0147558

>  <SCORE.INTRA.SOLV.lig_0>
-48.6447

>  <SCORE.INTRA.VDW>
-2.48009

>  <SCORE.INTRA.VDW.0>
-0.0211724

>  <SCORE.INTRA.norm>
-0.202314

>  <SCORE.RESTR>
0

>  <SCORE.RESTR.CAVITY>
0

>  <SCORE.RESTR.norm>
0

>  <SCORE.SYSTEM>
0

>  <SCORE.SYSTEM.CONST>
0

>  <SCORE.SYSTEM.DIHEDRAL>
0

>  <SCORE.SYSTEM.SOLV>
0

>  <SCORE.SYSTEM.norm>
0

>  <SCORE.heavy>
27

>  <SCORE.norm>
-0.743513

>  <RMSD>
6.430

$$$$
ligand
 OpenBabel11021811483D
libRbt.so/2013.1/901 2013/11/27
 27 29  0  0  0  0  0  0  0  0999 V2000
   44.2544   54.0677   34.7321 N   0  0  0  0  0  0  0  0  0  0  0  0
   45.5218   53.3504   34.6645 C   0  0  2  0  0  0  0  0  0  0  0  0
   46.1409   53.2258   36.0469 C   0  0  0  0  0  0  0  0  0  0  0  0
   47.2066   52.6335   36.1994 O   0  0  0  0  0  0  0  0  0  0  0  0
   46.5028   54.0178   33.7016 C   0  0  0  0  0  0  0  0  0  0  0  0
   46.7652   55.4936   33.9767 C   0  0  0  0  0  0  0  0  0  0  0  0
   48.1502   56.1989   33.0408 S   0  0  2  0  0  0  0  0  0  0  0  0
   49.5643   55.4808   33.9122 C   0  0  0  0  0  0  0  0  0  0  0  0
   48.1693   57.8831   33.7093 C   0  0  0  0  0  0  0  0  0  0  0  0
   47.4846   58.8303   32.7352 C   0  0  1  0  0  0  0  0  0  0  0  0
   48.2930   58.9417   31.5888 O   0  0  0  0  0  0  0  0  0  0  0  0
   46.1430   58.3458   32.2235 C   0  0  1  0  0  0  0  0  0  0  0  0
   45.0983   58.9305   32.9622 O   0  0  0  0  0  0  0  0  0  0  0  0
   46.1169   58.8233   30.7828 C   0  0  1  0  0  0  0  0  0  0  0  0
   45.2620   59.9372   30.6783 O   0  0  0  0  0  0  0  0  0  0  0  0
   47.5437   59.2299   30.4360 C   0  0  2  0  0  0  0  0  0  0  0  0
   45.5896   53.7185   37.0316 O   0  0  0  0  0  0  0  0  0  0  0  0
   50.3552   54.9895   29.0948 N   0  0  0  0  0  0  0  0  0  0  0  0
   50.1202   55.4962   30.3569 C   0  0  0  0  0  0  0  0  0  0  0  0
   49.3503   56.6329   30.5227 N   0  0  0  0  0  0  0  0  0  0  0  0
   48.8243   57.2677   29.4522 C   0  0  0  0  0  0  0  0  0  0  0  0
   49.0415   56.7720   28.1752 C   0  0  0  0  0  0  0  0  0  0  0  0
   49.8162   55.6286   27.9982 C   0  0  0  0  0  0  0  0  0  0  0  0
   50.0408   55.1426   26.7802 N   0  0  0  0  0  0  0  0  0  0  0  0
   48.3990   57.5836   27.3059 N   0  0  0  0  0  0  0  0  0  0  0  0
   47.7748   58.5629   28.0018 C   0  0  0  0  0  0  0  0  0  0  0  0
   48.0298   58.3802   29.3357 N   0  0  0  0  0  0  0  0  0  0  0  0
  2  1  1  1  0  0  0
  2  3  1  0  0  0  0
  2  5  1  0  0  0  0
  3  4  1  0  0  0  0
  3 17  1  0  0  0  0
  5  6  1  0  0  0  0
  7  6  1  1  0  0  0
  7  8  1  0  0  0  0
  7  9  1  0  0  0  0
 10  9  1  1  0  0  0
 10 11  1  0  0  0  0
 10 12  1  0  0  0  0
 11 16  1  0  0  0  0
 12 13  1  1  0  0  0
 12 14  1  0  0  0  0
 14 15  1  1  0  0  0
 14 16  1  0  0  0  0
 16 27  1  6  0  0  0
 18 19  2  0  0  0  0
 18 23  1  0  0  0  0
 19 20  1  0  0  0  0
 20 21  2  0  0  0  0
 21 22  1  0  0  0  0
 21 27  1  0  0  0  0
 22 23  2  0  0  0  0
 22 25  1  0  0  0  0
 23 24  1  0  0  0  0
 25 26  2  0  0  0  0
 26 27  1  0  0  0  0
M  END
>  <CHROM.1>
178.94215278,54.31025084,169.05001889,-74.19093528,-100.47376066,-68.59068056
15.24711603,47.59182471,56.48917549,31.84876787,2.08152170,-0.87507525,2.43809452

>  <Name>
ligand

>  <RI>
0

>  <Rbt.Current_Directory>
/home/itssahil/PROJECTS/Mol_Feturizer/New_Systems/rnas/3GX7

>  <Rbt.Executable>
rbdock ($Id: //depot/dev/client3/rdock/2013.1/src/exe/rbdock.cxx#4 $)

>  <Rbt.Library>
libRbt.so (2013.1, Build901 2013/11/27)

>  <Rbt.Parameter_File>
/export/apps/rDock/src/rDock_2013.1_src/data/scripts/dock_solv.prm

>  <Rbt.Receptor>
prm/pocket_docking_5.prm

>  <SCORE>
-19.2675

>  <SCORE.INTER>
-13.9659

>  <SCORE.INTER.CONST>
1

>  <SCORE.INTER.POLAR>
0

>  <SCORE.INTER.ROT>
7

>  <SCORE.INTER.SOLV>
10.9896

>  <SCORE.INTER.VDW>
-21.2404

>  <SCORE.INTER.norm>
-0.517255

>  <SCORE.INTRA>
-5.30161

>  <SCORE.INTRA.DIHEDRAL>
-4.74367

>  <SCORE.INTRA.DIHEDRAL.0>
11.2699

>  <SCORE.INTRA.POLAR>
0

>  <SCORE.INTRA.POLAR.0>
0

>  <SCORE.INTRA.REPUL>
0

>  <SCORE.INTRA.REPUL.0>
0

>  <SCORE.INTRA.SOLV>
-0.0217004

>  <SCORE.INTRA.SOLV.lig_0>
-48.6447

>  <SCORE.INTRA.VDW>
-2.91892

>  <SCORE.INTRA.VDW.0>
-0.0211724

>  <SCORE.INTRA.norm>
-0.196356

>  <SCORE.RESTR>
0

>  <SCORE.RESTR.CAVITY>
0

>  <SCORE.RESTR.norm>
0

>  <SCORE.SYSTEM>
0

>  <SCORE.SYSTEM.CONST>
0

>  <SCORE.SYSTEM.DIHEDRAL>
0

>  <SCORE.SYSTEM.SOLV>
0

>  <SCORE.SYSTEM.norm>
0

>  <SCORE.heavy>
27

>  <SCORE.norm>
-0.713611

>  <RMSD>
6.442

$$$$
ligand
 OpenBabel11021811483D
libRbt.so/2013.1/901 2013/11/27
 27 29  0  0  0  0  0  0  0  0999 V2000
   49.0418   54.7169   36.2616 N   0  0  0  0  0  0  0  0  0  0  0  0
   48.0061   55.0965   35.3084 C   0  0  2  0  0  0  0  0  0  0  0  0
   47.4512   53.8697   34.6037 C   0  0  0  0  0  0  0  0  0  0  0  0
   48.1249   53.2777   33.7637 O   0  0  0  0  0  0  0  0  0  0  0  0
   48.5177   56.1102   34.2859 C   0  0  0  0  0  0  0  0  0  0  0  0
   47.4778   57.1162   33.8069 C   0  0  0  0  0  0  0  0  0  0  0  0
   47.9960   58.1141   32.3832 S   0  0  2  0  0  0  0  0  0  0  0  0
   49.4478   58.9590   33.0568 C   0  0  0  0  0  0  0  0  0  0  0  0
   46.7715   59.4478   32.4589 C   0  0  0  0  0  0  0  0  0  0  0  0
   45.4471   58.9622   31.8891 C   0  0  1  0  0  0  0  0  0  0  0  0
   45.6550   58.5927   30.5472 O   0  0  0  0  0  0  0  0  0  0  0  0
   44.8920   57.7200   32.5564 C   0  0  1  0  0  0  0  0  0  0  0  0
   43.9322   58.0721   33.5228 O   0  0  0  0  0  0  0  0  0  0  0  0
   44.2496   56.9569   31.4122 C   0  0  1  0  0  0  0  0  0  0  0  0
   42.8504   57.0927   31.4913 O   0  0  0  0  0  0  0  0  0  0  0  0
   44.7609   57.5943   30.1262 C   0  0  2  0  0  0  0  0  0  0  0  0
   46.3243   53.4477   34.8653 O   0  0  0  0  0  0  0  0  0  0  0  0
   47.8691   56.6727   25.9821 N   0  0  0  0  0  0  0  0  0  0  0  0
   47.3296   57.8735   26.3968 C   0  0  0  0  0  0  0  0  0  0  0  0
   46.5255   57.9288   27.5205 N   0  0  0  0  0  0  0  0  0  0  0  0
   46.2500   56.8080   28.2230 C   0  0  0  0  0  0  0  0  0  0  0  0
   46.7873   55.5916   27.8286 C   0  0  0  0  0  0  0  0  0  0  0  0
   47.5973   55.5260   26.6980 C   0  0  0  0  0  0  0  0  0  0  0  0
   48.1158   54.3668   26.3008 N   0  0  0  0  0  0  0  0  0  0  0  0
   46.3645   54.6535   28.7052 N   0  0  0  0  0  0  0  0  0  0  0  0
   45.5914   55.2489   29.6436 C   0  0  0  0  0  0  0  0  0  0  0  0
   45.5109   56.5866   29.3575 N   0  0  0  0  0  0  0  0  0  0  0  0
  2  1  1  1  0  0  0
  2  3  1  0  0  0  0
  2  5  1  0  0  0  0
  3  4  1  0  0  0  0
  3 17  1  0  0  0  0
  5  6  1  0  0  0  0
  7  6  1  1  0  0  0
  7  8  1  0  0  0  0
  7  9  1  0  0  0  0
 10  9  1  1  0  0  0
 10 11  1  0  0  0  0
 10 12  1  0  0  0  0
 11 16  1  0  0  0  0
 12 13  1  1  0  0  0
 12 14  1  0  0  0  0
 14 15  1  1  0  0  0
 14 16  1  0  0  0  0
 16 27  1  6  0  0  0
 18 19  2  0  0  0  0
 18 23  1  0  0  0  0
 19 20  1  0  0  0  0
 20 21  2  0  0  0  0
 21 22  1  0  0  0  0
 21 27  1  0  0  0  0
 22 23  2  0  0  0  0
 22 25  1  0  0  0  0
 23 24  1  0  0  0  0
 25 26  2  0  0  0  0
 26 27  1  0  0  0  0
M  END
>  <CHROM.1>
-72.24452323,-146.91712382,-169.32571173,-60.71853393,-78.11104692,-60.64351335
-58.35134714,46.67277368,56.61456443,31.23683633,-1.38856852,0.95428402,-1.60780709

>  <Name>
ligand

>  <RI>
0

>  <Rbt.Current_Directory>
/home/itssahil/PROJECTS/Mol_Feturizer/New_Systems/rnas/3GX7

>  <Rbt.Executable>
rbdock ($Id: //depot/dev/client3/rdock/2013.1/src/exe/rbdock.cxx#4 $)

>  <Rbt.Library>
libRbt.so (2013.1, Build901 2013/11/27)

>  <Rbt.Parameter_File>
/export/apps/rDock/src/rDock_2013.1_src/data/scripts/dock_solv.prm

>  <Rbt.Receptor>
prm/pocket_docking_4.prm

>  <SCORE>
-16.5413

>  <SCORE.INTER>
-13.184

>  <SCORE.INTER.CONST>
1

>  <SCORE.INTER.POLAR>
0

>  <SCORE.INTER.ROT>
7

>  <SCORE.INTER.SOLV>
14.5973

>  <SCORE.INTER.VDW>
-21.9217

>  <SCORE.INTER.norm>
-0.488296

>  <SCORE.INTRA>
-3.35732

>  <SCORE.INTRA.DIHEDRAL>
-3.90263

>  <SCORE.INTRA.DIHEDRAL.0>
11.2699

>  <SCORE.INTRA.POLAR>
0

>  <SCORE.INTRA.POLAR.0>
0

>  <SCORE.INTRA.REPUL>
0

>  <SCORE.INTRA.REPUL.0>
0

>  <SCORE.INTRA.SOLV>
-0.693691

>  <SCORE.INTRA.SOLV.lig_0>
-48.6447

>  <SCORE.INTRA.VDW>
-1.05915

>  <SCORE.INTRA.VDW.0>
-0.0211724

>  <SCORE.INTRA.norm>
-0.124345

>  <SCORE.RESTR>
0

>  <SCORE.RESTR.CAVITY>
0

>  <SCORE.RESTR.norm>
0

>  <SCORE.SYSTEM>
0

>  <SCORE.SYSTEM.CONST>
0

>  <SCORE.SYSTEM.DIHEDRAL>
0

>  <SCORE.SYSTEM.SOLV>
0

>  <SCORE.SYSTEM.norm>
0

>  <SCORE.heavy>
27

>  <SCORE.norm>
-0.612641

>  <RMSD>
6.446

$$$$
ligand
 OpenBabel11021811483D
libRbt.so/2013.1/901 2013/11/27
 27 29  0  0  0  0  0  0  0  0999 V2000
   47.5869   54.0549   33.2532 N   0  0  0  0  0  0  0  0  0  0  0  0
   48.6054   54.6485   34.1111 C   0  0  2  0  0  0  0  0  0  0  0  0
   48.0857   54.8034   35.5308 C   0  0  0  0  0  0  0  0  0  0  0  0
   48.7933   55.3068   36.4001 O   0  0  0  0  0  0  0  0  0  0  0  0
   49.0890   55.9943   33.5729 C   0  0  0  0  0  0  0  0  0  0  0  0
   47.9963   57.0413   33.3928 C   0  0  0  0  0  0  0  0  0  0  0  0
   48.5097   58.5127   32.4640 S   0  0  2  0  0  0  0  0  0  0  0  0
   49.6313   59.3001   33.6460 C   0  0  0  0  0  0  0  0  0  0  0  0
   47.0377   59.5510   32.6615 C   0  0  0  0  0  0  0  0  0  0  0  0
   45.9756   59.1333   31.6555 C   0  0  1  0  0  0  0  0  0  0  0  0
   46.5295   59.2306   30.3655 O   0  0  0  0  0  0  0  0  0  0  0  0
   45.5222   57.6927   31.7801 C   0  0  1  0  0  0  0  0  0  0  0  0
   44.3301   57.6182   32.5233 O   0  0  0  0  0  0  0  0  0  0  0  0
   45.2879   57.2667   30.3420 C   0  0  1  0  0  0  0  0  0  0  0  0
   43.9032   57.2221   30.0908 O   0  0  0  0  0  0  0  0  0  0  0  0
   45.9406   58.3277   29.4648 C   0  0  2  0  0  0  0  0  0  0  0  0
   46.9502   54.4332   35.8308 O   0  0  0  0  0  0  0  0  0  0  0  0
   47.2152   54.4437   26.1521 N   0  0  0  0  0  0  0  0  0  0  0  0
   45.9889   54.7104   26.7266 C   0  0  0  0  0  0  0  0  0  0  0  0
   45.8362   55.7849   27.5836 N   0  0  0  0  0  0  0  0  0  0  0  0
   46.8860   56.5833   27.8770 C   0  0  0  0  0  0  0  0  0  0  0  0
   48.1258   56.3382   27.3055 C   0  0  0  0  0  0  0  0  0  0  0  0
   48.2894   55.2581   26.4421 C   0  0  0  0  0  0  0  0  0  0  0  0
   49.4729   55.0037   25.8900 N   0  0  0  0  0  0  0  0  0  0  0  0
   48.9791   57.2845   27.7567 N   0  0  0  0  0  0  0  0  0  0  0  0
   48.3071   58.1220   28.5811 C   0  0  0  0  0  0  0  0  0  0  0  0
   47.0063   57.6994   28.6659 N   0  0  0  0  0  0  0  0  0  0  0  0
  2  1  1  6  0  0  0
  2  3  1  0  0  0  0
  2  5  1  0  0  0  0
  3  4  1  0  0  0  0
  3 17  1  0  0  0  0
  5  6  1  0  0  0  0
  7  6  1  1  0  0  0
  7  8  1  0  0  0  0
  7  9  1  0  0  0  0
 10  9  1  1  0  0  0
 10 11  1  0  0  0  0
 10 12  1  0  0  0  0
 11 16  1  0  0  0  0
 12 13  1  1  0  0  0
 12 14  1  0  0  0  0
 14 15  1  6  0  0  0
 14 16  1  0  0  0  0
 16 27  1  6  0  0  0
 18 19  2  0  0  0  0
 18 23  1  0  0  0  0
 19 20  1  0  0  0  0
 20 21  2  0  0  0  0
 21 22  1  0  0  0  0
 21 27  1  0  0  0  0
 22 23  2  0  0  0  0
 22 25  1  0  0  0  0
 23 24  1  0  0  0  0
 25 26  2  0  0  0  0
 26 27  1  0  0  0  0
M  END
>  <CHROM.1>
-178.83225173,57.94463899,-168.79833843,-70.15244065,-81.16895291,-57.11073802
165.89615934,47.29132816,56.82248942,30.94159594,-1.37726332,1.08706554,-1.76845434

>  <Name>
ligand

>  <RI>
0

>  <Rbt.Current_Directory>
/home/itssahil/PROJECTS/Mol_Feturizer/New_Systems/rnas/3GX7

>  <Rbt.Executable>
rbdock ($Id: //depot/dev/client3/rdock/2013.1/src/exe/rbdock.cxx#4 $)

>  <Rbt.Library>
libRbt.so (2013.1, Build901 2013/11/27)

>  <Rbt.Parameter_File>
/export/apps/rDock/src/rDock_2013.1_src/data/scripts/dock_solv.prm

>  <Rbt.Receptor>
prm/pocket_docking_3.prm

>  <SCORE>
-19.1063

>  <SCORE.INTER>
-13.6909

>  <SCORE.INTER.CONST>
1

>  <SCORE.INTER.POLAR>
0

>  <SCORE.INTER.ROT>
7

>  <SCORE.INTER.SOLV>
10.2795

>  <SCORE.INTER.VDW>
-20.8205

>  <SCORE.INTER.norm>
-0.507072

>  <SCORE.INTRA>
-5.42843

>  <SCORE.INTRA.DIHEDRAL>
-7.10153

>  <SCORE.INTRA.DIHEDRAL.0>
11.2699

>  <SCORE.INTRA.POLAR>
0

>  <SCORE.INTRA.POLAR.0>
0

>  <SCORE.INTRA.REPUL>
0

>  <SCORE.INTRA.REPUL.0>
0

>  <SCORE.INTRA.SOLV>
0.0662485

>  <SCORE.INTRA.SOLV.lig_0>
-48.6447

>  <SCORE.INTRA.VDW>
-1.91079

>  <SCORE.INTRA.VDW.0>
-0.0211724

>  <SCORE.INTRA.norm>
-0.201053

>  <SCORE.RESTR>
0.0131166

>  <SCORE.RESTR.CAVITY>
0.0131166

>  <SCORE.RESTR.norm>
0.000485801

>  <SCORE.SYSTEM>
0

>  <SCORE.SYSTEM.CONST>
0

>  <SCORE.SYSTEM.DIHEDRAL>
0

>  <SCORE.SYSTEM.SOLV>
0

>  <SCORE.SYSTEM.norm>
0

>  <SCORE.heavy>
27

>  <SCORE.norm>
-0.707639

>  <RMSD>
6.447

$$$$
ligand
 OpenBabel11021811483D
libRbt.so/2013.1/901 2013/11/27
 27 29  0  0  0  0  0  0  0  0999 V2000
   43.1256   54.7783   33.9006 N   0  0  0  0  0  0  0  0  0  0  0  0
   43.9141   55.9922   33.7269 C   0  0  2  0  0  0  0  0  0  0  0  0
   43.7082   56.5700   32.3364 C   0  0  0  0  0  0  0  0  0  0  0  0
   43.5534   57.7792   32.1826 O   0  0  0  0  0  0  0  0  0  0  0  0
   45.4001   55.7474   33.9855 C   0  0  0  0  0  0  0  0  0  0  0  0
   46.3140   56.9087   33.6130 C   0  0  0  0  0  0  0  0  0  0  0  0
   46.8973   56.8864   31.8953 S   0  0  2  0  0  0  0  0  0  0  0  0
   48.6408   56.4582   32.1224 C   0  0  0  0  0  0  0  0  0  0  0  0
   47.0316   58.6649   31.5751 C   0  0  0  0  0  0  0  0  0  0  0  0
   47.2671   58.9034   30.0911 C   0  0  1  0  0  0  0  0  0  0  0  0
   48.5096   58.3394   29.7469 O   0  0  0  0  0  0  0  0  0  0  0  0
   46.2636   58.2285   29.1778 C   0  0  1  0  0  0  0  0  0  0  0  0
   45.2619   59.1391   28.7949 O   0  0  0  0  0  0  0  0  0  0  0  0
   47.0966   57.8091   27.9801 C   0  0  1  0  0  0  0  0  0  0  0  0
   46.8330   58.6780   26.9041 O   0  0  0  0  0  0  0  0  0  0  0  0
   48.5551   57.9339   28.4027 C   0  0  2  0  0  0  0  0  0  0  0  0
   43.6982   55.8397   31.3450 O   0  0  0  0  0  0  0  0  0  0  0  0
   48.0072   52.7729   29.2674 N   0  0  0  0  0  0  0  0  0  0  0  0
   47.0873   53.7790   29.4831 C   0  0  0  0  0  0  0  0  0  0  0  0
   47.4075   55.0935   29.1965 N   0  0  0  0  0  0  0  0  0  0  0  0
   48.6268   55.4123   28.7095 C   0  0  0  0  0  0  0  0  0  0  0  0
   49.5642   54.4165   28.4782 C   0  0  0  0  0  0  0  0  0  0  0  0
   49.2512   53.0903   28.7645 C   0  0  0  0  0  0  0  0  0  0  0  0
   50.1402   52.1227   28.5554 N   0  0  0  0  0  0  0  0  0  0  0  0
   50.6759   55.0069   27.9855 N   0  0  0  0  0  0  0  0  0  0  0  0
   50.4567   56.3393   27.8882 C   0  0  0  0  0  0  0  0  0  0  0  0
   49.1888   56.6063   28.3342 N   0  0  0  0  0  0  0  0  0  0  0  0
  2  1  1  6  0  0  0
  2  3  1  0  0  0  0
  2  5  1  0  0  0  0
  3  4  1  0  0  0  0
  3 17  1  0  0  0  0
  5  6  1  0  0  0  0
  7  6  1  1  0  0  0
  7  8  1  0  0  0  0
  7  9  1  0  0  0  0
 10  9  1  1  0  0  0
 10 11  1  0  0  0  0
 10 12  1  0  0  0  0
 11 16  1  0  0  0  0
 12 13  1  6  0  0  0
 12 14  1  0  0  0  0
 14 15  1  6  0  0  0
 14 16  1  0  0  0  0
 16 27  1  1  0  0  0
 18 19  2  0  0  0  0
 18 23  1  0  0  0  0
 19 20  1  0  0  0  0
 20 21  2  0  0  0  0
 21 22  1  0  0  0  0
 21 27  1  0  0  0  0
 22 23  2  0  0  0  0
 22 25  1  0  0  0  0
 23 24  1  0  0  0  0
 25 26  2  0  0  0  0
 26 27  1  0  0  0  0
M  END
>  <CHROM.1>
136.74071341,170.84151377,-88.63115922,-108.71650748,-169.63316062,-64.12963828
73.71414141,47.05829012,56.36430934,30.27163030,-3.04675677,0.76587426,-0.44999772

>  <Name>
ligand

>  <RI>
0

>  <Rbt.Current_Directory>
/home/itssahil/PROJECTS/Mol_Feturizer/New_Systems/rnas/3GX7

>  <Rbt.Executable>
rbdock ($Id: //depot/dev/client3/rdock/2013.1/src/exe/rbdock.cxx#4 $)

>  <Rbt.Library>
libRbt.so (2013.1, Build901 2013/11/27)

>  <Rbt.Parameter_File>
/export/apps/rDock/src/rDock_2013.1_src/data/scripts/dock_solv.prm

>  <Rbt.Receptor>
prm/pocket_docking_5.prm

>  <SCORE>
-10.3428

>  <SCORE.INTER>
-4.8908

>  <SCORE.INTER.CONST>
1

>  <SCORE.INTER.POLAR>
0

>  <SCORE.INTER.ROT>
7

>  <SCORE.INTER.SOLV>
15.0515

>  <SCORE.INTER.VDW>
-16.5444

>  <SCORE.INTER.norm>
-0.181141

>  <SCORE.INTRA>
-5.45198

>  <SCORE.INTRA.DIHEDRAL>
-0.939398

>  <SCORE.INTRA.DIHEDRAL.0>
11.2699

>  <SCORE.INTRA.POLAR>
0

>  <SCORE.INTRA.POLAR.0>
0

>  <SCORE.INTRA.REPUL>
0

>  <SCORE.INTRA.REPUL.0>
0

>  <SCORE.INTRA.SOLV>
-0.694505

>  <SCORE.INTRA.SOLV.lig_0>
-48.6447

>  <SCORE.INTRA.VDW>
-4.63503

>  <SCORE.INTRA.VDW.0>
-0.0211724

>  <SCORE.INTRA.norm>
-0.201925

>  <SCORE.RESTR>
1.41593e-05

>  <SCORE.RESTR.CAVITY>
1.41593e-05

>  <SCORE.RESTR.norm>
5.2442e-07

>  <SCORE.SYSTEM>
0

>  <SCORE.SYSTEM.CONST>
0

>  <SCORE.SYSTEM.DIHEDRAL>
0

>  <SCORE.SYSTEM.SOLV>
0

>  <SCORE.SYSTEM.norm>
0

>  <SCORE.heavy>
27

>  <SCORE.norm>
-0.383066

>  <RMSD>
6.450

$$$$
ligand
 OpenBabel11021811483D
libRbt.so/2013.1/901 2013/11/27
 27 29  0  0  0  0  0  0  0  0999 V2000
   43.8861   52.9003   33.4543 N   0  0  0  0  0  0  0  0  0  0  0  0
   44.7112   53.4937   34.4996 C   0  0  2  0  0  0  0  0  0  0  0  0
   44.4734   52.7974   35.8293 C   0  0  0  0  0  0  0  0  0  0  0  0
   45.4105   52.5820   36.5944 O   0  0  0  0  0  0  0  0  0  0  0  0
   44.4648   54.9956   34.6352 C   0  0  0  0  0  0  0  0  0  0  0  0
   45.1047   55.8497   33.5472 C   0  0  0  0  0  0  0  0  0  0  0  0
   44.3876   57.5069   33.3722 S   0  0  2  0  0  0  0  0  0  0  0  0
   43.0513   57.1883   32.1942 C   0  0  0  0  0  0  0  0  0  0  0  0
   45.6135   58.2774   32.2824 C   0  0  0  0  0  0  0  0  0  0  0  0
   46.9792   58.2609   32.9526 C   0  0  1  0  0  0  0  0  0  0  0  0
   47.5108   56.9632   32.8353 O   0  0  0  0  0  0  0  0  0  0  0  0
   48.0086   59.1663   32.3068 C   0  0  1  0  0  0  0  0  0  0  0  0
   48.0863   60.3889   32.9984 O   0  0  0  0  0  0  0  0  0  0  0  0
   49.3043   58.3873   32.4425 C   0  0  1  0  0  0  0  0  0  0  0  0
   50.0849   58.9592   33.4653 O   0  0  0  0  0  0  0  0  0  0  0  0
   48.9155   56.9636   32.8210 C   0  0  2  0  0  0  0  0  0  0  0  0
   43.3420   52.4437   36.1627 O   0  0  0  0  0  0  0  0  0  0  0  0
   49.4991   56.1807   27.6508 N   0  0  0  0  0  0  0  0  0  0  0  0
   48.9774   57.2838   28.2957 C   0  0  0  0  0  0  0  0  0  0  0  0
   48.8993   57.3159   29.6760 N   0  0  0  0  0  0  0  0  0  0  0  0
   49.3246   56.2657   30.4120 C   0  0  0  0  0  0  0  0  0  0  0  0
   49.8590   55.1496   29.7853 C   0  0  0  0  0  0  0  0  0  0  0  0
   49.9409   55.1079   28.3960 C   0  0  0  0  0  0  0  0  0  0  0  0
   50.4444   54.0430   27.7774 N   0  0  0  0  0  0  0  0  0  0  0  0
   50.2101   54.2681   30.7480 N   0  0  0  0  0  0  0  0  0  0  0  0
   49.9249   54.8051   31.9576 C   0  0  0  0  0  0  0  0  0  0  0  0
   49.3743   56.0451   31.7652 N   0  0  0  0  0  0  0  0  0  0  0  0
  2  1  1  6  0  0  0
  2  3  1  0  0  0  0
  2  5  1  0  0  0  0
  3  4  1  0  0  0  0
  3 17  1  0  0  0  0
  5  6  1  0  0  0  0
  7  6  1  6  0  0  0
  7  8  1  0  0  0  0
  7  9  1  0  0  0  0
 10  9  1  6  0  0  0
 10 11  1  0  0  0  0
 10 12  1  0  0  0  0
 11 16  1  0  0  0  0
 12 13  1  1  0  0  0
 12 14  1  0  0  0  0
 14 15  1  1  0  0  0
 14 16  1  0  0  0  0
 16 27  1  6  0  0  0
 18 19  2  0  0  0  0
 18 23  1  0  0  0  0
 19 20  1  0  0  0  0
 20 21  2  0  0  0  0
 21 22  1  0  0  0  0
 21 27  1  0  0  0  0
 22 23  2  0  0  0  0
 22 25  1  0  0  0  0
 23 24  1  0  0  0  0
 25 26  2  0  0  0  0
 26 27  1  0  0  0  0
M  END
>  <CHROM.1>
141.11297466,-76.09384503,160.59399801,-88.42871046,-59.66736457,77.60781605
73.52636337,47.19163429,56.14431975,32.32477234,-2.88613219,0.76034057,0.07444071

>  <Name>
ligand

>  <RI>
0

>  <Rbt.Current_Directory>
/home/itssahil/PROJECTS/Mol_Feturizer/New_Systems/rnas/3GX7

>  <Rbt.Executable>
rbdock ($Id: //depot/dev/client3/rdock/2013.1/src/exe/rbdock.cxx#4 $)

>  <Rbt.Library>
libRbt.so (2013.1, Build901 2013/11/27)

>  <Rbt.Parameter_File>
/export/apps/rDock/src/rDock_2013.1_src/data/scripts/dock_solv.prm

>  <Rbt.Receptor>
prm/pocket_docking_8.prm

>  <SCORE>
-19.9304

>  <SCORE.INTER>
-15.9693

>  <SCORE.INTER.CONST>
1

>  <SCORE.INTER.POLAR>
0

>  <SCORE.INTER.ROT>
7

>  <SCORE.INTER.SOLV>
11.4237

>  <SCORE.INTER.VDW>
-22.7208

>  <SCORE.INTER.norm>
-0.591457

>  <SCORE.INTRA>
-3.96107

>  <SCORE.INTRA.DIHEDRAL>
-3.48354

>  <SCORE.INTRA.DIHEDRAL.0>
11.2699

>  <SCORE.INTRA.POLAR>
0

>  <SCORE.INTRA.POLAR.0>
0

>  <SCORE.INTRA.REPUL>
0

>  <SCORE.INTRA.REPUL.0>
0

>  <SCORE.INTRA.SOLV>
-0.254102

>  <SCORE.INTRA.SOLV.lig_0>
-48.6447

>  <SCORE.INTRA.VDW>
-2.09225

>  <SCORE.INTRA.VDW.0>
-0.0211724

>  <SCORE.INTRA.norm>
-0.146706

>  <SCORE.RESTR>
0

>  <SCORE.RESTR.CAVITY>
0

>  <SCORE.RESTR.norm>
0

>  <SCORE.SYSTEM>
0

>  <SCORE.SYSTEM.CONST>
0

>  <SCORE.SYSTEM.DIHEDRAL>
0

>  <SCORE.SYSTEM.SOLV>
0

>  <SCORE.SYSTEM.norm>
0

>  <SCORE.heavy>
27

>  <SCORE.norm>
-0.738163

>  <RMSD>
6.452

$$$$
ligand
 OpenBabel11021811483D
libRbt.so/2013.1/901 2013/11/27
 27 29  0  0  0  0  0  0  0  0999 V2000
   43.8702   55.9399   31.7815 N   0  0  0  0  0  0  0  0  0  0  0  0
   44.6262   56.4170   32.9332 C   0  0  2  0  0  0  0  0  0  0  0  0
   44.5277   55.4300   34.0846 C   0  0  0  0  0  0  0  0  0  0  0  0
   43.4576   54.8861   34.3470 O   0  0  0  0  0  0  0  0  0  0  0  0
   44.1659   57.8034   33.3814 C   0  0  0  0  0  0  0  0  0  0  0  0
   44.5422   58.9388   32.4370 C   0  0  0  0  0  0  0  0  0  0  0  0
   46.2885   59.4260   32.5040 S   0  0  2  0  0  0  0  0  0  0  0  0
   46.2699   60.9359   31.5068 C   0  0  0  0  0  0  0  0  0  0  0  0
   46.9981   58.2540   31.3179 C   0  0  0  0  0  0  0  0  0  0  0  0
   47.4524   56.9978   32.0461 C   0  0  1  0  0  0  0  0  0  0  0  0
   47.7333   56.0096   31.0844 O   0  0  0  0  0  0  0  0  0  0  0  0
   48.7378   57.1561   32.8329 C   0  0  1  0  0  0  0  0  0  0  0  0
   48.4537   57.4017   34.1886 O   0  0  0  0  0  0  0  0  0  0  0  0
   49.4285   55.8152   32.6616 C   0  0  1  0  0  0  0  0  0  0  0  0
   49.3051   55.0739   33.8523 O   0  0  0  0  0  0  0  0  0  0  0  0
   48.7069   55.0987   31.5270 C   0  0  2  0  0  0  0  0  0  0  0  0
   45.5154   55.1566   34.7673 O   0  0  0  0  0  0  0  0  0  0  0  0
   50.4691   51.6898   27.9274 N   0  0  0  0  0  0  0  0  0  0  0  0
   49.4639   51.5103   28.8559 C   0  0  0  0  0  0  0  0  0  0  0  0
   49.1320   52.5262   29.7336 N   0  0  0  0  0  0  0  0  0  0  0  0
   49.7919   53.7047   29.7002 C   0  0  0  0  0  0  0  0  0  0  0  0
   50.8007   53.9096   28.7706 C   0  0  0  0  0  0  0  0  0  0  0  0
   51.1424   52.8923   27.8835 C   0  0  0  0  0  0  0  0  0  0  0  0
   52.1120   53.0685   26.9895 N   0  0  0  0  0  0  0  0  0  0  0  0
   51.2747   55.1627   28.9500 N   0  0  0  0  0  0  0  0  0  0  0  0
   50.5832   55.7523   29.9535 C   0  0  0  0  0  0  0  0  0  0  0  0
   49.6591   54.8593   30.4294 N   0  0  0  0  0  0  0  0  0  0  0  0
  2  1  1  6  0  0  0
  2  3  1  0  0  0  0
  2  5  1  0  0  0  0
  3  4  1  0  0  0  0
  3 17  1  0  0  0  0
  5  6  1  0  0  0  0
  7  6  1  6  0  0  0
  7  8  1  0  0  0  0
  7  9  1  0  0  0  0
 10  9  1  6  0  0  0
 10 11  1  0  0  0  0
 10 12  1  0  0  0  0
 11 16  1  0  0  0  0
 12 13  1  1  0  0  0
 12 14  1  0  0  0  0
 14 15  1  1  0  0  0
 14 16  1  0  0  0  0
 16 27  1  6  0  0  0
 18 19  2  0  0  0  0
 18 23  1  0  0  0  0
 19 20  1  0  0  0  0
 20 21  2  0  0  0  0
 21 22  1  0  0  0  0
 21 27  1  0  0  0  0
 22 23  2  0  0  0  0
 22 25  1  0  0  0  0
 23 24  1  0  0  0  0
 25 26  2  0  0  0  0
 26 27  1  0  0  0  0
M  END
>  <CHROM.1>
-41.36232515,-71.01513559,-75.30019914,-170.41220408,-91.41859769,167.85501555
-109.59910970,47.79425832,55.86058097,31.49446764,2.52686376,0.64644603,0.07421650

>  <Name>
ligand

>  <RI>
0

>  <Rbt.Current_Directory>
/home/itssahil/PROJECTS/Mol_Feturizer/New_Systems/rnas/3GX7

>  <Rbt.Executable>
rbdock ($Id: //depot/dev/client3/rdock/2013.1/src/exe/rbdock.cxx#4 $)

>  <Rbt.Library>
libRbt.so (2013.1, Build901 2013/11/27)

>  <Rbt.Parameter_File>
/export/apps/rDock/src/rDock_2013.1_src/data/scripts/dock_solv.prm

>  <Rbt.Receptor>
prm/pocket_docking_6.prm

>  <SCORE>
-19.8711

>  <SCORE.INTER>
-14.8841

>  <SCORE.INTER.CONST>
1

>  <SCORE.INTER.POLAR>
0

>  <SCORE.INTER.ROT>
7

>  <SCORE.INTER.SOLV>
10.0181

>  <SCORE.INTER.VDW>
-21.5288

>  <SCORE.INTER.norm>
-0.551264

>  <SCORE.INTRA>
-4.98699

>  <SCORE.INTRA.DIHEDRAL>
-3.95433

>  <SCORE.INTRA.DIHEDRAL.0>
11.2699

>  <SCORE.INTRA.POLAR>
0

>  <SCORE.INTRA.POLAR.0>
0

>  <SCORE.INTRA.REPUL>
0

>  <SCORE.INTRA.REPUL.0>
0

>  <SCORE.INTRA.SOLV>
1.51997

>  <SCORE.INTRA.SOLV.lig_0>
-48.6447

>  <SCORE.INTRA.VDW>
-3.76981

>  <SCORE.INTRA.VDW.0>
-0.0211724

>  <SCORE.INTRA.norm>
-0.184703

>  <SCORE.RESTR>
0

>  <SCORE.RESTR.CAVITY>
0

>  <SCORE.RESTR.norm>
0

>  <SCORE.SYSTEM>
0

>  <SCORE.SYSTEM.CONST>
0

>  <SCORE.SYSTEM.DIHEDRAL>
0

>  <SCORE.SYSTEM.SOLV>
0

>  <SCORE.SYSTEM.norm>
0

>  <SCORE.heavy>
27

>  <SCORE.norm>
-0.735967

>  <RMSD>
6.455

$$$$
ligand
 OpenBabel11021811483D
libRbt.so/2013.1/901 2013/11/27
 27 29  0  0  0  0  0  0  0  0999 V2000
   47.3461   54.6552   33.3209 N   0  0  0  0  0  0  0  0  0  0  0  0
   48.0626   54.2295   34.5171 C   0  0  2  0  0  0  0  0  0  0  0  0
   47.1371   54.2257   35.7226 C   0  0  0  0  0  0  0  0  0  0  0  0
   45.9225   54.1146   35.5732 O   0  0  0  0  0  0  0  0  0  0  0  0
   49.2856   55.1041   34.7894 C   0  0  0  0  0  0  0  0  0  0  0  0
   48.9972   56.5981   34.8758 C   0  0  0  0  0  0  0  0  0  0  0  0
   48.8172   57.4238   33.2704 S   0  0  2  0  0  0  0  0  0  0  0  0
   49.5718   59.0318   33.6164 C   0  0  0  0  0  0  0  0  0  0  0  0
   47.0600   57.8631   33.3268 C   0  0  0  0  0  0  0  0  0  0  0  0
   46.7842   59.0032   32.3580 C   0  0  1  0  0  0  0  0  0  0  0  0
   47.6647   58.8763   31.2676 O   0  0  0  0  0  0  0  0  0  0  0  0
   45.3978   58.9883   31.7463 C   0  0  1  0  0  0  0  0  0  0  0  0
   44.5450   59.8600   32.4477 O   0  0  0  0  0  0  0  0  0  0  0  0
   45.6273   59.4834   30.3298 C   0  0  1  0  0  0  0  0  0  0  0  0
   45.1823   60.8151   30.2256 O   0  0  0  0  0  0  0  0  0  0  0  0
   47.1300   59.4178   30.0868 C   0  0  2  0  0  0  0  0  0  0  0  0
   47.5876   54.3283   36.8640 O   0  0  0  0  0  0  0  0  0  0  0  0
   49.2648   54.8284   28.6499 N   0  0  0  0  0  0  0  0  0  0  0  0
   49.2229   55.3963   29.9072 C   0  0  0  0  0  0  0  0  0  0  0  0
   48.6146   56.6229   30.1014 N   0  0  0  0  0  0  0  0  0  0  0  0
   48.0603   57.2861   29.0629 C   0  0  0  0  0  0  0  0  0  0  0  0
   48.0844   56.7309   27.7920 C   0  0  0  0  0  0  0  0  0  0  0  0
   48.6955   55.4968   27.5866 C   0  0  0  0  0  0  0  0  0  0  0  0
   48.7341   54.9520   26.3734 N   0  0  0  0  0  0  0  0  0  0  0  0
   47.4567   57.5896   26.9579 N   0  0  0  0  0  0  0  0  0  0  0  0
   47.0283   58.6576   27.6711 C   0  0  0  0  0  0  0  0  0  0  0  0
   47.3958   58.4836   28.9797 N   0  0  0  0  0  0  0  0  0  0  0  0
  2  1  1  6  0  0  0
  2  3  1  0  0  0  0
  2  5  1  0  0  0  0
  3  4  1  0  0  0  0
  3 17  1  0  0  0  0
  5  6  1  0  0  0  0
  7  6  1  1  0  0  0
  7  8  1  0  0  0  0
  7  9  1  0  0  0  0
 10  9  1  1  0  0  0
 10 11  1  0  0  0  0
 10 12  1  0  0  0  0
 11 16  1  0  0  0  0
 12 13  1  1  0  0  0
 12 14  1  0  0  0  0
 14 15  1  1  0  0  0
 14 16  1  0  0  0  0
 16 27  1  6  0  0  0
 18 19  2  0  0  0  0
 18 23  1  0  0  0  0
 19 20  1  0  0  0  0
 20 21  2  0  0  0  0
 21 22  1  0  0  0  0
 21 27  1  0  0  0  0
 22 23  2  0  0  0  0
 22 25  1  0  0  0  0
 23 24  1  0  0  0  0
 25 26  2  0  0  0  0
 26 27  1  0  0  0  0
M  END
>  <CHROM.1>
24.05083212,54.50545913,-79.48128193,-144.04915775,158.58254917,32.01208810
-0.44723399,47.60578733,57.08431009,31.57637193,-1.50175557,1.07201762,-1.29498700

>  <Name>
ligand

>  <RI>
0

>  <Rbt.Current_Directory>
/home/itssahil/PROJECTS/Mol_Feturizer/New_Systems/rnas/3GX7

>  <Rbt.Executable>
rbdock ($Id: //depot/dev/client3/rdock/2013.1/src/exe/rbdock.cxx#4 $)

>  <Rbt.Library>
libRbt.so (2013.1, Build901 2013/11/27)

>  <Rbt.Parameter_File>
/export/apps/rDock/src/rDock_2013.1_src/data/scripts/dock_solv.prm

>  <Rbt.Receptor>
prm/pocket_docking_2.prm

>  <SCORE>
-11.9926

>  <SCORE.INTER>
-12.8398

>  <SCORE.INTER.CONST>
1

>  <SCORE.INTER.POLAR>
0

>  <SCORE.INTER.ROT>
7

>  <SCORE.INTER.SOLV>
10.118

>  <SCORE.INTER.VDW>
-20.1992

>  <SCORE.INTER.norm>
-0.475547

>  <SCORE.INTRA>
-0.570089

>  <SCORE.INTRA.DIHEDRAL>
-0.207257

>  <SCORE.INTRA.DIHEDRAL.0>
11.2699

>  <SCORE.INTRA.POLAR>
0

>  <SCORE.INTRA.POLAR.0>
0

>  <SCORE.INTRA.REPUL>
0

>  <SCORE.INTRA.REPUL.0>
0

>  <SCORE.INTRA.SOLV>
2.01889

>  <SCORE.INTRA.SOLV.lig_0>
-48.6447

>  <SCORE.INTRA.VDW>
-1.4759

>  <SCORE.INTRA.VDW.0>
-0.0211724

>  <SCORE.INTRA.norm>
-0.0211144

>  <SCORE.RESTR>
1.41724

>  <SCORE.RESTR.CAVITY>
1.41724

>  <SCORE.RESTR.norm>
0.0524904

>  <SCORE.SYSTEM>
0

>  <SCORE.SYSTEM.CONST>
0

>  <SCORE.SYSTEM.DIHEDRAL>
0

>  <SCORE.SYSTEM.SOLV>
0

>  <SCORE.SYSTEM.norm>
0

>  <SCORE.heavy>
27

>  <SCORE.norm>
-0.444171

>  <RMSD>
6.467

$$$$
ligand
 OpenBabel11021811483D
libRbt.so/2013.1/901 2013/11/27
 27 29  0  0  0  0  0  0  0  0999 V2000
   48.9433   56.5724   32.1409 N   0  0  0  0  0  0  0  0  0  0  0  0
   48.1874   57.8156   32.2343 C   0  0  2  0  0  0  0  0  0  0  0  0
   49.1124   59.0152   32.1122 C   0  0  0  0  0  0  0  0  0  0  0  0
   50.2026   59.0196   32.6791 O   0  0  0  0  0  0  0  0  0  0  0  0
   47.3820   57.8958   33.5304 C   0  0  0  0  0  0  0  0  0  0  0  0
   46.2435   56.8886   33.6395 C   0  0  0  0  0  0  0  0  0  0  0  0
   44.9912   57.0241   32.3338 S   0  0  2  0  0  0  0  0  0  0  0  0
   44.5099   58.7618   32.4882 C   0  0  0  0  0  0  0  0  0  0  0  0
   43.5865   56.2177   33.1465 C   0  0  0  0  0  0  0  0  0  0  0  0
   43.7580   54.7071   33.0894 C   0  0  1  0  0  0  0  0  0  0  0  0
   44.8936   54.3645   33.8466 O   0  0  0  0  0  0  0  0  0  0  0  0
   42.6210   53.9203   33.7097 C   0  0  1  0  0  0  0  0  0  0  0  0
   41.7232   53.4923   32.7148 O   0  0  0  0  0  0  0  0  0  0  0  0
   43.3169   52.7348   34.3535 C   0  0  1  0  0  0  0  0  0  0  0  0
   43.1011   51.5868   33.5673 O   0  0  0  0  0  0  0  0  0  0  0  0
   44.8027   53.0703   34.3852 C   0  0  2  0  0  0  0  0  0  0  0  0
   48.7881   59.9961   31.4421 O   0  0  0  0  0  0  0  0  0  0  0  0
   48.5139   54.7000   37.7400 N   0  0  0  0  0  0  0  0  0  0  0  0
   48.4559   54.8831   36.3732 C   0  0  0  0  0  0  0  0  0  0  0  0
   47.3946   54.3792   35.6438 N   0  0  0  0  0  0  0  0  0  0  0  0
   46.4045   53.6941   36.2568 C   0  0  0  0  0  0  0  0  0  0  0  0
   46.4386   53.5043   37.6304 C   0  0  0  0  0  0  0  0  0  0  0  0
   47.5036   54.0073   38.3730 C   0  0  0  0  0  0  0  0  0  0  0  0
   47.5565   53.8291   39.6905 N   0  0  0  0  0  0  0  0  0  0  0  0
   45.3333   52.8068   37.9751 N   0  0  0  0  0  0  0  0  0  0  0  0
   44.6021   52.5675   36.8611 C   0  0  0  0  0  0  0  0  0  0  0  0
   45.2546   53.1121   35.7862 N   0  0  0  0  0  0  0  0  0  0  0  0
  2  1  1  1  0  0  0
  2  3  1  0  0  0  0
  2  5  1  0  0  0  0
  3  4  1  0  0  0  0
  3 17  1  0  0  0  0
  5  6  1  0  0  0  0
  7  6  1  1  0  0  0
  7  8  1  0  0  0  0
  7  9  1  0  0  0  0
 10  9  1  1  0  0  0
 10 11  1  0  0  0  0
 10 12  1  0  0  0  0
 11 16  1  0  0  0  0
 12 13  1  6  0  0  0
 12 14  1  0  0  0  0
 14 15  1  6  0  0  0
 14 16  1  0  0  0  0
 16 27  1  1  0  0  0
 18 19  2  0  0  0  0
 18 23  1  0  0  0  0
 19 20  1  0  0  0  0
 20 21  2  0  0  0  0
 21 22  1  0  0  0  0
 21 27  1  0  0  0  0
 22 23  2  0  0  0  0
 22 25  1  0  0  0  0
 23 24  1  0  0  0  0
 25 26  2  0  0  0  0
 26 27  1  0  0  0  0
M  END
>  <CHROM.1>
-41.39994716,-67.09181326,-59.68836616,-55.13911863,-78.45364592,64.75706296
-48.63119129,45.98613361,55.34007816,34.39048454,-1.05681729,0.52088906,2.26225744

>  <Name>
ligand

>  <RI>
0

>  <Rbt.Current_Directory>
/home/itssahil/PROJECTS/Mol_Feturizer/New_Systems/rnas/3GX7

>  <Rbt.Executable>
rbdock ($Id: //depot/dev/client3/rdock/2013.1/src/exe/rbdock.cxx#4 $)

>  <Rbt.Library>
libRbt.so (2013.1, Build901 2013/11/27)

>  <Rbt.Parameter_File>
/export/apps/rDock/src/rDock_2013.1_src/data/scripts/dock_solv.prm

>  <Rbt.Receptor>
prm/pocket_docking_7.prm

>  <SCORE>
-22.9783

>  <SCORE.INTER>
-17.4653

>  <SCORE.INTER.CONST>
1

>  <SCORE.INTER.POLAR>
0

>  <SCORE.INTER.ROT>
7

>  <SCORE.INTER.SOLV>
11.3187

>  <SCORE.INTER.VDW>
-23.6831

>  <SCORE.INTER.norm>
-0.646862

>  <SCORE.INTRA>
-5.51302

>  <SCORE.INTRA.DIHEDRAL>
-7.00319

>  <SCORE.INTRA.DIHEDRAL.0>
11.2699

>  <SCORE.INTRA.POLAR>
0

>  <SCORE.INTRA.POLAR.0>
0

>  <SCORE.INTRA.REPUL>
0

>  <SCORE.INTRA.REPUL.0>
0

>  <SCORE.INTRA.SOLV>
0.134345

>  <SCORE.INTRA.SOLV.lig_0>
-48.6447

>  <SCORE.INTRA.VDW>
-2.0786

>  <SCORE.INTRA.VDW.0>
-0.0211724

>  <SCORE.INTRA.norm>
-0.204186

>  <SCORE.RESTR>
0

>  <SCORE.RESTR.CAVITY>
0

>  <SCORE.RESTR.norm>
0

>  <SCORE.SYSTEM>
0

>  <SCORE.SYSTEM.CONST>
0

>  <SCORE.SYSTEM.DIHEDRAL>
0

>  <SCORE.SYSTEM.SOLV>
0

>  <SCORE.SYSTEM.norm>
0

>  <SCORE.heavy>
27

>  <SCORE.norm>
-0.851048

>  <RMSD>
6.477

$$$$
ligand
 OpenBabel11021811483D
libRbt.so/2013.1/901 2013/11/27
 27 29  0  0  0  0  0  0  0  0999 V2000
   50.0477   54.4836   29.6006 N   0  0  0  0  0  0  0  0  0  0  0  0
   49.4983   54.4725   30.9510 C   0  0  2  0  0  0  0  0  0  0  0  0
   48.8439   53.1343   31.2519 C   0  0  0  0  0  0  0  0  0  0  0  0
   48.6883   52.3040   30.3595 O   0  0  0  0  0  0  0  0  0  0  0  0
   48.5031   55.6112   31.1699 C   0  0  0  0  0  0  0  0  0  0  0  0
   49.1357   56.9643   31.4725 C   0  0  0  0  0  0  0  0  0  0  0  0
   48.2717   57.9322   32.7406 S   0  0  2  0  0  0  0  0  0  0  0  0
   49.3048   59.4162   32.8137 C   0  0  0  0  0  0  0  0  0  0  0  0
   48.8220   57.0711   34.2370 C   0  0  0  0  0  0  0  0  0  0  0  0
   48.2458   55.6632   34.2609 C   0  0  1  0  0  0  0  0  0  0  0  0
   48.7010   55.0216   35.4277 O   0  0  0  0  0  0  0  0  0  0  0  0
   46.7339   55.6030   34.3447 C   0  0  1  0  0  0  0  0  0  0  0  0
   46.1807   55.4174   33.0647 O   0  0  0  0  0  0  0  0  0  0  0  0
   46.4731   54.3939   35.2247 C   0  0  1  0  0  0  0  0  0  0  0  0
   46.0343   53.3225   34.4235 O   0  0  0  0  0  0  0  0  0  0  0  0
   47.8024   54.0412   35.8803 C   0  0  2  0  0  0  0  0  0  0  0  0
   48.4651   52.8592   32.3908 O   0  0  0  0  0  0  0  0  0  0  0  0
   44.9180   52.8750   40.1234 N   0  0  0  0  0  0  0  0  0  0  0  0
   44.6802   52.5347   38.8071 C   0  0  0  0  0  0  0  0  0  0  0  0
   45.5545   52.9323   37.8123 N   0  0  0  0  0  0  0  0  0  0  0  0
   46.6486   53.6657   38.1131 C   0  0  0  0  0  0  0  0  0  0  0  0
   46.9112   54.0130   39.4301 C   0  0  0  0  0  0  0  0  0  0  0  0
   46.0361   53.6180   40.4384 C   0  0  0  0  0  0  0  0  0  0  0  0
   46.2683   53.9476   41.7064 N   0  0  0  0  0  0  0  0  0  0  0  0
   48.0597   54.7258   39.4446 N   0  0  0  0  0  0  0  0  0  0  0  0
   48.5304   54.8222   38.1789 C   0  0  0  0  0  0  0  0  0  0  0  0
   47.6650   54.1691   37.3410 N   0  0  0  0  0  0  0  0  0  0  0  0
  2  1  1  6  0  0  0
  2  3  1  0  0  0  0
  2  5  1  0  0  0  0
  3  4  1  0  0  0  0
  3 17  1  0  0  0  0
  5  6  1  0  0  0  0
  7  6  1  6  0  0  0
  7  8  1  0  0  0  0
  7  9  1  0  0  0  0
 10  9  1  1  0  0  0
 10 11  1  0  0  0  0
 10 12  1  0  0  0  0
 11 16  1  0  0  0  0
 12 13  1  6  0  0  0
 12 14  1  0  0  0  0
 14 15  1  6  0  0  0
 14 16  1  0  0  0  0
 16 27  1  1  0  0  0
 18 19  2  0  0  0  0
 18 23  1  0  0  0  0
 19 20  1  0  0  0  0
 20 21  2  0  0  0  0
 21 22  1  0  0  0  0
 21 27  1  0  0  0  0
 22 23  2  0  0  0  0
 22 25  1  0  0  0  0
 23 24  1  0  0  0  0
 25 26  2  0  0  0  0
 26 27  1  0  0  0  0
M  END
>  <CHROM.1>
-8.73978169,-80.73851453,-140.11657843,179.71917326,-66.93683621,179.52990235
161.32575820,47.64805954,54.80226441,34.98535605,0.53634871,-1.21255497,-2.33373757

>  <Name>
ligand

>  <RI>
0

>  <Rbt.Current_Directory>
/home/itssahil/PROJECTS/Mol_Feturizer/New_Systems/rnas/3GX7

>  <Rbt.Executable>
rbdock ($Id: //depot/dev/client3/rdock/2013.1/src/exe/rbdock.cxx#4 $)

>  <Rbt.Library>
libRbt.so (2013.1, Build901 2013/11/27)

>  <Rbt.Parameter_File>
/export/apps/rDock/src/rDock_2013.1_src/data/scripts/dock_solv.prm

>  <Rbt.Receptor>
prm/pocket_docking_8.prm

>  <SCORE>
-23.0396

>  <SCORE.INTER>
-18.7189

>  <SCORE.INTER.CONST>
1

>  <SCORE.INTER.POLAR>
0

>  <SCORE.INTER.ROT>
7

>  <SCORE.INTER.SOLV>
12.1318

>  <SCORE.INTER.VDW>
-24.7899

>  <SCORE.INTER.norm>
-0.693294

>  <SCORE.INTRA>
-4.32063

>  <SCORE.INTRA.DIHEDRAL>
-2.19303

>  <SCORE.INTRA.DIHEDRAL.0>
11.2699

>  <SCORE.INTRA.POLAR>
0

>  <SCORE.INTRA.POLAR.0>
0

>  <SCORE.INTRA.REPUL>
0

>  <SCORE.INTRA.REPUL.0>
0

>  <SCORE.INTRA.SOLV>
0.232454

>  <SCORE.INTRA.SOLV.lig_0>
-48.6447

>  <SCORE.INTRA.VDW>
-3.34034

>  <SCORE.INTRA.VDW.0>
-0.0211724

>  <SCORE.INTRA.norm>
-0.160023

>  <SCORE.RESTR>
0

>  <SCORE.RESTR.CAVITY>
0

>  <SCORE.RESTR.norm>
0

>  <SCORE.SYSTEM>
0

>  <SCORE.SYSTEM.CONST>
0

>  <SCORE.SYSTEM.DIHEDRAL>
0

>  <SCORE.SYSTEM.SOLV>
0

>  <SCORE.SYSTEM.norm>
0

>  <SCORE.heavy>
27

>  <SCORE.norm>
-0.853317

>  <RMSD>
6.479

$$$$
ligand
 OpenBabel11021811483D
libRbt.so/2013.1/901 2013/11/27
 27 29  0  0  0  0  0  0  0  0999 V2000
   48.2789   55.2704   35.6486 N   0  0  0  0  0  0  0  0  0  0  0  0
   47.5111   55.1774   34.4127 C   0  0  2  0  0  0  0  0  0  0  0  0
   47.3216   53.7248   34.0081 C   0  0  0  0  0  0  0  0  0  0  0  0
   46.2295   53.1787   34.1460 O   0  0  0  0  0  0  0  0  0  0  0  0
   48.1637   55.9641   33.2768 C   0  0  0  0  0  0  0  0  0  0  0  0
   47.7850   57.4392   33.2203 C   0  0  0  0  0  0  0  0  0  0  0  0
   48.7295   58.4130   32.0157 S   0  0  2  0  0  0  0  0  0  0  0  0
   49.9404   59.2215   33.0904 C   0  0  0  0  0  0  0  0  0  0  0  0
   47.5759   59.7807   31.7283 C   0  0  0  0  0  0  0  0  0  0  0  0
   46.5699   59.3878   30.6568 C   0  0  1  0  0  0  0  0  0  0  0  0
   47.2592   59.2432   29.4385 O   0  0  0  0  0  0  0  0  0  0  0  0
   45.8950   58.0506   30.8867 C   0  0  1  0  0  0  0  0  0  0  0  0
   44.6365   58.2354   31.4876 O   0  0  0  0  0  0  0  0  0  0  0  0
   45.7455   57.4810   29.4876 C   0  0  1  0  0  0  0  0  0  0  0  0
   44.4022   57.5949   29.0811 O   0  0  0  0  0  0  0  0  0  0  0  0
   46.6351   58.3221   28.5808 C   0  0  2  0  0  0  0  0  0  0  0  0
   48.2538   53.0755   33.5330 O   0  0  0  0  0  0  0  0  0  0  0  0
   50.5510   54.9283   29.4930 N   0  0  0  0  0  0  0  0  0  0  0  0
   49.7510   55.5786   30.4108 C   0  0  0  0  0  0  0  0  0  0  0  0
   48.7610   56.4458   29.9862 N   0  0  0  0  0  0  0  0  0  0  0  0
   48.5682   56.6749   28.6687 C   0  0  0  0  0  0  0  0  0  0  0  0
   49.3556   56.0268   27.7286 C   0  0  0  0  0  0  0  0  0  0  0  0
   50.3555   55.1526   28.1466 C   0  0  0  0  0  0  0  0  0  0  0  0
   51.1249   54.5272   27.2594 N   0  0  0  0  0  0  0  0  0  0  0  0
   48.9442   56.4259   26.5044 N   0  0  0  0  0  0  0  0  0  0  0  0
   47.9143   57.2924   26.6503 C   0  0  0  0  0  0  0  0  0  0  0  0
   47.6694   57.4571   27.9884 N   0  0  0  0  0  0  0  0  0  0  0  0
  2  1  1  1  0  0  0
  2  3  1  0  0  0  0
  2  5  1  0  0  0  0
  3  4  1  0  0  0  0
  3 17  1  0  0  0  0
  5  6  1  0  0  0  0
  7  6  1  1  0  0  0
  7  8  1  0  0  0  0
  7  9  1  0  0  0  0
 10  9  1  1  0  0  0
 10 11  1  0  0  0  0
 10 12  1  0  0  0  0
 11 16  1  0  0  0  0
 12 13  1  6  0  0  0
 12 14  1  0  0  0  0
 14 15  1  6  0  0  0
 14 16  1  0  0  0  0
 16 27  1  1  0  0  0
 18 19  2  0  0  0  0
 18 23  1  0  0  0  0
 19 20  1  0  0  0  0
 20 21  2  0  0  0  0
 21 22  1  0  0  0  0
 21 27  1  0  0  0  0
 22 23  2  0  0  0  0
 22 25  1  0  0  0  0
 23 24  1  0  0  0  0
 25 26  2  0  0  0  0
 26 27  1  0  0  0  0
M  END
>  <CHROM.1>
106.03777456,-86.20262123,172.14284416,-100.56839698,-85.30993807,-66.42890789
57.44834047,47.90982117,56.76210060,30.78244510,-1.74417138,0.90118298,-1.15063427

>  <Name>
ligand

>  <RI>
0

>  <Rbt.Current_Directory>
/home/itssahil/PROJECTS/Mol_Feturizer/New_Systems/rnas/3GX7

>  <Rbt.Executable>
rbdock ($Id: //depot/dev/client3/rdock/2013.1/src/exe/rbdock.cxx#4 $)

>  <Rbt.Library>
libRbt.so (2013.1, Build901 2013/11/27)

>  <Rbt.Parameter_File>
/export/apps/rDock/src/rDock_2013.1_src/data/scripts/dock_solv.prm

>  <Rbt.Receptor>
prm/pocket_docking_4.prm

>  <SCORE>
-17.9616

>  <SCORE.INTER>
-13.1115

>  <SCORE.INTER.CONST>
1

>  <SCORE.INTER.POLAR>
0

>  <SCORE.INTER.ROT>
7

>  <SCORE.INTER.SOLV>
12.7838

>  <SCORE.INTER.VDW>
-21.2689

>  <SCORE.INTER.norm>
-0.48561

>  <SCORE.INTRA>
-4.85014

>  <SCORE.INTRA.DIHEDRAL>
-2.15405

>  <SCORE.INTRA.DIHEDRAL.0>
11.2699

>  <SCORE.INTRA.POLAR>
0

>  <SCORE.INTRA.POLAR.0>
0

>  <SCORE.INTRA.REPUL>
0

>  <SCORE.INTRA.REPUL.0>
0

>  <SCORE.INTRA.SOLV>
-0.225122

>  <SCORE.INTRA.SOLV.lig_0>
-48.6447

>  <SCORE.INTRA.VDW>
-3.66056

>  <SCORE.INTRA.VDW.0>
-0.0211724

>  <SCORE.INTRA.norm>
-0.179635

>  <SCORE.RESTR>
0

>  <SCORE.RESTR.CAVITY>
0

>  <SCORE.RESTR.norm>
0

>  <SCORE.SYSTEM>
0

>  <SCORE.SYSTEM.CONST>
0

>  <SCORE.SYSTEM.DIHEDRAL>
0

>  <SCORE.SYSTEM.SOLV>
0

>  <SCORE.SYSTEM.norm>
0

>  <SCORE.heavy>
27

>  <SCORE.norm>
-0.665245

>  <RMSD>
6.489

$$$$
ligand
 OpenBabel11021811483D
libRbt.so/2013.1/901 2013/11/27
 27 29  0  0  0  0  0  0  0  0999 V2000
   47.2692   58.2912   31.1641 N   0  0  0  0  0  0  0  0  0  0  0  0
   47.5563   58.4422   32.5855 C   0  0  2  0  0  0  0  0  0  0  0  0
   48.9156   59.0899   32.7914 C   0  0  0  0  0  0  0  0  0  0  0  0
   49.0408   60.0418   33.5582 O   0  0  0  0  0  0  0  0  0  0  0  0
   47.4868   57.1070   33.3251 C   0  0  0  0  0  0  0  0  0  0  0  0
   46.0914   56.7022   33.7850 C   0  0  0  0  0  0  0  0  0  0  0  0
   44.8251   56.7595   32.4870 S   0  0  2  0  0  0  0  0  0  0  0  0
   44.3766   58.5126   32.5117 C   0  0  0  0  0  0  0  0  0  0  0  0
   43.4170   56.0445   33.3757 C   0  0  0  0  0  0  0  0  0  0  0  0
   43.5356   54.5278   33.3910 C   0  0  1  0  0  0  0  0  0  0  0  0
   44.7552   54.1884   34.0056 O   0  0  0  0  0  0  0  0  0  0  0  0
   42.4739   53.8214   34.2097 C   0  0  1  0  0  0  0  0  0  0  0  0
   41.4346   53.3694   33.3762 O   0  0  0  0  0  0  0  0  0  0  0  0
   43.2184   52.6506   34.8255 C   0  0  1  0  0  0  0  0  0  0  0  0
   42.8626   51.4673   34.1503 O   0  0  0  0  0  0  0  0  0  0  0  0
   44.7032   52.9321   34.6320 C   0  0  2  0  0  0  0  0  0  0  0  0
   49.9105   58.6700   32.1994 O   0  0  0  0  0  0  0  0  0  0  0  0
   48.7205   54.9084   37.3959 N   0  0  0  0  0  0  0  0  0  0  0  0
   48.4535   55.0557   36.0498 C   0  0  0  0  0  0  0  0  0  0  0  0
   47.3405   54.4580   35.4874 N   0  0  0  0  0  0  0  0  0  0  0  0
   46.5038   53.7153   36.2451 C   0  0  0  0  0  0  0  0  0  0  0  0
   46.7488   53.5597   37.6014 C   0  0  0  0  0  0  0  0  0  0  0  0
   47.8674   54.1571   38.1764 C   0  0  0  0  0  0  0  0  0  0  0  0
   48.1220   54.0132   39.4743 N   0  0  0  0  0  0  0  0  0  0  0  0
   45.7610   52.7901   38.1104 N   0  0  0  0  0  0  0  0  0  0  0  0
   44.8984   52.4720   37.1167 C   0  0  0  0  0  0  0  0  0  0  0  0
   45.3464   53.0391   35.9524 N   0  0  0  0  0  0  0  0  0  0  0  0
  2  1  1  6  0  0  0
  2  3  1  0  0  0  0
  2  5  1  0  0  0  0
  3  4  1  0  0  0  0
  3 17  1  0  0  0  0
  5  6  1  0  0  0  0
  7  6  1  1  0  0  0
  7  8  1  0  0  0  0
  7  9  1  0  0  0  0
 10  9  1  1  0  0  0
 10 11  1  0  0  0  0
 10 12  1  0  0  0  0
 11 16  1  0  0  0  0
 12 13  1  6  0  0  0
 12 14  1  0  0  0  0
 14 15  1  6  0  0  0
 14 16  1  0  0  0  0
 16 27  1  1  0  0  0
 18 19  2  0  0  0  0
 18 23  1  0  0  0  0
 19 20  1  0  0  0  0
 20 21  2  0  0  0  0
 21 22  1  0  0  0  0
 21 27  1  0  0  0  0
 22 23  2  0  0  0  0
 22 25  1  0  0  0  0
 23 24  1  0  0  0  0
 25 26  2  0  0  0  0
 26 27  1  0  0  0  0
M  END
>  <CHROM.1>
131.08424043,-85.23817614,51.30622480,-83.13960830,-80.45680875,58.31920578
-41.91318452,45.90182581,55.32907209,34.55862133,1.01434590,-0.51716841,-0.81750942

>  <Name>
ligand

>  <RI>
0

>  <Rbt.Current_Directory>
/home/itssahil/PROJECTS/Mol_Feturizer/New_Systems/rnas/3GX7

>  <Rbt.Executable>
rbdock ($Id: //depot/dev/client3/rdock/2013.1/src/exe/rbdock.cxx#4 $)

>  <Rbt.Library>
libRbt.so (2013.1, Build901 2013/11/27)

>  <Rbt.Parameter_File>
/export/apps/rDock/src/rDock_2013.1_src/data/scripts/dock_solv.prm

>  <Rbt.Receptor>
prm/pocket_docking_8.prm

>  <SCORE>
-21.5168

>  <SCORE.INTER>
-17.7075

>  <SCORE.INTER.CONST>
1

>  <SCORE.INTER.POLAR>
0

>  <SCORE.INTER.ROT>
7

>  <SCORE.INTER.SOLV>
11.4403

>  <SCORE.INTER.VDW>
-23.8851

>  <SCORE.INTER.norm>
-0.655833

>  <SCORE.INTRA>
-3.80933

>  <SCORE.INTRA.DIHEDRAL>
-4.58033

>  <SCORE.INTRA.DIHEDRAL.0>
11.2699

>  <SCORE.INTRA.POLAR>
0

>  <SCORE.INTRA.POLAR.0>
0

>  <SCORE.INTRA.REPUL>
0

>  <SCORE.INTRA.REPUL.0>
0

>  <SCORE.INTRA.SOLV>
1.76205

>  <SCORE.INTRA.SOLV.lig_0>
-48.6447

>  <SCORE.INTRA.VDW>
-2.40019

>  <SCORE.INTRA.VDW.0>
-0.0211724

>  <SCORE.INTRA.norm>
-0.141086

>  <SCORE.RESTR>
0

>  <SCORE.RESTR.CAVITY>
0

>  <SCORE.RESTR.norm>
0

>  <SCORE.SYSTEM>
0

>  <SCORE.SYSTEM.CONST>
0

>  <SCORE.SYSTEM.DIHEDRAL>
0

>  <SCORE.SYSTEM.SOLV>
0

>  <SCORE.SYSTEM.norm>
0

>  <SCORE.heavy>
27

>  <SCORE.norm>
-0.796919

>  <RMSD>
6.495

$$$$
ligand
 OpenBabel11021811483D
libRbt.so/2013.1/901 2013/11/27
 27 29  0  0  0  0  0  0  0  0999 V2000
   50.1496   52.9657   27.3140 N   0  0  0  0  0  0  0  0  0  0  0  0
   49.9769   52.8417   28.7564 C   0  0  2  0  0  0  0  0  0  0  0  0
   48.6970   52.0889   29.0797 C   0  0  0  0  0  0  0  0  0  0  0  0
   47.6567   52.3444   28.4777 O   0  0  0  0  0  0  0  0  0  0  0  0
   49.9812   54.2037   29.4491 C   0  0  0  0  0  0  0  0  0  0  0  0
   49.8678   54.1493   30.9679 C   0  0  0  0  0  0  0  0  0  0  0  0
   48.1952   53.8155   31.5862 S   0  0  2  0  0  0  0  0  0  0  0  0
   47.3927   55.4133   31.3070 C   0  0  0  0  0  0  0  0  0  0  0  0
   48.4870   53.8988   33.3728 C   0  0  0  0  0  0  0  0  0  0  0  0
   47.2542   53.4097   34.1181 C   0  0  1  0  0  0  0  0  0  0  0  0
   47.6513   53.0033   35.4055 O   0  0  0  0  0  0  0  0  0  0  0  0
   46.1968   54.4701   34.3503 C   0  0  1  0  0  0  0  0  0  0  0  0
   45.1927   54.3819   33.3689 O   0  0  0  0  0  0  0  0  0  0  0  0
   45.6420   54.1267   35.7209 C   0  0  1  0  0  0  0  0  0  0  0  0
   44.3788   53.5227   35.5725 O   0  0  0  0  0  0  0  0  0  0  0  0
   46.6187   53.1398   36.3481 C   0  0  2  0  0  0  0  0  0  0  0  0
   48.6825   51.2109   29.9430 O   0  0  0  0  0  0  0  0  0  0  0  0
   46.1399   53.6828   41.5596 N   0  0  0  0  0  0  0  0  0  0  0  0
   45.3297   52.9749   40.6950 C   0  0  0  0  0  0  0  0  0  0  0  0
   45.6095   52.9432   39.3411 N   0  0  0  0  0  0  0  0  0  0  0  0
   46.6742   53.6107   38.8447 C   0  0  0  0  0  0  0  0  0  0  0  0
   47.5061   54.3227   39.6961 C   0  0  0  0  0  0  0  0  0  0  0  0
   47.2318   54.3611   41.0606 C   0  0  0  0  0  0  0  0  0  0  0  0
   48.0148   55.0443   41.8915 N   0  0  0  0  0  0  0  0  0  0  0  0
   48.4849   54.8750   38.9452 N   0  0  0  0  0  0  0  0  0  0  0  0
   48.2986   54.5181   37.6526 C   0  0  0  0  0  0  0  0  0  0  0  0
   47.1780   53.7332   37.5744 N   0  0  0  0  0  0  0  0  0  0  0  0
  2  1  1  6  0  0  0
  2  3  1  0  0  0  0
  2  5  1  0  0  0  0
  3  4  1  0  0  0  0
  3 17  1  0  0  0  0
  5  6  1  0  0  0  0
  7  6  1  6  0  0  0
  7  8  1  0  0  0  0
  7  9  1  0  0  0  0
 10  9  1  1  0  0  0
 10 11  1  0  0  0  0
 10 12  1  0  0  0  0
 11 16  1  0  0  0  0
 12 13  1  6  0  0  0
 12 14  1  0  0  0  0
 14 15  1  6  0  0  0
 14 16  1  0  0  0  0
 16 27  1  1  0  0  0
 18 19  2  0  0  0  0
 18 23  1  0  0  0  0
 19 20  1  0  0  0  0
 20 21  2  0  0  0  0
 21 22  1  0  0  0  0
 21 27  1  0  0  0  0
 22 23  2  0  0  0  0
 22 25  1  0  0  0  0
 23 24  1  0  0  0  0
 25 26  2  0  0  0  0
 26 27  1  0  0  0  0
M  END
>  <CHROM.1>
-44.04466944,-177.38057668,-76.97326227,-74.88772268,-170.27158135,157.92680541
-155.46421582,47.52268953,53.66184035,34.60343007,-1.36238935,0.18057011
1.45075243

>  <Name>
ligand

>  <RI>
0

>  <Rbt.Current_Directory>
/home/itssahil/PROJECTS/Mol_Feturizer/New_Systems/rnas/3GX7

>  <Rbt.Executable>
rbdock ($Id: //depot/dev/client3/rdock/2013.1/src/exe/rbdock.cxx#4 $)

>  <Rbt.Library>
libRbt.so (2013.1, Build901 2013/11/27)

>  <Rbt.Parameter_File>
/export/apps/rDock/src/rDock_2013.1_src/data/scripts/dock_solv.prm

>  <Rbt.Receptor>
prm/pocket_docking_8.prm

>  <SCORE>
-20.9708

>  <SCORE.INTER>
-15.3894

>  <SCORE.INTER.CONST>
1

>  <SCORE.INTER.POLAR>
0

>  <SCORE.INTER.ROT>
7

>  <SCORE.INTER.SOLV>
12.9127

>  <SCORE.INTER.VDW>
-22.8305

>  <SCORE.INTER.norm>
-0.569977

>  <SCORE.INTRA>
-5.58138

>  <SCORE.INTRA.DIHEDRAL>
-4.51874

>  <SCORE.INTRA.DIHEDRAL.0>
11.2699

>  <SCORE.INTRA.POLAR>
0

>  <SCORE.INTRA.POLAR.0>
0

>  <SCORE.INTRA.REPUL>
0

>  <SCORE.INTRA.REPUL.0>
0

>  <SCORE.INTRA.SOLV>
-0.761011

>  <SCORE.INTRA.SOLV.lig_0>
-48.6447

>  <SCORE.INTRA.VDW>
-2.9415

>  <SCORE.INTRA.VDW.0>
-0.0211724

>  <SCORE.INTRA.norm>
-0.206718

>  <SCORE.RESTR>
0

>  <SCORE.RESTR.CAVITY>
0

>  <SCORE.RESTR.norm>
0

>  <SCORE.SYSTEM>
0

>  <SCORE.SYSTEM.CONST>
0

>  <SCORE.SYSTEM.DIHEDRAL>
0

>  <SCORE.SYSTEM.SOLV>
0

>  <SCORE.SYSTEM.norm>
0

>  <SCORE.heavy>
27

>  <SCORE.norm>
-0.776695

>  <RMSD>
6.501

$$$$
ligand
 OpenBabel11021811483D
libRbt.so/2013.1/901 2013/11/27
 27 29  0  0  0  0  0  0  0  0999 V2000
   49.5440   55.3841   32.1124 N   0  0  0  0  0  0  0  0  0  0  0  0
   48.8780   55.0407   33.3630 C   0  0  2  0  0  0  0  0  0  0  0  0
   47.6451   54.1927   33.0977 C   0  0  0  0  0  0  0  0  0  0  0  0
   47.2049   53.4463   33.9690 O   0  0  0  0  0  0  0  0  0  0  0  0
   48.5038   56.2841   34.1686 C   0  0  0  0  0  0  0  0  0  0  0  0
   47.6874   57.3196   33.4045 C   0  0  0  0  0  0  0  0  0  0  0  0
   48.6364   58.2830   32.1951 S   0  0  2  0  0  0  0  0  0  0  0  0
   49.8147   59.1352   33.2722 C   0  0  0  0  0  0  0  0  0  0  0  0
   47.4653   59.6242   31.8579 C   0  0  0  0  0  0  0  0  0  0  0  0
   46.5818   59.2501   30.6773 C   0  0  1  0  0  0  0  0  0  0  0  0
   47.4035   59.0923   29.5458 O   0  0  0  0  0  0  0  0  0  0  0  0
   45.8600   57.9259   30.8255 C   0  0  1  0  0  0  0  0  0  0  0  0
   44.5446   58.1345   31.2784 O   0  0  0  0  0  0  0  0  0  0  0  0
   45.8614   57.3590   29.4174 C   0  0  1  0  0  0  0  0  0  0  0  0
   44.5760   57.4981   28.8597 O   0  0  0  0  0  0  0  0  0  0  0  0
   46.8648   58.1831   28.6203 C   0  0  2  0  0  0  0  0  0  0  0  0
   47.0666   54.2430   32.0118 O   0  0  0  0  0  0  0  0  0  0  0  0
   48.7906   55.3885   24.5996 N   0  0  0  0  0  0  0  0  0  0  0  0
   47.6425   56.1536   24.6377 C   0  0  0  0  0  0  0  0  0  0  0  0
   47.2871   56.8257   25.7929 N   0  0  0  0  0  0  0  0  0  0  0  0
   48.0534   56.7365   26.9020 C   0  0  0  0  0  0  0  0  0  0  0  0
   49.2153   55.9791   26.8842 C   0  0  0  0  0  0  0  0  0  0  0  0
   49.5808   55.2982   25.7260 C   0  0  0  0  0  0  0  0  0  0  0  0
   50.6882   54.5615   25.6926 N   0  0  0  0  0  0  0  0  0  0  0  0
   49.7852   56.0745   28.1062 N   0  0  0  0  0  0  0  0  0  0  0  0
   49.0228   56.8801   28.8826 C   0  0  0  0  0  0  0  0  0  0  0  0
   47.9438   57.2987   28.1488 N   0  0  0  0  0  0  0  0  0  0  0  0
  2  1  1  6  0  0  0
  2  3  1  0  0  0  0
  2  5  1  0  0  0  0
  3  4  1  0  0  0  0
  3 17  1  0  0  0  0
  5  6  1  0  0  0  0
  7  6  1  1  0  0  0
  7  8  1  0  0  0  0
  7  9  1  0  0  0  0
 10  9  1  1  0  0  0
 10 11  1  0  0  0  0
 10 12  1  0  0  0  0
 11 16  1  0  0  0  0
 12 13  1  6  0  0  0
 12 14  1  0  0  0  0
 14 15  1  6  0  0  0
 14 16  1  0  0  0  0
 16 27  1  1  0  0  0
 18 19  2  0  0  0  0
 18 23  1  0  0  0  0
 19 20  1  0  0  0  0
 20 21  2  0  0  0  0
 21 22  1  0  0  0  0
 21 27  1  0  0  0  0
 22 23  2  0  0  0  0
 22 25  1  0  0  0  0
 23 24  1  0  0  0  0
 25 26  2  0  0  0  0
 26 27  1  0  0  0  0
M  END
>  <CHROM.1>
155.85838532,53.44792598,-74.43896545,-62.82887636,-91.39344887,-62.25727675
-147.67405506,47.84790240,56.81366534,29.98958342,-1.74706471,0.96148658
-1.51616543

>  <Name>
ligand

>  <RI>
0

>  <Rbt.Current_Directory>
/home/itssahil/PROJECTS/Mol_Feturizer/New_Systems/rnas/3GX7

>  <Rbt.Executable>
rbdock ($Id: //depot/dev/client3/rdock/2013.1/src/exe/rbdock.cxx#4 $)

>  <Rbt.Library>
libRbt.so (2013.1, Build901 2013/11/27)

>  <Rbt.Parameter_File>
/export/apps/rDock/src/rDock_2013.1_src/data/scripts/dock_solv.prm

>  <Rbt.Receptor>
prm/pocket_docking_5.prm

>  <SCORE>
-18.9726

>  <SCORE.INTER>
-13.9248

>  <SCORE.INTER.CONST>
1

>  <SCORE.INTER.POLAR>
0

>  <SCORE.INTER.ROT>
7

>  <SCORE.INTER.SOLV>
11.7259

>  <SCORE.INTER.VDW>
-21.4585

>  <SCORE.INTER.norm>
-0.515733

>  <SCORE.INTRA>
-5.0478

>  <SCORE.INTRA.DIHEDRAL>
-5.67505

>  <SCORE.INTRA.DIHEDRAL.0>
11.2699

>  <SCORE.INTRA.POLAR>
0

>  <SCORE.INTRA.POLAR.0>
0

>  <SCORE.INTRA.REPUL>
0

>  <SCORE.INTRA.REPUL.0>
0

>  <SCORE.INTRA.SOLV>
1.87475

>  <SCORE.INTRA.SOLV.lig_0>
-48.6447

>  <SCORE.INTRA.VDW>
-3.14765

>  <SCORE.INTRA.VDW.0>
-0.0211724

>  <SCORE.INTRA.norm>
-0.186956

>  <SCORE.RESTR>
0

>  <SCORE.RESTR.CAVITY>
0

>  <SCORE.RESTR.norm>
0

>  <SCORE.SYSTEM>
0

>  <SCORE.SYSTEM.CONST>
0

>  <SCORE.SYSTEM.DIHEDRAL>
0

>  <SCORE.SYSTEM.SOLV>
0

>  <SCORE.SYSTEM.norm>
0

>  <SCORE.heavy>
27

>  <SCORE.norm>
-0.702689

>  <RMSD>
6.508

$$$$
ligand
 OpenBabel11021811483D
libRbt.so/2013.1/901 2013/11/27
 27 29  0  0  0  0  0  0  0  0999 V2000
   44.4806   54.0361   34.9824 N   0  0  0  0  0  0  0  0  0  0  0  0
   45.6825   53.2754   34.6626 C   0  0  2  0  0  0  0  0  0  0  0  0
   46.4742   52.9701   35.9234 C   0  0  0  0  0  0  0  0  0  0  0  0
   47.6669   52.6829   35.8540 O   0  0  0  0  0  0  0  0  0  0  0  0
   46.5622   54.0020   33.6462 C   0  0  0  0  0  0  0  0  0  0  0  0
   46.8444   55.4635   33.9734 C   0  0  0  0  0  0  0  0  0  0  0  0
   48.4045   56.0980   33.2990 S   0  0  2  0  0  0  0  0  0  0  0  0
   49.5997   55.4038   34.4672 C   0  0  0  0  0  0  0  0  0  0  0  0
   48.3339   57.8139   33.8774 C   0  0  0  0  0  0  0  0  0  0  0  0
   47.9856   58.7334   32.7164 C   0  0  1  0  0  0  0  0  0  0  0  0
   48.8589   58.4463   31.6509 O   0  0  0  0  0  0  0  0  0  0  0  0
   46.5950   58.5320   32.1489 C   0  0  1  0  0  0  0  0  0  0  0  0
   45.7046   59.4768   32.6909 O   0  0  0  0  0  0  0  0  0  0  0  0
   46.7808   58.7595   30.6596 C   0  0  1  0  0  0  0  0  0  0  0  0
   46.2634   60.0228   30.3148 O   0  0  0  0  0  0  0  0  0  0  0  0
   48.2819   58.7253   30.4008 C   0  0  2  0  0  0  0  0  0  0  0  0
   45.9371   53.0102   37.0308 O   0  0  0  0  0  0  0  0  0  0  0  0
   47.5807   56.6948   25.5978 N   0  0  0  0  0  0  0  0  0  0  0  0
   47.0780   57.8737   26.1101 C   0  0  0  0  0  0  0  0  0  0  0  0
   47.3679   58.2528   27.4081 N   0  0  0  0  0  0  0  0  0  0  0  0
   48.1397   57.4715   28.1950 C   0  0  0  0  0  0  0  0  0  0  0  0
   48.6614   56.2860   27.6986 C   0  0  0  0  0  0  0  0  0  0  0  0
   48.3743   55.8957   26.3933 C   0  0  0  0  0  0  0  0  0  0  0  0
   48.8604   54.7586   25.9024 N   0  0  0  0  0  0  0  0  0  0  0  0
   49.3959   55.7185   28.6812 N   0  0  0  0  0  0  0  0  0  0  0  0
   49.3611   56.5201   29.7717 C   0  0  0  0  0  0  0  0  0  0  0  0
   48.5848   57.6124   29.4852 N   0  0  0  0  0  0  0  0  0  0  0  0
  2  1  1  1  0  0  0
  2  3  1  0  0  0  0
  2  5  1  0  0  0  0
  3  4  1  0  0  0  0
  3 17  1  0  0  0  0
  5  6  1  0  0  0  0
  7  6  1  1  0  0  0
  7  8  1  0  0  0  0
  7  9  1  0  0  0  0
 10  9  1  1  0  0  0
 10 11  1  0  0  0  0
 10 12  1  0  0  0  0
 11 16  1  0  0  0  0
 12 13  1  1  0  0  0
 12 14  1  0  0  0  0
 14 15  1  1  0  0  0
 14 16  1  0  0  0  0
 16 27  1  6  0  0  0
 18 19  2  0  0  0  0
 18 23  1  0  0  0  0
 19 20  1  0  0  0  0
 20 21  2  0  0  0  0
 21 22  1  0  0  0  0
 21 27  1  0  0  0  0
 22 23  2  0  0  0  0
 22 25  1  0  0  0  0
 23 24  1  0  0  0  0
 25 26  2  0  0  0  0
 26 27  1  0  0  0  0
M  END
>  <CHROM.1>
-159.53015229,49.13617090,152.79511223,-77.88444890,-104.87226803,-50.85147912
176.24854697,47.57017826,56.44579523,31.46138721,-2.36975200,1.35433785,-0.39775845

>  <Name>
ligand

>  <RI>
0

>  <Rbt.Current_Directory>
/home/itssahil/PROJECTS/Mol_Feturizer/New_Systems/rnas/3GX7

>  <Rbt.Executable>
rbdock ($Id: //depot/dev/client3/rdock/2013.1/src/exe/rbdock.cxx#4 $)

>  <Rbt.Library>
libRbt.so (2013.1, Build901 2013/11/27)

>  <Rbt.Parameter_File>
/export/apps/rDock/src/rDock_2013.1_src/data/scripts/dock_solv.prm

>  <Rbt.Receptor>
prm/pocket_docking_3.prm

>  <SCORE>
-16.333

>  <SCORE.INTER>
-13.3952

>  <SCORE.INTER.CONST>
1

>  <SCORE.INTER.POLAR>
0

>  <SCORE.INTER.ROT>
7

>  <SCORE.INTER.SOLV>
10.0514

>  <SCORE.INTER.VDW>
-20.5473

>  <SCORE.INTER.norm>
-0.496118

>  <SCORE.INTRA>
-3.35667

>  <SCORE.INTRA.DIHEDRAL>
-1.78523

>  <SCORE.INTRA.DIHEDRAL.0>
11.2699

>  <SCORE.INTRA.POLAR>
0

>  <SCORE.INTRA.POLAR.0>
0

>  <SCORE.INTRA.REPUL>
0

>  <SCORE.INTRA.REPUL.0>
0

>  <SCORE.INTRA.SOLV>
-0.106431

>  <SCORE.INTRA.SOLV.lig_0>
-48.6447

>  <SCORE.INTRA.VDW>
-2.41084

>  <SCORE.INTRA.VDW.0>
-0.0211724

>  <SCORE.INTRA.norm>
-0.124321

>  <SCORE.RESTR>
0.418868

>  <SCORE.RESTR.CAVITY>
0.418868

>  <SCORE.RESTR.norm>
0.0155136

>  <SCORE.SYSTEM>
0

>  <SCORE.SYSTEM.CONST>
0

>  <SCORE.SYSTEM.DIHEDRAL>
0

>  <SCORE.SYSTEM.SOLV>
0

>  <SCORE.SYSTEM.norm>
0

>  <SCORE.heavy>
27

>  <SCORE.norm>
-0.604925

>  <RMSD>
6.509

$$$$
ligand
 OpenBabel11021811483D
libRbt.so/2013.1/901 2013/11/27
 27 29  0  0  0  0  0  0  0  0999 V2000
   47.9069   54.1819   22.2042 N   0  0  0  0  0  0  0  0  0  0  0  0
   48.0946   54.4366   23.6274 C   0  0  2  0  0  0  0  0  0  0  0  0
   49.5734   54.4554   23.9775 C   0  0  0  0  0  0  0  0  0  0  0  0
   50.2597   53.4468   23.8304 O   0  0  0  0  0  0  0  0  0  0  0  0
   47.3575   53.4137   24.4906 C   0  0  0  0  0  0  0  0  0  0  0  0
   47.4162   53.6811   25.9899 C   0  0  0  0  0  0  0  0  0  0  0  0
   46.4937   55.1471   26.5295 S   0  0  2  0  0  0  0  0  0  0  0  0
   47.6863   56.4616   26.1762 C   0  0  0  0  0  0  0  0  0  0  0  0
   46.6802   55.0045   28.3264 C   0  0  0  0  0  0  0  0  0  0  0  0
   46.0380   56.2044   29.0064 C   0  0  1  0  0  0  0  0  0  0  0  0
   44.6987   56.2855   28.5821 O   0  0  0  0  0  0  0  0  0  0  0  0
   45.9657   56.1081   30.5170 C   0  0  1  0  0  0  0  0  0  0  0  0
   47.0366   56.8072   31.1029 O   0  0  0  0  0  0  0  0  0  0  0  0
   44.6417   56.7700   30.8539 C   0  0  1  0  0  0  0  0  0  0  0  0
   44.8850   58.0512   31.3846 O   0  0  0  0  0  0  0  0  0  0  0  0
   43.8718   56.8883   29.5445 C   0  0  2  0  0  0  0  0  0  0  0  0
   50.1068   55.4785   24.4078 O   0  0  0  0  0  0  0  0  0  0  0  0
   41.7242   52.1793   30.4919 N   0  0  0  0  0  0  0  0  0  0  0  0
   43.0601   52.5264   30.4931 C   0  0  0  0  0  0  0  0  0  0  0  0
   43.4461   53.8256   30.2181 N   0  0  0  0  0  0  0  0  0  0  0  0
   42.5226   54.7708   29.9365 C   0  0  0  0  0  0  0  0  0  0  0  0
   41.1741   54.4460   29.9367 C   0  0  0  0  0  0  0  0  0  0  0  0
   40.7760   53.1404   30.2116 C   0  0  0  0  0  0  0  0  0  0  0  0
   39.4874   52.8090   30.2097 N   0  0  0  0  0  0  0  0  0  0  0  0
   40.4824   55.5686   29.6393 N   0  0  0  0  0  0  0  0  0  0  0  0
   41.3563   56.5881   29.4675 C   0  0  0  0  0  0  0  0  0  0  0  0
   42.6270   56.1082   29.6486 N   0  0  0  0  0  0  0  0  0  0  0  0
  2  1  1  6  0  0  0
  2  3  1  0  0  0  0
  2  5  1  0  0  0  0
  3  4  1  0  0  0  0
  3 17  1  0  0  0  0
  5  6  1  0  0  0  0
  7  6  1  6  0  0  0
  7  8  1  0  0  0  0
  7  9  1  0  0  0  0
 10  9  1  6  0  0  0
 10 11  1  0  0  0  0
 10 12  1  0  0  0  0
 11 16  1  0  0  0  0
 12 13  1  1  0  0  0
 12 14  1  0  0  0  0
 14 15  1  6  0  0  0
 14 16  1  0  0  0  0
 16 27  1  1  0  0  0
 18 19  2  0  0  0  0
 18 23  1  0  0  0  0
 19 20  1  0  0  0  0
 20 21  2  0  0  0  0
 21 22  1  0  0  0  0
 21 27  1  0  0  0  0
 22 23  2  0  0  0  0
 22 25  1  0  0  0  0
 23 24  1  0  0  0  0
 25 26  2  0  0  0  0
 26 27  1  0  0  0  0
M  END
>  <CHROM.1>
-63.00153285,-175.34856719,68.56771284,-82.29580499,176.63293797,55.46441477
56.56656047,45.20076340,55.03578737,28.05600261,0.55136378,-0.49818558,-2.27218718

>  <Name>
ligand

>  <RI>
0

>  <Rbt.Current_Directory>
/home/itssahil/PROJECTS/Mol_Feturizer/New_Systems/rnas/3GX7

>  <Rbt.Executable>
rbdock ($Id: //depot/dev/client3/rdock/2013.1/src/exe/rbdock.cxx#4 $)

>  <Rbt.Library>
libRbt.so (2013.1, Build901 2013/11/27)

>  <Rbt.Parameter_File>
/export/apps/rDock/src/rDock_2013.1_src/data/scripts/dock_solv.prm

>  <Rbt.Receptor>
prm/pocket_docking_8.prm

>  <SCORE>
-12.8494

>  <SCORE.INTER>
-5.95512

>  <SCORE.INTER.CONST>
1

>  <SCORE.INTER.POLAR>
0

>  <SCORE.INTER.ROT>
7

>  <SCORE.INTER.SOLV>
7.3925

>  <SCORE.INTER.VDW>
-14.7009

>  <SCORE.INTER.norm>
-0.22056

>  <SCORE.INTRA>
-6.89425

>  <SCORE.INTRA.DIHEDRAL>
-7.0824

>  <SCORE.INTRA.DIHEDRAL.0>
11.2699

>  <SCORE.INTRA.POLAR>
0

>  <SCORE.INTRA.POLAR.0>
0

>  <SCORE.INTRA.REPUL>
0

>  <SCORE.INTRA.REPUL.0>
0

>  <SCORE.INTRA.SOLV>
-0.82503

>  <SCORE.INTRA.SOLV.lig_0>
-48.6447

>  <SCORE.INTRA.VDW>
-2.94053

>  <SCORE.INTRA.VDW.0>
-0.0211724

>  <SCORE.INTRA.norm>
-0.255343

>  <SCORE.RESTR>
0

>  <SCORE.RESTR.CAVITY>
0

>  <SCORE.RESTR.norm>
0

>  <SCORE.SYSTEM>
0

>  <SCORE.SYSTEM.CONST>
0

>  <SCORE.SYSTEM.DIHEDRAL>
0

>  <SCORE.SYSTEM.SOLV>
0

>  <SCORE.SYSTEM.norm>
0

>  <SCORE.heavy>
27

>  <SCORE.norm>
-0.475903

>  <RMSD>
6.514

$$$$
ligand
 OpenBabel11021811483D
libRbt.so/2013.1/901 2013/11/27
 27 29  0  0  0  0  0  0  0  0999 V2000
   49.1341   58.0806   34.4017 N   0  0  0  0  0  0  0  0  0  0  0  0
   48.3448   57.1879   33.5617 C   0  0  2  0  0  0  0  0  0  0  0  0
   49.0950   55.8913   33.3055 C   0  0  0  0  0  0  0  0  0  0  0  0
   50.2066   55.7090   33.7965 O   0  0  0  0  0  0  0  0  0  0  0  0
   47.9562   57.8468   32.2390 C   0  0  0  0  0  0  0  0  0  0  0  0
   46.9098   57.0894   31.4301 C   0  0  0  0  0  0  0  0  0  0  0  0
   45.1939   57.4414   31.9023 S   0  0  2  0  0  0  0  0  0  0  0  0
   45.2260   59.2469   32.0209 C   0  0  0  0  0  0  0  0  0  0  0  0
   45.2418   56.9930   33.6574 C   0  0  0  0  0  0  0  0  0  0  0  0
   45.2938   55.4791   33.7996 C   0  0  1  0  0  0  0  0  0  0  0  0
   46.5212   55.1355   34.3962 O   0  0  0  0  0  0  0  0  0  0  0  0
   44.2361   54.8959   34.7148 C   0  0  1  0  0  0  0  0  0  0  0  0
   43.1449   54.4247   33.9622 O   0  0  0  0  0  0  0  0  0  0  0  0
   44.9525   53.7475   35.4020 C   0  0  1  0  0  0  0  0  0  0  0  0
   44.5178   52.5295   34.8453 O   0  0  0  0  0  0  0  0  0  0  0  0
   46.4392   53.9408   35.1306 C   0  0  2  0  0  0  0  0  0  0  0  0
   48.6014   55.0041   32.6086 O   0  0  0  0  0  0  0  0  0  0  0  0
   46.2818   53.2573   40.3452 N   0  0  0  0  0  0  0  0  0  0  0  0
   45.3315   52.9077   39.4073 C   0  0  0  0  0  0  0  0  0  0  0  0
   45.5433   53.1675   38.0657 N   0  0  0  0  0  0  0  0  0  0  0  0
   46.6786   53.7741   37.6550 C   0  0  0  0  0  0  0  0  0  0  0  0
   47.6504   54.1278   38.5794 C   0  0  0  0  0  0  0  0  0  0  0  0
   47.4456   53.8710   39.9325 C   0  0  0  0  0  0  0  0  0  0  0  0
   48.3637   54.2093   40.8341 N   0  0  0  0  0  0  0  0  0  0  0  0
   48.6714   54.6987   37.9022 N   0  0  0  0  0  0  0  0  0  0  0  0
   48.3739   54.6994   36.5815 C   0  0  0  0  0  0  0  0  0  0  0  0
   47.1396   54.1288   36.4124 N   0  0  0  0  0  0  0  0  0  0  0  0
  2  1  1  6  0  0  0
  2  3  1  0  0  0  0
  2  5  1  0  0  0  0
  3  4  1  0  0  0  0
  3 17  1  0  0  0  0
  5  6  1  0  0  0  0
  7  6  1  6  0  0  0
  7  8  1  0  0  0  0
  7  9  1  0  0  0  0
 10  9  1  1  0  0  0
 10 11  1  0  0  0  0
 10 12  1  0  0  0  0
 11 16  1  0  0  0  0
 12 13  1  6  0  0  0
 12 14  1  0  0  0  0
 14 15  1  6  0  0  0
 14 16  1  0  0  0  0
 16 27  1  1  0  0  0
 18 19  2  0  0  0  0
 18 23  1  0  0  0  0
 19 20  1  0  0  0  0
 20 21  2  0  0  0  0
 21 22  1  0  0  0  0
 21 27  1  0  0  0  0
 22 23  2  0  0  0  0
 22 25  1  0  0  0  0
 23 24  1  0  0  0  0
 25 26  2  0  0  0  0
 26 27  1  0  0  0  0
M  END
>  <CHROM.1>
0.70156140,-168.50691394,84.77815155,45.71922065,-73.59460274,115.76022023
133.39403085,46.66945007,55.29768530,35.17459235,-1.61482827,0.31084102,2.08870160

>  <Name>
ligand

>  <RI>
0

>  <Rbt.Current_Directory>
/home/itssahil/PROJECTS/Mol_Feturizer/New_Systems/rnas/3GX7

>  <Rbt.Executable>
rbdock ($Id: //depot/dev/client3/rdock/2013.1/src/exe/rbdock.cxx#4 $)

>  <Rbt.Library>
libRbt.so (2013.1, Build901 2013/11/27)

>  <Rbt.Parameter_File>
/export/apps/rDock/src/rDock_2013.1_src/data/scripts/dock_solv.prm

>  <Rbt.Receptor>
prm/pocket_docking_8.prm

>  <SCORE>
-16.9646

>  <SCORE.INTER>
-15.1567

>  <SCORE.INTER.CONST>
1

>  <SCORE.INTER.POLAR>
0

>  <SCORE.INTER.ROT>
7

>  <SCORE.INTER.SOLV>
16.4032

>  <SCORE.INTER.VDW>
-23.8388

>  <SCORE.INTER.norm>
-0.561358

>  <SCORE.INTRA>
-1.80797

>  <SCORE.INTRA.DIHEDRAL>
-0.248789

>  <SCORE.INTRA.DIHEDRAL.0>
11.2699

>  <SCORE.INTRA.POLAR>
0

>  <SCORE.INTRA.POLAR.0>
0

>  <SCORE.INTRA.REPUL>
0

>  <SCORE.INTRA.REPUL.0>
0

>  <SCORE.INTRA.SOLV>
0.234915

>  <SCORE.INTRA.SOLV.lig_0>
-48.6447

>  <SCORE.INTRA.VDW>
-1.80103

>  <SCORE.INTRA.VDW.0>
-0.0211724

>  <SCORE.INTRA.norm>
-0.0669619

>  <SCORE.RESTR>
0

>  <SCORE.RESTR.CAVITY>
0

>  <SCORE.RESTR.norm>
0

>  <SCORE.SYSTEM>
0

>  <SCORE.SYSTEM.CONST>
0

>  <SCORE.SYSTEM.DIHEDRAL>
0

>  <SCORE.SYSTEM.SOLV>
0

>  <SCORE.SYSTEM.norm>
0

>  <SCORE.heavy>
27

>  <SCORE.norm>
-0.62832

>  <RMSD>
6.528

$$$$
ligand
 OpenBabel11021811483D
libRbt.so/2013.1/901 2013/11/27
 27 29  0  0  0  0  0  0  0  0999 V2000
   47.5855   53.8344   34.1345 N   0  0  0  0  0  0  0  0  0  0  0  0
   46.4284   54.3960   34.8210 C   0  0  2  0  0  0  0  0  0  0  0  0
   45.5442   53.2899   35.3727 C   0  0  0  0  0  0  0  0  0  0  0  0
   44.9496   52.5312   34.6107 O   0  0  0  0  0  0  0  0  0  0  0  0
   45.6189   55.3184   33.9107 C   0  0  0  0  0  0  0  0  0  0  0  0
   46.1184   56.7570   33.8505 C   0  0  0  0  0  0  0  0  0  0  0  0
   47.7962   56.9439   33.1861 S   0  0  2  0  0  0  0  0  0  0  0  0
   48.7960   56.5203   34.6338 C   0  0  0  0  0  0  0  0  0  0  0  0
   47.9492   58.7496   33.1945 C   0  0  0  0  0  0  0  0  0  0  0  0
   47.3732   59.3200   31.9071 C   0  0  1  0  0  0  0  0  0  0  0  0
   48.2945   59.0826   30.8702 O   0  0  0  0  0  0  0  0  0  0  0  0
   46.0874   58.6630   31.4471 C   0  0  1  0  0  0  0  0  0  0  0  0
   44.9768   59.4245   31.8545 O   0  0  0  0  0  0  0  0  0  0  0  0
   46.2108   58.6572   29.9342 C   0  0  1  0  0  0  0  0  0  0  0  0
   45.3782   59.6574   29.3966 O   0  0  0  0  0  0  0  0  0  0  0  0
   47.6681   58.9699   29.6179 C   0  0  2  0  0  0  0  0  0  0  0  0
   45.4136   53.1333   36.5872 O   0  0  0  0  0  0  0  0  0  0  0  0
   50.2296   54.3922   30.0266 N   0  0  0  0  0  0  0  0  0  0  0  0
   49.8208   55.2373   31.0384 C   0  0  0  0  0  0  0  0  0  0  0  0
   49.1536   56.4119   30.7427 N   0  0  0  0  0  0  0  0  0  0  0  0
   48.8999   56.7528   29.4601 C   0  0  0  0  0  0  0  0  0  0  0  0
   49.2952   55.9151   28.4278 C   0  0  0  0  0  0  0  0  0  0  0  0
   49.9684   54.7308   28.7157 C   0  0  0  0  0  0  0  0  0  0  0  0
   50.3611   53.9182   27.7381 N   0  0  0  0  0  0  0  0  0  0  0  0
   48.9087   56.4868   27.2655 N   0  0  0  0  0  0  0  0  0  0  0  0
   48.2711   57.6489   27.5407 C   0  0  0  0  0  0  0  0  0  0  0  0
   48.2579   57.8278   28.8992 N   0  0  0  0  0  0  0  0  0  0  0  0
  2  1  1  6  0  0  0
  2  3  1  0  0  0  0
  2  5  1  0  0  0  0
  3  4  1  0  0  0  0
  3 17  1  0  0  0  0
  5  6  1  0  0  0  0
  7  6  1  1  0  0  0
  7  8  1  0  0  0  0
  7  9  1  0  0  0  0
 10  9  1  1  0  0  0
 10 11  1  0  0  0  0
 10 12  1  0  0  0  0
 11 16  1  0  0  0  0
 12 13  1  6  0  0  0
 12 14  1  0  0  0  0
 14 15  1  6  0  0  0
 14 16  1  0  0  0  0
 16 27  1  6  0  0  0
 18 19  2  0  0  0  0
 18 23  1  0  0  0  0
 19 20  1  0  0  0  0
 20 21  2  0  0  0  0
 21 22  1  0  0  0  0
 21 27  1  0  0  0  0
 22 23  2  0  0  0  0
 22 25  1  0  0  0  0
 23 24  1  0  0  0  0
 25 26  2  0  0  0  0
 26 27  1  0  0  0  0
M  END
>  <CHROM.1>
-66.33922557,-85.13645830,62.31874347,-80.20030526,-86.15570381,-75.64510770
23.17241188,47.55077029,56.50282405,31.61164987,-2.15520109,0.92357447,-0.63639676

>  <Name>
ligand

>  <RI>
0

>  <Rbt.Current_Directory>
/home/itssahil/PROJECTS/Mol_Feturizer/New_Systems/rnas/3GX7

>  <Rbt.Executable>
rbdock ($Id: //depot/dev/client3/rdock/2013.1/src/exe/rbdock.cxx#4 $)

>  <Rbt.Library>
libRbt.so (2013.1, Build901 2013/11/27)

>  <Rbt.Parameter_File>
/export/apps/rDock/src/rDock_2013.1_src/data/scripts/dock_solv.prm

>  <Rbt.Receptor>
prm/pocket_docking_3.prm

>  <SCORE>
-16.3654

>  <SCORE.INTER>
-12.9308

>  <SCORE.INTER.CONST>
1

>  <SCORE.INTER.POLAR>
0

>  <SCORE.INTER.ROT>
7

>  <SCORE.INTER.SOLV>
9.3093

>  <SCORE.INTER.VDW>
-19.9903

>  <SCORE.INTER.norm>
-0.478918

>  <SCORE.INTRA>
-3.43801

>  <SCORE.INTRA.DIHEDRAL>
-3.78092

>  <SCORE.INTRA.DIHEDRAL.0>
11.2699

>  <SCORE.INTRA.POLAR>
0

>  <SCORE.INTRA.POLAR.0>
0

>  <SCORE.INTRA.REPUL>
0

>  <SCORE.INTRA.REPUL.0>
0

>  <SCORE.INTRA.SOLV>
2.1587

>  <SCORE.INTRA.SOLV.lig_0>
-48.6447

>  <SCORE.INTRA.VDW>
-2.6269

>  <SCORE.INTRA.VDW.0>
-0.0211724

>  <SCORE.INTRA.norm>
-0.127334

>  <SCORE.RESTR>
0.00338146

>  <SCORE.RESTR.CAVITY>
0.00338146

>  <SCORE.RESTR.norm>
0.000125239

>  <SCORE.SYSTEM>
0

>  <SCORE.SYSTEM.CONST>
0

>  <SCORE.SYSTEM.DIHEDRAL>
0

>  <SCORE.SYSTEM.SOLV>
0

>  <SCORE.SYSTEM.norm>
0

>  <SCORE.heavy>
27

>  <SCORE.norm>
-0.606127

>  <RMSD>
6.546

$$$$
ligand
 OpenBabel11021811483D
libRbt.so/2013.1/901 2013/11/27
 27 29  0  0  0  0  0  0  0  0999 V2000
   47.9775   53.6613   29.4881 N   0  0  0  0  0  0  0  0  0  0  0  0
   49.4291   53.7825   29.5500 C   0  0  2  0  0  0  0  0  0  0  0  0
   50.0940   52.6524   28.7818 C   0  0  0  0  0  0  0  0  0  0  0  0
   51.2710   52.7414   28.4402 O   0  0  0  0  0  0  0  0  0  0  0  0
   49.9364   53.8155   30.9910 C   0  0  0  0  0  0  0  0  0  0  0  0
   49.5844   55.0807   31.7644 C   0  0  0  0  0  0  0  0  0  0  0  0
   47.8452   55.1957   32.2676 S   0  0  2  0  0  0  0  0  0  0  0  0
   47.8376   56.7786   33.1446 C   0  0  0  0  0  0  0  0  0  0  0  0
   47.8349   54.0423   33.6653 C   0  0  0  0  0  0  0  0  0  0  0  0
   46.4032   53.6461   33.9939 C   0  0  1  0  0  0  0  0  0  0  0  0
   46.4243   52.8363   35.1447 O   0  0  0  0  0  0  0  0  0  0  0  0
   45.4941   54.8059   34.3470 C   0  0  1  0  0  0  0  0  0  0  0  0
   44.7438   55.1981   33.2236 O   0  0  0  0  0  0  0  0  0  0  0  0
   44.5909   54.2358   35.4257 C   0  0  1  0  0  0  0  0  0  0  0  0
   43.3201   53.9762   34.8778 O   0  0  0  0  0  0  0  0  0  0  0  0
   45.2341   52.9331   35.8845 C   0  0  2  0  0  0  0  0  0  0  0  0
   49.4685   51.6313   28.4946 O   0  0  0  0  0  0  0  0  0  0  0  0
   48.6260   54.8209   39.4362 N   0  0  0  0  0  0  0  0  0  0  0  0
   48.6660   54.9488   38.0625 C   0  0  0  0  0  0  0  0  0  0  0  0
   47.6797   54.3800   37.2775 N   0  0  0  0  0  0  0  0  0  0  0  0
   46.6685   53.6848   37.8429 C   0  0  0  0  0  0  0  0  0  0  0  0
   46.6045   53.5497   39.2218 C   0  0  0  0  0  0  0  0  0  0  0  0
   47.5934   54.1182   40.0203 C   0  0  0  0  0  0  0  0  0  0  0  0
   47.5520   53.9931   41.3443 N   0  0  0  0  0  0  0  0  0  0  0  0
   45.4992   52.8277   39.5118 N   0  0  0  0  0  0  0  0  0  0  0  0
   44.8626   52.5199   38.3573 C   0  0  0  0  0  0  0  0  0  0  0  0
   45.5768   53.0450   37.3124 N   0  0  0  0  0  0  0  0  0  0  0  0
  2  1  1  1  0  0  0
  2  3  1  0  0  0  0
  2  5  1  0  0  0  0
  3  4  1  0  0  0  0
  3 17  1  0  0  0  0
  5  6  1  0  0  0  0
  7  6  1  1  0  0  0
  7  8  1  0  0  0  0
  7  9  1  0  0  0  0
 10  9  1  1  0  0  0
 10 11  1  0  0  0  0
 10 12  1  0  0  0  0
 11 16  1  0  0  0  0
 12 13  1  6  0  0  0
 12 14  1  0  0  0  0
 14 15  1  6  0  0  0
 14 16  1  0  0  0  0
 16 27  1  1  0  0  0
 18 19  2  0  0  0  0
 18 23  1  0  0  0  0
 19 20  1  0  0  0  0
 20 21  2  0  0  0  0
 21 22  1  0  0  0  0
 21 27  1  0  0  0  0
 22 23  2  0  0  0  0
 22 25  1  0  0  0  0
 23 24  1  0  0  0  0
 25 26  2  0  0  0  0
 26 27  1  0  0  0  0
M  END
>  <CHROM.1>
162.42586830,-69.44963156,73.87011506,179.47043077,-162.89036211,-175.46550738
34.41432541,47.32029435,53.94743525,34.48874469,1.25611154,-0.01236028,-1.60351719

>  <Name>
ligand

>  <RI>
0

>  <Rbt.Current_Directory>
/home/itssahil/PROJECTS/Mol_Feturizer/New_Systems/rnas/3GX7

>  <Rbt.Executable>
rbdock ($Id: //depot/dev/client3/rdock/2013.1/src/exe/rbdock.cxx#4 $)

>  <Rbt.Library>
libRbt.so (2013.1, Build901 2013/11/27)

>  <Rbt.Parameter_File>
/export/apps/rDock/src/rDock_2013.1_src/data/scripts/dock_solv.prm

>  <Rbt.Receptor>
prm/pocket_docking_7.prm

>  <SCORE>
-20.5346

>  <SCORE.INTER>
-15.359

>  <SCORE.INTER.CONST>
1

>  <SCORE.INTER.POLAR>
0

>  <SCORE.INTER.ROT>
7

>  <SCORE.INTER.SOLV>
8.57871

>  <SCORE.INTER.VDW>
-21.3656

>  <SCORE.INTER.norm>
-0.568853

>  <SCORE.INTRA>
-5.17557

>  <SCORE.INTRA.DIHEDRAL>
-5.13387

>  <SCORE.INTRA.DIHEDRAL.0>
11.2699

>  <SCORE.INTRA.POLAR>
0

>  <SCORE.INTRA.POLAR.0>
0

>  <SCORE.INTRA.REPUL>
0

>  <SCORE.INTRA.REPUL.0>
0

>  <SCORE.INTRA.SOLV>
1.25567

>  <SCORE.INTRA.SOLV.lig_0>
-48.6447

>  <SCORE.INTRA.VDW>
-3.23647

>  <SCORE.INTRA.VDW.0>
-0.0211724

>  <SCORE.INTRA.norm>
-0.191688

>  <SCORE.RESTR>
0

>  <SCORE.RESTR.CAVITY>
0

>  <SCORE.RESTR.norm>
0

>  <SCORE.SYSTEM>
0

>  <SCORE.SYSTEM.CONST>
0

>  <SCORE.SYSTEM.DIHEDRAL>
0

>  <SCORE.SYSTEM.SOLV>
0

>  <SCORE.SYSTEM.norm>
0

>  <SCORE.heavy>
27

>  <SCORE.norm>
-0.760541

>  <RMSD>
6.562

$$$$
ligand
 OpenBabel11021811483D
libRbt.so/2013.1/901 2013/11/27
 27 29  0  0  0  0  0  0  0  0999 V2000
   42.4455   52.8926   30.9236 N   0  0  0  0  0  0  0  0  0  0  0  0
   42.9614   53.1295   32.2664 C   0  0  2  0  0  0  0  0  0  0  0  0
   42.8169   51.8827   33.1233 C   0  0  0  0  0  0  0  0  0  0  0  0
   43.0985   51.9143   34.3189 O   0  0  0  0  0  0  0  0  0  0  0  0
   42.2751   54.3180   32.9383 C   0  0  0  0  0  0  0  0  0  0  0  0
   42.5924   55.6738   32.3189 C   0  0  0  0  0  0  0  0  0  0  0  0
   44.3392   56.1545   32.4141 S   0  0  2  0  0  0  0  0  0  0  0  0
   44.5383   56.4020   34.1957 C   0  0  0  0  0  0  0  0  0  0  0  0
   44.2339   57.8735   31.8503 C   0  0  0  0  0  0  0  0  0  0  0  0
   45.5558   58.5809   32.1090 C   0  0  1  0  0  0  0  0  0  0  0  0
   46.5943   57.7612   31.6294 O   0  0  0  0  0  0  0  0  0  0  0  0
   45.7214   59.8949   31.3726 C   0  0  1  0  0  0  0  0  0  0  0  0
   45.3955   60.9723   32.2164 O   0  0  0  0  0  0  0  0  0  0  0  0
   47.1961   59.9192   31.0132 C   0  0  1  0  0  0  0  0  0  0  0  0
   47.8672   60.8158   31.8667 O   0  0  0  0  0  0  0  0  0  0  0  0
   47.7181   58.5048   31.2324 C   0  0  2  0  0  0  0  0  0  0  0  0
   42.4123   50.8263   32.6367 O   0  0  0  0  0  0  0  0  0  0  0  0
   50.3456   54.6380   28.8182 N   0  0  0  0  0  0  0  0  0  0  0  0
   50.0820   54.7821   30.1653 C   0  0  0  0  0  0  0  0  0  0  0  0
   49.3702   55.8744   30.6265 N   0  0  0  0  0  0  0  0  0  0  0  0
   48.9302   56.8194   29.7668 C   0  0  0  0  0  0  0  0  0  0  0  0
   49.1774   56.6912   28.4080 C   0  0  0  0  0  0  0  0  0  0  0  0
   49.8940   55.5953   27.9345 C   0  0  0  0  0  0  0  0  0  0  0  0
   50.1463   55.4593   26.6353 N   0  0  0  0  0  0  0  0  0  0  0  0
   48.6218   57.7563   27.7883 N   0  0  0  0  0  0  0  0  0  0  0  0
   48.0224   58.5386   28.7165 C   0  0  0  0  0  0  0  0  0  0  0  0
   48.2055   57.9700   29.9498 N   0  0  0  0  0  0  0  0  0  0  0  0
  2  1  1  6  0  0  0
  2  3  1  0  0  0  0
  2  5  1  0  0  0  0
  3  4  1  0  0  0  0
  3 17  1  0  0  0  0
  5  6  1  0  0  0  0
  7  6  1  1  0  0  0
  7  8  1  0  0  0  0
  7  9  1  0  0  0  0
 10  9  1  6  0  0  0
 10 11  1  0  0  0  0
 10 12  1  0  0  0  0
 11 16  1  0  0  0  0
 12 13  1  1  0  0  0
 12 14  1  0  0  0  0
 14 15  1  1  0  0  0
 14 16  1  0  0  0  0
 16 27  1  6  0  0  0
 18 19  2  0  0  0  0
 18 23  1  0  0  0  0
 19 20  1  0  0  0  0
 20 21  2  0  0  0  0
 21 22  1  0  0  0  0
 21 27  1  0  0  0  0
 22 23  2  0  0  0  0
 22 25  1  0  0  0  0
 23 24  1  0  0  0  0
 25 26  2  0  0  0  0
 26 27  1  0  0  0  0
M  END
>  <CHROM.1>
-174.26276603,-68.23044369,-62.80457541,-67.89524875,168.73250634,48.29797020
-76.83418514,46.13834862,56.34906170,31.15435004,-2.67398742,0.61730907,0.18340326

>  <Name>
ligand

>  <RI>
0

>  <Rbt.Current_Directory>
/home/itssahil/PROJECTS/Mol_Feturizer/New_Systems/rnas/3GX7

>  <Rbt.Executable>
rbdock ($Id: //depot/dev/client3/rdock/2013.1/src/exe/rbdock.cxx#4 $)

>  <Rbt.Library>
libRbt.so (2013.1, Build901 2013/11/27)

>  <Rbt.Parameter_File>
/export/apps/rDock/src/rDock_2013.1_src/data/scripts/dock_solv.prm

>  <Rbt.Receptor>
prm/pocket_docking_8.prm

>  <SCORE>
-16.274

>  <SCORE.INTER>
-11.544

>  <SCORE.INTER.CONST>
1

>  <SCORE.INTER.POLAR>
0

>  <SCORE.INTER.ROT>
7

>  <SCORE.INTER.SOLV>
11.9971

>  <SCORE.INTER.VDW>
-19.9617

>  <SCORE.INTER.norm>
-0.427556

>  <SCORE.INTRA>
-4.72998

>  <SCORE.INTRA.DIHEDRAL>
-7.30138

>  <SCORE.INTRA.DIHEDRAL.0>
11.2699

>  <SCORE.INTRA.POLAR>
0

>  <SCORE.INTRA.POLAR.0>
0

>  <SCORE.INTRA.REPUL>
0

>  <SCORE.INTRA.REPUL.0>
0

>  <SCORE.INTRA.SOLV>
0.00637794

>  <SCORE.INTRA.SOLV.lig_0>
-48.6447

>  <SCORE.INTRA.VDW>
-1.08248

>  <SCORE.INTRA.VDW.0>
-0.0211724

>  <SCORE.INTRA.norm>
-0.175184

>  <SCORE.RESTR>
0

>  <SCORE.RESTR.CAVITY>
0

>  <SCORE.RESTR.norm>
0

>  <SCORE.SYSTEM>
0

>  <SCORE.SYSTEM.CONST>
0

>  <SCORE.SYSTEM.DIHEDRAL>
0

>  <SCORE.SYSTEM.SOLV>
0

>  <SCORE.SYSTEM.norm>
0

>  <SCORE.heavy>
27

>  <SCORE.norm>
-0.602741

>  <RMSD>
6.584

$$$$
ligand
 OpenBabel11021811483D
libRbt.so/2013.1/901 2013/11/27
 27 29  0  0  0  0  0  0  0  0999 V2000
   47.5820   54.3056   32.8256 N   0  0  0  0  0  0  0  0  0  0  0  0
   48.2048   54.6973   34.0843 C   0  0  2  0  0  0  0  0  0  0  0  0
   47.2084   54.6001   35.2277 C   0  0  0  0  0  0  0  0  0  0  0  0
   47.5927   54.3464   36.3669 O   0  0  0  0  0  0  0  0  0  0  0  0
   48.7955   56.1047   34.0131 C   0  0  0  0  0  0  0  0  0  0  0  0
   47.8264   57.1822   33.5414 C   0  0  0  0  0  0  0  0  0  0  0  0
   48.5949   58.5202   32.5872 S   0  0  2  0  0  0  0  0  0  0  0  0
   49.5852   59.3368   33.8629 C   0  0  0  0  0  0  0  0  0  0  0  0
   47.2011   59.6714   32.4619 C   0  0  0  0  0  0  0  0  0  0  0  0
   46.3523   59.3204   31.2491 C   0  0  1  0  0  0  0  0  0  0  0  0
   47.2092   59.1594   30.1445 O   0  0  0  0  0  0  0  0  0  0  0  0
   45.6062   58.0062   31.3616 C   0  0  1  0  0  0  0  0  0  0  0  0
   44.2796   58.2311   31.7720 O   0  0  0  0  0  0  0  0  0  0  0  0
   45.6465   57.4509   29.9495 C   0  0  1  0  0  0  0  0  0  0  0  0
   44.3829   57.6140   29.3502 O   0  0  0  0  0  0  0  0  0  0  0  0
   46.6884   58.2660   29.1936 C   0  0  2  0  0  0  0  0  0  0  0  0
   46.0056   54.7779   35.0331 O   0  0  0  0  0  0  0  0  0  0  0  0
   48.6982   55.4632   25.2201 N   0  0  0  0  0  0  0  0  0  0  0  0
   47.5598   56.2436   25.2269 C   0  0  0  0  0  0  0  0  0  0  0  0
   47.1784   56.9154   26.3739 N   0  0  0  0  0  0  0  0  0  0  0  0
   47.9094   56.8110   27.5054 C   0  0  0  0  0  0  0  0  0  0  0  0
   49.0610   56.0381   27.5194 C   0  0  0  0  0  0  0  0  0  0  0  0
   49.4524   55.3573   26.3696 C   0  0  0  0  0  0  0  0  0  0  0  0
   50.5504   54.6059   26.3663 N   0  0  0  0  0  0  0  0  0  0  0  0
   49.5946   56.1204   28.7585 N   0  0  0  0  0  0  0  0  0  0  0  0
   48.8198   56.9328   29.5152 C   0  0  0  0  0  0  0  0  0  0  0  0
   47.7694   57.3692   28.7510 N   0  0  0  0  0  0  0  0  0  0  0  0
  2  1  1  6  0  0  0
  2  3  1  0  0  0  0
  2  5  1  0  0  0  0
  3  4  1  0  0  0  0
  3 17  1  0  0  0  0
  5  6  1  0  0  0  0
  7  6  1  1  0  0  0
  7  8  1  0  0  0  0
  7  9  1  0  0  0  0
 10  9  1  1  0  0  0
 10 11  1  0  0  0  0
 10 12  1  0  0  0  0
 11 16  1  0  0  0  0
 12 13  1  6  0  0  0
 12 14  1  0  0  0  0
 14 15  1  6  0  0  0
 14 16  1  0  0  0  0
 16 27  1  1  0  0  0
 18 19  2  0  0  0  0
 18 23  1  0  0  0  0
 19 20  1  0  0  0  0
 20 21  2  0  0  0  0
 21 22  1  0  0  0  0
 21 27  1  0  0  0  0
 22 23  2  0  0  0  0
 22 25  1  0  0  0  0
 23 24  1  0  0  0  0
 25 26  2  0  0  0  0
 26 27  1  0  0  0  0
M  END
>  <CHROM.1>
150.16344961,53.14902317,-147.10506080,-68.47567871,-87.04858210,-48.51509504
-147.97391529,47.60467328,56.89671300,30.74933820,-1.77483123,0.96041311
-1.40553478

>  <Name>
ligand

>  <RI>
0

>  <Rbt.Current_Directory>
/home/itssahil/PROJECTS/Mol_Feturizer/New_Systems/rnas/3GX7

>  <Rbt.Executable>
rbdock ($Id: //depot/dev/client3/rdock/2013.1/src/exe/rbdock.cxx#4 $)

>  <Rbt.Library>
libRbt.so (2013.1, Build901 2013/11/27)

>  <Rbt.Parameter_File>
/export/apps/rDock/src/rDock_2013.1_src/data/scripts/dock_solv.prm

>  <Rbt.Receptor>
prm/pocket_docking_4.prm

>  <SCORE>
-17.3406

>  <SCORE.INTER>
-12.9701

>  <SCORE.INTER.CONST>
1

>  <SCORE.INTER.POLAR>
0

>  <SCORE.INTER.ROT>
7

>  <SCORE.INTER.SOLV>
9.52025

>  <SCORE.INTER.VDW>
-20.0868

>  <SCORE.INTER.norm>
-0.480375

>  <SCORE.INTRA>
-4.42761

>  <SCORE.INTRA.DIHEDRAL>
-3.31554

>  <SCORE.INTRA.DIHEDRAL.0>
11.2699

>  <SCORE.INTRA.POLAR>
0

>  <SCORE.INTRA.POLAR.0>
0

>  <SCORE.INTRA.REPUL>
0

>  <SCORE.INTRA.REPUL.0>
0

>  <SCORE.INTRA.SOLV>
0.16687

>  <SCORE.INTRA.SOLV.lig_0>
-48.6447

>  <SCORE.INTRA.VDW>
-2.85327

>  <SCORE.INTRA.VDW.0>
-0.0211724

>  <SCORE.INTRA.norm>
-0.163985

>  <SCORE.RESTR>
0.0570907

>  <SCORE.RESTR.CAVITY>
0.0570907

>  <SCORE.RESTR.norm>
0.00211447

>  <SCORE.SYSTEM>
0

>  <SCORE.SYSTEM.CONST>
0

>  <SCORE.SYSTEM.DIHEDRAL>
0

>  <SCORE.SYSTEM.SOLV>
0

>  <SCORE.SYSTEM.norm>
0

>  <SCORE.heavy>
27

>  <SCORE.norm>
-0.642246

>  <RMSD>
6.593

$$$$
ligand
 OpenBabel11021811483D
libRbt.so/2013.1/901 2013/11/27
 27 29  0  0  0  0  0  0  0  0999 V2000
   46.7247   58.4278   30.2958 N   0  0  0  0  0  0  0  0  0  0  0  0
   46.3615   59.0953   31.5400 C   0  0  2  0  0  0  0  0  0  0  0  0
   47.2038   60.3438   31.7434 C   0  0  0  0  0  0  0  0  0  0  0  0
   46.6679   61.4216   31.9902 O   0  0  0  0  0  0  0  0  0  0  0  0
   46.4925   58.1643   32.7445 C   0  0  0  0  0  0  0  0  0  0  0  0
   47.7912   57.3686   32.7998 C   0  0  0  0  0  0  0  0  0  0  0  0
   47.8808   56.1678   34.1568 S   0  0  2  0  0  0  0  0  0  0  0  0
   49.1947   55.0712   33.5686 C   0  0  0  0  0  0  0  0  0  0  0  0
   46.4198   55.1589   33.7943 C   0  0  0  0  0  0  0  0  0  0  0  0
   45.8143   54.6464   35.0925 C   0  0  1  0  0  0  0  0  0  0  0  0
   44.4719   54.3033   34.8462 O   0  0  0  0  0  0  0  0  0  0  0  0
   46.4511   53.3795   35.6273 C   0  0  1  0  0  0  0  0  0  0  0  0
   47.4016   53.6906   36.6167 O   0  0  0  0  0  0  0  0  0  0  0  0
   45.2821   52.6170   36.2241 C   0  0  1  0  0  0  0  0  0  0  0  0
   45.3330   52.7135   37.6279 O   0  0  0  0  0  0  0  0  0  0  0  0
   44.0170   53.2876   35.7034 C   0  0  2  0  0  0  0  0  0  0  0  0
   48.4321   60.2950   31.6695 O   0  0  0  0  0  0  0  0  0  0  0  0
   42.5961   51.7139   30.8879 N   0  0  0  0  0  0  0  0  0  0  0  0
   43.4061   52.7755   31.2369 C   0  0  0  0  0  0  0  0  0  0  0  0
   43.6735   53.0445   32.5668 N   0  0  0  0  0  0  0  0  0  0  0  0
   43.1396   52.2777   33.5428 C   0  0  0  0  0  0  0  0  0  0  0  0
   42.3287   51.2013   33.2148 C   0  0  0  0  0  0  0  0  0  0  0  0
   42.0531   50.9233   31.8786 C   0  0  0  0  0  0  0  0  0  0  0  0
   41.2719   49.8990   31.5455 N   0  0  0  0  0  0  0  0  0  0  0  0
   41.9473   50.6092   34.3686 N   0  0  0  0  0  0  0  0  0  0  0  0
   42.5069   51.2738   35.4068 C   0  0  0  0  0  0  0  0  0  0  0  0
   43.2499   52.3125   34.9099 N   0  0  0  0  0  0  0  0  0  0  0  0
  2  1  1  6  0  0  0
  2  3  1  0  0  0  0
  2  5  1  0  0  0  0
  3  4  1  0  0  0  0
  3 17  1  0  0  0  0
  5  6  1  0  0  0  0
  7  6  1  6  0  0  0
  7  8  1  0  0  0  0
  7  9  1  0  0  0  0
 10  9  1  6  0  0  0
 10 11  1  0  0  0  0
 10 12  1  0  0  0  0
 11 16  1  0  0  0  0
 12 13  1  1  0  0  0
 12 14  1  0  0  0  0
 14 15  1  1  0  0  0
 14 16  1  0  0  0  0
 16 27  1  6  0  0  0
 18 19  2  0  0  0  0
 18 23  1  0  0  0  0
 19 20  1  0  0  0  0
 20 21  2  0  0  0  0
 21 22  1  0  0  0  0
 21 27  1  0  0  0  0
 22 23  2  0  0  0  0
 22 25  1  0  0  0  0
 23 24  1  0  0  0  0
 25 26  2  0  0  0  0
 26 27  1  0  0  0  0
M  END
>  <CHROM.1>
128.58201043,46.79297180,-175.24397842,160.77037119,-147.51041708,158.92140826
8.33303488,45.33402344,54.69479367,33.60016115,0.76040070,-0.78118311,-0.83888718

>  <Name>
ligand

>  <RI>
0

>  <Rbt.Current_Directory>
/home/itssahil/PROJECTS/Mol_Feturizer/New_Systems/rnas/3GX7

>  <Rbt.Executable>
rbdock ($Id: //depot/dev/client3/rdock/2013.1/src/exe/rbdock.cxx#4 $)

>  <Rbt.Library>
libRbt.so (2013.1, Build901 2013/11/27)

>  <Rbt.Parameter_File>
/export/apps/rDock/src/rDock_2013.1_src/data/scripts/dock_solv.prm

>  <Rbt.Receptor>
prm/pocket_docking_8.prm

>  <SCORE>
-18.8599

>  <SCORE.INTER>
-15.0922

>  <SCORE.INTER.CONST>
1

>  <SCORE.INTER.POLAR>
0

>  <SCORE.INTER.ROT>
7

>  <SCORE.INTER.SOLV>
11.1733

>  <SCORE.INTER.VDW>
-22.0526

>  <SCORE.INTER.norm>
-0.55897

>  <SCORE.INTRA>
-3.7677

>  <SCORE.INTRA.DIHEDRAL>
-2.24595

>  <SCORE.INTRA.DIHEDRAL.0>
11.2699

>  <SCORE.INTRA.POLAR>
0

>  <SCORE.INTRA.POLAR.0>
0

>  <SCORE.INTRA.REPUL>
0

>  <SCORE.INTRA.REPUL.0>
0

>  <SCORE.INTRA.SOLV>
-0.154233

>  <SCORE.INTRA.SOLV.lig_0>
-48.6447

>  <SCORE.INTRA.VDW>
-2.5676

>  <SCORE.INTRA.VDW.0>
-0.0211724

>  <SCORE.INTRA.norm>
-0.139544

>  <SCORE.RESTR>
0

>  <SCORE.RESTR.CAVITY>
0

>  <SCORE.RESTR.norm>
0

>  <SCORE.SYSTEM>
0

>  <SCORE.SYSTEM.CONST>
0

>  <SCORE.SYSTEM.DIHEDRAL>
0

>  <SCORE.SYSTEM.SOLV>
0

>  <SCORE.SYSTEM.norm>
0

>  <SCORE.heavy>
27

>  <SCORE.norm>
-0.698514

>  <RMSD>
6.596

$$$$
ligand
 OpenBabel11021811483D
libRbt.so/2013.1/901 2013/11/27
 27 29  0  0  0  0  0  0  0  0999 V2000
   47.3632   54.3146   34.6010 N   0  0  0  0  0  0  0  0  0  0  0  0
   46.2370   55.2326   34.4804 C   0  0  2  0  0  0  0  0  0  0  0  0
   44.9329   54.4648   34.3412 C   0  0  0  0  0  0  0  0  0  0  0  0
   43.8557   55.0377   34.4872 O   0  0  0  0  0  0  0  0  0  0  0  0
   46.4125   56.1978   33.3089 C   0  0  0  0  0  0  0  0  0  0  0  0
   47.5407   57.2086   33.4764 C   0  0  0  0  0  0  0  0  0  0  0  0
   47.8279   58.2626   32.0279 S   0  0  2  0  0  0  0  0  0  0  0  0
   49.1104   59.3759   32.6529 C   0  0  0  0  0  0  0  0  0  0  0  0
   46.3765   59.3437   32.1204 C   0  0  0  0  0  0  0  0  0  0  0  0
   45.3877   58.9710   31.0259 C   0  0  1  0  0  0  0  0  0  0  0  0
   46.0327   59.1145   29.7834 O   0  0  0  0  0  0  0  0  0  0  0  0
   44.9222   57.5294   31.0619 C   0  0  1  0  0  0  0  0  0  0  0  0
   43.6799   57.4333   31.7148 O   0  0  0  0  0  0  0  0  0  0  0  0
   44.7900   57.1602   29.5954 C   0  0  1  0  0  0  0  0  0  0  0  0
   43.4267   57.1333   29.2446 O   0  0  0  0  0  0  0  0  0  0  0  0
   45.5069   58.2503   28.8086 C   0  0  2  0  0  0  0  0  0  0  0  0
   44.9341   53.2622   34.0762 O   0  0  0  0  0  0  0  0  0  0  0  0
   47.1554   54.1539   25.9476 N   0  0  0  0  0  0  0  0  0  0  0  0
   45.9141   54.3565   26.5159 C   0  0  0  0  0  0  0  0  0  0  0  0
   45.6561   55.5037   27.2436 N   0  0  0  0  0  0  0  0  0  0  0  0
   46.6169   56.4380   27.4154 C   0  0  0  0  0  0  0  0  0  0  0  0
   47.8694   56.2585   26.8472 C   0  0  0  0  0  0  0  0  0  0  0  0
   48.1388   55.1062   26.1136 C   0  0  0  0  0  0  0  0  0  0  0  0
   49.3365   54.9139   25.5669 N   0  0  0  0  0  0  0  0  0  0  0  0
   48.6208   57.3369   27.1630 N   0  0  0  0  0  0  0  0  0  0  0  0
   47.8717   58.1914   27.8988 C   0  0  0  0  0  0  0  0  0  0  0  0
   46.6251   57.6469   28.0641 N   0  0  0  0  0  0  0  0  0  0  0  0
  2  1  1  6  0  0  0
  2  3  1  0  0  0  0
  2  5  1  0  0  0  0
  3  4  1  0  0  0  0
  3 17  1  0  0  0  0
  5  6  1  0  0  0  0
  7  6  1  1  0  0  0
  7  8  1  0  0  0  0
  7  9  1  0  0  0  0
 10  9  1  1  0  0  0
 10 11  1  0  0  0  0
 10 12  1  0  0  0  0
 11 16  1  0  0  0  0
 12 13  1  1  0  0  0
 12 14  1  0  0  0  0
 14 15  1  6  0  0  0
 14 16  1  0  0  0  0
 16 27  1  1  0  0  0
 18 19  2  0  0  0  0
 18 23  1  0  0  0  0
 19 20  1  0  0  0  0
 20 21  2  0  0  0  0
 21 22  1  0  0  0  0
 21 27  1  0  0  0  0
 22 23  2  0  0  0  0
 22 25  1  0  0  0  0
 23 24  1  0  0  0  0
 25 26  2  0  0  0  0
 26 27  1  0  0  0  0
M  END
>  <CHROM.1>
165.81605842,-67.69811846,175.34902842,175.75258325,-106.87172448,-59.27787320
153.69230860,46.39620206,56.69307196,30.39204256,2.11555150,1.14662357,1.06978446

>  <Name>
ligand

>  <RI>
0

>  <Rbt.Current_Directory>
/home/itssahil/PROJECTS/Mol_Feturizer/New_Systems/rnas/3GX7

>  <Rbt.Executable>
rbdock ($Id: //depot/dev/client3/rdock/2013.1/src/exe/rbdock.cxx#4 $)

>  <Rbt.Library>
libRbt.so (2013.1, Build901 2013/11/27)

>  <Rbt.Parameter_File>
/export/apps/rDock/src/rDock_2013.1_src/data/scripts/dock_solv.prm

>  <Rbt.Receptor>
prm/pocket_docking_6.prm

>  <SCORE>
-16.3845

>  <SCORE.INTER>
-11.5968

>  <SCORE.INTER.CONST>
1

>  <SCORE.INTER.POLAR>
0

>  <SCORE.INTER.ROT>
7

>  <SCORE.INTER.SOLV>
10.6979

>  <SCORE.INTER.VDW>
-19.5638

>  <SCORE.INTER.norm>
-0.429512

>  <SCORE.INTRA>
-4.78762

>  <SCORE.INTRA.DIHEDRAL>
-4.59222

>  <SCORE.INTRA.DIHEDRAL.0>
11.2699

>  <SCORE.INTRA.POLAR>
0

>  <SCORE.INTRA.POLAR.0>
0

>  <SCORE.INTRA.REPUL>
0

>  <SCORE.INTRA.REPUL.0>
0

>  <SCORE.INTRA.SOLV>
0.0646171

>  <SCORE.INTRA.SOLV.lig_0>
-48.6447

>  <SCORE.INTRA.VDW>
-2.52382

>  <SCORE.INTRA.VDW.0>
-0.0211724

>  <SCORE.INTRA.norm>
-0.177319

>  <SCORE.RESTR>
0

>  <SCORE.RESTR.CAVITY>
0

>  <SCORE.RESTR.norm>
0

>  <SCORE.SYSTEM>
0

>  <SCORE.SYSTEM.CONST>
0

>  <SCORE.SYSTEM.DIHEDRAL>
0

>  <SCORE.SYSTEM.SOLV>
0

>  <SCORE.SYSTEM.norm>
0

>  <SCORE.heavy>
27

>  <SCORE.norm>
-0.606832

>  <RMSD>
6.597

$$$$
ligand
 OpenBabel11021811483D
libRbt.so/2013.1/901 2013/11/27
 27 29  0  0  0  0  0  0  0  0999 V2000
   47.6854   53.6034   29.9395 N   0  0  0  0  0  0  0  0  0  0  0  0
   49.1370   53.6190   29.8057 C   0  0  2  0  0  0  0  0  0  0  0  0
   49.6241   52.3588   29.1098 C   0  0  0  0  0  0  0  0  0  0  0  0
   50.5083   52.4210   28.2588 O   0  0  0  0  0  0  0  0  0  0  0  0
   49.8314   53.7814   31.1571 C   0  0  0  0  0  0  0  0  0  0  0  0
   49.4955   55.0700   31.8982 C   0  0  0  0  0  0  0  0  0  0  0  0
   47.8056   55.1423   32.5542 S   0  0  2  0  0  0  0  0  0  0  0  0
   47.8439   56.7142   33.4500 C   0  0  0  0  0  0  0  0  0  0  0  0
   47.9418   53.9724   33.9314 C   0  0  0  0  0  0  0  0  0  0  0  0
   46.5560   53.4936   34.3377 C   0  0  1  0  0  0  0  0  0  0  0  0
   46.6738   52.7805   35.5451 O   0  0  0  0  0  0  0  0  0  0  0  0
   45.5675   54.6037   34.6326 C   0  0  1  0  0  0  0  0  0  0  0  0
   44.7572   54.8477   33.5089 O   0  0  0  0  0  0  0  0  0  0  0  0
   44.7432   54.0517   35.7816 C   0  0  1  0  0  0  0  0  0  0  0  0
   43.4823   53.6526   35.2985 O   0  0  0  0  0  0  0  0  0  0  0  0
   45.5008   52.8425   36.3157 C   0  0  2  0  0  0  0  0  0  0  0  0
   49.1463   51.2589   29.3896 O   0  0  0  0  0  0  0  0  0  0  0  0
   48.8828   55.1858   39.5952 N   0  0  0  0  0  0  0  0  0  0  0  0
   48.8816   55.1978   38.2151 C   0  0  0  0  0  0  0  0  0  0  0  0
   47.9055   54.5178   37.5099 N   0  0  0  0  0  0  0  0  0  0  0  0
   46.9448   53.8260   38.1611 C   0  0  0  0  0  0  0  0  0  0  0  0
   46.9224   53.8062   39.5478 C   0  0  0  0  0  0  0  0  0  0  0  0
   47.9016   54.4871   40.2663 C   0  0  0  0  0  0  0  0  0  0  0  0
   47.8998   54.4736   41.5968 N   0  0  0  0  0  0  0  0  0  0  0  0
   45.8622   53.0597   39.9297 N   0  0  0  0  0  0  0  0  0  0  0  0
   45.2129   52.6246   38.8243 C   0  0  0  0  0  0  0  0  0  0  0  0
   45.8734   53.0921   37.7184 N   0  0  0  0  0  0  0  0  0  0  0  0
  2  1  1  1  0  0  0
  2  3  1  0  0  0  0
  2  5  1  0  0  0  0
  3  4  1  0  0  0  0
  3 17  1  0  0  0  0
  5  6  1  0  0  0  0
  7  6  1  6  0  0  0
  7  8  1  0  0  0  0
  7  9  1  0  0  0  0
 10  9  1  1  0  0  0
 10 11  1  0  0  0  0
 10 12  1  0  0  0  0
 11 16  1  0  0  0  0
 12 13  1  6  0  0  0
 12 14  1  0  0  0  0
 14 15  1  6  0  0  0
 14 16  1  0  0  0  0
 16 27  1  1  0  0  0
 18 19  2  0  0  0  0
 18 23  1  0  0  0  0
 19 20  1  0  0  0  0
 20 21  2  0  0  0  0
 21 22  1  0  0  0  0
 21 27  1  0  0  0  0
 22 23  2  0  0  0  0
 22 25  1  0  0  0  0
 23 24  1  0  0  0  0
 25 26  2  0  0  0  0
 26 27  1  0  0  0  0
M  END
>  <CHROM.1>
138.25796722,-60.76349145,70.66644250,175.66984150,-160.32963345,-169.80247129
32.63896684,47.37260065,53.92034936,34.80015521,1.32435021,-0.17248273,-1.68613960

>  <Name>
ligand

>  <RI>
0

>  <Rbt.Current_Directory>
/home/itssahil/PROJECTS/Mol_Feturizer/New_Systems/rnas/3GX7

>  <Rbt.Executable>
rbdock ($Id: //depot/dev/client3/rdock/2013.1/src/exe/rbdock.cxx#4 $)

>  <Rbt.Library>
libRbt.so (2013.1, Build901 2013/11/27)

>  <Rbt.Parameter_File>
/export/apps/rDock/src/rDock_2013.1_src/data/scripts/dock_solv.prm

>  <Rbt.Receptor>
prm/pocket_docking_8.prm

>  <SCORE>
-21.2781

>  <SCORE.INTER>
-16.261

>  <SCORE.INTER.CONST>
1

>  <SCORE.INTER.POLAR>
0

>  <SCORE.INTER.ROT>
7

>  <SCORE.INTER.SOLV>
10.6202

>  <SCORE.INTER.VDW>
-22.6474

>  <SCORE.INTER.norm>
-0.602259

>  <SCORE.INTRA>
-5.0171

>  <SCORE.INTRA.DIHEDRAL>
-5.32139

>  <SCORE.INTRA.DIHEDRAL.0>
11.2699

>  <SCORE.INTRA.POLAR>
0

>  <SCORE.INTRA.POLAR.0>
0

>  <SCORE.INTRA.REPUL>
0

>  <SCORE.INTRA.REPUL.0>
0

>  <SCORE.INTRA.SOLV>
1.64051

>  <SCORE.INTRA.SOLV.lig_0>
-48.6447

>  <SCORE.INTRA.VDW>
-3.17666

>  <SCORE.INTRA.VDW.0>
-0.0211724

>  <SCORE.INTRA.norm>
-0.185819

>  <SCORE.RESTR>
0

>  <SCORE.RESTR.CAVITY>
0

>  <SCORE.RESTR.norm>
0

>  <SCORE.SYSTEM>
0

>  <SCORE.SYSTEM.CONST>
0

>  <SCORE.SYSTEM.DIHEDRAL>
0

>  <SCORE.SYSTEM.SOLV>
0

>  <SCORE.SYSTEM.norm>
0

>  <SCORE.heavy>
27

>  <SCORE.norm>
-0.788077

>  <RMSD>
6.631

$$$$
ligand
 OpenBabel11021811483D
libRbt.so/2013.1/901 2013/11/27
 27 29  0  0  0  0  0  0  0  0999 V2000
   49.4597   58.1140   32.9028 N   0  0  0  0  0  0  0  0  0  0  0  0
   48.1816   58.2164   32.2090 C   0  0  2  0  0  0  0  0  0  0  0  0
   48.2537   59.2581   31.1048 C   0  0  0  0  0  0  0  0  0  0  0  0
   48.4718   58.9192   29.9440 O   0  0  0  0  0  0  0  0  0  0  0  0
   47.0372   58.5385   33.1689 C   0  0  0  0  0  0  0  0  0  0  0  0
   45.6430   58.4200   32.5649 C   0  0  0  0  0  0  0  0  0  0  0  0
   45.0580   56.7161   32.3507 S   0  0  2  0  0  0  0  0  0  0  0  0
   43.3552   56.9957   31.8056 C   0  0  0  0  0  0  0  0  0  0  0  0
   44.7803   56.2487   34.0793 C   0  0  0  0  0  0  0  0  0  0  0  0
   44.4923   54.7575   34.1684 C   0  0  1  0  0  0  0  0  0  0  0  0
   45.4594   54.1722   35.0066 O   0  0  0  0  0  0  0  0  0  0  0  0
   43.1609   54.4101   34.8035 C   0  0  1  0  0  0  0  0  0  0  0  0
   42.1940   54.1691   33.8106 O   0  0  0  0  0  0  0  0  0  0  0  0
   43.4581   53.1431   35.5850 C   0  0  1  0  0  0  0  0  0  0  0  0
   42.9223   52.0373   34.8975 O   0  0  0  0  0  0  0  0  0  0  0  0
   44.9754   53.0245   35.6560 C   0  0  2  0  0  0  0  0  0  0  0  0
   48.0907   60.4531   31.3533 O   0  0  0  0  0  0  0  0  0  0  0  0
   48.5872   54.7003   39.0956 N   0  0  0  0  0  0  0  0  0  0  0  0
   48.5587   54.8825   37.7277 C   0  0  0  0  0  0  0  0  0  0  0  0
   47.5209   54.3654   36.9741 N   0  0  0  0  0  0  0  0  0  0  0  0
   46.5253   53.6682   37.5642 C   0  0  0  0  0  0  0  0  0  0  0  0
   46.5299   53.4791   38.9382 C   0  0  0  0  0  0  0  0  0  0  0  0
   47.5710   53.9952   39.7052 C   0  0  0  0  0  0  0  0  0  0  0  0
   47.5955   53.8178   41.0236 N   0  0  0  0  0  0  0  0  0  0  0  0
   45.4255   52.7680   39.2575 N   0  0  0  0  0  0  0  0  0  0  0  0
   44.7235   52.5196   38.1269 C   0  0  0  0  0  0  0  0  0  0  0  0
   45.3939   53.0721   37.0672 N   0  0  0  0  0  0  0  0  0  0  0  0
  2  1  1  1  0  0  0
  2  3  1  0  0  0  0
  2  5  1  0  0  0  0
  3  4  1  0  0  0  0
  3 17  1  0  0  0  0
  5  6  1  0  0  0  0
  7  6  1  1  0  0  0
  7  8  1  0  0  0  0
  7  9  1  0  0  0  0
 10  9  1  1  0  0  0
 10 11  1  0  0  0  0
 10 12  1  0  0  0  0
 11 16  1  0  0  0  0
 12 13  1  6  0  0  0
 12 14  1  0  0  0  0
 14 15  1  6  0  0  0
 14 16  1  0  0  0  0
 16 27  1  1  0  0  0
 18 19  2  0  0  0  0
 18 23  1  0  0  0  0
 19 20  1  0  0  0  0
 20 21  2  0  0  0  0
 21 22  1  0  0  0  0
 21 27  1  0  0  0  0
 22 23  2  0  0  0  0
 22 25  1  0  0  0  0
 23 24  1  0  0  0  0
 25 26  2  0  0  0  0
 26 27  1  0  0  0  0
M  END
>  <CHROM.1>
96.86289238,-169.72234259,75.64183555,173.98901420,-170.84280870,121.30668768
-29.70052839,45.96896886,55.47804982,34.96838314,-1.41903666,0.51674288,2.16515707

>  <Name>
ligand

>  <RI>
0

>  <Rbt.Current_Directory>
/home/itssahil/PROJECTS/Mol_Feturizer/New_Systems/rnas/3GX7

>  <Rbt.Executable>
rbdock ($Id: //depot/dev/client3/rdock/2013.1/src/exe/rbdock.cxx#4 $)

>  <Rbt.Library>
libRbt.so (2013.1, Build901 2013/11/27)

>  <Rbt.Parameter_File>
/export/apps/rDock/src/rDock_2013.1_src/data/scripts/dock_solv.prm

>  <Rbt.Receptor>
prm/pocket_docking_7.prm

>  <SCORE>
-20.3248

>  <SCORE.INTER>
-17.2564

>  <SCORE.INTER.CONST>
1

>  <SCORE.INTER.POLAR>
0

>  <SCORE.INTER.ROT>
7

>  <SCORE.INTER.SOLV>
11.3008

>  <SCORE.INTER.VDW>
-23.5379

>  <SCORE.INTER.norm>
-0.639128

>  <SCORE.INTRA>
-3.06837

>  <SCORE.INTRA.DIHEDRAL>
-0.767401

>  <SCORE.INTRA.DIHEDRAL.0>
11.2699

>  <SCORE.INTRA.POLAR>
0

>  <SCORE.INTRA.POLAR.0>
0

>  <SCORE.INTRA.REPUL>
0

>  <SCORE.INTRA.REPUL.0>
0

>  <SCORE.INTRA.SOLV>
-0.932602

>  <SCORE.INTRA.SOLV.lig_0>
-48.6447

>  <SCORE.INTRA.VDW>
-2.21836

>  <SCORE.INTRA.VDW.0>
-0.0211724

>  <SCORE.INTRA.norm>
-0.113643

>  <SCORE.RESTR>
0

>  <SCORE.RESTR.CAVITY>
0

>  <SCORE.RESTR.norm>
0

>  <SCORE.SYSTEM>
0

>  <SCORE.SYSTEM.CONST>
0

>  <SCORE.SYSTEM.DIHEDRAL>
0

>  <SCORE.SYSTEM.SOLV>
0

>  <SCORE.SYSTEM.norm>
0

>  <SCORE.heavy>
27

>  <SCORE.norm>
-0.752771

>  <RMSD>
6.670

$$$$
ligand
 OpenBabel11021811483D
libRbt.so/2013.1/901 2013/11/27
 27 29  0  0  0  0  0  0  0  0999 V2000
   48.7660   54.1552   37.1447 N   0  0  0  0  0  0  0  0  0  0  0  0
   47.6341   54.3748   36.2524 C   0  0  2  0  0  0  0  0  0  0  0  0
   46.8037   53.1090   36.1193 C   0  0  0  0  0  0  0  0  0  0  0  0
   47.0592   52.1230   36.8066 O   0  0  0  0  0  0  0  0  0  0  0  0
   48.0815   54.8636   34.8755 C   0  0  0  0  0  0  0  0  0  0  0  0
   48.8409   56.1849   34.8813 C   0  0  0  0  0  0  0  0  0  0  0  0
   48.8183   57.0728   33.2993 S   0  0  2  0  0  0  0  0  0  0  0  0
   49.4822   58.6828   33.7911 C   0  0  0  0  0  0  0  0  0  0  0  0
   47.0539   57.4662   33.1732 C   0  0  0  0  0  0  0  0  0  0  0  0
   46.8632   58.6969   32.2992 C   0  0  1  0  0  0  0  0  0  0  0  0
   47.6939   58.5677   31.1707 O   0  0  0  0  0  0  0  0  0  0  0  0
   45.4644   58.8613   31.7398 C   0  0  1  0  0  0  0  0  0  0  0  0
   44.7232   59.7561   32.5329 O   0  0  0  0  0  0  0  0  0  0  0  0
   45.6992   59.4364   30.3548 C   0  0  1  0  0  0  0  0  0  0  0  0
   45.3850   60.8089   30.3626 O   0  0  0  0  0  0  0  0  0  0  0  0
   47.1801   59.2448   30.0522 C   0  0  2  0  0  0  0  0  0  0  0  0
   45.8623   53.0525   35.3275 O   0  0  0  0  0  0  0  0  0  0  0  0
   45.8173   54.6983   27.7817 N   0  0  0  0  0  0  0  0  0  0  0  0
   45.4334   55.1884   29.0136 C   0  0  0  0  0  0  0  0  0  0  0  0
   45.8954   56.4152   29.4538 N   0  0  0  0  0  0  0  0  0  0  0  0
   46.7347   57.1472   28.6887 C   0  0  0  0  0  0  0  0  0  0  0  0
   47.1279   56.6774   27.4442 C   0  0  0  0  0  0  0  0  0  0  0  0
   46.6686   55.4429   26.9930 C   0  0  0  0  0  0  0  0  0  0  0  0
   47.0405   54.9732   25.8050 N   0  0  0  0  0  0  0  0  0  0  0  0
   47.9469   57.6031   26.8970 N   0  0  0  0  0  0  0  0  0  0  0  0
   48.0660   58.6434   27.7551 C   0  0  0  0  0  0  0  0  0  0  0  0
   47.3192   58.3748   28.8722 N   0  0  0  0  0  0  0  0  0  0  0  0
  2  1  1  1  0  0  0
  2  3  1  0  0  0  0
  2  5  1  0  0  0  0
  3  4  1  0  0  0  0
  3 17  1  0  0  0  0
  5  6  1  0  0  0  0
  7  6  1  1  0  0  0
  7  8  1  0  0  0  0
  7  9  1  0  0  0  0
 10  9  1  1  0  0  0
 10 11  1  0  0  0  0
 10 12  1  0  0  0  0
 11 16  1  0  0  0  0
 12 13  1  1  0  0  0
 12 14  1  0  0  0  0
 14 15  1  1  0  0  0
 14 16  1  0  0  0  0
 16 27  1  6  0  0  0
 18 19  2  0  0  0  0
 18 23  1  0  0  0  0
 19 20  1  0  0  0  0
 20 21  2  0  0  0  0
 21 22  1  0  0  0  0
 21 27  1  0  0  0  0
 22 23  2  0  0  0  0
 22 25  1  0  0  0  0
 23 24  1  0  0  0  0
 25 26  2  0  0  0  0
 26 27  1  0  0  0  0
M  END
>  <CHROM.1>
6.05923940,-60.49571120,-157.77453648,168.51978276,154.79163384,43.89221496
61.88653868,47.09691751,56.75478371,31.63452882,0.47854738,1.44024594,3.05487937

>  <Name>
ligand

>  <RI>
0

>  <Rbt.Current_Directory>
/home/itssahil/PROJECTS/Mol_Feturizer/New_Systems/rnas/3GX7

>  <Rbt.Executable>
rbdock ($Id: //depot/dev/client3/rdock/2013.1/src/exe/rbdock.cxx#4 $)

>  <Rbt.Library>
libRbt.so (2013.1, Build901 2013/11/27)

>  <Rbt.Parameter_File>
/export/apps/rDock/src/rDock_2013.1_src/data/scripts/dock_solv.prm

>  <Rbt.Receptor>
prm/pocket_docking_5.prm

>  <SCORE>
-17.4287

>  <SCORE.INTER>
-13.6436

>  <SCORE.INTER.CONST>
1

>  <SCORE.INTER.POLAR>
0

>  <SCORE.INTER.ROT>
7

>  <SCORE.INTER.SOLV>
18.5215

>  <SCORE.INTER.VDW>
-23.5362

>  <SCORE.INTER.norm>
-0.505317

>  <SCORE.INTRA>
-3.78518

>  <SCORE.INTRA.DIHEDRAL>
-4.75486

>  <SCORE.INTRA.DIHEDRAL.0>
11.2699

>  <SCORE.INTRA.POLAR>
0

>  <SCORE.INTRA.POLAR.0>
0

>  <SCORE.INTRA.REPUL>
0

>  <SCORE.INTRA.REPUL.0>
0

>  <SCORE.INTRA.SOLV>
-0.300973

>  <SCORE.INTRA.SOLV.lig_0>
-48.6447

>  <SCORE.INTRA.VDW>
-1.25726

>  <SCORE.INTRA.VDW.0>
-0.0211724

>  <SCORE.INTRA.norm>
-0.140192

>  <SCORE.RESTR>
0

>  <SCORE.RESTR.CAVITY>
0

>  <SCORE.RESTR.norm>
0

>  <SCORE.SYSTEM>
0

>  <SCORE.SYSTEM.CONST>
0

>  <SCORE.SYSTEM.DIHEDRAL>
0

>  <SCORE.SYSTEM.SOLV>
0

>  <SCORE.SYSTEM.norm>
0

>  <SCORE.heavy>
27

>  <SCORE.norm>
-0.645509

>  <RMSD>
6.678

$$$$
ligand
 OpenBabel11021811483D
libRbt.so/2013.1/901 2013/11/27
 27 29  0  0  0  0  0  0  0  0999 V2000
   45.9995   54.6829   30.4594 N   0  0  0  0  0  0  0  0  0  0  0  0
   46.9642   53.7355   29.9143 C   0  0  2  0  0  0  0  0  0  0  0  0
   46.2591   52.6581   29.1070 C   0  0  0  0  0  0  0  0  0  0  0  0
   46.7598   52.2316   28.0690 O   0  0  0  0  0  0  0  0  0  0  0  0
   47.8216   53.1027   31.0094 C   0  0  0  0  0  0  0  0  0  0  0  0
   48.7619   54.0669   31.7229 C   0  0  0  0  0  0  0  0  0  0  0  0
   47.9315   55.2772   32.7891 S   0  0  2  0  0  0  0  0  0  0  0  0
   49.2147   56.5433   32.9482 C   0  0  0  0  0  0  0  0  0  0  0  0
   48.0802   54.4509   34.3950 C   0  0  0  0  0  0  0  0  0  0  0  0
   46.8209   53.6450   34.6766 C   0  0  1  0  0  0  0  0  0  0  0  0
   47.0049   52.9503   35.8866 O   0  0  0  0  0  0  0  0  0  0  0  0
   45.5737   54.4792   34.8892 C   0  0  1  0  0  0  0  0  0  0  0  0
   44.8255   54.5510   33.7001 O   0  0  0  0  0  0  0  0  0  0  0  0
   44.8128   53.7175   35.9593 C   0  0  1  0  0  0  0  0  0  0  0  0
   43.7296   53.0412   35.3662 O   0  0  0  0  0  0  0  0  0  0  0  0
   45.7911   52.7110   36.5520 C   0  0  2  0  0  0  0  0  0  0  0  0
   45.1817   52.1934   29.4807 O   0  0  0  0  0  0  0  0  0  0  0  0
   48.6810   55.2096   40.1699 N   0  0  0  0  0  0  0  0  0  0  0  0
   48.8592   55.1831   38.8015 C   0  0  0  0  0  0  0  0  0  0  0  0
   47.9938   54.4650   37.9966 N   0  0  0  0  0  0  0  0  0  0  0  0
   46.9674   53.7732   38.5384 C   0  0  0  0  0  0  0  0  0  0  0  0
   46.7652   53.7916   39.9105 C   0  0  0  0  0  0  0  0  0  0  0  0
   47.6318   54.5111   40.7290 C   0  0  0  0  0  0  0  0  0  0  0  0
   47.4573   54.5346   42.0478 N   0  0  0  0  0  0  0  0  0  0  0  0
   45.6760   53.0357   40.1742 N   0  0  0  0  0  0  0  0  0  0  0  0
   45.1828   52.5575   39.0076 C   0  0  0  0  0  0  0  0  0  0  0  0
   45.9742   53.0067   37.9830 N   0  0  0  0  0  0  0  0  0  0  0  0
  2  1  1  1  0  0  0
  2  3  1  0  0  0  0
  2  5  1  0  0  0  0
  3  4  1  0  0  0  0
  3 17  1  0  0  0  0
  5  6  1  0  0  0  0
  7  6  1  6  0  0  0
  7  8  1  0  0  0  0
  7  9  1  0  0  0  0
 10  9  1  1  0  0  0
 10 11  1  0  0  0  0
 10 12  1  0  0  0  0
 11 16  1  0  0  0  0
 12 13  1  6  0  0  0
 12 14  1  0  0  0  0
 14 15  1  6  0  0  0
 14 16  1  0  0  0  0
 16 27  1  1  0  0  0
 18 19  2  0  0  0  0
 18 23  1  0  0  0  0
 19 20  1  0  0  0  0
 20 21  2  0  0  0  0
 21 22  1  0  0  0  0
 21 27  1  0  0  0  0
 22 23  2  0  0  0  0
 22 25  1  0  0  0  0
 23 24  1  0  0  0  0
 25 26  2  0  0  0  0
 26 27  1  0  0  0  0
M  END
>  <CHROM.1>
141.61366103,-66.62310097,69.73511676,-160.37485890,-94.57081208,176.27583532
19.29791518,46.79998885,53.91246184,35.01480654,1.60050809,-0.57185149,-1.60871407

>  <Name>
ligand

>  <RI>
0

>  <Rbt.Current_Directory>
/home/itssahil/PROJECTS/Mol_Feturizer/New_Systems/rnas/3GX7

>  <Rbt.Executable>
rbdock ($Id: //depot/dev/client3/rdock/2013.1/src/exe/rbdock.cxx#4 $)

>  <Rbt.Library>
libRbt.so (2013.1, Build901 2013/11/27)

>  <Rbt.Parameter_File>
/export/apps/rDock/src/rDock_2013.1_src/data/scripts/dock_solv.prm

>  <Rbt.Receptor>
prm/pocket_docking_7.prm

>  <SCORE>
-20.2102

>  <SCORE.INTER>
-15.8197

>  <SCORE.INTER.CONST>
1

>  <SCORE.INTER.POLAR>
0

>  <SCORE.INTER.ROT>
7

>  <SCORE.INTER.SOLV>
10.0092

>  <SCORE.INTER.VDW>
-22.1495

>  <SCORE.INTER.norm>
-0.585915

>  <SCORE.INTRA>
-4.40858

>  <SCORE.INTRA.DIHEDRAL>
-3.81358

>  <SCORE.INTRA.DIHEDRAL.0>
11.2699

>  <SCORE.INTRA.POLAR>
0

>  <SCORE.INTRA.POLAR.0>
0

>  <SCORE.INTRA.REPUL>
0.0308038

>  <SCORE.INTRA.REPUL.0>
0

>  <SCORE.INTRA.SOLV>
2.09559

>  <SCORE.INTRA.SOLV.lig_0>
-48.6447

>  <SCORE.INTRA.VDW>
-3.7036

>  <SCORE.INTRA.VDW.0>
-0.0211724

>  <SCORE.INTRA.norm>
-0.163281

>  <SCORE.RESTR>
0.0180513

>  <SCORE.RESTR.CAVITY>
0.0180513

>  <SCORE.RESTR.norm>
0.000668565

>  <SCORE.SYSTEM>
0

>  <SCORE.SYSTEM.CONST>
0

>  <SCORE.SYSTEM.DIHEDRAL>
0

>  <SCORE.SYSTEM.SOLV>
0

>  <SCORE.SYSTEM.norm>
0

>  <SCORE.heavy>
27

>  <SCORE.norm>
-0.748527

>  <RMSD>
6.689

$$$$
ligand
 OpenBabel11021811483D
libRbt.so/2013.1/901 2013/11/27
 27 29  0  0  0  0  0  0  0  0999 V2000
   39.6368   53.5902   34.2801 N   0  0  0  0  0  0  0  0  0  0  0  0
   41.0462   53.8216   33.9879 C   0  0  2  0  0  0  0  0  0  0  0  0
   41.8561   53.8839   35.2723 C   0  0  0  0  0  0  0  0  0  0  0  0
   41.3363   54.2698   36.3167 O   0  0  0  0  0  0  0  0  0  0  0  0
   41.2558   55.0925   33.1658 C   0  0  0  0  0  0  0  0  0  0  0  0
   42.6728   55.2878   32.6399 C   0  0  0  0  0  0  0  0  0  0  0  0
   42.8891   56.7473   31.5842 S   0  0  2  0  0  0  0  0  0  0  0  0
   41.8696   56.3021   30.1569 C   0  0  0  0  0  0  0  0  0  0  0  0
   44.5450   56.4260   30.9219 C   0  0  0  0  0  0  0  0  0  0  0  0
   45.5777   56.5655   32.0304 C   0  0  1  0  0  0  0  0  0  0  0  0
   46.4546   55.4674   31.9550 O   0  0  0  0  0  0  0  0  0  0  0  0
   46.4673   57.7866   31.9123 C   0  0  1  0  0  0  0  0  0  0  0  0
   45.9829   58.8248   32.7287 O   0  0  0  0  0  0  0  0  0  0  0  0
   47.8153   57.2956   32.4084 C   0  0  1  0  0  0  0  0  0  0  0  0
   48.0433   57.7960   33.7046 O   0  0  0  0  0  0  0  0  0  0  0  0
   47.7344   55.7746   32.4461 C   0  0  2  0  0  0  0  0  0  0  0  0
   43.0401   53.5456   35.2885 O   0  0  0  0  0  0  0  0  0  0  0  0
   50.0818   56.2084   27.7572 N   0  0  0  0  0  0  0  0  0  0  0  0
   49.0960   57.0089   28.2979 C   0  0  0  0  0  0  0  0  0  0  0  0
   48.5901   56.7424   29.5571 N   0  0  0  0  0  0  0  0  0  0  0  0
   49.0472   55.6909   30.2719 C   0  0  0  0  0  0  0  0  0  0  0  0
   50.0426   54.8774   29.7511 C   0  0  0  0  0  0  0  0  0  0  0  0
   50.5575   55.1374   28.4838 C   0  0  0  0  0  0  0  0  0  0  0  0
   51.5078   54.3638   27.9654 N   0  0  0  0  0  0  0  0  0  0  0  0
   50.3146   53.9237   30.6696 N   0  0  0  0  0  0  0  0  0  0  0  0
   49.5300   54.1251   31.7544 C   0  0  0  0  0  0  0  0  0  0  0  0
   48.7374   55.2186   31.5222 N   0  0  0  0  0  0  0  0  0  0  0  0
  2  1  1  1  0  0  0
  2  3  1  0  0  0  0
  2  5  1  0  0  0  0
  3  4  1  0  0  0  0
  3 17  1  0  0  0  0
  5  6  1  0  0  0  0
  7  6  1  1  0  0  0
  7  8  1  0  0  0  0
  7  9  1  0  0  0  0
 10  9  1  6  0  0  0
 10 11  1  0  0  0  0
 10 12  1  0  0  0  0
 11 16  1  0  0  0  0
 12 13  1  1  0  0  0
 12 14  1  0  0  0  0
 14 15  1  1  0  0  0
 14 16  1  0  0  0  0
 16 27  1  6  0  0  0
 18 19  2  0  0  0  0
 18 23  1  0  0  0  0
 19 20  1  0  0  0  0
 20 21  2  0  0  0  0
 21 22  1  0  0  0  0
 21 27  1  0  0  0  0
 22 23  2  0  0  0  0
 22 25  1  0  0  0  0
 23 24  1  0  0  0  0
 25 26  2  0  0  0  0
 26 27  1  0  0  0  0
M  END
>  <CHROM.1>
-28.76606482,-171.04023813,176.56733320,-65.96152115,-69.14215007,134.06083572
72.62758827,45.88348354,55.69172464,31.80444216,-2.71247312,0.25402573,-0.87062350

>  <Name>
ligand

>  <RI>
0

>  <Rbt.Current_Directory>
/home/itssahil/PROJECTS/Mol_Feturizer/New_Systems/rnas/3GX7

>  <Rbt.Executable>
rbdock ($Id: //depot/dev/client3/rdock/2013.1/src/exe/rbdock.cxx#4 $)

>  <Rbt.Library>
libRbt.so (2013.1, Build901 2013/11/27)

>  <Rbt.Parameter_File>
/export/apps/rDock/src/rDock_2013.1_src/data/scripts/dock_solv.prm

>  <Rbt.Receptor>
prm/pocket_docking_8.prm

>  <SCORE>
-12.4901

>  <SCORE.INTER>
-7.94465

>  <SCORE.INTER.CONST>
1

>  <SCORE.INTER.POLAR>
0

>  <SCORE.INTER.ROT>
7

>  <SCORE.INTER.SOLV>
8.472

>  <SCORE.INTER.VDW>
-16.3871

>  <SCORE.INTER.norm>
-0.294246

>  <SCORE.INTRA>
-4.54546

>  <SCORE.INTRA.DIHEDRAL>
-3.21036

>  <SCORE.INTRA.DIHEDRAL.0>
11.2699

>  <SCORE.INTRA.POLAR>
0

>  <SCORE.INTRA.POLAR.0>
0

>  <SCORE.INTRA.REPUL>
0

>  <SCORE.INTRA.REPUL.0>
0

>  <SCORE.INTRA.SOLV>
-1.03862

>  <SCORE.INTRA.SOLV.lig_0>
-48.6447

>  <SCORE.INTRA.VDW>
-2.42097

>  <SCORE.INTRA.VDW.0>
-0.0211724

>  <SCORE.INTRA.norm>
-0.16835

>  <SCORE.RESTR>
0

>  <SCORE.RESTR.CAVITY>
0

>  <SCORE.RESTR.norm>
0

>  <SCORE.SYSTEM>
0

>  <SCORE.SYSTEM.CONST>
0

>  <SCORE.SYSTEM.DIHEDRAL>
0

>  <SCORE.SYSTEM.SOLV>
0

>  <SCORE.SYSTEM.norm>
0

>  <SCORE.heavy>
27

>  <SCORE.norm>
-0.462597

>  <RMSD>
6.690

$$$$
ligand
 OpenBabel11021811483D
libRbt.so/2013.1/901 2013/11/27
 27 29  0  0  0  0  0  0  0  0999 V2000
   45.0565   56.2055   31.7295 N   0  0  0  0  0  0  0  0  0  0  0  0
   45.9528   55.8285   32.8158 C   0  0  2  0  0  0  0  0  0  0  0  0
   45.3659   54.6804   33.6201 C   0  0  0  0  0  0  0  0  0  0  0  0
   46.0537   53.7007   33.8978 O   0  0  0  0  0  0  0  0  0  0  0  0
   46.2673   57.0114   33.7306 C   0  0  0  0  0  0  0  0  0  0  0  0
   47.1897   58.0618   33.1237 C   0  0  0  0  0  0  0  0  0  0  0  0
   48.9507   57.6272   33.1581 S   0  0  2  0  0  0  0  0  0  0  0  0
   49.7174   59.2521   32.9417 C   0  0  0  0  0  0  0  0  0  0  0  0
   49.1486   56.9427   31.4919 C   0  0  0  0  0  0  0  0  0  0  0  0
   48.5054   55.5657   31.4225 C   0  0  1  0  0  0  0  0  0  0  0  0
   48.4888   55.1557   30.0764 O   0  0  0  0  0  0  0  0  0  0  0  0
   49.2654   54.4780   32.1544 C   0  0  1  0  0  0  0  0  0  0  0  0
   48.7141   54.2720   33.4321 O   0  0  0  0  0  0  0  0  0  0  0  0
   49.0682   53.2538   31.2788 C   0  0  1  0  0  0  0  0  0  0  0  0
   48.1288   52.3969   31.8837 O   0  0  0  0  0  0  0  0  0  0  0  0
   48.5284   53.7575   29.9461 C   0  0  2  0  0  0  0  0  0  0  0  0
   44.1981   54.7150   34.0093 O   0  0  0  0  0  0  0  0  0  0  0  0
   52.8524   55.1913   27.3133 N   0  0  0  0  0  0  0  0  0  0  0  0
   52.2164   55.8571   28.3416 C   0  0  0  0  0  0  0  0  0  0  0  0
   51.0783   55.3267   28.9209 N   0  0  0  0  0  0  0  0  0  0  0  0
   50.5684   54.1544   28.4836 C   0  0  0  0  0  0  0  0  0  0  0  0
   51.1951   53.4646   27.4564 C   0  0  0  0  0  0  0  0  0  0  0  0
   52.3410   53.9913   26.8664 C   0  0  0  0  0  0  0  0  0  0  0  0
   52.9517   53.3470   25.8754 N   0  0  0  0  0  0  0  0  0  0  0  0
   50.4893   52.3338   27.2319 N   0  0  0  0  0  0  0  0  0  0  0  0
   49.4491   52.2887   28.0972 C   0  0  0  0  0  0  0  0  0  0  0  0
   49.4848   53.4124   28.8807 N   0  0  0  0  0  0  0  0  0  0  0  0
  2  1  1  6  0  0  0
  2  3  1  0  0  0  0
  2  5  1  0  0  0  0
  3  4  1  0  0  0  0
  3 17  1  0  0  0  0
  5  6  1  0  0  0  0
  7  6  1  6  0  0  0
  7  8  1  0  0  0  0
  7  9  1  0  0  0  0
 10  9  1  6  0  0  0
 10 11  1  0  0  0  0
 10 12  1  0  0  0  0
 11 16  1  0  0  0  0
 12 13  1  1  0  0  0
 12 14  1  0  0  0  0
 14 15  1  1  0  0  0
 14 16  1  0  0  0  0
 16 27  1  6  0  0  0
 18 19  2  0  0  0  0
 18 23  1  0  0  0  0
 19 20  1  0  0  0  0
 20 21  2  0  0  0  0
 21 22  1  0  0  0  0
 21 27  1  0  0  0  0
 22 23  2  0  0  0  0
 22 25  1  0  0  0  0
 23 24  1  0  0  0  0
 25 26  2  0  0  0  0
 26 27  1  0  0  0  0
M  END
>  <CHROM.1>
132.02249989,-72.08025383,-79.64769251,-160.70712250,-74.02470086,170.84844357
26.92438540,48.86050096,55.04467253,30.89162582,2.49062654,0.66987067,0.53152043

>  <Name>
ligand

>  <RI>
0

>  <Rbt.Current_Directory>
/home/itssahil/PROJECTS/Mol_Feturizer/New_Systems/rnas/3GX7

>  <Rbt.Executable>
rbdock ($Id: //depot/dev/client3/rdock/2013.1/src/exe/rbdock.cxx#4 $)

>  <Rbt.Library>
libRbt.so (2013.1, Build901 2013/11/27)

>  <Rbt.Parameter_File>
/export/apps/rDock/src/rDock_2013.1_src/data/scripts/dock_solv.prm

>  <Rbt.Receptor>
prm/pocket_docking_7.prm

>  <SCORE>
-17.7528

>  <SCORE.INTER>
-12.133

>  <SCORE.INTER.CONST>
1

>  <SCORE.INTER.POLAR>
0

>  <SCORE.INTER.ROT>
7

>  <SCORE.INTER.SOLV>
9.21731

>  <SCORE.INTER.VDW>
-19.4278

>  <SCORE.INTER.norm>
-0.449371

>  <SCORE.INTRA>
-5.61978

>  <SCORE.INTRA.DIHEDRAL>
-3.89062

>  <SCORE.INTRA.DIHEDRAL.0>
11.2699

>  <SCORE.INTRA.POLAR>
0

>  <SCORE.INTRA.POLAR.0>
0

>  <SCORE.INTRA.REPUL>
0

>  <SCORE.INTRA.REPUL.0>
0

>  <SCORE.INTRA.SOLV>
2.09664

>  <SCORE.INTRA.SOLV.lig_0>
-48.6447

>  <SCORE.INTRA.VDW>
-4.72279

>  <SCORE.INTRA.VDW.0>
-0.0211724

>  <SCORE.INTRA.norm>
-0.20814

>  <SCORE.RESTR>
0

>  <SCORE.RESTR.CAVITY>
0

>  <SCORE.RESTR.norm>
0

>  <SCORE.SYSTEM>
0

>  <SCORE.SYSTEM.CONST>
0

>  <SCORE.SYSTEM.DIHEDRAL>
0

>  <SCORE.SYSTEM.SOLV>
0

>  <SCORE.SYSTEM.norm>
0

>  <SCORE.heavy>
27

>  <SCORE.norm>
-0.657511

>  <RMSD>
6.700

$$$$
ligand
 OpenBabel11021811483D
libRbt.so/2013.1/901 2013/11/27
 27 29  0  0  0  0  0  0  0  0999 V2000
   46.3323   55.7742   33.1203 N   0  0  0  0  0  0  0  0  0  0  0  0
   45.4061   56.7986   33.5874 C   0  0  2  0  0  0  0  0  0  0  0  0
   43.9933   56.2449   33.6714 C   0  0  0  0  0  0  0  0  0  0  0  0
   43.6739   55.4935   34.5897 O   0  0  0  0  0  0  0  0  0  0  0  0
   45.4372   58.0416   32.6992 C   0  0  0  0  0  0  0  0  0  0  0  0
   46.8271   58.6151   32.4500 C   0  0  0  0  0  0  0  0  0  0  0  0
   46.8823   59.9455   31.2178 S   0  0  2  0  0  0  0  0  0  0  0  0
   45.7302   61.1400   31.9394 C   0  0  0  0  0  0  0  0  0  0  0  0
   45.8441   59.2272   29.9179 C   0  0  0  0  0  0  0  0  0  0  0  0
   46.5309   58.0040   29.3290 C   0  0  1  0  0  0  0  0  0  0  0  0
   46.2119   56.8922   30.1306 O   0  0  0  0  0  0  0  0  0  0  0  0
   46.0655   57.6299   27.9362 C   0  0  1  0  0  0  0  0  0  0  0  0
   46.9511   58.1426   26.9710 O   0  0  0  0  0  0  0  0  0  0  0  0
   46.0978   56.1123   27.9448 C   0  0  1  0  0  0  0  0  0  0  0  0
   47.2172   55.6676   27.2156 O   0  0  0  0  0  0  0  0  0  0  0  0
   46.2274   55.6906   29.4031 C   0  0  2  0  0  0  0  0  0  0  0  0
   43.1478   56.5429   32.8272 O   0  0  0  0  0  0  0  0  0  0  0  0
   41.0196   55.6892   30.1530 N   0  0  0  0  0  0  0  0  0  0  0  0
   41.8276   56.7378   29.7624 C   0  0  0  0  0  0  0  0  0  0  0  0
   43.1903   56.5545   29.6155 N   0  0  0  0  0  0  0  0  0  0  0  0
   43.7509   55.3497   29.8597 C   0  0  0  0  0  0  0  0  0  0  0  0
   42.9571   54.2800   30.2464 C   0  0  0  0  0  0  0  0  0  0  0  0
   41.5841   54.4553   30.3978 C   0  0  0  0  0  0  0  0  0  0  0  0
   40.8080   53.4424   30.7745 N   0  0  0  0  0  0  0  0  0  0  0  0
   43.7647   53.2084   30.4094 N   0  0  0  0  0  0  0  0  0  0  0  0
   45.0368   53.5719   30.1224 C   0  0  0  0  0  0  0  0  0  0  0  0
   45.0442   54.8987   29.7797 N   0  0  0  0  0  0  0  0  0  0  0  0
  2  1  1  6  0  0  0
  2  3  1  0  0  0  0
  2  5  1  0  0  0  0
  3  4  1  0  0  0  0
  3 17  1  0  0  0  0
  5  6  1  0  0  0  0
  7  6  1  1  0  0  0
  7  8  1  0  0  0  0
  7  9  1  0  0  0  0
 10  9  1  1  0  0  0
 10 11  1  0  0  0  0
 10 12  1  0  0  0  0
 11 16  1  0  0  0  0
 12 13  1  6  0  0  0
 12 14  1  0  0  0  0
 14 15  1  6  0  0  0
 14 16  1  0  0  0  0
 16 27  1  1  0  0  0
 18 19  2  0  0  0  0
 18 23  1  0  0  0  0
 19 20  1  0  0  0  0
 20 21  2  0  0  0  0
 21 22  1  0  0  0  0
 21 27  1  0  0  0  0
 22 23  2  0  0  0  0
 22 25  1  0  0  0  0
 23 24  1  0  0  0  0
 25 26  2  0  0  0  0
 26 27  1  0  0  0  0
M  END
>  <CHROM.1>
75.40936572,-51.55790640,171.99930275,57.63436169,-66.21834683,85.44599008
47.79243066,44.87539269,56.66304102,30.63098244,0.21002369,0.80502204,1.12704761

>  <Name>
ligand

>  <RI>
0

>  <Rbt.Current_Directory>
/home/itssahil/PROJECTS/Mol_Feturizer/New_Systems/rnas/3GX7

>  <Rbt.Executable>
rbdock ($Id: //depot/dev/client3/rdock/2013.1/src/exe/rbdock.cxx#4 $)

>  <Rbt.Library>
libRbt.so (2013.1, Build901 2013/11/27)

>  <Rbt.Parameter_File>
/export/apps/rDock/src/rDock_2013.1_src/data/scripts/dock_solv.prm

>  <Rbt.Receptor>
prm/pocket_docking_7.prm

>  <SCORE>
-18.4598

>  <SCORE.INTER>
-13.2728

>  <SCORE.INTER.CONST>
1

>  <SCORE.INTER.POLAR>
0

>  <SCORE.INTER.ROT>
7

>  <SCORE.INTER.SOLV>
8.90002

>  <SCORE.INTER.VDW>
-20.0819

>  <SCORE.INTER.norm>
-0.491585

>  <SCORE.INTRA>
-5.18706

>  <SCORE.INTRA.DIHEDRAL>
-5.45893

>  <SCORE.INTRA.DIHEDRAL.0>
11.2699

>  <SCORE.INTRA.POLAR>
0

>  <SCORE.INTRA.POLAR.0>
0

>  <SCORE.INTRA.REPUL>
0

>  <SCORE.INTRA.REPUL.0>
0

>  <SCORE.INTRA.SOLV>
1.60384

>  <SCORE.INTRA.SOLV.lig_0>
-48.6447

>  <SCORE.INTRA.VDW>
-3.25952

>  <SCORE.INTRA.VDW.0>
-0.0211724

>  <SCORE.INTRA.norm>
-0.192113

>  <SCORE.RESTR>
0

>  <SCORE.RESTR.CAVITY>
0

>  <SCORE.RESTR.norm>
0

>  <SCORE.SYSTEM>
0

>  <SCORE.SYSTEM.CONST>
0

>  <SCORE.SYSTEM.DIHEDRAL>
0

>  <SCORE.SYSTEM.SOLV>
0

>  <SCORE.SYSTEM.norm>
0

>  <SCORE.heavy>
27

>  <SCORE.norm>
-0.683698

>  <RMSD>
6.706

$$$$
ligand
 OpenBabel11021811483D
libRbt.so/2013.1/901 2013/11/27
 27 29  0  0  0  0  0  0  0  0999 V2000
   51.2592   52.6552   25.0001 N   0  0  0  0  0  0  0  0  0  0  0  0
   50.9008   53.6804   24.0275 C   0  0  2  0  0  0  0  0  0  0  0  0
   52.0698   53.9714   23.1009 C   0  0  0  0  0  0  0  0  0  0  0  0
   51.9864   53.7271   21.8996 O   0  0  0  0  0  0  0  0  0  0  0  0
   50.4269   54.9659   24.7041 C   0  0  0  0  0  0  0  0  0  0  0  0
   49.1052   54.8447   25.4532 C   0  0  0  0  0  0  0  0  0  0  0  0
   48.6242   56.3308   26.3760 S   0  0  2  0  0  0  0  0  0  0  0  0
   49.5096   56.0782   27.9339 C   0  0  0  0  0  0  0  0  0  0  0  0
   46.9424   55.8741   26.8727 C   0  0  0  0  0  0  0  0  0  0  0  0
   46.2217   57.0935   27.4281 C   0  0  1  0  0  0  0  0  0  0  0  0
   44.8499   56.7918   27.5147 O   0  0  0  0  0  0  0  0  0  0  0  0
   46.6284   57.4781   28.8363 C   0  0  1  0  0  0  0  0  0  0  0  0
   47.5852   58.5088   28.8042 O   0  0  0  0  0  0  0  0  0  0  0  0
   45.3334   57.9644   29.4615 C   0  0  1  0  0  0  0  0  0  0  0  0
   45.3553   59.3700   29.5406 O   0  0  0  0  0  0  0  0  0  0  0  0
   44.2103   57.5141   28.5357 C   0  0  2  0  0  0  0  0  0  0  0  0
   53.1134   54.4592   23.5362 O   0  0  0  0  0  0  0  0  0  0  0  0
   43.7511   52.8727   30.9709 N   0  0  0  0  0  0  0  0  0  0  0  0
   44.8627   53.4082   30.3524 C   0  0  0  0  0  0  0  0  0  0  0  0
   44.7999   54.6545   29.7565 N   0  0  0  0  0  0  0  0  0  0  0  0
   43.6486   55.3615   29.7640 C   0  0  0  0  0  0  0  0  0  0  0  0
   42.5212   54.8460   30.3861 C   0  0  0  0  0  0  0  0  0  0  0  0
   42.5746   53.5915   30.9880 C   0  0  0  0  0  0  0  0  0  0  0  0
   41.5012   53.0781   31.5835 N   0  0  0  0  0  0  0  0  0  0  0  0
   41.5294   55.7550   30.2553 N   0  0  0  0  0  0  0  0  0  0  0  0
   42.0065   56.8290   29.5833 C   0  0  0  0  0  0  0  0  0  0  0  0
   43.3209   56.5994   29.2714 N   0  0  0  0  0  0  0  0  0  0  0  0
  2  1  1  1  0  0  0
  2  3  1  0  0  0  0
  2  5  1  0  0  0  0
  3  4  1  0  0  0  0
  3 17  1  0  0  0  0
  5  6  1  0  0  0  0
  7  6  1  6  0  0  0
  7  8  1  0  0  0  0
  7  9  1  0  0  0  0
 10  9  1  1  0  0  0
 10 11  1  0  0  0  0
 10 12  1  0  0  0  0
 11 16  1  0  0  0  0
 12 13  1  6  0  0  0
 12 14  1  0  0  0  0
 14 15  1  6  0  0  0
 14 16  1  0  0  0  0
 16 27  1  1  0  0  0
 18 19  2  0  0  0  0
 18 23  1  0  0  0  0
 19 20  1  0  0  0  0
 20 21  2  0  0  0  0
 21 22  1  0  0  0  0
 21 27  1  0  0  0  0
 22 23  2  0  0  0  0
 22 25  1  0  0  0  0
 23 24  1  0  0  0  0
 25 26  2  0  0  0  0
 26 27  1  0  0  0  0
M  END
>  <CHROM.1>
115.76443273,-67.15493291,174.78929737,-85.47518858,-168.46100633,166.68789685
48.81278700,46.68448875,55.56996421,27.70688367,0.13988267,-0.63676784,-3.08334267

>  <Name>
ligand

>  <RI>
0

>  <Rbt.Current_Directory>
/home/itssahil/PROJECTS/Mol_Feturizer/New_Systems/rnas/3GX7

>  <Rbt.Executable>
rbdock ($Id: //depot/dev/client3/rdock/2013.1/src/exe/rbdock.cxx#4 $)

>  <Rbt.Library>
libRbt.so (2013.1, Build901 2013/11/27)

>  <Rbt.Parameter_File>
/export/apps/rDock/src/rDock_2013.1_src/data/scripts/dock_solv.prm

>  <Rbt.Receptor>
prm/pocket_docking_8.prm

>  <SCORE>
-13.846

>  <SCORE.INTER>
-8.01956

>  <SCORE.INTER.CONST>
1

>  <SCORE.INTER.POLAR>
0

>  <SCORE.INTER.ROT>
7

>  <SCORE.INTER.SOLV>
9.50022

>  <SCORE.INTER.VDW>
-16.7798

>  <SCORE.INTER.norm>
-0.297021

>  <SCORE.INTRA>
-5.82643

>  <SCORE.INTRA.DIHEDRAL>
-5.32331

>  <SCORE.INTRA.DIHEDRAL.0>
11.2699

>  <SCORE.INTRA.POLAR>
0

>  <SCORE.INTRA.POLAR.0>
0

>  <SCORE.INTRA.REPUL>
0

>  <SCORE.INTRA.REPUL.0>
0

>  <SCORE.INTRA.SOLV>
-0.218772

>  <SCORE.INTRA.SOLV.lig_0>
-48.6447

>  <SCORE.INTRA.VDW>
-3.05539

>  <SCORE.INTRA.VDW.0>
-0.0211724

>  <SCORE.INTRA.norm>
-0.215794

>  <SCORE.RESTR>
0

>  <SCORE.RESTR.CAVITY>
0

>  <SCORE.RESTR.norm>
0

>  <SCORE.SYSTEM>
0

>  <SCORE.SYSTEM.CONST>
0

>  <SCORE.SYSTEM.DIHEDRAL>
0

>  <SCORE.SYSTEM.SOLV>
0

>  <SCORE.SYSTEM.norm>
0

>  <SCORE.heavy>
27

>  <SCORE.norm>
-0.512815

>  <RMSD>
6.710

$$$$
ligand
 OpenBabel11021811483D
libRbt.so/2013.1/901 2013/11/27
 27 29  0  0  0  0  0  0  0  0999 V2000
   46.6397   54.6622   34.1438 N   0  0  0  0  0  0  0  0  0  0  0  0
   47.7674   54.2851   34.9874 C   0  0  2  0  0  0  0  0  0  0  0  0
   47.2906   53.8994   36.3779 C   0  0  0  0  0  0  0  0  0  0  0  0
   48.0995   53.7254   37.2863 O   0  0  0  0  0  0  0  0  0  0  0  0
   48.8107   55.3982   35.0737 C   0  0  0  0  0  0  0  0  0  0  0  0
   49.5623   55.6726   33.7766 C   0  0  0  0  0  0  0  0  0  0  0  0
   48.5654   56.4598   32.4813 S   0  0  2  0  0  0  0  0  0  0  0  0
   49.3427   55.7956   30.9881 C   0  0  0  0  0  0  0  0  0  0  0  0
   49.2654   58.1311   32.5040 C   0  0  0  0  0  0  0  0  0  0  0  0
   48.4397   59.0460   31.6118 C   0  0  1  0  0  0  0  0  0  0  0  0
   48.6122   58.6320   30.2780 O   0  0  0  0  0  0  0  0  0  0  0  0
   46.9451   58.9796   31.8530 C   0  0  1  0  0  0  0  0  0  0  0  0
   46.5384   60.0323   32.6929 O   0  0  0  0  0  0  0  0  0  0  0  0
   46.3522   59.1384   30.4646 C   0  0  1  0  0  0  0  0  0  0  0  0
   45.8302   60.4390   30.3287 O   0  0  0  0  0  0  0  0  0  0  0  0
   47.4961   58.9327   29.4796 C   0  0  2  0  0  0  0  0  0  0  0  0
   46.0907   53.7602   36.6171 O   0  0  0  0  0  0  0  0  0  0  0  0
   49.4617   54.9295   26.6877 N   0  0  0  0  0  0  0  0  0  0  0  0
   50.1461   55.8920   27.4019 C   0  0  0  0  0  0  0  0  0  0  0  0
   49.4582   56.8802   28.0821 N   0  0  0  0  0  0  0  0  0  0  0  0
   48.1081   56.9224   28.0506 C   0  0  0  0  0  0  0  0  0  0  0  0
   47.3996   55.9610   27.3451 C   0  0  0  0  0  0  0  0  0  0  0  0
   48.0836   54.9627   26.6565 C   0  0  0  0  0  0  0  0  0  0  0  0
   47.4209   54.0362   25.9689 N   0  0  0  0  0  0  0  0  0  0  0  0
   46.0836   56.2323   27.4917 N   0  0  0  0  0  0  0  0  0  0  0  0
   45.9475   57.3252   28.2791 C   0  0  0  0  0  0  0  0  0  0  0  0
   47.1959   57.7650   28.6339 N   0  0  0  0  0  0  0  0  0  0  0  0
  2  1  1  6  0  0  0
  2  3  1  0  0  0  0
  2  5  1  0  0  0  0
  3  4  1  0  0  0  0
  3 17  1  0  0  0  0
  5  6  1  0  0  0  0
  7  6  1  1  0  0  0
  7  8  1  0  0  0  0
  7  9  1  0  0  0  0
 10  9  1  1  0  0  0
 10 11  1  0  0  0  0
 10 12  1  0  0  0  0
 11 16  1  0  0  0  0
 12 13  1  1  0  0  0
 12 14  1  0  0  0  0
 14 15  1  1  0  0  0
 14 16  1  0  0  0  0
 16 27  1  6  0  0  0
 18 19  2  0  0  0  0
 18 23  1  0  0  0  0
 19 20  1  0  0  0  0
 20 21  2  0  0  0  0
 21 22  1  0  0  0  0
 21 27  1  0  0  0  0
 22 23  2  0  0  0  0
 22 25  1  0  0  0  0
 23 24  1  0  0  0  0
 25 26  2  0  0  0  0
 26 27  1  0  0  0  0
M  END
>  <CHROM.1>
-170.13237407,-68.12215482,70.65624440,-149.30739851,-172.14628973,-67.55634258
-37.03298466,47.83697827,56.60381360,31.13108800,-1.64253664,1.31838153,-1.27174395

>  <Name>
ligand

>  <RI>
0

>  <Rbt.Current_Directory>
/home/itssahil/PROJECTS/Mol_Feturizer/New_Systems/rnas/3GX7

>  <Rbt.Executable>
rbdock ($Id: //depot/dev/client3/rdock/2013.1/src/exe/rbdock.cxx#4 $)

>  <Rbt.Library>
libRbt.so (2013.1, Build901 2013/11/27)

>  <Rbt.Parameter_File>
/export/apps/rDock/src/rDock_2013.1_src/data/scripts/dock_solv.prm

>  <Rbt.Receptor>
prm/pocket_docking_7.prm

>  <SCORE>
-16.4676

>  <SCORE.INTER>
-12.9956

>  <SCORE.INTER.CONST>
1

>  <SCORE.INTER.POLAR>
0

>  <SCORE.INTER.ROT>
7

>  <SCORE.INTER.SOLV>
10.4876

>  <SCORE.INTER.VDW>
-20.4263

>  <SCORE.INTER.norm>
-0.481317

>  <SCORE.INTRA>
-3.47204

>  <SCORE.INTRA.DIHEDRAL>
-3.33799

>  <SCORE.INTRA.DIHEDRAL.0>
11.2699

>  <SCORE.INTRA.POLAR>
0

>  <SCORE.INTRA.POLAR.0>
0

>  <SCORE.INTRA.REPUL>
0

>  <SCORE.INTRA.REPUL.0>
0

>  <SCORE.INTRA.SOLV>
1.29245

>  <SCORE.INTRA.SOLV.lig_0>
-48.6447

>  <SCORE.INTRA.VDW>
-2.44926

>  <SCORE.INTRA.VDW.0>
-0.0211724

>  <SCORE.INTRA.norm>
-0.128594

>  <SCORE.RESTR>
0

>  <SCORE.RESTR.CAVITY>
0

>  <SCORE.RESTR.norm>
0

>  <SCORE.SYSTEM>
0

>  <SCORE.SYSTEM.CONST>
0

>  <SCORE.SYSTEM.DIHEDRAL>
0

>  <SCORE.SYSTEM.SOLV>
0

>  <SCORE.SYSTEM.norm>
0

>  <SCORE.heavy>
27

>  <SCORE.norm>
-0.609911

>  <RMSD>
6.712

$$$$
ligand
 OpenBabel11021811483D
libRbt.so/2013.1/901 2013/11/27
 27 29  0  0  0  0  0  0  0  0999 V2000
   45.7145   55.8406   28.6755 N   0  0  0  0  0  0  0  0  0  0  0  0
   46.2503   55.3087   29.9227 C   0  0  2  0  0  0  0  0  0  0  0  0
   45.9159   53.8328   30.0628 C   0  0  0  0  0  0  0  0  0  0  0  0
   46.7326   53.0540   30.5489 O   0  0  0  0  0  0  0  0  0  0  0  0
   45.7435   56.0855   31.1370 C   0  0  0  0  0  0  0  0  0  0  0  0
   44.2283   56.1009   31.2998 C   0  0  0  0  0  0  0  0  0  0  0  0
   43.6359   57.0259   32.7436 S   0  0  2  0  0  0  0  0  0  0  0  0
   44.4753   58.6124   32.5125 C   0  0  0  0  0  0  0  0  0  0  0  0
   44.6646   56.2929   34.0430 C   0  0  0  0  0  0  0  0  0  0  0  0
   44.3928   54.7985   34.1316 C   0  0  1  0  0  0  0  0  0  0  0  0
   45.3798   54.2201   34.9511 O   0  0  0  0  0  0  0  0  0  0  0  0
   43.0760   54.4358   34.7879 C   0  0  1  0  0  0  0  0  0  0  0  0
   42.0948   54.1885   33.8106 O   0  0  0  0  0  0  0  0  0  0  0  0
   43.3988   53.1691   35.5596 C   0  0  1  0  0  0  0  0  0  0  0  0
   42.8624   52.0603   34.8774 O   0  0  0  0  0  0  0  0  0  0  0  0
   44.9182   53.0653   35.6046 C   0  0  2  0  0  0  0  0  0  0  0  0
   44.8240   53.3960   29.6976 O   0  0  0  0  0  0  0  0  0  0  0  0
   48.6223   54.6784   38.9753 N   0  0  0  0  0  0  0  0  0  0  0  0
   48.5763   54.8524   37.6069 C   0  0  0  0  0  0  0  0  0  0  0  0
   47.5150   54.3549   36.8732 N   0  0  0  0  0  0  0  0  0  0  0  0
   46.5129   53.6850   37.4836 C   0  0  0  0  0  0  0  0  0  0  0  0
   46.5349   53.5047   38.8587 C   0  0  0  0  0  0  0  0  0  0  0  0
   47.5998   54.0013   39.6056 C   0  0  0  0  0  0  0  0  0  0  0  0
   47.6411   53.8319   40.9247 N   0  0  0  0  0  0  0  0  0  0  0  0
   45.4195   52.8217   39.2002 N   0  0  0  0  0  0  0  0  0  0  0  0
   44.6939   52.5825   38.0825 C   0  0  0  0  0  0  0  0  0  0  0  0
   45.3602   53.1123   37.0086 N   0  0  0  0  0  0  0  0  0  0  0  0
  2  1  1  6  0  0  0
  2  3  1  0  0  0  0
  2  5  1  0  0  0  0
  3  4  1  0  0  0  0
  3 17  1  0  0  0  0
  5  6  1  0  0  0  0
  7  6  1  6  0  0  0
  7  8  1  0  0  0  0
  7  9  1  0  0  0  0
 10  9  1  1  0  0  0
 10 11  1  0  0  0  0
 10 12  1  0  0  0  0
 11 16  1  0  0  0  0
 12 13  1  6  0  0  0
 12 14  1  0  0  0  0
 14 15  1  6  0  0  0
 14 16  1  0  0  0  0
 16 27  1  1  0  0  0
 18 19  2  0  0  0  0
 18 23  1  0  0  0  0
 19 20  1  0  0  0  0
 20 21  2  0  0  0  0
 21 22  1  0  0  0  0
 21 27  1  0  0  0  0
 22 23  2  0  0  0  0
 22 25  1  0  0  0  0
 23 24  1  0  0  0  0
 25 26  2  0  0  0  0
 26 27  1  0  0  0  0
M  END
>  <CHROM.1>
141.95060905,58.98274675,-179.98044007,52.26133053,-60.45885222,168.59303982
-31.69573718,45.29967889,54.53413314,34.56893910,-1.80610829,0.36621835,1.87646471

>  <Name>
ligand

>  <RI>
0

>  <Rbt.Current_Directory>
/home/itssahil/PROJECTS/Mol_Feturizer/New_Systems/rnas/3GX7

>  <Rbt.Executable>
rbdock ($Id: //depot/dev/client3/rdock/2013.1/src/exe/rbdock.cxx#4 $)

>  <Rbt.Library>
libRbt.so (2013.1, Build901 2013/11/27)

>  <Rbt.Parameter_File>
/export/apps/rDock/src/rDock_2013.1_src/data/scripts/dock_solv.prm

>  <Rbt.Receptor>
prm/pocket_docking_7.prm

>  <SCORE>
-20.6001

>  <SCORE.INTER>
-15.5828

>  <SCORE.INTER.CONST>
1

>  <SCORE.INTER.POLAR>
0

>  <SCORE.INTER.ROT>
7

>  <SCORE.INTER.SOLV>
8.34425

>  <SCORE.INTER.VDW>
-21.4366

>  <SCORE.INTER.norm>
-0.577141

>  <SCORE.INTRA>
-5.01724

>  <SCORE.INTRA.DIHEDRAL>
-7.50777

>  <SCORE.INTRA.DIHEDRAL.0>
11.2699

>  <SCORE.INTRA.POLAR>
0

>  <SCORE.INTRA.POLAR.0>
0

>  <SCORE.INTRA.REPUL>
0

>  <SCORE.INTRA.REPUL.0>
0

>  <SCORE.INTRA.SOLV>
-0.164324

>  <SCORE.INTRA.SOLV.lig_0>
-48.6447

>  <SCORE.INTRA.VDW>
-1.18119

>  <SCORE.INTRA.VDW.0>
-0.0211724

>  <SCORE.INTRA.norm>
-0.185824

>  <SCORE.RESTR>
0

>  <SCORE.RESTR.CAVITY>
0

>  <SCORE.RESTR.norm>
0

>  <SCORE.SYSTEM>
0

>  <SCORE.SYSTEM.CONST>
0

>  <SCORE.SYSTEM.DIHEDRAL>
0

>  <SCORE.SYSTEM.SOLV>
0

>  <SCORE.SYSTEM.norm>
0

>  <SCORE.heavy>
27

>  <SCORE.norm>
-0.762965

>  <RMSD>
6.719

$$$$
ligand
 OpenBabel11021811483D
libRbt.so/2013.1/901 2013/11/27
 27 29  0  0  0  0  0  0  0  0999 V2000
   47.8723   60.5234   31.4555 N   0  0  0  0  0  0  0  0  0  0  0  0
   47.9781   59.8596   32.7493 C   0  0  2  0  0  0  0  0  0  0  0  0
   49.3220   59.1631   32.8854 C   0  0  0  0  0  0  0  0  0  0  0  0
   49.8696   58.6714   31.9015 O   0  0  0  0  0  0  0  0  0  0  0  0
   46.8397   58.8654   32.9736 C   0  0  0  0  0  0  0  0  0  0  0  0
   46.6357   57.8612   31.8455 C   0  0  0  0  0  0  0  0  0  0  0  0
   45.3576   56.6150   32.1692 S   0  0  2  0  0  0  0  0  0  0  0  0
   44.0168   57.6464   32.8120 C   0  0  0  0  0  0  0  0  0  0  0  0
   45.9888   55.8950   33.7077 C   0  0  0  0  0  0  0  0  0  0  0  0
   45.2977   54.5661   33.9745 C   0  0  1  0  0  0  0  0  0  0  0  0
   46.0465   53.8671   34.9393 O   0  0  0  0  0  0  0  0  0  0  0  0
   43.9086   54.6867   34.5679 C   0  0  1  0  0  0  0  0  0  0  0  0
   42.9349   54.5768   33.5584 O   0  0  0  0  0  0  0  0  0  0  0  0
   43.8264   53.5118   35.5256 C   0  0  1  0  0  0  0  0  0  0  0  0
   43.0211   52.5058   34.9583 O   0  0  0  0  0  0  0  0  0  0  0  0
   45.2498   52.9984   35.7035 C   0  0  2  0  0  0  0  0  0  0  0  0
   49.8840   59.0848   33.9783 O   0  0  0  0  0  0  0  0  0  0  0  0
   48.6923   55.0179   39.1320 N   0  0  0  0  0  0  0  0  0  0  0  0
   48.6848   55.1359   37.7568 C   0  0  0  0  0  0  0  0  0  0  0  0
   47.6923   54.5308   37.0077 N   0  0  0  0  0  0  0  0  0  0  0  0
   46.7215   53.8095   37.6099 C   0  0  0  0  0  0  0  0  0  0  0  0
   46.7053   53.6836   38.9911 C   0  0  0  0  0  0  0  0  0  0  0  0
   47.7009   54.2886   39.7536 C   0  0  0  0  0  0  0  0  0  0  0  0
   47.7053   54.1730   41.0791 N   0  0  0  0  0  0  0  0  0  0  0  0
   45.6326   52.9304   39.3212 N   0  0  0  0  0  0  0  0  0  0  0  0
   44.9697   52.5939   38.1898 C   0  0  0  0  0  0  0  0  0  0  0  0
   45.6339   53.1323   37.1189 N   0  0  0  0  0  0  0  0  0  0  0  0
  2  1  1  6  0  0  0
  2  3  1  0  0  0  0
  2  5  1  0  0  0  0
  3  4  1  0  0  0  0
  3 17  1  0  0  0  0
  5  6  1  0  0  0  0
  7  6  1  1  0  0  0
  7  8  1  0  0  0  0
  7  9  1  0  0  0  0
 10  9  1  1  0  0  0
 10 11  1  0  0  0  0
 10 12  1  0  0  0  0
 11 16  1  0  0  0  0
 12 13  1  6  0  0  0
 12 14  1  0  0  0  0
 14 15  1  6  0  0  0
 14 16  1  0  0  0  0
 16 27  1  1  0  0  0
 18 19  2  0  0  0  0
 18 23  1  0  0  0  0
 19 20  1  0  0  0  0
 20 21  2  0  0  0  0
 21 22  1  0  0  0  0
 21 27  1  0  0  0  0
 22 23  2  0  0  0  0
 22 25  1  0  0  0  0
 23 24  1  0  0  0  0
 25 26  2  0  0  0  0
 26 27  1  0  0  0  0
M  END
>  <CHROM.1>
-33.37159088,51.62483178,176.04782890,46.02901058,-164.14408680,163.95897645
-9.98156152,46.37945391,55.65132908,35.14539802,-1.35708187,0.59466953,2.17486231

>  <Name>
ligand

>  <RI>
0

>  <Rbt.Current_Directory>
/home/itssahil/PROJECTS/Mol_Feturizer/New_Systems/rnas/3GX7

>  <Rbt.Executable>
rbdock ($Id: //depot/dev/client3/rdock/2013.1/src/exe/rbdock.cxx#4 $)

>  <Rbt.Library>
libRbt.so (2013.1, Build901 2013/11/27)

>  <Rbt.Parameter_File>
/export/apps/rDock/src/rDock_2013.1_src/data/scripts/dock_solv.prm

>  <Rbt.Receptor>
prm/pocket_docking_6.prm

>  <SCORE>
-22.336

>  <SCORE.INTER>
-18.326

>  <SCORE.INTER.CONST>
1

>  <SCORE.INTER.POLAR>
0

>  <SCORE.INTER.ROT>
7

>  <SCORE.INTER.SOLV>
15.1931

>  <SCORE.INTER.VDW>
-25.5483

>  <SCORE.INTER.norm>
-0.678739

>  <SCORE.INTRA>
-4.01004

>  <SCORE.INTRA.DIHEDRAL>
-5.30372

>  <SCORE.INTRA.DIHEDRAL.0>
11.2699

>  <SCORE.INTRA.POLAR>
0

>  <SCORE.INTRA.POLAR.0>
0

>  <SCORE.INTRA.REPUL>
0

>  <SCORE.INTRA.REPUL.0>
0

>  <SCORE.INTRA.SOLV>
-0.108345

>  <SCORE.INTRA.SOLV.lig_0>
-48.6447

>  <SCORE.INTRA.VDW>
-1.304

>  <SCORE.INTRA.VDW.0>
-0.0211724

>  <SCORE.INTRA.norm>
-0.14852

>  <SCORE.RESTR>
0

>  <SCORE.RESTR.CAVITY>
0

>  <SCORE.RESTR.norm>
0

>  <SCORE.SYSTEM>
0

>  <SCORE.SYSTEM.CONST>
0

>  <SCORE.SYSTEM.DIHEDRAL>
0

>  <SCORE.SYSTEM.SOLV>
0

>  <SCORE.SYSTEM.norm>
0

>  <SCORE.heavy>
27

>  <SCORE.norm>
-0.827259

>  <RMSD>
6.723

$$$$
ligand
 OpenBabel11021811483D
libRbt.so/2013.1/901 2013/11/27
 27 29  0  0  0  0  0  0  0  0999 V2000
   40.6033   52.6702   32.1627 N   0  0  0  0  0  0  0  0  0  0  0  0
   41.5665   52.8509   31.0834 C   0  0  2  0  0  0  0  0  0  0  0  0
   42.1564   51.5149   30.6630 C   0  0  0  0  0  0  0  0  0  0  0  0
   42.4842   50.6864   31.5091 O   0  0  0  0  0  0  0  0  0  0  0  0
   42.6790   53.8242   31.4705 C   0  0  0  0  0  0  0  0  0  0  0  0
   43.5897   54.2440   30.3229 C   0  0  0  0  0  0  0  0  0  0  0  0
   44.9281   55.3727   30.7985 S   0  0  2  0  0  0  0  0  0  0  0  0
   45.5953   55.8279   29.1790 C   0  0  0  0  0  0  0  0  0  0  0  0
   46.1775   54.1809   31.3486 C   0  0  0  0  0  0  0  0  0  0  0  0
   47.2108   54.8836   32.2164 C   0  0  1  0  0  0  0  0  0  0  0  0
   46.6425   55.1049   33.4847 O   0  0  0  0  0  0  0  0  0  0  0  0
   48.4637   54.0742   32.4840 C   0  0  1  0  0  0  0  0  0  0  0  0
   49.4870   54.4497   31.5947 O   0  0  0  0  0  0  0  0  0  0  0  0
   48.8283   54.4419   33.9109 C   0  0  1  0  0  0  0  0  0  0  0  0
   49.9272   55.3220   33.8972 O   0  0  0  0  0  0  0  0  0  0  0  0
   47.6106   55.1414   34.5019 C   0  0  2  0  0  0  0  0  0  0  0  0
   42.3105   51.2400   29.4725 O   0  0  0  0  0  0  0  0  0  0  0  0
   48.0680   54.1527   39.6495 N   0  0  0  0  0  0  0  0  0  0  0  0
   48.7872   55.0469   38.8827 C   0  0  0  0  0  0  0  0  0  0  0  0
   48.5297   55.1747   37.5300 N   0  0  0  0  0  0  0  0  0  0  0  0
   47.5769   54.4211   36.9387 C   0  0  0  0  0  0  0  0  0  0  0  0
   46.8369   53.5212   37.6914 C   0  0  0  0  0  0  0  0  0  0  0  0
   47.0897   53.3849   39.0538 C   0  0  0  0  0  0  0  0  0  0  0  0
   46.3945   52.5220   39.7902 N   0  0  0  0  0  0  0  0  0  0  0  0
   45.9576   52.9180   36.8606 N   0  0  0  0  0  0  0  0  0  0  0  0
   46.1154   53.4239   35.6148 C   0  0  0  0  0  0  0  0  0  0  0  0
   47.1174   54.3581   35.6474 N   0  0  0  0  0  0  0  0  0  0  0  0
  2  1  1  1  0  0  0
  2  3  1  0  0  0  0
  2  5  1  0  0  0  0
  3  4  1  0  0  0  0
  3 17  1  0  0  0  0
  5  6  1  0  0  0  0
  7  6  1  6  0  0  0
  7  8  1  0  0  0  0
  7  9  1  0  0  0  0
 10  9  1  6  0  0  0
 10 11  1  0  0  0  0
 10 12  1  0  0  0  0
 11 16  1  0  0  0  0
 12 13  1  6  0  0  0
 12 14  1  0  0  0  0
 14 15  1  6  0  0  0
 14 16  1  0  0  0  0
 16 27  1  1  0  0  0
 18 19  2  0  0  0  0
 18 23  1  0  0  0  0
 19 20  1  0  0  0  0
 20 21  2  0  0  0  0
 21 22  1  0  0  0  0
 21 27  1  0  0  0  0
 22 23  2  0  0  0  0
 22 25  1  0  0  0  0
 23 24  1  0  0  0  0
 25 26  2  0  0  0  0
 26 27  1  0  0  0  0
M  END
>  <CHROM.1>
-42.48662253,-170.22829402,-178.79955567,-171.58293468,-161.35912299,76.17006257
-161.88526814,45.95733944,53.94571076,33.71767080,2.24658880,-0.47514686
-1.36257708

>  <Name>
ligand

>  <RI>
0

>  <Rbt.Current_Directory>
/home/itssahil/PROJECTS/Mol_Feturizer/New_Systems/rnas/3GX7

>  <Rbt.Executable>
rbdock ($Id: //depot/dev/client3/rdock/2013.1/src/exe/rbdock.cxx#4 $)

>  <Rbt.Library>
libRbt.so (2013.1, Build901 2013/11/27)

>  <Rbt.Parameter_File>
/export/apps/rDock/src/rDock_2013.1_src/data/scripts/dock_solv.prm

>  <Rbt.Receptor>
prm/pocket_docking_7.prm

>  <SCORE>
-15.1989

>  <SCORE.INTER>
-9.88761

>  <SCORE.INTER.CONST>
1

>  <SCORE.INTER.POLAR>
0

>  <SCORE.INTER.ROT>
7

>  <SCORE.INTER.SOLV>
10.0609

>  <SCORE.INTER.VDW>
-18.212

>  <SCORE.INTER.norm>
-0.366208

>  <SCORE.INTRA>
-5.31127

>  <SCORE.INTRA.DIHEDRAL>
-4.23846

>  <SCORE.INTRA.DIHEDRAL.0>
11.2699

>  <SCORE.INTRA.POLAR>
0

>  <SCORE.INTRA.POLAR.0>
0

>  <SCORE.INTRA.REPUL>
0

>  <SCORE.INTRA.REPUL.0>
0

>  <SCORE.INTRA.SOLV>
-1.17424

>  <SCORE.INTRA.SOLV.lig_0>
-48.6447

>  <SCORE.INTRA.VDW>
-2.60492

>  <SCORE.INTRA.VDW.0>
-0.0211724

>  <SCORE.INTRA.norm>
-0.196714

>  <SCORE.RESTR>
0

>  <SCORE.RESTR.CAVITY>
0

>  <SCORE.RESTR.norm>
0

>  <SCORE.SYSTEM>
0

>  <SCORE.SYSTEM.CONST>
0

>  <SCORE.SYSTEM.DIHEDRAL>
0

>  <SCORE.SYSTEM.SOLV>
0

>  <SCORE.SYSTEM.norm>
0

>  <SCORE.heavy>
27

>  <SCORE.norm>
-0.562922

>  <RMSD>
6.744

$$$$
ligand
 OpenBabel11021811483D
libRbt.so/2013.1/901 2013/11/27
 27 29  0  0  0  0  0  0  0  0999 V2000
   48.5754   58.6459   30.1943 N   0  0  0  0  0  0  0  0  0  0  0  0
   48.1467   58.3087   31.5464 C   0  0  2  0  0  0  0  0  0  0  0  0
   48.3384   59.4926   32.4798 C   0  0  0  0  0  0  0  0  0  0  0  0
   48.2736   60.6412   32.0481 O   0  0  0  0  0  0  0  0  0  0  0  0
   48.8805   57.0822   32.0868 C   0  0  0  0  0  0  0  0  0  0  0  0
   48.0717   56.2284   33.0560 C   0  0  0  0  0  0  0  0  0  0  0  0
   48.8452   54.6459   33.4908 S   0  0  2  0  0  0  0  0  0  0  0  0
   49.2527   53.9930   31.8529 C   0  0  0  0  0  0  0  0  0  0  0  0
   47.3743   53.6628   33.8831 C   0  0  0  0  0  0  0  0  0  0  0  0
   46.8666   54.0289   35.2698 C   0  0  1  0  0  0  0  0  0  0  0  0
   45.4675   53.8777   35.2797 O   0  0  0  0  0  0  0  0  0  0  0  0
   47.3662   53.1283   36.3814 C   0  0  1  0  0  0  0  0  0  0  0  0
   48.4698   53.7152   37.0269 O   0  0  0  0  0  0  0  0  0  0  0  0
   46.1797   53.0322   37.3234 C   0  0  1  0  0  0  0  0  0  0  0  0
   46.4210   53.8316   38.4570 O   0  0  0  0  0  0  0  0  0  0  0  0
   44.9755   53.5667   36.5582 C   0  0  2  0  0  0  0  0  0  0  0  0
   48.5559   59.3211   33.6796 O   0  0  0  0  0  0  0  0  0  0  0  0
   41.9004   50.8233   33.2869 N   0  0  0  0  0  0  0  0  0  0  0  0
   42.7773   51.8447   32.9823 C   0  0  0  0  0  0  0  0  0  0  0  0
   43.5109   52.4587   33.9809 N   0  0  0  0  0  0  0  0  0  0  0  0
   43.3738   52.0736   35.2687 C   0  0  0  0  0  0  0  0  0  0  0  0
   42.5037   51.0444   35.5969 C   0  0  0  0  0  0  0  0  0  0  0  0
   41.7602   50.4209   34.5983 C   0  0  0  0  0  0  0  0  0  0  0  0
   40.9158   49.4365   34.8953 N   0  0  0  0  0  0  0  0  0  0  0  0
   42.5727   50.8604   36.9342 N   0  0  0  0  0  0  0  0  0  0  0  0
   43.4701   51.7331   37.4499 C   0  0  0  0  0  0  0  0  0  0  0  0
   43.9758   52.4933   36.4280 N   0  0  0  0  0  0  0  0  0  0  0  0
  2  1  1  6  0  0  0
  2  3  1  0  0  0  0
  2  5  1  0  0  0  0
  3  4  1  0  0  0  0
  3 17  1  0  0  0  0
  5  6  1  0  0  0  0
  7  6  1  6  0  0  0
  7  8  1  0  0  0  0
  7  9  1  0  0  0  0
 10  9  1  6  0  0  0
 10 11  1  0  0  0  0
 10 12  1  0  0  0  0
 11 16  1  0  0  0  0
 12 13  1  1  0  0  0
 12 14  1  0  0  0  0
 14 15  1  1  0  0  0
 14 16  1  0  0  0  0
 16 27  1  6  0  0  0
 18 19  2  0  0  0  0
 18 23  1  0  0  0  0
 19 20  1  0  0  0  0
 20 21  2  0  0  0  0
 21 22  1  0  0  0  0
 21 27  1  0  0  0  0
 22 23  2  0  0  0  0
 22 25  1  0  0  0  0
 23 24  1  0  0  0  0
 25 26  2  0  0  0  0
 26 27  1  0  0  0  0
M  END
>  <CHROM.1>
29.21132398,-148.61468869,170.91302663,-50.03981605,-77.89267308,148.36044962
-14.43886819,46.05284453,54.20661012,34.46709941,0.70077477,-0.65295750,-1.07426228

>  <Name>
ligand

>  <RI>
0

>  <Rbt.Current_Directory>
/home/itssahil/PROJECTS/Mol_Feturizer/New_Systems/rnas/3GX7

>  <Rbt.Executable>
rbdock ($Id: //depot/dev/client3/rdock/2013.1/src/exe/rbdock.cxx#4 $)

>  <Rbt.Library>
libRbt.so (2013.1, Build901 2013/11/27)

>  <Rbt.Parameter_File>
/export/apps/rDock/src/rDock_2013.1_src/data/scripts/dock_solv.prm

>  <Rbt.Receptor>
prm/pocket_docking_8.prm

>  <SCORE>
-17.0333

>  <SCORE.INTER>
-15.0578

>  <SCORE.INTER.CONST>
1

>  <SCORE.INTER.POLAR>
0

>  <SCORE.INTER.ROT>
7

>  <SCORE.INTER.SOLV>
13.4849

>  <SCORE.INTER.VDW>
-22.8002

>  <SCORE.INTER.norm>
-0.557697

>  <SCORE.INTRA>
-1.97543

>  <SCORE.INTRA.DIHEDRAL>
-0.720636

>  <SCORE.INTRA.DIHEDRAL.0>
11.2699

>  <SCORE.INTRA.POLAR>
0

>  <SCORE.INTRA.POLAR.0>
0

>  <SCORE.INTRA.REPUL>
0

>  <SCORE.INTRA.REPUL.0>
0

>  <SCORE.INTRA.SOLV>
-0.956396

>  <SCORE.INTRA.SOLV.lig_0>
-48.6447

>  <SCORE.INTRA.VDW>
-1.13691

>  <SCORE.INTRA.VDW.0>
-0.0211724

>  <SCORE.INTRA.norm>
-0.0731641

>  <SCORE.RESTR>
0

>  <SCORE.RESTR.CAVITY>
0

>  <SCORE.RESTR.norm>
0

>  <SCORE.SYSTEM>
0

>  <SCORE.SYSTEM.CONST>
0

>  <SCORE.SYSTEM.DIHEDRAL>
0

>  <SCORE.SYSTEM.SOLV>
0

>  <SCORE.SYSTEM.norm>
0

>  <SCORE.heavy>
27

>  <SCORE.norm>
-0.630861

>  <RMSD>
6.747

$$$$
ligand
 OpenBabel11021811483D
libRbt.so/2013.1/901 2013/11/27
 27 29  0  0  0  0  0  0  0  0999 V2000
   48.7312   56.9048   34.7772 N   0  0  0  0  0  0  0  0  0  0  0  0
   48.7628   57.2249   33.3552 C   0  0  2  0  0  0  0  0  0  0  0  0
   49.4299   56.1080   32.5697 C   0  0  0  0  0  0  0  0  0  0  0  0
   49.3909   56.1029   31.3415 O   0  0  0  0  0  0  0  0  0  0  0  0
   49.4648   58.5553   33.0869 C   0  0  0  0  0  0  0  0  0  0  0  0
   48.5334   59.7538   32.9495 C   0  0  0  0  0  0  0  0  0  0  0  0
   47.5878   59.7985   31.4019 S   0  0  2  0  0  0  0  0  0  0  0  0
   46.3475   61.0594   31.7849 C   0  0  0  0  0  0  0  0  0  0  0  0
   46.5966   58.2924   31.5837 C   0  0  0  0  0  0  0  0  0  0  0  0
   45.5456   58.2334   30.4852 C   0  0  1  0  0  0  0  0  0  0  0  0
   46.1838   58.4679   29.2531 O   0  0  0  0  0  0  0  0  0  0  0  0
   44.8737   56.8842   30.3284 C   0  0  1  0  0  0  0  0  0  0  0  0
   43.6418   56.8700   31.0076 O   0  0  0  0  0  0  0  0  0  0  0  0
   44.6641   56.7619   28.8299 C   0  0  1  0  0  0  0  0  0  0  0  0
   43.3060   56.9831   28.5315 O   0  0  0  0  0  0  0  0  0  0  0  0
   45.5204   57.8437   28.1837 C   0  0  2  0  0  0  0  0  0  0  0  0
   50.0221   55.1964   33.1483 O   0  0  0  0  0  0  0  0  0  0  0  0
   46.8958   53.5106   25.5349 N   0  0  0  0  0  0  0  0  0  0  0  0
   45.7649   53.7251   26.2964 C   0  0  0  0  0  0  0  0  0  0  0  0
   45.5666   54.9388   26.9289 N   0  0  0  0  0  0  0  0  0  0  0  0
   46.4800   55.9281   26.8172 C   0  0  0  0  0  0  0  0  0  0  0  0
   47.6204   55.7370   26.0512 C   0  0  0  0  0  0  0  0  0  0  0  0
   47.8291   54.5181   25.4114 C   0  0  0  0  0  0  0  0  0  0  0  0
   48.9204   54.3145   24.6780 N   0  0  0  0  0  0  0  0  0  0  0  0
   48.3444   56.8773   26.1029 N   0  0  0  0  0  0  0  0  0  0  0  0
   47.6843   57.7801   26.8658 C   0  0  0  0  0  0  0  0  0  0  0  0
   46.5250   57.2052   27.3166 N   0  0  0  0  0  0  0  0  0  0  0  0
  2  1  1  1  0  0  0
  2  3  1  0  0  0  0
  2  5  1  0  0  0  0
  3  4  1  0  0  0  0
  3 17  1  0  0  0  0
  5  6  1  0  0  0  0
  7  6  1  1  0  0  0
  7  8  1  0  0  0  0
  7  9  1  0  0  0  0
 10  9  1  1  0  0  0
 10 11  1  0  0  0  0
 10 12  1  0  0  0  0
 11 16  1  0  0  0  0
 12 13  1  1  0  0  0
 12 14  1  0  0  0  0
 14 15  1  1  0  0  0
 14 16  1  0  0  0  0
 16 27  1  6  0  0  0
 18 19  2  0  0  0  0
 18 23  1  0  0  0  0
 19 20  1  0  0  0  0
 20 21  2  0  0  0  0
 21 22  1  0  0  0  0
 21 27  1  0  0  0  0
 22 23  2  0  0  0  0
 22 25  1  0  0  0  0
 23 24  1  0  0  0  0
 25 26  2  0  0  0  0
 26 27  1  0  0  0  0
M  END
>  <CHROM.1>
169.98731713,-96.20149912,-72.94003349,166.30759700,170.96271252,49.57223690
132.69896895,47.05727562,57.04748629,29.61364152,-1.34590798,0.51780478,-2.11700685

>  <Name>
ligand

>  <RI>
0

>  <Rbt.Current_Directory>
/home/itssahil/PROJECTS/Mol_Feturizer/New_Systems/rnas/3GX7

>  <Rbt.Executable>
rbdock ($Id: //depot/dev/client3/rdock/2013.1/src/exe/rbdock.cxx#4 $)

>  <Rbt.Library>
libRbt.so (2013.1, Build901 2013/11/27)

>  <Rbt.Parameter_File>
/export/apps/rDock/src/rDock_2013.1_src/data/scripts/dock_solv.prm

>  <Rbt.Receptor>
prm/pocket_docking_5.prm

>  <SCORE>
-18.9329

>  <SCORE.INTER>
-15.9844

>  <SCORE.INTER.CONST>
1

>  <SCORE.INTER.POLAR>
0

>  <SCORE.INTER.ROT>
7

>  <SCORE.INTER.SOLV>
15.8507

>  <SCORE.INTER.VDW>
-24.2065

>  <SCORE.INTER.norm>
-0.592017

>  <SCORE.INTRA>
-2.94843

>  <SCORE.INTRA.DIHEDRAL>
-3.19064

>  <SCORE.INTRA.DIHEDRAL.0>
11.2699

>  <SCORE.INTRA.POLAR>
0

>  <SCORE.INTRA.POLAR.0>
0

>  <SCORE.INTRA.REPUL>
0

>  <SCORE.INTRA.REPUL.0>
0

>  <SCORE.INTRA.SOLV>
-0.0584932

>  <SCORE.INTRA.SOLV.lig_0>
-48.6447

>  <SCORE.INTRA.VDW>
-1.32386

>  <SCORE.INTRA.VDW.0>
-0.0211724

>  <SCORE.INTRA.norm>
-0.109201

>  <SCORE.RESTR>
0

>  <SCORE.RESTR.CAVITY>
0

>  <SCORE.RESTR.norm>
0

>  <SCORE.SYSTEM>
0

>  <SCORE.SYSTEM.CONST>
0

>  <SCORE.SYSTEM.DIHEDRAL>
0

>  <SCORE.SYSTEM.SOLV>
0

>  <SCORE.SYSTEM.norm>
0

>  <SCORE.heavy>
27

>  <SCORE.norm>
-0.701218

>  <RMSD>
6.755

$$$$
ligand
 OpenBabel11021811483D
libRbt.so/2013.1/901 2013/11/27
 27 29  0  0  0  0  0  0  0  0999 V2000
   49.7021   58.5678   31.9129 N   0  0  0  0  0  0  0  0  0  0  0  0
   48.2743   58.5304   32.2056 C   0  0  2  0  0  0  0  0  0  0  0  0
   47.6423   59.8912   31.9636 C   0  0  0  0  0  0  0  0  0  0  0  0
   47.7735   60.7928   32.7881 O   0  0  0  0  0  0  0  0  0  0  0  0
   47.9983   58.0632   33.6340 C   0  0  0  0  0  0  0  0  0  0  0  0
   48.2630   56.5836   33.8855 C   0  0  0  0  0  0  0  0  0  0  0  0
   47.0354   55.4648   33.1555 S   0  0  2  0  0  0  0  0  0  0  0  0
   47.6459   53.8575   33.7202 C   0  0  0  0  0  0  0  0  0  0  0  0
   47.5973   55.4462   31.4328 C   0  0  0  0  0  0  0  0  0  0  0  0
   46.4725   54.9607   30.5307 C   0  0  1  0  0  0  0  0  0  0  0  0
   46.9571   54.9137   29.2103 O   0  0  0  0  0  0  0  0  0  0  0  0
   45.9939   53.5529   30.8231 C   0  0  1  0  0  0  0  0  0  0  0  0
   44.8429   53.5862   31.6312 O   0  0  0  0  0  0  0  0  0  0  0  0
   45.6717   52.9929   29.4495 C   0  0  1  0  0  0  0  0  0  0  0  0
   44.2746   52.9626   29.2765 O   0  0  0  0  0  0  0  0  0  0  0  0
   46.2994   53.9428   28.4370 C   0  0  2  0  0  0  0  0  0  0  0  0
   46.9954   60.1131   30.9396 O   0  0  0  0  0  0  0  0  0  0  0  0
   51.3464   52.5115   28.0328 N   0  0  0  0  0  0  0  0  0  0  0  0
   50.7495   53.2747   29.0158 C   0  0  0  0  0  0  0  0  0  0  0  0
   49.3965   53.5552   28.9594 N   0  0  0  0  0  0  0  0  0  0  0  0
   48.6419   53.0935   27.9381 C   0  0  0  0  0  0  0  0  0  0  0  0
   49.2194   52.3186   26.9431 C   0  0  0  0  0  0  0  0  0  0  0  0
   50.5810   52.0317   26.9910 C   0  0  0  0  0  0  0  0  0  0  0  0
   51.1534   51.2957   26.0418 N   0  0  0  0  0  0  0  0  0  0  0  0
   48.2461   51.9867   26.0658 N   0  0  0  0  0  0  0  0  0  0  0  0
   47.0754   52.5182   26.4897 C   0  0  0  0  0  0  0  0  0  0  0  0
   47.3052   53.2085   27.6510 N   0  0  0  0  0  0  0  0  0  0  0  0
  2  1  1  1  0  0  0
  2  3  1  0  0  0  0
  2  5  1  0  0  0  0
  3  4  1  0  0  0  0
  3 17  1  0  0  0  0
  5  6  1  0  0  0  0
  7  6  1  1  0  0  0
  7  8  1  0  0  0  0
  7  9  1  0  0  0  0
 10  9  1  1  0  0  0
 10 11  1  0  0  0  0
 10 12  1  0  0  0  0
 11 16  1  0  0  0  0
 12 13  1  1  0  0  0
 12 14  1  0  0  0  0
 14 15  1  6  0  0  0
 14 16  1  0  0  0  0
 16 27  1  6  0  0  0
 18 19  2  0  0  0  0
 18 23  1  0  0  0  0
 19 20  1  0  0  0  0
 20 21  2  0  0  0  0
 21 22  1  0  0  0  0
 21 27  1  0  0  0  0
 22 23  2  0  0  0  0
 22 25  1  0  0  0  0
 23 24  1  0  0  0  0
 25 26  2  0  0  0  0
 26 27  1  0  0  0  0
M  END
>  <CHROM.1>
-78.07090621,-71.42275590,-73.14501450,-177.74112267,-160.91468933,-177.95035219
22.55450095,47.79383971,54.91527681,30.19524670,-1.73737689,-0.46511020,-2.48149179

>  <Name>
ligand

>  <RI>
0

>  <Rbt.Current_Directory>
/home/itssahil/PROJECTS/Mol_Feturizer/New_Systems/rnas/3GX7

>  <Rbt.Executable>
rbdock ($Id: //depot/dev/client3/rdock/2013.1/src/exe/rbdock.cxx#4 $)

>  <Rbt.Library>
libRbt.so (2013.1, Build901 2013/11/27)

>  <Rbt.Parameter_File>
/export/apps/rDock/src/rDock_2013.1_src/data/scripts/dock_solv.prm

>  <Rbt.Receptor>
prm/pocket_docking_6.prm

>  <SCORE>
-11.5218

>  <SCORE.INTER>
-6.51259

>  <SCORE.INTER.CONST>
1

>  <SCORE.INTER.POLAR>
0

>  <SCORE.INTER.ROT>
7

>  <SCORE.INTER.SOLV>
14.5137

>  <SCORE.INTER.VDW>
-17.4463

>  <SCORE.INTER.norm>
-0.241207

>  <SCORE.INTRA>
-5.00925

>  <SCORE.INTRA.DIHEDRAL>
-4.73477

>  <SCORE.INTRA.DIHEDRAL.0>
11.2699

>  <SCORE.INTRA.POLAR>
0

>  <SCORE.INTRA.POLAR.0>
0

>  <SCORE.INTRA.REPUL>
0

>  <SCORE.INTRA.REPUL.0>
0

>  <SCORE.INTRA.SOLV>
0.742632

>  <SCORE.INTRA.SOLV.lig_0>
-48.6447

>  <SCORE.INTRA.VDW>
-3.01318

>  <SCORE.INTRA.VDW.0>
-0.0211724

>  <SCORE.INTRA.norm>
-0.185528

>  <SCORE.RESTR>
0

>  <SCORE.RESTR.CAVITY>
0

>  <SCORE.RESTR.norm>
0

>  <SCORE.SYSTEM>
0

>  <SCORE.SYSTEM.CONST>
0

>  <SCORE.SYSTEM.DIHEDRAL>
0

>  <SCORE.SYSTEM.SOLV>
0

>  <SCORE.SYSTEM.norm>
0

>  <SCORE.heavy>
27

>  <SCORE.norm>
-0.426735

>  <RMSD>
6.761

$$$$
ligand
 OpenBabel11021811483D
libRbt.so/2013.1/901 2013/11/27
 27 29  0  0  0  0  0  0  0  0999 V2000
   47.2628   54.1779   33.1328 N   0  0  0  0  0  0  0  0  0  0  0  0
   48.5437   54.6339   33.6589 C   0  0  2  0  0  0  0  0  0  0  0  0
   48.4070   55.0514   35.1138 C   0  0  0  0  0  0  0  0  0  0  0  0
   47.8163   54.3304   35.9144 O   0  0  0  0  0  0  0  0  0  0  0  0
   49.1242   55.7789   32.8302 C   0  0  0  0  0  0  0  0  0  0  0  0
   48.1740   56.9481   32.6006 C   0  0  0  0  0  0  0  0  0  0  0  0
   48.9523   58.4200   31.8802 S   0  0  2  0  0  0  0  0  0  0  0  0
   49.8480   59.0779   33.3084 C   0  0  0  0  0  0  0  0  0  0  0  0
   47.5335   59.5462   31.8312 C   0  0  0  0  0  0  0  0  0  0  0  0
   46.6511   59.2094   30.6385 C   0  0  1  0  0  0  0  0  0  0  0  0
   47.4762   59.0685   29.5072 O   0  0  0  0  0  0  0  0  0  0  0  0
   45.9141   57.8902   30.7530 C   0  0  1  0  0  0  0  0  0  0  0  0
   44.5990   58.1030   31.2050 O   0  0  0  0  0  0  0  0  0  0  0  0
   45.9155   57.3560   29.3321 C   0  0  1  0  0  0  0  0  0  0  0  0
   44.6343   57.5223   28.7724 O   0  0  0  0  0  0  0  0  0  0  0  0
   46.9316   58.1870   28.5586 C   0  0  2  0  0  0  0  0  0  0  0  0
   48.8880   56.1122   35.5134 O   0  0  0  0  0  0  0  0  0  0  0  0
   48.7985   55.3946   24.5087 N   0  0  0  0  0  0  0  0  0  0  0  0
   47.6521   56.1612   24.5634 C   0  0  0  0  0  0  0  0  0  0  0  0
   47.3134   56.8324   25.7241 N   0  0  0  0  0  0  0  0  0  0  0  0
   48.0947   56.7408   26.8226 C   0  0  0  0  0  0  0  0  0  0  0  0
   49.2551   55.9819   26.7880 C   0  0  0  0  0  0  0  0  0  0  0  0
   49.6038   55.3019   25.6242 C   0  0  0  0  0  0  0  0  0  0  0  0
   50.7097   54.5637   25.5747 N   0  0  0  0  0  0  0  0  0  0  0  0
   49.8418   56.0750   28.0022 N   0  0  0  0  0  0  0  0  0  0  0  0
   49.0912   56.8807   28.7899 C   0  0  0  0  0  0  0  0  0  0  0  0
   48.0029   57.3016   28.0714 N   0  0  0  0  0  0  0  0  0  0  0  0
  2  1  1  6  0  0  0
  2  3  1  0  0  0  0
  2  5  1  0  0  0  0
  3  4  1  0  0  0  0
  3 17  1  0  0  0  0
  5  6  1  0  0  0  0
  7  6  1  1  0  0  0
  7  8  1  0  0  0  0
  7  9  1  0  0  0  0
 10  9  1  1  0  0  0
 10 11  1  0  0  0  0
 10 12  1  0  0  0  0
 11 16  1  0  0  0  0
 12 13  1  6  0  0  0
 12 14  1  0  0  0  0
 14 15  1  6  0  0  0
 14 16  1  0  0  0  0
 16 27  1  1  0  0  0
 18 19  2  0  0  0  0
 18 23  1  0  0  0  0
 19 20  1  0  0  0  0
 20 21  2  0  0  0  0
 21 22  1  0  0  0  0
 21 27  1  0  0  0  0
 22 23  2  0  0  0  0
 22 25  1  0  0  0  0
 23 24  1  0  0  0  0
 25 26  2  0  0  0  0
 26 27  1  0  0  0  0
M  END
>  <CHROM.1>
47.16261786,52.00452527,169.56626161,-75.13650594,-78.94464962,-47.42058049
-149.39296590,47.97500119,56.86827590,30.17202228,-1.61272263,0.85465690
-1.54777405

>  <Name>
ligand

>  <RI>
0

>  <Rbt.Current_Directory>
/home/itssahil/PROJECTS/Mol_Feturizer/New_Systems/rnas/3GX7

>  <Rbt.Executable>
rbdock ($Id: //depot/dev/client3/rdock/2013.1/src/exe/rbdock.cxx#4 $)

>  <Rbt.Library>
libRbt.so (2013.1, Build901 2013/11/27)

>  <Rbt.Parameter_File>
/export/apps/rDock/src/rDock_2013.1_src/data/scripts/dock_solv.prm

>  <Rbt.Receptor>
prm/pocket_docking_5.prm

>  <SCORE>
-20.3493

>  <SCORE.INTER>
-15.145

>  <SCORE.INTER.CONST>
1

>  <SCORE.INTER.POLAR>
0

>  <SCORE.INTER.ROT>
7

>  <SCORE.INTER.SOLV>
10.8234

>  <SCORE.INTER.VDW>
-21.9711

>  <SCORE.INTER.norm>
-0.560926

>  <SCORE.INTRA>
-5.20434

>  <SCORE.INTRA.DIHEDRAL>
-6.44175

>  <SCORE.INTRA.DIHEDRAL.0>
11.2699

>  <SCORE.INTRA.POLAR>
0

>  <SCORE.INTRA.POLAR.0>
0

>  <SCORE.INTRA.REPUL>
0

>  <SCORE.INTRA.REPUL.0>
0

>  <SCORE.INTRA.SOLV>
-0.0993833

>  <SCORE.INTRA.SOLV.lig_0>
-48.6447

>  <SCORE.INTRA.VDW>
-1.93378

>  <SCORE.INTRA.VDW.0>
-0.0211724

>  <SCORE.INTRA.norm>
-0.192753

>  <SCORE.RESTR>
0

>  <SCORE.RESTR.CAVITY>
0

>  <SCORE.RESTR.norm>
0

>  <SCORE.SYSTEM>
0

>  <SCORE.SYSTEM.CONST>
0

>  <SCORE.SYSTEM.DIHEDRAL>
0

>  <SCORE.SYSTEM.SOLV>
0

>  <SCORE.SYSTEM.norm>
0

>  <SCORE.heavy>
27

>  <SCORE.norm>
-0.753679

>  <RMSD>
6.778

$$$$
ligand
 OpenBabel11021811483D
libRbt.so/2013.1/901 2013/11/27
 27 29  0  0  0  0  0  0  0  0999 V2000
   45.0266   56.6863   31.1118 N   0  0  0  0  0  0  0  0  0  0  0  0
   44.8698   56.4661   32.5444 C   0  0  2  0  0  0  0  0  0  0  0  0
   44.1742   57.6504   33.1951 C   0  0  0  0  0  0  0  0  0  0  0  0
   43.8879   57.6233   34.3898 O   0  0  0  0  0  0  0  0  0  0  0  0
   46.2090   56.1954   33.2286 C   0  0  0  0  0  0  0  0  0  0  0  0
   47.1800   57.3700   33.2215 C   0  0  0  0  0  0  0  0  0  0  0  0
   48.9309   56.8994   33.2851 S   0  0  2  0  0  0  0  0  0  0  0  0
   49.7318   58.5218   33.2511 C   0  0  0  0  0  0  0  0  0  0  0  0
   49.1864   56.3676   31.5717 C   0  0  0  0  0  0  0  0  0  0  0  0
   48.4427   55.0641   31.3220 C   0  0  1  0  0  0  0  0  0  0  0  0
   48.1489   54.9817   29.9482 O   0  0  0  0  0  0  0  0  0  0  0  0
   49.2429   53.8140   31.6275 C   0  0  1  0  0  0  0  0  0  0  0  0
   48.9225   53.3298   32.9089 O   0  0  0  0  0  0  0  0  0  0  0  0
   48.7993   52.8353   30.5554 C   0  0  1  0  0  0  0  0  0  0  0  0
   47.9272   51.8874   31.1242 O   0  0  0  0  0  0  0  0  0  0  0  0
   48.0619   53.6525   29.5020 C   0  0  2  0  0  0  0  0  0  0  0  0
   43.8919   58.6540   32.5399 O   0  0  0  0  0  0  0  0  0  0  0  0
   52.7425   53.4396   27.1083 N   0  0  0  0  0  0  0  0  0  0  0  0
   52.4760   53.5568   28.4575 C   0  0  0  0  0  0  0  0  0  0  0  0
   51.1706   53.5989   28.9121 N   0  0  0  0  0  0  0  0  0  0  0  0
   50.1387   53.5343   28.0423 C   0  0  0  0  0  0  0  0  0  0  0  0
   50.3832   53.4091   26.6828 C   0  0  0  0  0  0  0  0  0  0  0  0
   51.6942   53.3668   26.2156 C   0  0  0  0  0  0  0  0  0  0  0  0
   51.9478   53.2538   24.9144 N   0  0  0  0  0  0  0  0  0  0  0  0
   49.1874   53.3552   26.0548 N   0  0  0  0  0  0  0  0  0  0  0  0
   48.2032   53.4281   26.9815 C   0  0  0  0  0  0  0  0  0  0  0  0
   48.7782   53.5399   28.2203 N   0  0  0  0  0  0  0  0  0  0  0  0
  2  1  1  6  0  0  0
  2  3  1  0  0  0  0
  2  5  1  0  0  0  0
  3  4  1  0  0  0  0
  3 17  1  0  0  0  0
  5  6  1  0  0  0  0
  7  6  1  6  0  0  0
  7  8  1  0  0  0  0
  7  9  1  0  0  0  0
 10  9  1  6  0  0  0
 10 11  1  0  0  0  0
 10 12  1  0  0  0  0
 11 16  1  0  0  0  0
 12 13  1  1  0  0  0
 12 14  1  0  0  0  0
 14 15  1  1  0  0  0
 14 16  1  0  0  0  0
 16 27  1  6  0  0  0
 18 19  2  0  0  0  0
 18 23  1  0  0  0  0
 19 20  1  0  0  0  0
 20 21  2  0  0  0  0
 21 22  1  0  0  0  0
 21 27  1  0  0  0  0
 22 23  2  0  0  0  0
 22 25  1  0  0  0  0
 23 24  1  0  0  0  0
 25 26  2  0  0  0  0
 26 27  1  0  0  0  0
M  END
>  <CHROM.1>
176.18736429,65.75845594,-152.62951644,179.71533486,-70.06622447,154.24004324
74.28841735,48.44497838,55.04839635,30.50402885,2.18605452,-0.11931807,1.06811989

>  <Name>
ligand

>  <RI>
0

>  <Rbt.Current_Directory>
/home/itssahil/PROJECTS/Mol_Feturizer/New_Systems/rnas/3GX7

>  <Rbt.Executable>
rbdock ($Id: //depot/dev/client3/rdock/2013.1/src/exe/rbdock.cxx#4 $)

>  <Rbt.Library>
libRbt.so (2013.1, Build901 2013/11/27)

>  <Rbt.Parameter_File>
/export/apps/rDock/src/rDock_2013.1_src/data/scripts/dock_solv.prm

>  <Rbt.Receptor>
prm/blind_docking_100.prm

>  <SCORE>
-15.4461

>  <SCORE.INTER>
-11.5377

>  <SCORE.INTER.CONST>
1

>  <SCORE.INTER.POLAR>
0

>  <SCORE.INTER.ROT>
7

>  <SCORE.INTER.SOLV>
7.79458

>  <SCORE.INTER.VDW>
-18.5567

>  <SCORE.INTER.norm>
-0.427322

>  <SCORE.INTRA>
-3.90838

>  <SCORE.INTRA.DIHEDRAL>
-3.39715

>  <SCORE.INTRA.DIHEDRAL.0>
11.2699

>  <SCORE.INTRA.POLAR>
0

>  <SCORE.INTRA.POLAR.0>
0

>  <SCORE.INTRA.REPUL>
0

>  <SCORE.INTRA.REPUL.0>
0

>  <SCORE.INTRA.SOLV>
1.2265

>  <SCORE.INTRA.SOLV.lig_0>
-48.6447

>  <SCORE.INTRA.VDW>
-2.82305

>  <SCORE.INTRA.VDW.0>
-0.0211724

>  <SCORE.INTRA.norm>
-0.144755

>  <SCORE.RESTR>
0

>  <SCORE.RESTR.CAVITY>
0

>  <SCORE.RESTR.norm>
0

>  <SCORE.SYSTEM>
0

>  <SCORE.SYSTEM.CONST>
0

>  <SCORE.SYSTEM.DIHEDRAL>
0

>  <SCORE.SYSTEM.SOLV>
0

>  <SCORE.SYSTEM.norm>
0

>  <SCORE.heavy>
27

>  <SCORE.norm>
-0.572077

>  <RMSD>
6.789

$$$$
ligand
 OpenBabel11021811483D
libRbt.so/2013.1/901 2013/11/27
 27 29  0  0  0  0  0  0  0  0999 V2000
   46.6231   54.9167   34.7177 N   0  0  0  0  0  0  0  0  0  0  0  0
   47.8999   54.4203   35.2165 C   0  0  2  0  0  0  0  0  0  0  0  0
   47.9750   54.5596   36.7280 C   0  0  0  0  0  0  0  0  0  0  0  0
   48.7578   55.3560   37.2406 O   0  0  0  0  0  0  0  0  0  0  0  0
   49.0825   55.1298   34.5585 C   0  0  0  0  0  0  0  0  0  0  0  0
   48.9298   56.6405   34.4273 C   0  0  0  0  0  0  0  0  0  0  0  0
   47.9739   57.1774   32.9818 S   0  0  2  0  0  0  0  0  0  0  0  0
   48.9473   56.4646   31.6330 C   0  0  0  0  0  0  0  0  0  0  0  0
   48.4870   58.9124   32.8799 C   0  0  0  0  0  0  0  0  0  0  0  0
   47.7214   59.6099   31.7654 C   0  0  1  0  0  0  0  0  0  0  0  0
   48.0281   58.9666   30.5520 O   0  0  0  0  0  0  0  0  0  0  0  0
   46.2134   59.5212   31.8861 C   0  0  1  0  0  0  0  0  0  0  0  0
   45.7009   60.6905   32.4769 O   0  0  0  0  0  0  0  0  0  0  0  0
   45.7469   59.3958   30.4471 C   0  0  1  0  0  0  0  0  0  0  0  0
   45.2028   60.6245   30.0267 O   0  0  0  0  0  0  0  0  0  0  0  0
   46.9824   59.0650   29.6191 C   0  0  2  0  0  0  0  0  0  0  0  0
   47.2523   53.8831   37.4605 O   0  0  0  0  0  0  0  0  0  0  0  0
   49.2825   55.0370   27.1354 N   0  0  0  0  0  0  0  0  0  0  0  0
   49.8662   56.1917   27.6160 C   0  0  0  0  0  0  0  0  0  0  0  0
   49.0992   57.1532   28.2481 N   0  0  0  0  0  0  0  0  0  0  0  0
   47.7675   56.9799   28.3969 C   0  0  0  0  0  0  0  0  0  0  0  0
   47.1609   55.8240   27.9280 C   0  0  0  0  0  0  0  0  0  0  0  0
   47.9250   54.8508   27.2894 C   0  0  0  0  0  0  0  0  0  0  0  0
   47.3593   53.7387   26.8273 N   0  0  0  0  0  0  0  0  0  0  0  0
   45.8430   55.9069   28.2167 N   0  0  0  0  0  0  0  0  0  0  0  0
   45.6098   57.0725   28.8646 C   0  0  0  0  0  0  0  0  0  0  0  0
   46.7951   57.7497   28.9837 N   0  0  0  0  0  0  0  0  0  0  0  0
  2  1  1  6  0  0  0
  2  3  1  0  0  0  0
  2  5  1  0  0  0  0
  3  4  1  0  0  0  0
  3 17  1  0  0  0  0
  5  6  1  0  0  0  0
  7  6  1  1  0  0  0
  7  8  1  0  0  0  0
  7  9  1  0  0  0  0
 10  9  1  1  0  0  0
 10 11  1  0  0  0  0
 10 12  1  0  0  0  0
 11 16  1  0  0  0  0
 12 13  1  6  0  0  0
 12 14  1  0  0  0  0
 14 15  1  6  0  0  0
 14 16  1  0  0  0  0
 16 27  1  1  0  0  0
 18 19  2  0  0  0  0
 18 23  1  0  0  0  0
 19 20  1  0  0  0  0
 20 21  2  0  0  0  0
 21 22  1  0  0  0  0
 21 27  1  0  0  0  0
 22 23  2  0  0  0  0
 22 25  1  0  0  0  0
 23 24  1  0  0  0  0
 25 26  2  0  0  0  0
 26 27  1  0  0  0  0
M  END
>  <CHROM.1>
-111.95048723,43.49607016,-82.94931575,-58.93674062,-176.18647980,-61.03916022
-51.63903055,47.57582450,56.93201123,31.45145114,-1.34357252,1.22279546,-1.58853341

>  <Name>
ligand

>  <RI>
0

>  <Rbt.Current_Directory>
/home/itssahil/PROJECTS/Mol_Feturizer/New_Systems/rnas/3GX7

>  <Rbt.Executable>
rbdock ($Id: //depot/dev/client3/rdock/2013.1/src/exe/rbdock.cxx#4 $)

>  <Rbt.Library>
libRbt.so (2013.1, Build901 2013/11/27)

>  <Rbt.Parameter_File>
/export/apps/rDock/src/rDock_2013.1_src/data/scripts/dock_solv.prm

>  <Rbt.Receptor>
prm/pocket_docking_4.prm

>  <SCORE>
-16.24

>  <SCORE.INTER>
-13.7199

>  <SCORE.INTER.CONST>
1

>  <SCORE.INTER.POLAR>
0

>  <SCORE.INTER.ROT>
7

>  <SCORE.INTER.SOLV>
11.2731

>  <SCORE.INTER.VDW>
-21.171

>  <SCORE.INTER.norm>
-0.508144

>  <SCORE.INTRA>
-2.52333

>  <SCORE.INTRA.DIHEDRAL>
-4.62779

>  <SCORE.INTRA.DIHEDRAL.0>
11.2699

>  <SCORE.INTRA.POLAR>
0

>  <SCORE.INTRA.POLAR.0>
0

>  <SCORE.INTRA.REPUL>
0

>  <SCORE.INTRA.REPUL.0>
0

>  <SCORE.INTRA.SOLV>
1.45152

>  <SCORE.INTRA.SOLV.lig_0>
-48.6447

>  <SCORE.INTRA.VDW>
-0.935196

>  <SCORE.INTRA.VDW.0>
-0.0211724

>  <SCORE.INTRA.norm>
-0.0934568

>  <SCORE.RESTR>
0.00317931

>  <SCORE.RESTR.CAVITY>
0.00317931

>  <SCORE.RESTR.norm>
0.000117752

>  <SCORE.SYSTEM>
0

>  <SCORE.SYSTEM.CONST>
0

>  <SCORE.SYSTEM.DIHEDRAL>
0

>  <SCORE.SYSTEM.SOLV>
0

>  <SCORE.SYSTEM.norm>
0

>  <SCORE.heavy>
27

>  <SCORE.norm>
-0.601483

>  <RMSD>
6.802

$$$$
ligand
 OpenBabel11021811483D
libRbt.so/2013.1/901 2013/11/27
 27 29  0  0  0  0  0  0  0  0999 V2000
   43.7614   54.2387   33.3650 N   0  0  0  0  0  0  0  0  0  0  0  0
   44.4490   55.2780   34.1216 C   0  0  2  0  0  0  0  0  0  0  0  0
   44.3887   56.6057   33.3845 C   0  0  0  0  0  0  0  0  0  0  0  0
   44.7124   56.6748   32.2011 O   0  0  0  0  0  0  0  0  0  0  0  0
   45.8998   54.9007   34.4179 C   0  0  0  0  0  0  0  0  0  0  0  0
   46.7268   54.5280   33.1932 C   0  0  0  0  0  0  0  0  0  0  0  0
   48.4306   54.0244   33.5604 S   0  0  2  0  0  0  0  0  0  0  0  0
   49.1822   55.6144   33.9868 C   0  0  0  0  0  0  0  0  0  0  0  0
   49.0703   53.7951   31.8806 C   0  0  0  0  0  0  0  0  0  0  0  0
   48.8212   55.0517   31.0599 C   0  0  1  0  0  0  0  0  0  0  0  0
   50.0106   55.3771   30.3820 O   0  0  0  0  0  0  0  0  0  0  0  0
   47.7790   54.8963   29.9708 C   0  0  1  0  0  0  0  0  0  0  0  0
   46.5333   55.3763   30.4146 O   0  0  0  0  0  0  0  0  0  0  0  0
   48.3148   55.7542   28.8390 C   0  0  1  0  0  0  0  0  0  0  0  0
   47.5733   56.9493   28.7712 O   0  0  0  0  0  0  0  0  0  0  0  0
   49.7671   56.0633   29.1806 C   0  0  2  0  0  0  0  0  0  0  0  0
   44.0114   57.6285   33.9571 O   0  0  0  0  0  0  0  0  0  0  0  0
   50.3150   54.9848   24.0600 N   0  0  0  0  0  0  0  0  0  0  0  0
   49.2445   55.5755   24.7003 C   0  0  0  0  0  0  0  0  0  0  0  0
   49.2736   55.7823   26.0673 N   0  0  0  0  0  0  0  0  0  0  0  0
   50.3458   55.4021   26.7962 C   0  0  0  0  0  0  0  0  0  0  0  0
   51.4359   54.8132   26.1726 C   0  0  0  0  0  0  0  0  0  0  0  0
   51.4153   54.6001   24.7968 C   0  0  0  0  0  0  0  0  0  0  0  0
   52.4490   54.0304   24.1826 N   0  0  0  0  0  0  0  0  0  0  0  0
   52.3586   54.5486   27.1243 N   0  0  0  0  0  0  0  0  0  0  0  0
   51.8847   54.9675   28.3213 C   0  0  0  0  0  0  0  0  0  0  0  0
   50.6358   55.4994   28.1337 N   0  0  0  0  0  0  0  0  0  0  0  0
  2  1  1  6  0  0  0
  2  3  1  0  0  0  0
  2  5  1  0  0  0  0
  3  4  1  0  0  0  0
  3 17  1  0  0  0  0
  5  6  1  0  0  0  0
  7  6  1  6  0  0  0
  7  8  1  0  0  0  0
  7  9  1  0  0  0  0
 10  9  1  6  0  0  0
 10 11  1  0  0  0  0
 10 12  1  0  0  0  0
 11 16  1  0  0  0  0
 12 13  1  1  0  0  0
 12 14  1  0  0  0  0
 14 15  1  1  0  0  0
 14 16  1  0  0  0  0
 16 27  1  6  0  0  0
 18 19  2  0  0  0  0
 18 23  1  0  0  0  0
 19 20  1  0  0  0  0
 20 21  2  0  0  0  0
 21 22  1  0  0  0  0
 21 27  1  0  0  0  0
 22 23  2  0  0  0  0
 22 25  1  0  0  0  0
 23 24  1  0  0  0  0
 25 26  2  0  0  0  0
 26 27  1  0  0  0  0
M  END
>  <CHROM.1>
-50.49361447,54.28283961,-177.91700591,-73.11813113,53.35123369,133.04001738
148.01782471,48.39268436,55.26258904,30.02810100,2.22346164,-0.36030213,1.76949802

>  <Name>
ligand

>  <RI>
0

>  <Rbt.Current_Directory>
/home/itssahil/PROJECTS/Mol_Feturizer/New_Systems/rnas/3GX7

>  <Rbt.Executable>
rbdock ($Id: //depot/dev/client3/rdock/2013.1/src/exe/rbdock.cxx#4 $)

>  <Rbt.Library>
libRbt.so (2013.1, Build901 2013/11/27)

>  <Rbt.Parameter_File>
/export/apps/rDock/src/rDock_2013.1_src/data/scripts/dock_solv.prm

>  <Rbt.Receptor>
prm/pocket_docking_8.prm

>  <SCORE>
-15.5882

>  <SCORE.INTER>
-13.0316

>  <SCORE.INTER.CONST>
1

>  <SCORE.INTER.POLAR>
0

>  <SCORE.INTER.ROT>
7

>  <SCORE.INTER.SOLV>
5.72762

>  <SCORE.INTER.VDW>
-18.8636

>  <SCORE.INTER.norm>
-0.482652

>  <SCORE.INTRA>
-2.55664

>  <SCORE.INTRA.DIHEDRAL>
-3.24363

>  <SCORE.INTRA.DIHEDRAL.0>
11.2699

>  <SCORE.INTRA.POLAR>
0

>  <SCORE.INTRA.POLAR.0>
0

>  <SCORE.INTRA.REPUL>
0

>  <SCORE.INTRA.REPUL.0>
0

>  <SCORE.INTRA.SOLV>
0.267248

>  <SCORE.INTRA.SOLV.lig_0>
-48.6447

>  <SCORE.INTRA.VDW>
-1.06845

>  <SCORE.INTRA.VDW.0>
-0.0211724

>  <SCORE.INTRA.norm>
-0.0946905

>  <SCORE.RESTR>
0

>  <SCORE.RESTR.CAVITY>
0

>  <SCORE.RESTR.norm>
0

>  <SCORE.SYSTEM>
0

>  <SCORE.SYSTEM.CONST>
0

>  <SCORE.SYSTEM.DIHEDRAL>
0

>  <SCORE.SYSTEM.SOLV>
0

>  <SCORE.SYSTEM.norm>
0

>  <SCORE.heavy>
27

>  <SCORE.norm>
-0.577342

>  <RMSD>
6.817

$$$$
ligand
 OpenBabel11021811483D
libRbt.so/2013.1/901 2013/11/27
 27 29  0  0  0  0  0  0  0  0999 V2000
   46.8695   54.6988   31.2884 N   0  0  0  0  0  0  0  0  0  0  0  0
   48.0359   55.0348   32.0959 C   0  0  2  0  0  0  0  0  0  0  0  0
   48.8848   53.8001   32.3501 C   0  0  0  0  0  0  0  0  0  0  0  0
   49.9460   53.6415   31.7513 O   0  0  0  0  0  0  0  0  0  0  0  0
   47.6425   55.6902   33.4189 C   0  0  0  0  0  0  0  0  0  0  0  0
   46.9368   57.0340   33.2822 C   0  0  0  0  0  0  0  0  0  0  0  0
   45.2800   56.9427   32.5485 S   0  0  2  0  0  0  0  0  0  0  0  0
   44.8170   58.6917   32.5089 C   0  0  0  0  0  0  0  0  0  0  0  0
   44.3221   56.3786   33.9797 C   0  0  0  0  0  0  0  0  0  0  0  0
   44.2598   54.8585   33.9893 C   0  0  1  0  0  0  0  0  0  0  0  0
   45.3206   54.3800   34.7804 O   0  0  0  0  0  0  0  0  0  0  0  0
   43.0085   54.2835   34.6218 C   0  0  1  0  0  0  0  0  0  0  0  0
   42.0667   53.9544   33.6300 O   0  0  0  0  0  0  0  0  0  0  0  0
   43.5065   53.0351   35.3273 C   0  0  1  0  0  0  0  0  0  0  0  0
   43.1254   51.9000   34.5865 O   0  0  0  0  0  0  0  0  0  0  0  0
   45.0258   53.1401   35.3713 C   0  0  2  0  0  0  0  0  0  0  0  0
   48.5271   52.9445   33.1603 O   0  0  0  0  0  0  0  0  0  0  0  0
   48.6772   54.7930   38.7799 N   0  0  0  0  0  0  0  0  0  0  0  0
   48.6298   54.9896   37.4146 C   0  0  0  0  0  0  0  0  0  0  0  0
   47.5839   54.4766   36.6694 N   0  0  0  0  0  0  0  0  0  0  0  0
   46.5989   53.7694   37.2653 C   0  0  0  0  0  0  0  0  0  0  0  0
   46.6224   53.5658   38.6371 C   0  0  0  0  0  0  0  0  0  0  0  0
   47.6719   54.0777   39.3955 C   0  0  0  0  0  0  0  0  0  0  0  0
   47.7146   53.8865   40.7115 N   0  0  0  0  0  0  0  0  0  0  0  0
   45.5250   52.8473   38.9635 N   0  0  0  0  0  0  0  0  0  0  0  0
   44.8088   52.6082   37.8398 C   0  0  0  0  0  0  0  0  0  0  0  0
   45.4631   53.1743   36.7771 N   0  0  0  0  0  0  0  0  0  0  0  0
  2  1  1  1  0  0  0
  2  3  1  0  0  0  0
  2  5  1  0  0  0  0
  3  4  1  0  0  0  0
  3 17  1  0  0  0  0
  5  6  1  0  0  0  0
  7  6  1  1  0  0  0
  7  8  1  0  0  0  0
  7  9  1  0  0  0  0
 10  9  1  1  0  0  0
 10 11  1  0  0  0  0
 10 12  1  0  0  0  0
 11 16  1  0  0  0  0
 12 13  1  6  0  0  0
 12 14  1  0  0  0  0
 14 15  1  6  0  0  0
 14 16  1  0  0  0  0
 16 27  1  1  0  0  0
 18 19  2  0  0  0  0
 18 23  1  0  0  0  0
 19 20  1  0  0  0  0
 20 21  2  0  0  0  0
 21 22  1  0  0  0  0
 21 27  1  0  0  0  0
 22 23  2  0  0  0  0
 22 25  1  0  0  0  0
 23 24  1  0  0  0  0
 25 26  2  0  0  0  0
 26 27  1  0  0  0  0
M  END
>  <CHROM.1>
105.30930607,-63.69015904,67.89978328,-178.23058711,-91.52886178,92.94032617
-38.40681669,46.11192084,54.51798461,35.00723127,-1.67462159,0.07738584,1.91431950

>  <Name>
ligand

>  <RI>
0

>  <Rbt.Current_Directory>
/home/itssahil/PROJECTS/Mol_Feturizer/New_Systems/rnas/3GX7

>  <Rbt.Executable>
rbdock ($Id: //depot/dev/client3/rdock/2013.1/src/exe/rbdock.cxx#4 $)

>  <Rbt.Library>
libRbt.so (2013.1, Build901 2013/11/27)

>  <Rbt.Parameter_File>
/export/apps/rDock/src/rDock_2013.1_src/data/scripts/dock_solv.prm

>  <Rbt.Receptor>
prm/pocket_docking_6.prm

>  <SCORE>
-22.1847

>  <SCORE.INTER>
-18.4467

>  <SCORE.INTER.CONST>
1

>  <SCORE.INTER.POLAR>
0

>  <SCORE.INTER.ROT>
7

>  <SCORE.INTER.SOLV>
8.6295

>  <SCORE.INTER.VDW>
-23.4409

>  <SCORE.INTER.norm>
-0.68321

>  <SCORE.INTRA>
-3.73807

>  <SCORE.INTRA.DIHEDRAL>
-3.05256

>  <SCORE.INTRA.DIHEDRAL.0>
11.2699

>  <SCORE.INTRA.POLAR>
0

>  <SCORE.INTRA.POLAR.0>
0

>  <SCORE.INTRA.REPUL>
0

>  <SCORE.INTRA.REPUL.0>
0

>  <SCORE.INTRA.SOLV>
2.2845

>  <SCORE.INTRA.SOLV.lig_0>
-48.6447

>  <SCORE.INTRA.VDW>
-3.35404

>  <SCORE.INTRA.VDW.0>
-0.0211724

>  <SCORE.INTRA.norm>
-0.138447

>  <SCORE.RESTR>
0

>  <SCORE.RESTR.CAVITY>
0

>  <SCORE.RESTR.norm>
0

>  <SCORE.SYSTEM>
0

>  <SCORE.SYSTEM.CONST>
0

>  <SCORE.SYSTEM.DIHEDRAL>
0

>  <SCORE.SYSTEM.SOLV>
0

>  <SCORE.SYSTEM.norm>
0

>  <SCORE.heavy>
27

>  <SCORE.norm>
-0.821657

>  <RMSD>
6.840

$$$$
ligand
 OpenBabel11021811483D
libRbt.so/2013.1/901 2013/11/27
 27 29  0  0  0  0  0  0  0  0999 V2000
   48.2110   54.3930   35.8636 N   0  0  0  0  0  0  0  0  0  0  0  0
   47.0684   54.9018   35.1145 C   0  0  2  0  0  0  0  0  0  0  0  0
   46.1417   53.7657   34.7143 C   0  0  0  0  0  0  0  0  0  0  0  0
   46.3958   53.0732   33.7316 O   0  0  0  0  0  0  0  0  0  0  0  0
   47.5030   55.6921   33.8810 C   0  0  0  0  0  0  0  0  0  0  0  0
   48.2739   56.9722   34.1803 C   0  0  0  0  0  0  0  0  0  0  0  0
   48.8501   57.8649   32.7098 S   0  0  2  0  0  0  0  0  0  0  0  0
   49.4268   59.4151   33.4440 C   0  0  0  0  0  0  0  0  0  0  0  0
   47.2649   58.3981   32.0121 C   0  0  0  0  0  0  0  0  0  0  0  0
   47.4441   58.7563   30.5443 C   0  0  1  0  0  0  0  0  0  0  0  0
   48.5629   58.0571   30.0546 O   0  0  0  0  0  0  0  0  0  0  0  0
   46.2961   58.3360   29.6489 C   0  0  1  0  0  0  0  0  0  0  0  0
   45.4240   59.4183   29.4321 O   0  0  0  0  0  0  0  0  0  0  0  0
   46.9815   57.9294   28.3569 C   0  0  1  0  0  0  0  0  0  0  0  0
   46.7893   58.9370   27.3924 O   0  0  0  0  0  0  0  0  0  0  0  0
   48.4648   57.7946   28.6781 C   0  0  2  0  0  0  0  0  0  0  0  0
   45.1280   53.5185   35.3682 O   0  0  0  0  0  0  0  0  0  0  0  0
   49.3436   53.0555   30.7882 N   0  0  0  0  0  0  0  0  0  0  0  0
   48.9166   54.2069   31.4183 C   0  0  0  0  0  0  0  0  0  0  0  0
   48.7388   55.3741   30.6983 N   0  0  0  0  0  0  0  0  0  0  0  0
   48.9881   55.4063   29.3708 C   0  0  0  0  0  0  0  0  0  0  0  0
   49.4111   54.2592   28.7157 C   0  0  0  0  0  0  0  0  0  0  0  0
   49.5938   53.0795   29.4324 C   0  0  0  0  0  0  0  0  0  0  0  0
   50.0055   51.9713   28.8221 N   0  0  0  0  0  0  0  0  0  0  0  0
   49.5710   54.5687   27.4097 N   0  0  0  0  0  0  0  0  0  0  0  0
   49.2468   55.8702   27.2259 C   0  0  0  0  0  0  0  0  0  0  0  0
   48.8831   56.4037   28.4346 N   0  0  0  0  0  0  0  0  0  0  0  0
  2  1  1  6  0  0  0
  2  3  1  0  0  0  0
  2  5  1  0  0  0  0
  3  4  1  0  0  0  0
  3 17  1  0  0  0  0
  5  6  1  0  0  0  0
  7  6  1  1  0  0  0
  7  8  1  0  0  0  0
  7  9  1  0  0  0  0
 10  9  1  1  0  0  0
 10 11  1  0  0  0  0
 10 12  1  0  0  0  0
 11 16  1  0  0  0  0
 12 13  1  6  0  0  0
 12 14  1  0  0  0  0
 14 15  1  6  0  0  0
 14 16  1  0  0  0  0
 16 27  1  1  0  0  0
 18 19  2  0  0  0  0
 18 23  1  0  0  0  0
 19 20  1  0  0  0  0
 20 21  2  0  0  0  0
 21 22  1  0  0  0  0
 21 27  1  0  0  0  0
 22 23  2  0  0  0  0
 22 25  1  0  0  0  0
 23 24  1  0  0  0  0
 25 26  2  0  0  0  0
 26 27  1  0  0  0  0
M  END
>  <CHROM.1>
-81.01961946,-64.65727467,177.38770516,170.34651751,-160.84087635,24.58171976
17.06448116,48.02438866,56.11845675,31.13966758,-2.01711701,1.22607318,-0.75648974

>  <Name>
ligand

>  <RI>
0

>  <Rbt.Current_Directory>
/home/itssahil/PROJECTS/Mol_Feturizer/New_Systems/rnas/3GX7

>  <Rbt.Executable>
rbdock ($Id: //depot/dev/client3/rdock/2013.1/src/exe/rbdock.cxx#4 $)

>  <Rbt.Library>
libRbt.so (2013.1, Build901 2013/11/27)

>  <Rbt.Parameter_File>
/export/apps/rDock/src/rDock_2013.1_src/data/scripts/dock_solv.prm

>  <Rbt.Receptor>
prm/pocket_docking_3.prm

>  <SCORE>
-10.4341

>  <SCORE.INTER>
-6.5676

>  <SCORE.INTER.CONST>
1

>  <SCORE.INTER.POLAR>
0

>  <SCORE.INTER.ROT>
7

>  <SCORE.INTER.SOLV>
18.6958

>  <SCORE.INTER.VDW>
-18.877

>  <SCORE.INTER.norm>
-0.243244

>  <SCORE.INTRA>
-3.97139

>  <SCORE.INTRA.DIHEDRAL>
-2.78164

>  <SCORE.INTRA.DIHEDRAL.0>
11.2699

>  <SCORE.INTRA.POLAR>
0

>  <SCORE.INTRA.POLAR.0>
0

>  <SCORE.INTRA.REPUL>
0

>  <SCORE.INTRA.REPUL.0>
0

>  <SCORE.INTRA.SOLV>
-0.334726

>  <SCORE.INTRA.SOLV.lig_0>
-48.6447

>  <SCORE.INTRA.VDW>
-2.4132

>  <SCORE.INTRA.VDW.0>
-0.0211724

>  <SCORE.INTRA.norm>
-0.147088

>  <SCORE.RESTR>
0.104905

>  <SCORE.RESTR.CAVITY>
0.104905

>  <SCORE.RESTR.norm>
0.00388538

>  <SCORE.SYSTEM>
0

>  <SCORE.SYSTEM.CONST>
0

>  <SCORE.SYSTEM.DIHEDRAL>
0

>  <SCORE.SYSTEM.SOLV>
0

>  <SCORE.SYSTEM.norm>
0

>  <SCORE.heavy>
27

>  <SCORE.norm>
-0.386447

>  <RMSD>
6.841

$$$$
ligand
 OpenBabel11021811483D
libRbt.so/2013.1/901 2013/11/27
 27 29  0  0  0  0  0  0  0  0999 V2000
   46.8660   52.6769   37.2608 N   0  0  0  0  0  0  0  0  0  0  0  0
   47.8715   53.7313   37.2094 C   0  0  2  0  0  0  0  0  0  0  0  0
   47.9039   54.5044   38.5174 C   0  0  0  0  0  0  0  0  0  0  0  0
   47.0011   54.3716   39.3404 O   0  0  0  0  0  0  0  0  0  0  0  0
   47.6393   54.6824   36.0362 C   0  0  0  0  0  0  0  0  0  0  0  0
   48.0060   54.1147   34.6702 C   0  0  0  0  0  0  0  0  0  0  0  0
   47.7556   55.2614   33.2868 S   0  0  2  0  0  0  0  0  0  0  0  0
   48.9608   54.6362   32.0904 C   0  0  0  0  0  0  0  0  0  0  0  0
   48.6332   56.7190   33.9106 C   0  0  0  0  0  0  0  0  0  0  0  0
   48.4562   57.8788   32.9421 C   0  0  1  0  0  0  0  0  0  0  0  0
   49.2856   57.6518   31.8281 O   0  0  0  0  0  0  0  0  0  0  0  0
   47.0594   58.0139   32.3700 C   0  0  1  0  0  0  0  0  0  0  0  0
   46.3280   58.9766   33.0892 O   0  0  0  0  0  0  0  0  0  0  0  0
   47.3008   58.4753   30.9441 C   0  0  1  0  0  0  0  0  0  0  0  0
   47.0018   59.8475   30.8433 O   0  0  0  0  0  0  0  0  0  0  0  0
   48.7796   58.2442   30.6592 C   0  0  2  0  0  0  0  0  0  0  0  0
   48.8337   55.2695   38.7751 O   0  0  0  0  0  0  0  0  0  0  0  0
   47.4040   57.0388   25.7257 N   0  0  0  0  0  0  0  0  0  0  0  0
   47.0325   58.1379   26.4734 C   0  0  0  0  0  0  0  0  0  0  0  0
   47.4941   58.2926   27.7677 N   0  0  0  0  0  0  0  0  0  0  0  0
   48.3080   57.3670   28.3212 C   0  0  0  0  0  0  0  0  0  0  0  0
   48.6999   56.2582   27.5858 C   0  0  0  0  0  0  0  0  0  0  0  0
   48.2394   56.0934   26.2822 C   0  0  0  0  0  0  0  0  0  0  0  0
   48.5994   55.0327   25.5641 N   0  0  0  0  0  0  0  0  0  0  0  0
   49.5118   55.5134   28.3689 N   0  0  0  0  0  0  0  0  0  0  0  0
   49.6511   56.1302   29.5659 C   0  0  0  0  0  0  0  0  0  0  0  0
   48.9092   57.2823   29.5516 N   0  0  0  0  0  0  0  0  0  0  0  0
  2  1  1  1  0  0  0
  2  3  1  0  0  0  0
  2  5  1  0  0  0  0
  3  4  1  0  0  0  0
  3 17  1  0  0  0  0
  5  6  1  0  0  0  0
  7  6  1  1  0  0  0
  7  8  1  0  0  0  0
  7  9  1  0  0  0  0
 10  9  1  1  0  0  0
 10 11  1  0  0  0  0
 10 12  1  0  0  0  0
 11 16  1  0  0  0  0
 12 13  1  1  0  0  0
 12 14  1  0  0  0  0
 14 15  1  1  0  0  0
 14 16  1  0  0  0  0
 16 27  1  6  0  0  0
 18 19  2  0  0  0  0
 18 23  1  0  0  0  0
 19 20  1  0  0  0  0
 20 21  2  0  0  0  0
 21 22  1  0  0  0  0
 21 27  1  0  0  0  0
 22 23  2  0  0  0  0
 22 25  1  0  0  0  0
 23 24  1  0  0  0  0
 25 26  2  0  0  0  0
 26 27  1  0  0  0  0
M  END
>  <CHROM.1>
-13.00289679,-74.28043098,-178.93607628,153.82670751,-175.26479816,-75.60497292
166.46366852,48.03026254,56.33060689,32.01844702,-1.73588742,1.32383525,-1.15678019

>  <Name>
ligand

>  <RI>
0

>  <Rbt.Current_Directory>
/home/itssahil/PROJECTS/Mol_Feturizer/New_Systems/rnas/3GX7

>  <Rbt.Executable>
rbdock ($Id: //depot/dev/client3/rdock/2013.1/src/exe/rbdock.cxx#4 $)

>  <Rbt.Library>
libRbt.so (2013.1, Build901 2013/11/27)

>  <Rbt.Parameter_File>
/export/apps/rDock/src/rDock_2013.1_src/data/scripts/dock_solv.prm

>  <Rbt.Receptor>
prm/pocket_docking_8.prm

>  <SCORE>
-17.4429

>  <SCORE.INTER>
-13.5508

>  <SCORE.INTER.CONST>
1

>  <SCORE.INTER.POLAR>
0

>  <SCORE.INTER.ROT>
7

>  <SCORE.INTER.SOLV>
13.1245

>  <SCORE.INTER.VDW>
-21.6754

>  <SCORE.INTER.norm>
-0.501881

>  <SCORE.INTRA>
-3.89216

>  <SCORE.INTRA.DIHEDRAL>
-5.14043

>  <SCORE.INTRA.DIHEDRAL.0>
11.2699

>  <SCORE.INTRA.POLAR>
0

>  <SCORE.INTRA.POLAR.0>
0

>  <SCORE.INTRA.REPUL>
0

>  <SCORE.INTRA.REPUL.0>
0

>  <SCORE.INTRA.SOLV>
-0.228695

>  <SCORE.INTRA.SOLV.lig_0>
-48.6447

>  <SCORE.INTRA.VDW>
-1.2076

>  <SCORE.INTRA.VDW.0>
-0.0211724

>  <SCORE.INTRA.norm>
-0.144154

>  <SCORE.RESTR>
0

>  <SCORE.RESTR.CAVITY>
0

>  <SCORE.RESTR.norm>
0

>  <SCORE.SYSTEM>
0

>  <SCORE.SYSTEM.CONST>
0

>  <SCORE.SYSTEM.DIHEDRAL>
0

>  <SCORE.SYSTEM.SOLV>
0

>  <SCORE.SYSTEM.norm>
0

>  <SCORE.heavy>
27

>  <SCORE.norm>
-0.646035

>  <RMSD>
6.864

$$$$
ligand
 OpenBabel11021811483D
libRbt.so/2013.1/901 2013/11/27
 27 29  0  0  0  0  0  0  0  0999 V2000
   44.1078   53.4630   35.7602 N   0  0  0  0  0  0  0  0  0  0  0  0
   45.4876   53.2287   35.3521 C   0  0  2  0  0  0  0  0  0  0  0  0
   46.3530   52.8957   36.5562 C   0  0  0  0  0  0  0  0  0  0  0  0
   47.3516   52.1913   36.4281 O   0  0  0  0  0  0  0  0  0  0  0  0
   46.0678   54.4227   34.5952 C   0  0  0  0  0  0  0  0  0  0  0  0
   47.3251   54.1194   33.7891 C   0  0  0  0  0  0  0  0  0  0  0  0
   48.1091   55.5749   33.0418 S   0  0  2  0  0  0  0  0  0  0  0  0
   48.6370   56.4841   34.5148 C   0  0  0  0  0  0  0  0  0  0  0  0
   46.6416   56.5285   32.5718 C   0  0  0  0  0  0  0  0  0  0  0  0
   47.0610   57.9007   32.0659 C   0  0  1  0  0  0  0  0  0  0  0  0
   47.9041   57.7204   30.9537 O   0  0  0  0  0  0  0  0  0  0  0  0
   45.9207   58.7602   31.5584 C   0  0  1  0  0  0  0  0  0  0  0  0
   45.5025   59.6571   32.5582 O   0  0  0  0  0  0  0  0  0  0  0  0
   46.5310   59.5068   30.3860 C   0  0  1  0  0  0  0  0  0  0  0  0
   46.7862   60.8384   30.7658 O   0  0  0  0  0  0  0  0  0  0  0  0
   47.8406   58.8006   30.0579 C   0  0  2  0  0  0  0  0  0  0  0  0
   46.0716   53.3285   37.6742 O   0  0  0  0  0  0  0  0  0  0  0  0
   49.8026   55.3717   26.5828 N   0  0  0  0  0  0  0  0  0  0  0  0
   50.1845   55.5749   27.8934 C   0  0  0  0  0  0  0  0  0  0  0  0
   49.5515   56.5306   28.6669 N   0  0  0  0  0  0  0  0  0  0  0  0
   48.5567   57.2839   28.1489 C   0  0  0  0  0  0  0  0  0  0  0  0
   48.1517   57.0918   26.8363 C   0  0  0  0  0  0  0  0  0  0  0  0
   48.7837   56.1325   26.0495 C   0  0  0  0  0  0  0  0  0  0  0  0
   48.4131   55.9390   24.7864 N   0  0  0  0  0  0  0  0  0  0  0  0
   47.1452   57.9590   26.5871 N   0  0  0  0  0  0  0  0  0  0  0  0
   46.8990   58.6770   27.7081 C   0  0  0  0  0  0  0  0  0  0  0  0
   47.7677   58.2693   28.6864 N   0  0  0  0  0  0  0  0  0  0  0  0
  2  1  1  1  0  0  0
  2  3  1  0  0  0  0
  2  5  1  0  0  0  0
  3  4  1  0  0  0  0
  3 17  1  0  0  0  0
  5  6  1  0  0  0  0
  7  6  1  1  0  0  0
  7  8  1  0  0  0  0
  7  9  1  0  0  0  0
 10  9  1  6  0  0  0
 10 11  1  0  0  0  0
 10 12  1  0  0  0  0
 11 16  1  0  0  0  0
 12 13  1  1  0  0  0
 12 14  1  0  0  0  0
 14 15  1  1  0  0  0
 14 16  1  0  0  0  0
 16 27  1  6  0  0  0
 18 19  2  0  0  0  0
 18 23  1  0  0  0  0
 19 20  1  0  0  0  0
 20 21  2  0  0  0  0
 21 22  1  0  0  0  0
 21 27  1  0  0  0  0
 22 23  2  0  0  0  0
 22 25  1  0  0  0  0
 23 24  1  0  0  0  0
 25 26  2  0  0  0  0
 26 27  1  0  0  0  0
M  END
>  <CHROM.1>
151.92135518,-162.77611023,-173.65542398,65.49606586,173.00910120,59.55251457
-47.10776576,47.37568163,56.41088687,31.35496817,-2.05614090,1.12053681,-0.71771695

>  <Name>
ligand

>  <RI>
0

>  <Rbt.Current_Directory>
/home/itssahil/PROJECTS/Mol_Feturizer/New_Systems/rnas/3GX7

>  <Rbt.Executable>
rbdock ($Id: //depot/dev/client3/rdock/2013.1/src/exe/rbdock.cxx#4 $)

>  <Rbt.Library>
libRbt.so (2013.1, Build901 2013/11/27)

>  <Rbt.Parameter_File>
/export/apps/rDock/src/rDock_2013.1_src/data/scripts/dock_solv.prm

>  <Rbt.Receptor>
prm/pocket_docking_6.prm

>  <SCORE>
-16.2502

>  <SCORE.INTER>
-11.9011

>  <SCORE.INTER.CONST>
1

>  <SCORE.INTER.POLAR>
0

>  <SCORE.INTER.ROT>
7

>  <SCORE.INTER.SOLV>
15.5206

>  <SCORE.INTER.VDW>
-21.3743

>  <SCORE.INTER.norm>
-0.440781

>  <SCORE.INTRA>
-4.34911

>  <SCORE.INTRA.DIHEDRAL>
-6.34436

>  <SCORE.INTRA.DIHEDRAL.0>
11.2699

>  <SCORE.INTRA.POLAR>
0

>  <SCORE.INTRA.POLAR.0>
0

>  <SCORE.INTRA.REPUL>
0

>  <SCORE.INTRA.REPUL.0>
0

>  <SCORE.INTRA.SOLV>
-1.04579

>  <SCORE.INTRA.SOLV.lig_0>
-48.6447

>  <SCORE.INTRA.VDW>
-0.654028

>  <SCORE.INTRA.VDW.0>
-0.0211724

>  <SCORE.INTRA.norm>
-0.161078

>  <SCORE.RESTR>
0

>  <SCORE.RESTR.CAVITY>
0

>  <SCORE.RESTR.norm>
0

>  <SCORE.SYSTEM>
0

>  <SCORE.SYSTEM.CONST>
0

>  <SCORE.SYSTEM.DIHEDRAL>
0

>  <SCORE.SYSTEM.SOLV>
0

>  <SCORE.SYSTEM.norm>
0

>  <SCORE.heavy>
27

>  <SCORE.norm>
-0.601859

>  <RMSD>
6.903

$$$$
ligand
 OpenBabel11021811483D
libRbt.so/2013.1/901 2013/11/27
 27 29  0  0  0  0  0  0  0  0999 V2000
   48.8717   55.9923   34.0698 N   0  0  0  0  0  0  0  0  0  0  0  0
   48.8668   54.6114   33.6025 C   0  0  2  0  0  0  0  0  0  0  0  0
   49.5044   54.5094   32.2267 C   0  0  0  0  0  0  0  0  0  0  0  0
   49.8591   53.4188   31.7855 O   0  0  0  0  0  0  0  0  0  0  0  0
   47.4566   54.0235   33.5791 C   0  0  0  0  0  0  0  0  0  0  0  0
   46.4427   54.8252   32.7718 C   0  0  0  0  0  0  0  0  0  0  0  0
   44.8068   54.0523   32.6382 S   0  0  2  0  0  0  0  0  0  0  0  0
   43.9499   55.2283   31.5622 C   0  0  0  0  0  0  0  0  0  0  0  0
   44.1034   54.5014   34.2467 C   0  0  0  0  0  0  0  0  0  0  0  0
   44.2413   53.3335   35.2119 C   0  0  1  0  0  0  0  0  0  0  0  0
   45.5994   53.2072   35.5581 O   0  0  0  0  0  0  0  0  0  0  0  0
   43.5160   53.5166   36.5298 C   0  0  1  0  0  0  0  0  0  0  0  0
   42.2674   52.8695   36.4944 O   0  0  0  0  0  0  0  0  0  0  0  0
   44.4371   52.8553   37.5390 C   0  0  1  0  0  0  0  0  0  0  0  0
   43.8962   51.6111   37.9157 O   0  0  0  0  0  0  0  0  0  0  0  0
   45.7727   52.6489   36.8354 C   0  0  2  0  0  0  0  0  0  0  0  0
   49.6707   55.5129   31.5327 O   0  0  0  0  0  0  0  0  0  0  0  0
   47.3175   54.7235   41.4173 N   0  0  0  0  0  0  0  0  0  0  0  0
   46.1672   54.0109   41.1452 C   0  0  0  0  0  0  0  0  0  0  0  0
   45.9223   53.5376   39.8691 N   0  0  0  0  0  0  0  0  0  0  0  0
   46.8005   53.7729   38.8696 C   0  0  0  0  0  0  0  0  0  0  0  0
   47.9664   54.4807   39.1220 C   0  0  0  0  0  0  0  0  0  0  0  0
   48.2212   54.9618   40.4035 C   0  0  0  0  0  0  0  0  0  0  0  0
   49.3310   55.6485   40.6625 N   0  0  0  0  0  0  0  0  0  0  0  0
   48.6579   54.5575   37.9631 N   0  0  0  0  0  0  0  0  0  0  0  0
   47.9669   53.9068   36.9977 C   0  0  0  0  0  0  0  0  0  0  0  0
   46.8113   53.4145   37.5453 N   0  0  0  0  0  0  0  0  0  0  0  0
  2  1  1  6  0  0  0
  2  3  1  0  0  0  0
  2  5  1  0  0  0  0
  3  4  1  0  0  0  0
  3 17  1  0  0  0  0
  5  6  1  0  0  0  0
  7  6  1  1  0  0  0
  7  8  1  0  0  0  0
  7  9  1  0  0  0  0
 10  9  1  6  0  0  0
 10 11  1  0  0  0  0
 10 12  1  0  0  0  0
 11 16  1  0  0  0  0
 12 13  1  6  0  0  0
 12 14  1  0  0  0  0
 14 15  1  6  0  0  0
 14 16  1  0  0  0  0
 16 27  1  1  0  0  0
 18 19  2  0  0  0  0
 18 23  1  0  0  0  0
 19 20  1  0  0  0  0
 20 21  2  0  0  0  0
 21 22  1  0  0  0  0
 21 27  1  0  0  0  0
 22 23  2  0  0  0  0
 22 25  1  0  0  0  0
 23 24  1  0  0  0  0
 25 26  2  0  0  0  0
 26 27  1  0  0  0  0
M  END
>  <CHROM.1>
164.14434289,55.04429050,175.31125054,-176.99434808,-98.58109688,71.48300875
139.98135547,46.48901509,54.04990526,35.95232524,-1.51876388,0.28517042,1.62585567

>  <Name>
ligand

>  <RI>
0

>  <Rbt.Current_Directory>
/home/itssahil/PROJECTS/Mol_Feturizer/New_Systems/rnas/3GX7

>  <Rbt.Executable>
rbdock ($Id: //depot/dev/client3/rdock/2013.1/src/exe/rbdock.cxx#4 $)

>  <Rbt.Library>
libRbt.so (2013.1, Build901 2013/11/27)

>  <Rbt.Parameter_File>
/export/apps/rDock/src/rDock_2013.1_src/data/scripts/dock_solv.prm

>  <Rbt.Receptor>
prm/pocket_docking_8.prm

>  <SCORE>
-18.6956

>  <SCORE.INTER>
-13.8656

>  <SCORE.INTER.CONST>
1

>  <SCORE.INTER.POLAR>
0

>  <SCORE.INTER.ROT>
7

>  <SCORE.INTER.SOLV>
18.9299

>  <SCORE.INTER.VDW>
-23.8203

>  <SCORE.INTER.norm>
-0.513539

>  <SCORE.INTRA>
-4.83007

>  <SCORE.INTRA.DIHEDRAL>
-4.85141

>  <SCORE.INTRA.DIHEDRAL.0>
11.2699

>  <SCORE.INTRA.POLAR>
0

>  <SCORE.INTRA.POLAR.0>
0

>  <SCORE.INTRA.REPUL>
0

>  <SCORE.INTRA.REPUL.0>
0

>  <SCORE.INTRA.SOLV>
0.0230201

>  <SCORE.INTRA.SOLV.lig_0>
-48.6447

>  <SCORE.INTRA.VDW>
-2.41588

>  <SCORE.INTRA.VDW.0>
-0.0211724

>  <SCORE.INTRA.norm>
-0.178892

>  <SCORE.RESTR>
0

>  <SCORE.RESTR.CAVITY>
0

>  <SCORE.RESTR.norm>
0

>  <SCORE.SYSTEM>
0

>  <SCORE.SYSTEM.CONST>
0

>  <SCORE.SYSTEM.DIHEDRAL>
0

>  <SCORE.SYSTEM.SOLV>
0

>  <SCORE.SYSTEM.norm>
0

>  <SCORE.heavy>
27

>  <SCORE.norm>
-0.692431

>  <RMSD>
6.917

$$$$
ligand
 OpenBabel11021811483D
libRbt.so/2013.1/901 2013/11/27
 27 29  0  0  0  0  0  0  0  0999 V2000
   47.3254   53.8586   33.2114 N   0  0  0  0  0  0  0  0  0  0  0  0
   47.8325   54.1015   34.5565 C   0  0  2  0  0  0  0  0  0  0  0  0
   46.7587   53.8157   35.5933 C   0  0  0  0  0  0  0  0  0  0  0  0
   45.6546   54.3481   35.5075 O   0  0  0  0  0  0  0  0  0  0  0  0
   48.3598   55.5266   34.7172 C   0  0  0  0  0  0  0  0  0  0  0  0
   49.5675   55.8633   33.8508 C   0  0  0  0  0  0  0  0  0  0  0  0
   49.2873   57.1990   32.6554 S   0  0  2  0  0  0  0  0  0  0  0  0
   48.7520   58.5397   33.7465 C   0  0  0  0  0  0  0  0  0  0  0  0
   47.6958   56.6827   31.9593 C   0  0  0  0  0  0  0  0  0  0  0  0
   47.1829   57.7493   31.0033 C   0  0  1  0  0  0  0  0  0  0  0  0
   48.0545   57.8067   29.9000 O   0  0  0  0  0  0  0  0  0  0  0  0
   45.8185   57.4603   30.4107 C   0  0  1  0  0  0  0  0  0  0  0  0
   44.8192   58.1401   31.1305 O   0  0  0  0  0  0  0  0  0  0  0  0
   45.9230   57.9982   28.9951 C   0  0  1  0  0  0  0  0  0  0  0  0
   45.2191   59.2145   28.9075 O   0  0  0  0  0  0  0  0  0  0  0  0
   47.4046   58.2360   28.7309 C   0  0  2  0  0  0  0  0  0  0  0  0
   46.9749   53.0456   36.5295 O   0  0  0  0  0  0  0  0  0  0  0  0
   51.0270   54.8639   26.9446 N   0  0  0  0  0  0  0  0  0  0  0  0
   50.9840   55.5061   28.1656 C   0  0  0  0  0  0  0  0  0  0  0  0
   49.9458   56.3684   28.4669 N   0  0  0  0  0  0  0  0  0  0  0  0
   48.9639   56.6006   27.5682 C   0  0  0  0  0  0  0  0  0  0  0  0
   48.9831   55.9606   26.3378 C   0  0  0  0  0  0  0  0  0  0  0  0
   50.0249   55.0913   26.0252 C   0  0  0  0  0  0  0  0  0  0  0  0
   50.0633   54.4738   24.8473 N   0  0  0  0  0  0  0  0  0  0  0  0
   47.8902   56.3612   25.6506 N   0  0  0  0  0  0  0  0  0  0  0  0
   47.1810   57.2207   26.4195 C   0  0  0  0  0  0  0  0  0  0  0  0
   47.8352   57.3794   27.6130 N   0  0  0  0  0  0  0  0  0  0  0  0
  2  1  1  6  0  0  0
  2  3  1  0  0  0  0
  2  5  1  0  0  0  0
  3  4  1  0  0  0  0
  3 17  1  0  0  0  0
  5  6  1  0  0  0  0
  7  6  1  1  0  0  0
  7  8  1  0  0  0  0
  7  9  1  0  0  0  0
 10  9  1  1  0  0  0
 10 11  1  0  0  0  0
 10 12  1  0  0  0  0
 11 16  1  0  0  0  0
 12 13  1  1  0  0  0
 12 14  1  0  0  0  0
 14 15  1  1  0  0  0
 14 16  1  0  0  0  0
 16 27  1  6  0  0  0
 18 19  2  0  0  0  0
 18 23  1  0  0  0  0
 19 20  1  0  0  0  0
 20 21  2  0  0  0  0
 21 22  1  0  0  0  0
 21 27  1  0  0  0  0
 22 23  2  0  0  0  0
 22 25  1  0  0  0  0
 23 24  1  0  0  0  0
 25 26  2  0  0  0  0
 26 27  1  0  0  0  0
M  END
>  <CHROM.1>
-53.25313252,-64.06859583,118.17337127,56.40653939,174.49617225,66.26722120
-19.75239628,47.98705982,56.33631460,30.57441464,-1.81027753,0.75199009,-1.24172171

>  <Name>
ligand

>  <RI>
0

>  <Rbt.Current_Directory>
/home/itssahil/PROJECTS/Mol_Feturizer/New_Systems/rnas/3GX7

>  <Rbt.Executable>
rbdock ($Id: //depot/dev/client3/rdock/2013.1/src/exe/rbdock.cxx#4 $)

>  <Rbt.Library>
libRbt.so (2013.1, Build901 2013/11/27)

>  <Rbt.Parameter_File>
/export/apps/rDock/src/rDock_2013.1_src/data/scripts/dock_solv.prm

>  <Rbt.Receptor>
prm/pocket_docking_5.prm

>  <SCORE>
-14.8979

>  <SCORE.INTER>
-12.8892

>  <SCORE.INTER.CONST>
1

>  <SCORE.INTER.POLAR>
0

>  <SCORE.INTER.ROT>
7

>  <SCORE.INTER.SOLV>
10.4463

>  <SCORE.INTER.VDW>
-20.3415

>  <SCORE.INTER.norm>
-0.477377

>  <SCORE.INTRA>
-2.02497

>  <SCORE.INTRA.DIHEDRAL>
-2.30172

>  <SCORE.INTRA.DIHEDRAL.0>
11.2699

>  <SCORE.INTRA.POLAR>
0

>  <SCORE.INTRA.POLAR.0>
0

>  <SCORE.INTRA.REPUL>
0

>  <SCORE.INTRA.REPUL.0>
0

>  <SCORE.INTRA.SOLV>
1.28339

>  <SCORE.INTRA.SOLV.lig_0>
-48.6447

>  <SCORE.INTRA.VDW>
-1.51581

>  <SCORE.INTRA.VDW.0>
-0.0211724

>  <SCORE.INTRA.norm>
-0.074999

>  <SCORE.RESTR>
0.0162915

>  <SCORE.RESTR.CAVITY>
0.0162915

>  <SCORE.RESTR.norm>
0.00060339

>  <SCORE.SYSTEM>
0

>  <SCORE.SYSTEM.CONST>
0

>  <SCORE.SYSTEM.DIHEDRAL>
0

>  <SCORE.SYSTEM.SOLV>
0

>  <SCORE.SYSTEM.norm>
0

>  <SCORE.heavy>
27

>  <SCORE.norm>
-0.551772

>  <RMSD>
6.957

$$$$
ligand
 OpenBabel11021811483D
libRbt.so/2013.1/901 2013/11/27
 27 29  0  0  0  0  0  0  0  0999 V2000
   45.7180   55.0803   33.2046 N   0  0  0  0  0  0  0  0  0  0  0  0
   47.1722   54.9954   33.2635 C   0  0  2  0  0  0  0  0  0  0  0  0
   47.6092   53.6242   33.7519 C   0  0  0  0  0  0  0  0  0  0  0  0
   48.4253   52.9669   33.1102 O   0  0  0  0  0  0  0  0  0  0  0  0
   47.7708   56.0893   34.1467 C   0  0  0  0  0  0  0  0  0  0  0  0
   47.6089   57.5059   33.6087 C   0  0  0  0  0  0  0  0  0  0  0  0
   48.9090   58.0261   32.4553 S   0  0  2  0  0  0  0  0  0  0  0  0
   48.6466   59.8161   32.4149 C   0  0  0  0  0  0  0  0  0  0  0  0
   48.1557   57.5449   30.8789 C   0  0  0  0  0  0  0  0  0  0  0  0
   48.2486   56.0364   30.7043 C   0  0  1  0  0  0  0  0  0  0  0  0
   47.7100   55.7054   29.4471 O   0  0  0  0  0  0  0  0  0  0  0  0
   49.6623   55.4910   30.6813 C   0  0  1  0  0  0  0  0  0  0  0  0
   50.0179   55.0017   31.9514 O   0  0  0  0  0  0  0  0  0  0  0  0
   49.5928   54.3620   29.6690 C   0  0  1  0  0  0  0  0  0  0  0  0
   49.5955   53.1287   30.3483 O   0  0  0  0  0  0  0  0  0  0  0  0
   48.2801   54.5366   28.9157 C   0  0  2  0  0  0  0  0  0  0  0  0
   47.1583   53.1536   34.7967 O   0  0  0  0  0  0  0  0  0  0  0  0
   47.4078   52.9761   23.9671 N   0  0  0  0  0  0  0  0  0  0  0  0
   46.8924   52.4491   25.1340 C   0  0  0  0  0  0  0  0  0  0  0  0
   47.2358   52.9916   26.3588 N   0  0  0  0  0  0  0  0  0  0  0  0
   48.0861   54.0391   26.4312 C   0  0  0  0  0  0  0  0  0  0  0  0
   48.6104   54.5893   25.2709 C   0  0  0  0  0  0  0  0  0  0  0  0
   48.2712   54.0492   24.0332 C   0  0  0  0  0  0  0  0  0  0  0  0
   48.7697   54.5597   22.9102 N   0  0  0  0  0  0  0  0  0  0  0  0
   49.4100   55.6181   25.6305 N   0  0  0  0  0  0  0  0  0  0  0  0
   49.3900   55.7369   26.9789 C   0  0  0  0  0  0  0  0  0  0  0  0
   48.5725   54.7633   27.4902 N   0  0  0  0  0  0  0  0  0  0  0  0
  2  1  1  1  0  0  0
  2  3  1  0  0  0  0
  2  5  1  0  0  0  0
  3  4  1  0  0  0  0
  3 17  1  0  0  0  0
  5  6  1  0  0  0  0
  7  6  1  1  0  0  0
  7  8  1  0  0  0  0
  7  9  1  0  0  0  0
 10  9  1  6  0  0  0
 10 11  1  0  0  0  0
 10 12  1  0  0  0  0
 11 16  1  0  0  0  0
 12 13  1  1  0  0  0
 12 14  1  0  0  0  0
 14 15  1  1  0  0  0
 14 16  1  0  0  0  0
 16 27  1  6  0  0  0
 18 19  2  0  0  0  0
 18 23  1  0  0  0  0
 19 20  1  0  0  0  0
 20 21  2  0  0  0  0
 21 22  1  0  0  0  0
 21 27  1  0  0  0  0
 22 23  2  0  0  0  0
 22 25  1  0  0  0  0
 23 24  1  0  0  0  0
 25 26  2  0  0  0  0
 26 27  1  0  0  0  0
M  END
>  <CHROM.1>
127.75334561,-66.88455071,-86.13543584,-165.03507285,-75.74719768,-177.39890759
-121.46531887,48.29523680,55.14845894,29.80893586,1.68593597,1.32478546,1.22313116

>  <Name>
ligand

>  <RI>
0

>  <Rbt.Current_Directory>
/home/itssahil/PROJECTS/Mol_Feturizer/New_Systems/rnas/3GX7

>  <Rbt.Executable>
rbdock ($Id: //depot/dev/client3/rdock/2013.1/src/exe/rbdock.cxx#4 $)

>  <Rbt.Library>
libRbt.so (2013.1, Build901 2013/11/27)

>  <Rbt.Parameter_File>
/export/apps/rDock/src/rDock_2013.1_src/data/scripts/dock_solv.prm

>  <Rbt.Receptor>
prm/pocket_docking_8.prm

>  <SCORE>
-15.7622

>  <SCORE.INTER>
-10.4814

>  <SCORE.INTER.CONST>
1

>  <SCORE.INTER.POLAR>
0

>  <SCORE.INTER.ROT>
7

>  <SCORE.INTER.SOLV>
6.88741

>  <SCORE.INTER.VDW>
-17.5501

>  <SCORE.INTER.norm>
-0.3882

>  <SCORE.INTRA>
-5.28078

>  <SCORE.INTRA.DIHEDRAL>
-4.08236

>  <SCORE.INTRA.DIHEDRAL.0>
11.2699

>  <SCORE.INTRA.POLAR>
0

>  <SCORE.INTRA.POLAR.0>
0

>  <SCORE.INTRA.REPUL>
0

>  <SCORE.INTRA.REPUL.0>
0

>  <SCORE.INTRA.SOLV>
1.77153

>  <SCORE.INTRA.SOLV.lig_0>
-48.6447

>  <SCORE.INTRA.VDW>
-4.12537

>  <SCORE.INTRA.VDW.0>
-0.0211724

>  <SCORE.INTRA.norm>
-0.195585

>  <SCORE.RESTR>
0

>  <SCORE.RESTR.CAVITY>
0

>  <SCORE.RESTR.norm>
0

>  <SCORE.SYSTEM>
0

>  <SCORE.SYSTEM.CONST>
0

>  <SCORE.SYSTEM.DIHEDRAL>
0

>  <SCORE.SYSTEM.SOLV>
0

>  <SCORE.SYSTEM.norm>
0

>  <SCORE.heavy>
27

>  <SCORE.norm>
-0.583785

>  <RMSD>
6.984

$$$$
ligand
 OpenBabel11021811483D
libRbt.so/2013.1/901 2013/11/27
 27 29  0  0  0  0  0  0  0  0999 V2000
   52.0063   52.9820   27.0900 N   0  0  0  0  0  0  0  0  0  0  0  0
   52.6418   54.1596   26.5113 C   0  0  2  0  0  0  0  0  0  0  0  0
   52.8551   55.2280   27.5709 C   0  0  0  0  0  0  0  0  0  0  0  0
   51.9467   55.5291   28.3416 O   0  0  0  0  0  0  0  0  0  0  0  0
   51.8360   54.7246   25.3424 C   0  0  0  0  0  0  0  0  0  0  0  0
   51.5119   53.7194   24.2437 C   0  0  0  0  0  0  0  0  0  0  0  0
   49.7525   53.3002   24.1023 S   0  0  2  0  0  0  0  0  0  0  0  0
   49.0244   54.9327   23.8200 C   0  0  0  0  0  0  0  0  0  0  0  0
   49.3374   53.0495   25.8484 C   0  0  0  0  0  0  0  0  0  0  0  0
   47.9546   52.4255   25.9633 C   0  0  1  0  0  0  0  0  0  0  0  0
   47.7178   52.1280   27.3182 O   0  0  0  0  0  0  0  0  0  0  0  0
   46.8158   53.3392   25.5575 C   0  0  1  0  0  0  0  0  0  0  0  0
   46.4270   53.0759   24.2314 O   0  0  0  0  0  0  0  0  0  0  0  0
   45.7049   52.9769   26.5266 C   0  0  1  0  0  0  0  0  0  0  0  0
   44.7400   52.2001   25.8572 O   0  0  0  0  0  0  0  0  0  0  0  0
   46.3502   52.1584   27.6379 C   0  0  2  0  0  0  0  0  0  0  0  0
   53.9386   55.8034   27.6773 O   0  0  0  0  0  0  0  0  0  0  0  0
   48.6798   53.8576   32.0389 N   0  0  0  0  0  0  0  0  0  0  0  0
   49.2416   53.1631   30.9868 C   0  0  0  0  0  0  0  0  0  0  0  0
   48.4698   52.7931   29.9006 N   0  0  0  0  0  0  0  0  0  0  0  0
   47.1543   53.0987   29.8575 C   0  0  0  0  0  0  0  0  0  0  0  0
   46.5704   53.8023   30.9005 C   0  0  0  0  0  0  0  0  0  0  0  0
   47.3394   54.1783   31.9987 C   0  0  0  0  0  0  0  0  0  0  0  0
   46.7948   54.8478   33.0114 N   0  0  0  0  0  0  0  0  0  0  0  0
   45.2658   53.9800   30.5950 N   0  0  0  0  0  0  0  0  0  0  0  0
   45.0198   53.4218   29.3864 C   0  0  0  0  0  0  0  0  0  0  0  0
   46.1828   52.8704   28.9161 N   0  0  0  0  0  0  0  0  0  0  0  0
  2  1  1  1  0  0  0
  2  3  1  0  0  0  0
  2  5  1  0  0  0  0
  3  4  1  0  0  0  0
  3 17  1  0  0  0  0
  5  6  1  0  0  0  0
  7  6  1  1  0  0  0
  7  8  1  0  0  0  0
  7  9  1  0  0  0  0
 10  9  1  1  0  0  0
 10 11  1  0  0  0  0
 10 12  1  0  0  0  0
 11 16  1  0  0  0  0
 12 13  1  6  0  0  0
 12 14  1  0  0  0  0
 14 15  1  6  0  0  0
 14 16  1  0  0  0  0
 16 27  1  1  0  0  0
 18 19  2  0  0  0  0
 18 23  1  0  0  0  0
 19 20  1  0  0  0  0
 20 21  2  0  0  0  0
 21 22  1  0  0  0  0
 21 27  1  0  0  0  0
 22 23  2  0  0  0  0
 22 25  1  0  0  0  0
 23 24  1  0  0  0  0
 25 26  2  0  0  0  0
 26 27  1  0  0  0  0
M  END
>  <CHROM.1>
-46.92064387,-53.95457631,112.15488830,57.66759635,-169.27936056,174.47182780
-19.12950335,48.65719693,53.61385902,27.55847342,-0.75438769,0.27824704,1.43383842

>  <Name>
ligand

>  <RI>
0

>  <Rbt.Current_Directory>
/home/itssahil/PROJECTS/Mol_Feturizer/New_Systems/rnas/3GX7

>  <Rbt.Executable>
rbdock ($Id: //depot/dev/client3/rdock/2013.1/src/exe/rbdock.cxx#4 $)

>  <Rbt.Library>
libRbt.so (2013.1, Build901 2013/11/27)

>  <Rbt.Parameter_File>
/export/apps/rDock/src/rDock_2013.1_src/data/scripts/dock_solv.prm

>  <Rbt.Receptor>
prm/pocket_docking_7.prm

>  <SCORE>
-10.9683

>  <SCORE.INTER>
-10.0106

>  <SCORE.INTER.CONST>
1

>  <SCORE.INTER.POLAR>
0

>  <SCORE.INTER.ROT>
7

>  <SCORE.INTER.SOLV>
8.6555

>  <SCORE.INTER.VDW>
-17.8256

>  <SCORE.INTER.norm>
-0.370763

>  <SCORE.INTRA>
-0.957731

>  <SCORE.INTRA.DIHEDRAL>
-1.49127

>  <SCORE.INTRA.DIHEDRAL.0>
11.2699

>  <SCORE.INTRA.POLAR>
0

>  <SCORE.INTRA.POLAR.0>
0

>  <SCORE.INTRA.REPUL>
0.00617237

>  <SCORE.INTRA.REPUL.0>
0

>  <SCORE.INTRA.SOLV>
2.03395

>  <SCORE.INTRA.SOLV.lig_0>
-48.6447

>  <SCORE.INTRA.VDW>
-1.25993

>  <SCORE.INTRA.VDW.0>
-0.0211724

>  <SCORE.INTRA.norm>
-0.0354715

>  <SCORE.RESTR>
0

>  <SCORE.RESTR.CAVITY>
0

>  <SCORE.RESTR.norm>
0

>  <SCORE.SYSTEM>
0

>  <SCORE.SYSTEM.CONST>
0

>  <SCORE.SYSTEM.DIHEDRAL>
0

>  <SCORE.SYSTEM.SOLV>
0

>  <SCORE.SYSTEM.norm>
0

>  <SCORE.heavy>
27

>  <SCORE.norm>
-0.406235

>  <RMSD>
6.990

$$$$
ligand
 OpenBabel11021811483D
libRbt.so/2013.1/901 2013/11/27
 27 29  0  0  0  0  0  0  0  0999 V2000
   48.8165   54.2281   33.3525 N   0  0  0  0  0  0  0  0  0  0  0  0
   48.5341   55.6580   33.3847 C   0  0  2  0  0  0  0  0  0  0  0  0
   48.7558   56.2163   34.7807 C   0  0  0  0  0  0  0  0  0  0  0  0
   48.7056   55.4770   35.7609 O   0  0  0  0  0  0  0  0  0  0  0  0
   47.1162   55.9690   32.9075 C   0  0  0  0  0  0  0  0  0  0  0  0
   46.8287   57.4477   32.6769 C   0  0  0  0  0  0  0  0  0  0  0  0
   47.9254   58.2489   31.4741 S   0  0  2  0  0  0  0  0  0  0  0  0
   48.9040   59.3231   32.5527 C   0  0  0  0  0  0  0  0  0  0  0  0
   46.7852   59.4566   30.7495 C   0  0  0  0  0  0  0  0  0  0  0  0
   46.0713   58.8380   29.5569 C   0  0  1  0  0  0  0  0  0  0  0  0
   46.9969   58.7194   28.5035 O   0  0  0  0  0  0  0  0  0  0  0  0
   45.5597   57.4307   29.7898 C   0  0  1  0  0  0  0  0  0  0  0  0
   44.1955   57.4571   30.1320 O   0  0  0  0  0  0  0  0  0  0  0  0
   45.7657   56.7496   28.4489 C   0  0  1  0  0  0  0  0  0  0  0  0
   44.5242   56.6233   27.7968 O   0  0  0  0  0  0  0  0  0  0  0  0
   46.6867   57.6550   27.6407 C   0  0  2  0  0  0  0  0  0  0  0  0
   48.9933   57.4125   34.9513 O   0  0  0  0  0  0  0  0  0  0  0  0
   49.3819   54.9338   24.0331 N   0  0  0  0  0  0  0  0  0  0  0  0
   48.1317   55.5066   23.9151 C   0  0  0  0  0  0  0  0  0  0  0  0
   47.5720   56.1912   24.9783 N   0  0  0  0  0  0  0  0  0  0  0  0
   48.2368   56.3020   26.1493 C   0  0  0  0  0  0  0  0  0  0  0  0
   49.4975   55.7405   26.2880 C   0  0  0  0  0  0  0  0  0  0  0  0
   50.0687   55.0486   25.2233 C   0  0  0  0  0  0  0  0  0  0  0  0
   51.2741   54.4976   25.3403 N   0  0  0  0  0  0  0  0  0  0  0  0
   49.9303   56.0095   27.5400 N   0  0  0  0  0  0  0  0  0  0  0  0
   48.9849   56.7344   28.1831 C   0  0  0  0  0  0  0  0  0  0  0  0
   47.9274   56.9239   27.3325 N   0  0  0  0  0  0  0  0  0  0  0  0
  2  1  1  1  0  0  0
  2  3  1  0  0  0  0
  2  5  1  0  0  0  0
  3  4  1  0  0  0  0
  3 17  1  0  0  0  0
  5  6  1  0  0  0  0
  7  6  1  1  0  0  0
  7  8  1  0  0  0  0
  7  9  1  0  0  0  0
 10  9  1  1  0  0  0
 10 11  1  0  0  0  0
 10 12  1  0  0  0  0
 11 16  1  0  0  0  0
 12 13  1  6  0  0  0
 12 14  1  0  0  0  0
 14 15  1  6  0  0  0
 14 16  1  0  0  0  0
 16 27  1  1  0  0  0
 18 19  2  0  0  0  0
 18 23  1  0  0  0  0
 19 20  1  0  0  0  0
 20 21  2  0  0  0  0
 21 22  1  0  0  0  0
 21 27  1  0  0  0  0
 22 23  2  0  0  0  0
 22 25  1  0  0  0  0
 23 24  1  0  0  0  0
 25 26  2  0  0  0  0
 26 27  1  0  0  0  0
M  END
>  <CHROM.1>
-23.07001891,-169.62224384,57.95511466,-109.86641450,-89.75211117,-72.00690934
-146.29728037,47.81738989,56.80282637,29.59963062,-1.65446333,0.58571807
-1.65466853

>  <Name>
ligand

>  <RI>
0

>  <Rbt.Current_Directory>
/home/itssahil/PROJECTS/Mol_Feturizer/New_Systems/rnas/3GX7

>  <Rbt.Executable>
rbdock ($Id: //depot/dev/client3/rdock/2013.1/src/exe/rbdock.cxx#4 $)

>  <Rbt.Library>
libRbt.so (2013.1, Build901 2013/11/27)

>  <Rbt.Parameter_File>
/export/apps/rDock/src/rDock_2013.1_src/data/scripts/dock_solv.prm

>  <Rbt.Receptor>
prm/pocket_docking_5.prm

>  <SCORE>
-17.2422

>  <SCORE.INTER>
-12.6538

>  <SCORE.INTER.CONST>
1

>  <SCORE.INTER.POLAR>
0

>  <SCORE.INTER.ROT>
7

>  <SCORE.INTER.SOLV>
13.1339

>  <SCORE.INTER.VDW>
-21.0805

>  <SCORE.INTER.norm>
-0.468658

>  <SCORE.INTRA>
-4.58874

>  <SCORE.INTRA.DIHEDRAL>
-2.58339

>  <SCORE.INTRA.DIHEDRAL.0>
11.2699

>  <SCORE.INTRA.POLAR>
0

>  <SCORE.INTRA.POLAR.0>
0

>  <SCORE.INTRA.REPUL>
0

>  <SCORE.INTRA.REPUL.0>
0

>  <SCORE.INTRA.SOLV>
-0.576581

>  <SCORE.INTRA.SOLV.lig_0>
-48.6447

>  <SCORE.INTRA.VDW>
-3.00875

>  <SCORE.INTRA.VDW.0>
-0.0211724

>  <SCORE.INTRA.norm>
-0.169953

>  <SCORE.RESTR>
0.00033016

>  <SCORE.RESTR.CAVITY>
0.00033016

>  <SCORE.RESTR.norm>
1.22282e-05

>  <SCORE.SYSTEM>
0

>  <SCORE.SYSTEM.CONST>
0

>  <SCORE.SYSTEM.DIHEDRAL>
0

>  <SCORE.SYSTEM.SOLV>
0

>  <SCORE.SYSTEM.norm>
0

>  <SCORE.heavy>
27

>  <SCORE.norm>
-0.638599

>  <RMSD>
7.085

$$$$
ligand
 OpenBabel11021811483D
libRbt.so/2013.1/901 2013/11/27
 27 29  0  0  0  0  0  0  0  0999 V2000
   49.0559   54.7005   33.5660 N   0  0  0  0  0  0  0  0  0  0  0  0
   48.3761   53.6560   32.8093 C   0  0  2  0  0  0  0  0  0  0  0  0
   49.1675   53.2965   31.5627 C   0  0  0  0  0  0  0  0  0  0  0  0
   48.7457   52.4461   30.7825 O   0  0  0  0  0  0  0  0  0  0  0  0
   46.9509   54.0605   32.4351 C   0  0  0  0  0  0  0  0  0  0  0  0
   46.0085   54.2507   33.6176 C   0  0  0  0  0  0  0  0  0  0  0  0
   44.2771   54.5425   33.1608 S   0  0  2  0  0  0  0  0  0  0  0  0
   44.3106   56.3090   32.7691 C   0  0  0  0  0  0  0  0  0  0  0  0
   43.5105   54.5814   34.8023 C   0  0  0  0  0  0  0  0  0  0  0  0
   43.6122   53.2082   35.4494 C   0  0  1  0  0  0  0  0  0  0  0  0
   44.8900   53.0877   36.0265 O   0  0  0  0  0  0  0  0  0  0  0  0
   42.6429   52.9767   36.5911 C   0  0  1  0  0  0  0  0  0  0  0  0
   41.5098   52.2782   36.1359 O   0  0  0  0  0  0  0  0  0  0  0  0
   43.4391   52.1325   37.5696 C   0  0  1  0  0  0  0  0  0  0  0  0
   42.9945   50.7983   37.5005 O   0  0  0  0  0  0  0  0  0  0  0  0
   44.8952   52.2178   37.1295 C   0  0  2  0  0  0  0  0  0  0  0  0
   50.2374   53.8526   31.3126 O   0  0  0  0  0  0  0  0  0  0  0  0
   48.9844   55.2958   38.3493 N   0  0  0  0  0  0  0  0  0  0  0  0
   48.5316   54.9307   37.0977 C   0  0  0  0  0  0  0  0  0  0  0  0
   47.4305   54.1046   36.9650 N   0  0  0  0  0  0  0  0  0  0  0  0
   46.7878   53.6371   38.0576 C   0  0  0  0  0  0  0  0  0  0  0  0
   47.2211   53.9969   39.3251 C   0  0  0  0  0  0  0  0  0  0  0  0
   48.3294   54.8274   39.4686 C   0  0  0  0  0  0  0  0  0  0  0  0
   48.7633   55.1776   40.6767 N   0  0  0  0  0  0  0  0  0  0  0  0
   46.4006   53.4054   40.2218 N   0  0  0  0  0  0  0  0  0  0  0  0
   45.4590   52.6988   39.5532 C   0  0  0  0  0  0  0  0  0  0  0  0
   45.6865   52.8328   38.2085 N   0  0  0  0  0  0  0  0  0  0  0  0
  2  1  1  6  0  0  0
  2  3  1  0  0  0  0
  2  5  1  0  0  0  0
  3  4  1  0  0  0  0
  3 17  1  0  0  0  0
  5  6  1  0  0  0  0
  7  6  1  1  0  0  0
  7  8  1  0  0  0  0
  7  9  1  0  0  0  0
 10  9  1  1  0  0  0
 10 11  1  0  0  0  0
 10 12  1  0  0  0  0
 11 16  1  0  0  0  0
 12 13  1  6  0  0  0
 12 14  1  0  0  0  0
 14 15  1  6  0  0  0
 14 16  1  0  0  0  0
 16 27  1  1  0  0  0
 18 19  2  0  0  0  0
 18 23  1  0  0  0  0
 19 20  1  0  0  0  0
 20 21  2  0  0  0  0
 21 22  1  0  0  0  0
 21 27  1  0  0  0  0
 22 23  2  0  0  0  0
 22 25  1  0  0  0  0
 23 24  1  0  0  0  0
 25 26  2  0  0  0  0
 26 27  1  0  0  0  0
M  END
>  <CHROM.1>
-178.95396645,-64.69431901,-173.30493826,-81.10864530,-66.00950567,82.28812646
-33.33373836,46.09987955,53.69849192,35.74182426,-1.22872786,0.23346730,1.59879396

>  <Name>
ligand

>  <RI>
0

>  <Rbt.Current_Directory>
/home/itssahil/PROJECTS/Mol_Feturizer/New_Systems/rnas/3GX7

>  <Rbt.Executable>
rbdock ($Id: //depot/dev/client3/rdock/2013.1/src/exe/rbdock.cxx#4 $)

>  <Rbt.Library>
libRbt.so (2013.1, Build901 2013/11/27)

>  <Rbt.Parameter_File>
/export/apps/rDock/src/rDock_2013.1_src/data/scripts/dock_solv.prm

>  <Rbt.Receptor>
prm/pocket_docking_8.prm

>  <SCORE>
-19.083

>  <SCORE.INTER>
-14.095

>  <SCORE.INTER.CONST>
1

>  <SCORE.INTER.POLAR>
0

>  <SCORE.INTER.ROT>
7

>  <SCORE.INTER.SOLV>
16.7098

>  <SCORE.INTER.VDW>
-23.2333

>  <SCORE.INTER.norm>
-0.522039

>  <SCORE.INTRA>
-4.988

>  <SCORE.INTRA.DIHEDRAL>
-5.7851

>  <SCORE.INTRA.DIHEDRAL.0>
11.2699

>  <SCORE.INTRA.POLAR>
0

>  <SCORE.INTRA.POLAR.0>
0

>  <SCORE.INTRA.REPUL>
0

>  <SCORE.INTRA.REPUL.0>
0

>  <SCORE.INTRA.SOLV>
-0.021406

>  <SCORE.INTRA.SOLV.lig_0>
-48.6447

>  <SCORE.INTRA.VDW>
-2.08474

>  <SCORE.INTRA.VDW.0>
-0.0211724

>  <SCORE.INTRA.norm>
-0.184741

>  <SCORE.RESTR>
0

>  <SCORE.RESTR.CAVITY>
0

>  <SCORE.RESTR.norm>
0

>  <SCORE.SYSTEM>
0

>  <SCORE.SYSTEM.CONST>
0

>  <SCORE.SYSTEM.DIHEDRAL>
0

>  <SCORE.SYSTEM.SOLV>
0

>  <SCORE.SYSTEM.norm>
0

>  <SCORE.heavy>
27

>  <SCORE.norm>
-0.706779

>  <RMSD>
7.100

$$$$
ligand
 OpenBabel11021811483D
libRbt.so/2013.1/901 2013/11/27
 27 29  0  0  0  0  0  0  0  0999 V2000
   49.5404   55.9476   32.8438 N   0  0  0  0  0  0  0  0  0  0  0  0
   49.2459   56.5636   34.1320 C   0  0  2  0  0  0  0  0  0  0  0  0
   48.4521   55.6119   35.0116 C   0  0  0  0  0  0  0  0  0  0  0  0
   47.4132   55.1031   34.5973 O   0  0  0  0  0  0  0  0  0  0  0  0
   48.4990   57.8870   33.9725 C   0  0  0  0  0  0  0  0  0  0  0  0
   49.3311   59.0257   33.3948 C   0  0  0  0  0  0  0  0  0  0  0  0
   48.6935   59.7105   31.8405 S   0  0  2  0  0  0  0  0  0  0  0  0
   46.9580   59.9939   32.2679 C   0  0  0  0  0  0  0  0  0  0  0  0
   48.5492   58.1971   30.8543 C   0  0  0  0  0  0  0  0  0  0  0  0
   47.4724   58.3753   29.7943 C   0  0  1  0  0  0  0  0  0  0  0  0
   48.0883   58.3288   28.5299 O   0  0  0  0  0  0  0  0  0  0  0  0
   46.4306   57.2753   29.7638 C   0  0  1  0  0  0  0  0  0  0  0  0
   45.2835   57.6688   30.4768 O   0  0  0  0  0  0  0  0  0  0  0  0
   46.1194   57.1194   28.2863 C   0  0  1  0  0  0  0  0  0  0  0  0
   44.8708   57.7088   28.0101 O   0  0  0  0  0  0  0  0  0  0  0  0
   47.2193   57.8564   27.5324 C   0  0  2  0  0  0  0  0  0  0  0  0
   48.8378   55.3324   36.1471 O   0  0  0  0  0  0  0  0  0  0  0  0
   51.4798   54.8051   27.0623 N   0  0  0  0  0  0  0  0  0  0  0  0
   51.1322   55.6338   28.1098 C   0  0  0  0  0  0  0  0  0  0  0  0
   49.9630   56.3707   28.0613 N   0  0  0  0  0  0  0  0  0  0  0  0
   49.1492   56.2963   26.9853 C   0  0  0  0  0  0  0  0  0  0  0  0
   49.4751   55.4645   25.9243 C   0  0  0  0  0  0  0  0  0  0  0  0
   50.6507   54.7195   25.9638 C   0  0  0  0  0  0  0  0  0  0  0  0
   50.9829   53.9215   24.9523 N   0  0  0  0  0  0  0  0  0  0  0  0
   48.4935   55.5739   25.0015 N   0  0  0  0  0  0  0  0  0  0  0  0
   47.5568   56.4373   25.4598 C   0  0  0  0  0  0  0  0  0  0  0  0
   47.9501   56.8944   26.6903 N   0  0  0  0  0  0  0  0  0  0  0  0
  2  1  1  6  0  0  0
  2  3  1  0  0  0  0
  2  5  1  0  0  0  0
  3  4  1  0  0  0  0
  3 17  1  0  0  0  0
  5  6  1  0  0  0  0
  7  6  1  1  0  0  0
  7  8  1  0  0  0  0
  7  9  1  0  0  0  0
 10  9  1  1  0  0  0
 10 11  1  0  0  0  0
 10 12  1  0  0  0  0
 11 16  1  0  0  0  0
 12 13  1  1  0  0  0
 12 14  1  0  0  0  0
 14 15  1  1  0  0  0
 14 16  1  0  0  0  0
 16 27  1  6  0  0  0
 18 19  2  0  0  0  0
 18 23  1  0  0  0  0
 19 20  1  0  0  0  0
 20 21  2  0  0  0  0
 21 22  1  0  0  0  0
 21 27  1  0  0  0  0
 22 23  2  0  0  0  0
 22 25  1  0  0  0  0
 23 24  1  0  0  0  0
 25 26  2  0  0  0  0
 26 27  1  0  0  0  0
M  END
>  <CHROM.1>
-53.49376162,-70.16408625,120.08936732,49.76640483,153.59053403,114.88578406
14.70754705,48.39194269,56.97781082,29.89748655,-1.71451034,0.73956204,-1.66476738

>  <Name>
ligand

>  <RI>
0

>  <Rbt.Current_Directory>
/home/itssahil/PROJECTS/Mol_Feturizer/New_Systems/rnas/3GX7

>  <Rbt.Executable>
rbdock ($Id: //depot/dev/client3/rdock/2013.1/src/exe/rbdock.cxx#4 $)

>  <Rbt.Library>
libRbt.so (2013.1, Build901 2013/11/27)

>  <Rbt.Parameter_File>
/export/apps/rDock/src/rDock_2013.1_src/data/scripts/dock_solv.prm

>  <Rbt.Receptor>
prm/pocket_docking_5.prm

>  <SCORE>
-18.3715

>  <SCORE.INTER>
-19.6501

>  <SCORE.INTER.CONST>
1

>  <SCORE.INTER.POLAR>
0

>  <SCORE.INTER.ROT>
7

>  <SCORE.INTER.SOLV>
12.0667

>  <SCORE.INTER.VDW>
-25.3889

>  <SCORE.INTER.norm>
-0.727781

>  <SCORE.INTRA>
1.27859

>  <SCORE.INTRA.DIHEDRAL>
3.90003

>  <SCORE.INTRA.DIHEDRAL.0>
11.2699

>  <SCORE.INTRA.POLAR>
0

>  <SCORE.INTRA.POLAR.0>
0

>  <SCORE.INTRA.REPUL>
0

>  <SCORE.INTRA.REPUL.0>
0

>  <SCORE.INTRA.SOLV>
1.36865

>  <SCORE.INTRA.SOLV.lig_0>
-48.6447

>  <SCORE.INTRA.VDW>
-1.35575

>  <SCORE.INTRA.VDW.0>
-0.0211724

>  <SCORE.INTRA.norm>
0.0473551

>  <SCORE.RESTR>
0

>  <SCORE.RESTR.CAVITY>
0

>  <SCORE.RESTR.norm>
0

>  <SCORE.SYSTEM>
0

>  <SCORE.SYSTEM.CONST>
0

>  <SCORE.SYSTEM.DIHEDRAL>
0

>  <SCORE.SYSTEM.SOLV>
0

>  <SCORE.SYSTEM.norm>
0

>  <SCORE.heavy>
27

>  <SCORE.norm>
-0.680426

>  <RMSD>
7.202

$$$$
ligand
 OpenBabel11021811483D
libRbt.so/2013.1/901 2013/11/27
 27 29  0  0  0  0  0  0  0  0999 V2000
   46.3254   54.0602   36.0475 N   0  0  0  0  0  0  0  0  0  0  0  0
   47.6075   53.8131   36.6961 C   0  0  2  0  0  0  0  0  0  0  0  0
   47.4255   53.6464   38.1957 C   0  0  0  0  0  0  0  0  0  0  0  0
   47.2219   52.5343   38.6772 O   0  0  0  0  0  0  0  0  0  0  0  0
   48.6164   54.9229   36.4039 C   0  0  0  0  0  0  0  0  0  0  0  0
   48.8796   55.1746   34.9240 C   0  0  0  0  0  0  0  0  0  0  0  0
   48.0437   56.6365   34.2490 S   0  0  2  0  0  0  0  0  0  0  0  0
   46.4339   55.9433   33.7984 C   0  0  0  0  0  0  0  0  0  0  0  0
   48.8297   56.7361   32.6193 C   0  0  0  0  0  0  0  0  0  0  0  0
   48.4834   58.0639   31.9622 C   0  0  1  0  0  0  0  0  0  0  0  0
   49.0316   58.0691   30.6661 O   0  0  0  0  0  0  0  0  0  0  0  0
   46.9999   58.2993   31.7615 C   0  0  1  0  0  0  0  0  0  0  0  0
   46.4863   59.0942   32.8023 O   0  0  0  0  0  0  0  0  0  0  0  0
   46.9316   59.0366   30.4364 C   0  0  1  0  0  0  0  0  0  0  0  0
   46.6699   60.3992   30.6763 O   0  0  0  0  0  0  0  0  0  0  0  0
   48.2983   58.8780   29.7821 C   0  0  2  0  0  0  0  0  0  0  0  0
   47.4838   54.6179   38.9501 O   0  0  0  0  0  0  0  0  0  0  0  0
   49.9444   54.8837   26.7789 N   0  0  0  0  0  0  0  0  0  0  0  0
   50.3951   55.2566   28.0290 C   0  0  0  0  0  0  0  0  0  0  0  0
   49.8413   56.3457   28.6766 N   0  0  0  0  0  0  0  0  0  0  0  0
   48.8578   57.0645   28.0922 C   0  0  0  0  0  0  0  0  0  0  0  0
   48.3845   56.7035   26.8394 C   0  0  0  0  0  0  0  0  0  0  0  0
   48.9366   55.6089   26.1792 C   0  0  0  0  0  0  0  0  0  0  0  0
   48.4998   55.2520   24.9742 N   0  0  0  0  0  0  0  0  0  0  0  0
   47.4068   57.5747   26.5041 N   0  0  0  0  0  0  0  0  0  0  0  0
   47.2447   58.4602   27.5152 C   0  0  0  0  0  0  0  0  0  0  0  0
   48.1387   58.1564   28.5083 N   0  0  0  0  0  0  0  0  0  0  0  0
  2  1  1  6  0  0  0
  2  3  1  0  0  0  0
  2  5  1  0  0  0  0
  3  4  1  0  0  0  0
  3 17  1  0  0  0  0
  5  6  1  0  0  0  0
  7  6  1  1  0  0  0
  7  8  1  0  0  0  0
  7  9  1  0  0  0  0
 10  9  1  6  0  0  0
 10 11  1  0  0  0  0
 10 12  1  0  0  0  0
 11 16  1  0  0  0  0
 12 13  1  1  0  0  0
 12 14  1  0  0  0  0
 14 15  1  1  0  0  0
 14 16  1  0  0  0  0
 16 27  1  6  0  0  0
 18 19  2  0  0  0  0
 18 23  1  0  0  0  0
 19 20  1  0  0  0  0
 20 21  2  0  0  0  0
 21 22  1  0  0  0  0
 21 27  1  0  0  0  0
 22 23  2  0  0  0  0
 22 25  1  0  0  0  0
 23 24  1  0  0  0  0
 25 26  2  0  0  0  0
 26 27  1  0  0  0  0
M  END
>  <CHROM.1>
90.26981993,-56.53763366,102.45021690,-86.43228568,-168.77253806,-176.01032466
-16.32958229,48.02069644,56.50380622,31.77971408,-1.84001788,1.18851665,-1.05909806

>  <Name>
ligand

>  <RI>
0

>  <Rbt.Current_Directory>
/home/itssahil/PROJECTS/Mol_Feturizer/New_Systems/rnas/3GX7

>  <Rbt.Executable>
rbdock ($Id: //depot/dev/client3/rdock/2013.1/src/exe/rbdock.cxx#4 $)

>  <Rbt.Library>
libRbt.so (2013.1, Build901 2013/11/27)

>  <Rbt.Parameter_File>
/export/apps/rDock/src/rDock_2013.1_src/data/scripts/dock_solv.prm

>  <Rbt.Receptor>
prm/pocket_docking_7.prm

>  <SCORE>
-18.2022

>  <SCORE.INTER>
-16.9912

>  <SCORE.INTER.CONST>
1

>  <SCORE.INTER.POLAR>
0

>  <SCORE.INTER.ROT>
7

>  <SCORE.INTER.SOLV>
13.5497

>  <SCORE.INTER.VDW>
-24.1107

>  <SCORE.INTER.norm>
-0.629302

>  <SCORE.INTRA>
-1.21106

>  <SCORE.INTRA.DIHEDRAL>
-1.65025

>  <SCORE.INTRA.DIHEDRAL.0>
11.2699

>  <SCORE.INTRA.POLAR>
0

>  <SCORE.INTRA.POLAR.0>
0

>  <SCORE.INTRA.REPUL>
0

>  <SCORE.INTRA.REPUL.0>
0

>  <SCORE.INTRA.SOLV>
2.02782

>  <SCORE.INTRA.SOLV.lig_0>
-48.6447

>  <SCORE.INTRA.VDW>
-1.39985

>  <SCORE.INTRA.VDW.0>
-0.0211724

>  <SCORE.INTRA.norm>
-0.0448542

>  <SCORE.RESTR>
0

>  <SCORE.RESTR.CAVITY>
0

>  <SCORE.RESTR.norm>
0

>  <SCORE.SYSTEM>
0

>  <SCORE.SYSTEM.CONST>
0

>  <SCORE.SYSTEM.DIHEDRAL>
0

>  <SCORE.SYSTEM.SOLV>
0

>  <SCORE.SYSTEM.norm>
0

>  <SCORE.heavy>
27

>  <SCORE.norm>
-0.674156

>  <RMSD>
7.206

$$$$
ligand
 OpenBabel11021811483D
libRbt.so/2013.1/901 2013/11/27
 27 29  0  0  0  0  0  0  0  0999 V2000
   42.4228   54.5305   33.1460 N   0  0  0  0  0  0  0  0  0  0  0  0
   43.5574   55.1800   33.7912 C   0  0  2  0  0  0  0  0  0  0  0  0
   43.6256   56.6478   33.4035 C   0  0  0  0  0  0  0  0  0  0  0  0
   43.2099   57.0215   32.3093 O   0  0  0  0  0  0  0  0  0  0  0  0
   44.8759   54.4818   33.4613 C   0  0  0  0  0  0  0  0  0  0  0  0
   46.0860   55.0060   34.2252 C   0  0  0  0  0  0  0  0  0  0  0  0
   47.6677   54.2717   33.7248 S   0  0  2  0  0  0  0  0  0  0  0  0
   48.8336   55.2475   34.7063 C   0  0  0  0  0  0  0  0  0  0  0  0
   47.8812   55.0391   32.0970 C   0  0  0  0  0  0  0  0  0  0  0  0
   48.6480   54.0967   31.1813 C   0  0  1  0  0  0  0  0  0  0  0  0
   47.7598   53.1027   30.7301 O   0  0  0  0  0  0  0  0  0  0  0  0
   49.1865   54.7430   29.9209 C   0  0  1  0  0  0  0  0  0  0  0  0
   50.5380   55.0943   30.0910 O   0  0  0  0  0  0  0  0  0  0  0  0
   49.0405   53.6556   28.8718 C   0  0  1  0  0  0  0  0  0  0  0  0
   50.3050   53.0981   28.6019 O   0  0  0  0  0  0  0  0  0  0  0  0
   48.1237   52.5965   29.4713 C   0  0  2  0  0  0  0  0  0  0  0  0
   44.0921   57.4838   34.1780 O   0  0  0  0  0  0  0  0  0  0  0  0
   46.1790   52.1489   24.6028 N   0  0  0  0  0  0  0  0  0  0  0  0
   47.5008   52.2280   24.9923 C   0  0  0  0  0  0  0  0  0  0  0  0
   47.8305   52.3446   26.3303 N   0  0  0  0  0  0  0  0  0  0  0  0
   46.8644   52.3909   27.2736 C   0  0  0  0  0  0  0  0  0  0  0  0
   45.5298   52.3058   26.9055 C   0  0  0  0  0  0  0  0  0  0  0  0
   45.1881   52.1892   25.5608 C   0  0  0  0  0  0  0  0  0  0  0  0
   43.9130   52.1131   25.1886 N   0  0  0  0  0  0  0  0  0  0  0  0
   44.7889   52.3644   28.0346 N   0  0  0  0  0  0  0  0  0  0  0  0
   45.6201   52.4688   29.0981 C   0  0  0  0  0  0  0  0  0  0  0  0
   46.9120   52.4867   28.6415 N   0  0  0  0  0  0  0  0  0  0  0  0
  2  1  1  6  0  0  0
  2  3  1  0  0  0  0
  2  5  1  0  0  0  0
  3  4  1  0  0  0  0
  3 17  1  0  0  0  0
  5  6  1  0  0  0  0
  7  6  1  1  0  0  0
  7  8  1  0  0  0  0
  7  9  1  0  0  0  0
 10  9  1  1  0  0  0
 10 11  1  0  0  0  0
 10 12  1  0  0  0  0
 11 16  1  0  0  0  0
 12 13  1  1  0  0  0
 12 14  1  0  0  0  0
 14 15  1  1  0  0  0
 14 16  1  0  0  0  0
 16 27  1  6  0  0  0
 18 19  2  0  0  0  0
 18 23  1  0  0  0  0
 19 20  1  0  0  0  0
 20 21  2  0  0  0  0
 21 22  1  0  0  0  0
 21 27  1  0  0  0  0
 22 23  2  0  0  0  0
 22 25  1  0  0  0  0
 23 24  1  0  0  0  0
 25 26  2  0  0  0  0
 26 27  1  0  0  0  0
M  END
>  <CHROM.1>
-29.86506787,-173.34820615,-174.97147836,174.44801381,-149.23021832,77.67156001
160.95950691,46.61045415,53.94297076,30.29173827,1.73684906,-0.08311037,1.17034559

>  <Name>
ligand

>  <RI>
0

>  <Rbt.Current_Directory>
/home/itssahil/PROJECTS/Mol_Feturizer/New_Systems/rnas/3GX7

>  <Rbt.Executable>
rbdock ($Id: //depot/dev/client3/rdock/2013.1/src/exe/rbdock.cxx#4 $)

>  <Rbt.Library>
libRbt.so (2013.1, Build901 2013/11/27)

>  <Rbt.Parameter_File>
/export/apps/rDock/src/rDock_2013.1_src/data/scripts/dock_solv.prm

>  <Rbt.Receptor>
prm/pocket_docking_6.prm

>  <SCORE>
-17.9069

>  <SCORE.INTER>
-13.1671

>  <SCORE.INTER.CONST>
1

>  <SCORE.INTER.POLAR>
0

>  <SCORE.INTER.ROT>
7

>  <SCORE.INTER.SOLV>
15.47

>  <SCORE.INTER.VDW>
-22.2014

>  <SCORE.INTER.norm>
-0.48767

>  <SCORE.INTRA>
-4.73979

>  <SCORE.INTRA.DIHEDRAL>
-3.58338

>  <SCORE.INTRA.DIHEDRAL.0>
11.2699

>  <SCORE.INTRA.POLAR>
0

>  <SCORE.INTRA.POLAR.0>
0

>  <SCORE.INTRA.REPUL>
0

>  <SCORE.INTRA.REPUL.0>
0

>  <SCORE.INTRA.SOLV>
-1.07399

>  <SCORE.INTRA.SOLV.lig_0>
-48.6447

>  <SCORE.INTRA.VDW>
-2.4111

>  <SCORE.INTRA.VDW.0>
-0.0211724

>  <SCORE.INTRA.norm>
-0.175548

>  <SCORE.RESTR>
0

>  <SCORE.RESTR.CAVITY>
0

>  <SCORE.RESTR.norm>
0

>  <SCORE.SYSTEM>
0

>  <SCORE.SYSTEM.CONST>
0

>  <SCORE.SYSTEM.DIHEDRAL>
0

>  <SCORE.SYSTEM.SOLV>
0

>  <SCORE.SYSTEM.norm>
0

>  <SCORE.heavy>
27

>  <SCORE.norm>
-0.663218

>  <RMSD>
7.276

$$$$
ligand
 OpenBabel11021811483D
libRbt.so/2013.1/901 2013/11/27
 27 29  0  0  0  0  0  0  0  0999 V2000
   46.3761   59.3063   32.4068 N   0  0  0  0  0  0  0  0  0  0  0  0
   47.5591   58.9064   33.1592 C   0  0  2  0  0  0  0  0  0  0  0  0
   48.8009   59.5843   32.6044 C   0  0  0  0  0  0  0  0  0  0  0  0
   49.9019   59.3719   33.1069 O   0  0  0  0  0  0  0  0  0  0  0  0
   47.7416   57.3893   33.1685 C   0  0  0  0  0  0  0  0  0  0  0  0
   48.7891   56.8770   34.1498 C   0  0  0  0  0  0  0  0  0  0  0  0
   49.1361   55.1009   34.0210 S   0  0  2  0  0  0  0  0  0  0  0  0
   49.6306   54.9650   32.2855 C   0  0  0  0  0  0  0  0  0  0  0  0
   47.4485   54.4460   33.9370 C   0  0  0  0  0  0  0  0  0  0  0  0
   46.8564   54.3709   35.3365 C   0  0  1  0  0  0  0  0  0  0  0  0
   45.4566   54.2876   35.2177 O   0  0  0  0  0  0  0  0  0  0  0  0
   47.2570   53.1401   36.1246 C   0  0  1  0  0  0  0  0  0  0  0  0
   48.3279   53.4390   36.9864 O   0  0  0  0  0  0  0  0  0  0  0  0
   46.0071   52.8006   36.9162 C   0  0  1  0  0  0  0  0  0  0  0  0
   46.1898   53.1829   38.2589 O   0  0  0  0  0  0  0  0  0  0  0  0
   44.8712   53.6057   36.2974 C   0  0  2  0  0  0  0  0  0  0  0  0
   48.7253   60.3504   31.6432 O   0  0  0  0  0  0  0  0  0  0  0  0
   41.6335   49.5982   37.3656 N   0  0  0  0  0  0  0  0  0  0  0  0
   42.5044   50.2454   38.2187 C   0  0  0  0  0  0  0  0  0  0  0  0
   43.2877   51.2887   37.7601 N   0  0  0  0  0  0  0  0  0  0  0  0
   43.2177   51.6837   36.4698 C   0  0  0  0  0  0  0  0  0  0  0  0
   42.3443   51.0523   35.5967 C   0  0  0  0  0  0  0  0  0  0  0  0
   41.5523   50.0003   36.0492 C   0  0  0  0  0  0  0  0  0  0  0  0
   40.7137   49.3784   35.2243 N   0  0  0  0  0  0  0  0  0  0  0  0
   42.4691   51.6485   34.3900 N   0  0  0  0  0  0  0  0  0  0  0  0
   43.3830   52.6426   34.4859 C   0  0  0  0  0  0  0  0  0  0  0  0
   43.8569   52.6766   35.7713 N   0  0  0  0  0  0  0  0  0  0  0  0
  2  1  1  6  0  0  0
  2  3  1  0  0  0  0
  2  5  1  0  0  0  0
  3  4  1  0  0  0  0
  3 17  1  0  0  0  0
  5  6  1  0  0  0  0
  7  6  1  6  0  0  0
  7  8  1  0  0  0  0
  7  9  1  0  0  0  0
 10  9  1  6  0  0  0
 10 11  1  0  0  0  0
 10 12  1  0  0  0  0
 11 16  1  0  0  0  0
 12 13  1  1  0  0  0
 12 14  1  0  0  0  0
 14 15  1  1  0  0  0
 14 16  1  0  0  0  0
 16 27  1  6  0  0  0
 18 19  2  0  0  0  0
 18 23  1  0  0  0  0
 19 20  1  0  0  0  0
 20 21  2  0  0  0  0
 21 22  1  0  0  0  0
 21 27  1  0  0  0  0
 22 23  2  0  0  0  0
 22 25  1  0  0  0  0
 23 24  1  0  0  0  0
 25 26  2  0  0  0  0
 26 27  1  0  0  0  0
M  END
>  <CHROM.1>
-179.93428863,-168.65734175,-173.30949668,57.10498814,-80.56352131,161.13195753
168.80548095,45.97924890,54.26568689,34.99381214,0.88837958,-0.31629465,-0.69980600

>  <Name>
ligand

>  <RI>
0

>  <Rbt.Current_Directory>
/home/itssahil/PROJECTS/Mol_Feturizer/New_Systems/rnas/3GX7

>  <Rbt.Executable>
rbdock ($Id: //depot/dev/client3/rdock/2013.1/src/exe/rbdock.cxx#4 $)

>  <Rbt.Library>
libRbt.so (2013.1, Build901 2013/11/27)

>  <Rbt.Parameter_File>
/export/apps/rDock/src/rDock_2013.1_src/data/scripts/dock_solv.prm

>  <Rbt.Receptor>
prm/pocket_docking_8.prm

>  <SCORE>
-22.4576

>  <SCORE.INTER>
-18.1319

>  <SCORE.INTER.CONST>
1

>  <SCORE.INTER.POLAR>
0

>  <SCORE.INTER.ROT>
7

>  <SCORE.INTER.SOLV>
11.1713

>  <SCORE.INTER.VDW>
-24.0784

>  <SCORE.INTER.norm>
-0.671552

>  <SCORE.INTRA>
-4.34726

>  <SCORE.INTRA.DIHEDRAL>
-5.77304

>  <SCORE.INTRA.DIHEDRAL.0>
11.2699

>  <SCORE.INTRA.POLAR>
0

>  <SCORE.INTRA.POLAR.0>
0

>  <SCORE.INTRA.REPUL>
0

>  <SCORE.INTRA.REPUL.0>
0

>  <SCORE.INTRA.SOLV>
-0.936755

>  <SCORE.INTRA.SOLV.lig_0>
-48.6447

>  <SCORE.INTRA.VDW>
-0.992357

>  <SCORE.INTRA.VDW.0>
-0.0211724

>  <SCORE.INTRA.norm>
-0.161009

>  <SCORE.RESTR>
0.0215539

>  <SCORE.RESTR.CAVITY>
0.0215539

>  <SCORE.RESTR.norm>
0.000798294

>  <SCORE.SYSTEM>
0

>  <SCORE.SYSTEM.CONST>
0

>  <SCORE.SYSTEM.DIHEDRAL>
0

>  <SCORE.SYSTEM.SOLV>
0

>  <SCORE.SYSTEM.norm>
0

>  <SCORE.heavy>
27

>  <SCORE.norm>
-0.831763

>  <RMSD>
7.310

$$$$
ligand
 OpenBabel11021811483D
libRbt.so/2013.1/901 2013/11/27
 27 29  0  0  0  0  0  0  0  0999 V2000
   47.9036   57.4493   34.0511 N   0  0  0  0  0  0  0  0  0  0  0  0
   49.1823   57.3121   33.3642 C   0  0  2  0  0  0  0  0  0  0  0  0
   49.4441   58.5163   32.4747 C   0  0  0  0  0  0  0  0  0  0  0  0
   50.1017   59.4664   32.8927 O   0  0  0  0  0  0  0  0  0  0  0  0
   49.2539   56.0229   32.5471 C   0  0  0  0  0  0  0  0  0  0  0  0
   49.0459   54.7443   33.3500 C   0  0  0  0  0  0  0  0  0  0  0  0
   47.5200   53.8467   32.9537 S   0  0  2  0  0  0  0  0  0  0  0  0
   47.6163   53.7709   31.1482 C   0  0  0  0  0  0  0  0  0  0  0  0
   46.3006   55.1704   33.1654 C   0  0  0  0  0  0  0  0  0  0  0  0
   44.9829   54.7625   32.5237 C   0  0  1  0  0  0  0  0  0  0  0  0
   44.6200   53.5002   33.0290 O   0  0  0  0  0  0  0  0  0  0  0  0
   43.8140   55.6683   32.8549 C   0  0  1  0  0  0  0  0  0  0  0  0
   43.6112   56.6016   31.8220 O   0  0  0  0  0  0  0  0  0  0  0  0
   42.6391   54.7125   32.9558 C   0  0  1  0  0  0  0  0  0  0  0  0
   41.8412   54.8344   31.8021 O   0  0  0  0  0  0  0  0  0  0  0  0
   43.2282   53.3096   33.0335 C   0  0  2  0  0  0  0  0  0  0  0  0
   49.0076   58.5572   31.3240 O   0  0  0  0  0  0  0  0  0  0  0  0
   41.4801   48.9877   35.4728 N   0  0  0  0  0  0  0  0  0  0  0  0
   41.7374   49.1668   34.1286 C   0  0  0  0  0  0  0  0  0  0  0  0
   42.1961   50.3842   33.6597 N   0  0  0  0  0  0  0  0  0  0  0  0
   42.3910   51.4171   34.5086 C   0  0  0  0  0  0  0  0  0  0  0  0
   42.1458   51.2576   35.8644 C   0  0  0  0  0  0  0  0  0  0  0  0
   41.6829   50.0358   36.3456 C   0  0  0  0  0  0  0  0  0  0  0  0
   41.4359   49.8664   37.6420 N   0  0  0  0  0  0  0  0  0  0  0  0
   42.4321   52.4299   36.4732 N   0  0  0  0  0  0  0  0  0  0  0  0
   42.8626   53.3128   35.5415 C   0  0  0  0  0  0  0  0  0  0  0  0
   42.8424   52.6985   34.3167 N   0  0  0  0  0  0  0  0  0  0  0  0
  2  1  1  6  0  0  0
  2  3  1  0  0  0  0
  2  5  1  0  0  0  0
  3  4  1  0  0  0  0
  3 17  1  0  0  0  0
  5  6  1  0  0  0  0
  7  6  1  1  0  0  0
  7  8  1  0  0  0  0
  7  9  1  0  0  0  0
 10  9  1  1  0  0  0
 10 11  1  0  0  0  0
 10 12  1  0  0  0  0
 11 16  1  0  0  0  0
 12 13  1  6  0  0  0
 12 14  1  0  0  0  0
 14 15  1  6  0  0  0
 14 16  1  0  0  0  0
 16 27  1  1  0  0  0
 18 19  2  0  0  0  0
 18 23  1  0  0  0  0
 19 20  1  0  0  0  0
 20 21  2  0  0  0  0
 21 22  1  0  0  0  0
 21 27  1  0  0  0  0
 22 23  2  0  0  0  0
 22 25  1  0  0  0  0
 23 24  1  0  0  0  0
 25 26  2  0  0  0  0
 26 27  1  0  0  0  0
M  END
>  <CHROM.1>
94.13125298,-58.08709855,112.85175949,49.63072631,164.61311210,52.42689549
-110.23252132,45.06588098,54.08961511,33.57168781,-0.78375190,0.14802568
2.59763926

>  <Name>
ligand

>  <RI>
0

>  <Rbt.Current_Directory>
/home/itssahil/PROJECTS/Mol_Feturizer/New_Systems/rnas/3GX7

>  <Rbt.Executable>
rbdock ($Id: //depot/dev/client3/rdock/2013.1/src/exe/rbdock.cxx#4 $)

>  <Rbt.Library>
libRbt.so (2013.1, Build901 2013/11/27)

>  <Rbt.Parameter_File>
/export/apps/rDock/src/rDock_2013.1_src/data/scripts/dock_solv.prm

>  <Rbt.Receptor>
prm/pocket_docking_8.prm

>  <SCORE>
-11.1323

>  <SCORE.INTER>
-10.3951

>  <SCORE.INTER.CONST>
1

>  <SCORE.INTER.POLAR>
0

>  <SCORE.INTER.ROT>
7

>  <SCORE.INTER.SOLV>
9.27473

>  <SCORE.INTER.VDW>
-18.2883

>  <SCORE.INTER.norm>
-0.385004

>  <SCORE.INTRA>
-0.738888

>  <SCORE.INTRA.DIHEDRAL>
-2.40159

>  <SCORE.INTRA.DIHEDRAL.0>
11.2699

>  <SCORE.INTRA.POLAR>
0

>  <SCORE.INTRA.POLAR.0>
0

>  <SCORE.INTRA.REPUL>
0

>  <SCORE.INTRA.REPUL.0>
0

>  <SCORE.INTRA.SOLV>
1.73394

>  <SCORE.INTRA.SOLV.lig_0>
-48.6447

>  <SCORE.INTRA.VDW>
-0.405063

>  <SCORE.INTRA.VDW.0>
-0.0211724

>  <SCORE.INTRA.norm>
-0.0273662

>  <SCORE.RESTR>
0.00170139

>  <SCORE.RESTR.CAVITY>
0.00170139

>  <SCORE.RESTR.norm>
6.30145e-05

>  <SCORE.SYSTEM>
0

>  <SCORE.SYSTEM.CONST>
0

>  <SCORE.SYSTEM.DIHEDRAL>
0

>  <SCORE.SYSTEM.SOLV>
0

>  <SCORE.SYSTEM.norm>
0

>  <SCORE.heavy>
27

>  <SCORE.norm>
-0.412307

>  <RMSD>
7.412

$$$$
ligand
 OpenBabel11021811483D
libRbt.so/2013.1/901 2013/11/27
 27 29  0  0  0  0  0  0  0  0999 V2000
   47.6940   59.1668   31.8449 N   0  0  0  0  0  0  0  0  0  0  0  0
   47.7526   58.0020   32.7197 C   0  0  2  0  0  0  0  0  0  0  0  0
   48.9291   58.1089   33.6757 C   0  0  0  0  0  0  0  0  0  0  0  0
   49.8672   58.8619   33.4250 O   0  0  0  0  0  0  0  0  0  0  0  0
   47.8296   56.6981   31.9267 C   0  0  0  0  0  0  0  0  0  0  0  0
   49.0335   56.5837   30.9992 C   0  0  0  0  0  0  0  0  0  0  0  0
   49.0534   55.0876   29.9731 S   0  0  2  0  0  0  0  0  0  0  0  0
   50.5751   55.3328   29.0249 C   0  0  0  0  0  0  0  0  0  0  0  0
   47.8125   55.5309   28.7291 C   0  0  0  0  0  0  0  0  0  0  0  0
   47.8402   54.5196   27.5928 C   0  0  1  0  0  0  0  0  0  0  0  0
   47.1910   53.3499   28.0293 O   0  0  0  0  0  0  0  0  0  0  0  0
   47.0846   54.9472   26.3507 C   0  0  1  0  0  0  0  0  0  0  0  0
   47.9704   55.4924   25.4035 O   0  0  0  0  0  0  0  0  0  0  0  0
   46.4781   53.6532   25.8387 C   0  0  1  0  0  0  0  0  0  0  0  0
   47.2029   53.2137   24.7145 O   0  0  0  0  0  0  0  0  0  0  0  0
   46.6066   52.6387   26.9681 C   0  0  2  0  0  0  0  0  0  0  0  0
   48.9592   57.4493   34.7152 O   0  0  0  0  0  0  0  0  0  0  0  0
   43.0059   52.5861   30.8043 N   0  0  0  0  0  0  0  0  0  0  0  0
   44.2643   53.1529   30.8196 C   0  0  0  0  0  0  0  0  0  0  0  0
   45.0840   53.0676   29.7091 N   0  0  0  0  0  0  0  0  0  0  0  0
   44.6685   52.4219   28.5974 C   0  0  0  0  0  0  0  0  0  0  0  0
   43.4050   51.8511   28.5573 C   0  0  0  0  0  0  0  0  0  0  0  0
   42.5729   51.9311   29.6708 C   0  0  0  0  0  0  0  0  0  0  0  0
   41.3604   51.3836   29.6529 N   0  0  0  0  0  0  0  0  0  0  0  0
   43.2479   51.2891   27.3380 N   0  0  0  0  0  0  0  0  0  0  0  0
   44.3689   51.5039   26.6099 C   0  0  0  0  0  0  0  0  0  0  0  0
   45.2601   52.2058   27.3785 N   0  0  0  0  0  0  0  0  0  0  0  0
  2  1  1  6  0  0  0
  2  3  1  0  0  0  0
  2  5  1  0  0  0  0
  3  4  1  0  0  0  0
  3 17  1  0  0  0  0
  5  6  1  0  0  0  0
  7  6  1  1  0  0  0
  7  8  1  0  0  0  0
  7  9  1  0  0  0  0
 10  9  1  1  0  0  0
 10 11  1  0  0  0  0
 10 12  1  0  0  0  0
 11 16  1  0  0  0  0
 12 13  1  6  0  0  0
 12 14  1  0  0  0  0
 14 15  1  6  0  0  0
 14 16  1  0  0  0  0
 16 27  1  1  0  0  0
 18 19  2  0  0  0  0
 18 23  1  0  0  0  0
 19 20  1  0  0  0  0
 20 21  2  0  0  0  0
 21 22  1  0  0  0  0
 21 27  1  0  0  0  0
 22 23  2  0  0  0  0
 22 25  1  0  0  0  0
 23 24  1  0  0  0  0
 25 26  2  0  0  0  0
 26 27  1  0  0  0  0
M  END
>  <CHROM.1>
-19.80449584,59.32007365,-175.75932133,179.08935860,169.41175009,76.68796896
-1.42330010,46.70665818,54.54470298,29.33529373,0.87027242,0.58324336,1.16168353

>  <Name>
ligand

>  <RI>
0

>  <Rbt.Current_Directory>
/home/itssahil/PROJECTS/Mol_Feturizer/New_Systems/rnas/3GX7

>  <Rbt.Executable>
rbdock ($Id: //depot/dev/client3/rdock/2013.1/src/exe/rbdock.cxx#4 $)

>  <Rbt.Library>
libRbt.so (2013.1, Build901 2013/11/27)

>  <Rbt.Parameter_File>
/export/apps/rDock/src/rDock_2013.1_src/data/scripts/dock_solv.prm

>  <Rbt.Receptor>
prm/pocket_docking_8.prm

>  <SCORE>
-16.9676

>  <SCORE.INTER>
-11.1289

>  <SCORE.INTER.CONST>
1

>  <SCORE.INTER.POLAR>
0

>  <SCORE.INTER.ROT>
7

>  <SCORE.INTER.SOLV>
7.70562

>  <SCORE.INTER.VDW>
-18.2545

>  <SCORE.INTER.norm>
-0.412183

>  <SCORE.INTRA>
-5.83862

>  <SCORE.INTRA.DIHEDRAL>
-6.89886

>  <SCORE.INTRA.DIHEDRAL.0>
11.2699

>  <SCORE.INTRA.POLAR>
0

>  <SCORE.INTRA.POLAR.0>
0

>  <SCORE.INTRA.REPUL>
0

>  <SCORE.INTRA.REPUL.0>
0

>  <SCORE.INTRA.SOLV>
-0.396639

>  <SCORE.INTRA.SOLV.lig_0>
-48.6447

>  <SCORE.INTRA.VDW>
-2.19087

>  <SCORE.INTRA.VDW.0>
-0.0211724

>  <SCORE.INTRA.norm>
-0.216245

>  <SCORE.RESTR>
0

>  <SCORE.RESTR.CAVITY>
0

>  <SCORE.RESTR.norm>
0

>  <SCORE.SYSTEM>
0

>  <SCORE.SYSTEM.CONST>
0

>  <SCORE.SYSTEM.DIHEDRAL>
0

>  <SCORE.SYSTEM.SOLV>
0

>  <SCORE.SYSTEM.norm>
0

>  <SCORE.heavy>
27

>  <SCORE.norm>
-0.628428

>  <RMSD>
7.443

$$$$
ligand
 OpenBabel11021811483D
libRbt.so/2013.1/901 2013/11/27
 27 29  0  0  0  0  0  0  0  0999 V2000
   47.0111   52.9012   39.7890 N   0  0  0  0  0  0  0  0  0  0  0  0
   47.6822   53.4392   38.6119 C   0  0  2  0  0  0  0  0  0  0  0  0
   48.3987   54.7361   38.9500 C   0  0  0  0  0  0  0  0  0  0  0  0
   48.3759   55.1781   40.0963 O   0  0  0  0  0  0  0  0  0  0  0  0
   46.7110   53.6558   37.4523 C   0  0  0  0  0  0  0  0  0  0  0  0
   47.3722   53.9182   36.1045 C   0  0  0  0  0  0  0  0  0  0  0  0
   46.2538   54.5651   34.8309 S   0  0  2  0  0  0  0  0  0  0  0  0
   45.0819   53.1963   34.6649 C   0  0  0  0  0  0  0  0  0  0  0  0
   47.2684   54.3143   33.3504 C   0  0  0  0  0  0  0  0  0  0  0  0
   48.0437   55.5853   33.0375 C   0  0  1  0  0  0  0  0  0  0  0  0
   48.8868   55.3272   31.9408 O   0  0  0  0  0  0  0  0  0  0  0  0
   47.1848   56.7565   32.6048 C   0  0  1  0  0  0  0  0  0  0  0  0
   46.9359   57.6092   33.6957 O   0  0  0  0  0  0  0  0  0  0  0  0
   48.0342   57.4546   31.5582 C   0  0  1  0  0  0  0  0  0  0  0  0
   48.5835   58.6265   32.1124 O   0  0  0  0  0  0  0  0  0  0  0  0
   49.1486   56.4839   31.1878 C   0  0  2  0  0  0  0  0  0  0  0  0
   49.0152   55.3600   38.0856 O   0  0  0  0  0  0  0  0  0  0  0  0
   51.6770   54.9145   26.8487 N   0  0  0  0  0  0  0  0  0  0  0  0
   52.1944   55.1288   28.1102 C   0  0  0  0  0  0  0  0  0  0  0  0
   51.3734   55.5457   29.1420 N   0  0  0  0  0  0  0  0  0  0  0  0
   50.0561   55.7568   28.9282 C   0  0  0  0  0  0  0  0  0  0  0  0
   49.5134   55.5409   27.6702 C   0  0  0  0  0  0  0  0  0  0  0  0
   50.3323   55.1220   26.6249 C   0  0  0  0  0  0  0  0  0  0  0  0
   49.8305   54.9163   25.4100 N   0  0  0  0  0  0  0  0  0  0  0  0
   48.1913   55.8132   27.7421 N   0  0  0  0  0  0  0  0  0  0  0  0
   47.8886   56.1786   29.0100 C   0  0  0  0  0  0  0  0  0  0  0  0
   49.0362   56.1487   29.7582 N   0  0  0  0  0  0  0  0  0  0  0  0
  2  1  1  1  0  0  0
  2  3  1  0  0  0  0
  2  5  1  0  0  0  0
  3  4  1  0  0  0  0
  3 17  1  0  0  0  0
  5  6  1  0  0  0  0
  7  6  1  1  0  0  0
  7  8  1  0  0  0  0
  7  9  1  0  0  0  0
 10  9  1  6  0  0  0
 10 11  1  0  0  0  0
 10 12  1  0  0  0  0
 11 16  1  0  0  0  0
 12 13  1  1  0  0  0
 12 14  1  0  0  0  0
 14 15  1  1  0  0  0
 14 16  1  0  0  0  0
 16 27  1  6  0  0  0
 18 19  2  0  0  0  0
 18 23  1  0  0  0  0
 19 20  1  0  0  0  0
 20 21  2  0  0  0  0
 21 22  1  0  0  0  0
 21 27  1  0  0  0  0
 22 23  2  0  0  0  0
 22 25  1  0  0  0  0
 23 24  1  0  0  0  0
 25 26  2  0  0  0  0
 26 27  1  0  0  0  0
M  END
>  <CHROM.1>
1.14674112,-167.06715396,-165.90747479,-62.62243989,-94.19560412,176.04250809
-92.84737709,48.37251141,55.31581590,32.74490610,-1.82475775,0.07396145,-1.41964160

>  <Name>
ligand

>  <RI>
0

>  <Rbt.Current_Directory>
/home/itssahil/PROJECTS/Mol_Feturizer/New_Systems/rnas/3GX7

>  <Rbt.Executable>
rbdock ($Id: //depot/dev/client3/rdock/2013.1/src/exe/rbdock.cxx#4 $)

>  <Rbt.Library>
libRbt.so (2013.1, Build901 2013/11/27)

>  <Rbt.Parameter_File>
/export/apps/rDock/src/rDock_2013.1_src/data/scripts/dock_solv.prm

>  <Rbt.Receptor>
prm/pocket_docking_6.prm

>  <SCORE>
-16.3164

>  <SCORE.INTER>
-12.063

>  <SCORE.INTER.CONST>
1

>  <SCORE.INTER.POLAR>
0

>  <SCORE.INTER.ROT>
7

>  <SCORE.INTER.SOLV>
10.9332

>  <SCORE.INTER.VDW>
-19.9531

>  <SCORE.INTER.norm>
-0.446777

>  <SCORE.INTRA>
-4.25341

>  <SCORE.INTRA.DIHEDRAL>
-4.88885

>  <SCORE.INTRA.DIHEDRAL.0>
11.2699

>  <SCORE.INTRA.POLAR>
0

>  <SCORE.INTRA.POLAR.0>
0

>  <SCORE.INTRA.REPUL>
0

>  <SCORE.INTRA.REPUL.0>
0

>  <SCORE.INTRA.SOLV>
-0.996347

>  <SCORE.INTRA.SOLV.lig_0>
-48.6447

>  <SCORE.INTRA.VDW>
-1.31081

>  <SCORE.INTRA.VDW.0>
-0.0211724

>  <SCORE.INTRA.norm>
-0.157534

>  <SCORE.RESTR>
0

>  <SCORE.RESTR.CAVITY>
0

>  <SCORE.RESTR.norm>
0

>  <SCORE.SYSTEM>
0

>  <SCORE.SYSTEM.CONST>
0

>  <SCORE.SYSTEM.DIHEDRAL>
0

>  <SCORE.SYSTEM.SOLV>
0

>  <SCORE.SYSTEM.norm>
0

>  <SCORE.heavy>
27

>  <SCORE.norm>
-0.604311

>  <RMSD>
7.459

$$$$
ligand
 OpenBabel11021811483D
libRbt.so/2013.1/901 2013/11/27
 27 29  0  0  0  0  0  0  0  0999 V2000
   47.2676   53.5009   35.2622 N   0  0  0  0  0  0  0  0  0  0  0  0
   46.3613   54.6177   35.0234 C   0  0  2  0  0  0  0  0  0  0  0  0
   44.9762   54.1136   34.6533 C   0  0  0  0  0  0  0  0  0  0  0  0
   43.9849   54.8079   34.8657 O   0  0  0  0  0  0  0  0  0  0  0  0
   46.8903   55.5586   33.9418 C   0  0  0  0  0  0  0  0  0  0  0  0
   46.0198   56.7809   33.6756 C   0  0  0  0  0  0  0  0  0  0  0  0
   46.7349   57.9751   32.5120 S   0  0  2  0  0  0  0  0  0  0  0  0
   45.3080   59.0367   32.1776 C   0  0  0  0  0  0  0  0  0  0  0  0
   46.7664   56.9761   31.0004 C   0  0  0  0  0  0  0  0  0  0  0  0
   47.1554   57.8485   29.8161 C   0  0  1  0  0  0  0  0  0  0  0  0
   48.3575   57.3509   29.2797 O   0  0  0  0  0  0  0  0  0  0  0  0
   46.1712   57.8217   28.6642 C   0  0  1  0  0  0  0  0  0  0  0  0
   45.3080   58.9304   28.7333 O   0  0  0  0  0  0  0  0  0  0  0  0
   47.0580   57.9053   27.4350 C   0  0  1  0  0  0  0  0  0  0  0  0
   46.9827   59.2037   26.8956 O   0  0  0  0  0  0  0  0  0  0  0  0
   48.4786   57.6208   27.9064 C   0  0  2  0  0  0  0  0  0  0  0  0
   44.8257   53.0079   34.1324 O   0  0  0  0  0  0  0  0  0  0  0  0
   52.4887   54.2648   27.3229 N   0  0  0  0  0  0  0  0  0  0  0  0
   52.4175   55.3804   28.1323 C   0  0  0  0  0  0  0  0  0  0  0  0
   51.2720   56.1548   28.1580 N   0  0  0  0  0  0  0  0  0  0  0  0
   50.2103   55.8353   27.3858 C   0  0  0  0  0  0  0  0  0  0  0  0
   50.2572   54.7144   26.5701 C   0  0  0  0  0  0  0  0  0  0  0  0
   51.4065   53.9292   26.5370 C   0  0  0  0  0  0  0  0  0  0  0  0
   51.4720   52.8543   25.7556 N   0  0  0  0  0  0  0  0  0  0  0  0
   49.0717   54.6263   25.9266 N   0  0  0  0  0  0  0  0  0  0  0  0
   48.2802   55.6493   26.3260 C   0  0  0  0  0  0  0  0  0  0  0  0
   48.9734   56.4088   27.2318 N   0  0  0  0  0  0  0  0  0  0  0  0
  2  1  1  6  0  0  0
  2  3  1  0  0  0  0
  2  5  1  0  0  0  0
  3  4  1  0  0  0  0
  3 17  1  0  0  0  0
  5  6  1  0  0  0  0
  7  6  1  1  0  0  0
  7  8  1  0  0  0  0
  7  9  1  0  0  0  0
 10  9  1  1  0  0  0
 10 11  1  0  0  0  0
 10 12  1  0  0  0  0
 11 16  1  0  0  0  0
 12 13  1  1  0  0  0
 12 14  1  0  0  0  0
 14 15  1  1  0  0  0
 14 16  1  0  0  0  0
 16 27  1  6  0  0  0
 18 19  2  0  0  0  0
 18 23  1  0  0  0  0
 19 20  1  0  0  0  0
 20 21  2  0  0  0  0
 21 22  1  0  0  0  0
 21 27  1  0  0  0  0
 22 23  2  0  0  0  0
 22 25  1  0  0  0  0
 23 24  1  0  0  0  0
 25 26  2  0  0  0  0
 26 27  1  0  0  0  0
M  END
>  <CHROM.1>
154.35503008,-177.74850676,174.19104752,167.87312762,171.96818085,118.17734202
-66.63108646,47.78968586,56.16552003,30.03047232,-2.45600341,0.79283324,-0.87320472

>  <Name>
ligand

>  <RI>
0

>  <Rbt.Current_Directory>
/home/itssahil/PROJECTS/Mol_Feturizer/New_Systems/rnas/3GX7

>  <Rbt.Executable>
rbdock ($Id: //depot/dev/client3/rdock/2013.1/src/exe/rbdock.cxx#4 $)

>  <Rbt.Library>
libRbt.so (2013.1, Build901 2013/11/27)

>  <Rbt.Parameter_File>
/export/apps/rDock/src/rDock_2013.1_src/data/scripts/dock_solv.prm

>  <Rbt.Receptor>
prm/pocket_docking_8.prm

>  <SCORE>
-13.5492

>  <SCORE.INTER>
-10.2796

>  <SCORE.INTER.CONST>
1

>  <SCORE.INTER.POLAR>
0

>  <SCORE.INTER.ROT>
7

>  <SCORE.INTER.SOLV>
10.6984

>  <SCORE.INTER.VDW>
-18.6859

>  <SCORE.INTER.norm>
-0.380726

>  <SCORE.INTRA>
-3.27399

>  <SCORE.INTRA.DIHEDRAL>
-2.72046

>  <SCORE.INTRA.DIHEDRAL.0>
11.2699

>  <SCORE.INTRA.POLAR>
0

>  <SCORE.INTRA.POLAR.0>
0

>  <SCORE.INTRA.REPUL>
0

>  <SCORE.INTRA.REPUL.0>
0

>  <SCORE.INTRA.SOLV>
-0.975088

>  <SCORE.INTRA.SOLV.lig_0>
-48.6447

>  <SCORE.INTRA.VDW>
-1.42622

>  <SCORE.INTRA.VDW.0>
-0.0211724

>  <SCORE.INTRA.norm>
-0.121259

>  <SCORE.RESTR>
0.00440837

>  <SCORE.RESTR.CAVITY>
0.00440837

>  <SCORE.RESTR.norm>
0.000163273

>  <SCORE.SYSTEM>
0

>  <SCORE.SYSTEM.CONST>
0

>  <SCORE.SYSTEM.DIHEDRAL>
0

>  <SCORE.SYSTEM.SOLV>
0

>  <SCORE.SYSTEM.norm>
0

>  <SCORE.heavy>
27

>  <SCORE.norm>
-0.501822

>  <RMSD>
7.513

$$$$
ligand
 OpenBabel11021811483D
libRbt.so/2013.1/901 2013/11/27
 27 29  0  0  0  0  0  0  0  0999 V2000
   48.0237   57.1657   33.8491 N   0  0  0  0  0  0  0  0  0  0  0  0
   46.7211   56.5638   33.5917 C   0  0  2  0  0  0  0  0  0  0  0  0
   46.8120   55.0477   33.6441 C   0  0  0  0  0  0  0  0  0  0  0  0
   45.9215   54.3897   34.1769 O   0  0  0  0  0  0  0  0  0  0  0  0
   46.1404   57.0149   32.2522 C   0  0  0  0  0  0  0  0  0  0  0  0
   44.7832   56.4130   31.9080 C   0  0  0  0  0  0  0  0  0  0  0  0
   44.1042   56.9503   30.3138 S   0  0  2  0  0  0  0  0  0  0  0  0
   42.5736   55.9874   30.2420 C   0  0  0  0  0  0  0  0  0  0  0  0
   45.1483   55.9985   29.1791 C   0  0  0  0  0  0  0  0  0  0  0  0
   46.5246   56.6402   29.0866 C   0  0  1  0  0  0  0  0  0  0  0  0
   47.3150   55.8625   28.2202 O   0  0  0  0  0  0  0  0  0  0  0  0
   46.5320   58.0301   28.4827 C   0  0  1  0  0  0  0  0  0  0  0  0
   46.5454   59.0038   29.4980 O   0  0  0  0  0  0  0  0  0  0  0  0
   47.8230   58.0657   27.6850 C   0  0  1  0  0  0  0  0  0  0  0  0
   48.7757   58.8371   28.3778 O   0  0  0  0  0  0  0  0  0  0  0  0
   48.3034   56.6241   27.5750 C   0  0  2  0  0  0  0  0  0  0  0  0
   47.7730   54.4561   33.1512 O   0  0  0  0  0  0  0  0  0  0  0  0
   51.1155   54.4317   23.7058 N   0  0  0  0  0  0  0  0  0  0  0  0
   51.4767   54.6218   25.0243 C   0  0  0  0  0  0  0  0  0  0  0  0
   50.6014   55.2228   25.9103 N   0  0  0  0  0  0  0  0  0  0  0  0
   49.3846   55.6395   25.4966 C   0  0  0  0  0  0  0  0  0  0  0  0
   48.9978   55.4521   24.1778 C   0  0  0  0  0  0  0  0  0  0  0  0
   49.8726   54.8488   23.2783 C   0  0  0  0  0  0  0  0  0  0  0  0
   49.5213   54.6669   22.0079 N   0  0  0  0  0  0  0  0  0  0  0  0
   47.7461   55.9446   24.0442 N   0  0  0  0  0  0  0  0  0  0  0  0
   47.3333   56.4208   25.2424 C   0  0  0  0  0  0  0  0  0  0  0  0
   48.3399   56.2385   26.1541 N   0  0  0  0  0  0  0  0  0  0  0  0
  2  1  1  6  0  0  0
  2  3  1  0  0  0  0
  2  5  1  0  0  0  0
  3  4  1  0  0  0  0
  3 17  1  0  0  0  0
  5  6  1  0  0  0  0
  7  6  1  1  0  0  0
  7  8  1  0  0  0  0
  7  9  1  0  0  0  0
 10  9  1  6  0  0  0
 10 11  1  0  0  0  0
 10 12  1  0  0  0  0
 11 16  1  0  0  0  0
 12 13  1  1  0  0  0
 12 14  1  0  0  0  0
 14 15  1  1  0  0  0
 14 16  1  0  0  0  0
 16 27  1  6  0  0  0
 18 19  2  0  0  0  0
 18 23  1  0  0  0  0
 19 20  1  0  0  0  0
 20 21  2  0  0  0  0
 21 22  1  0  0  0  0
 21 27  1  0  0  0  0
 22 23  2  0  0  0  0
 22 25  1  0  0  0  0
 23 24  1  0  0  0  0
 25 26  2  0  0  0  0
 26 27  1  0  0  0  0
M  END
>  <CHROM.1>
139.49574784,179.38154408,-179.82174007,177.58179014,-76.21013322,178.85621658
-115.62801740,47.34367036,56.22513959,28.59129034,-2.05038685,0.39619051
-1.47501595

>  <Name>
ligand

>  <RI>
0

>  <Rbt.Current_Directory>
/home/itssahil/PROJECTS/Mol_Feturizer/New_Systems/rnas/3GX7

>  <Rbt.Executable>
rbdock ($Id: //depot/dev/client3/rdock/2013.1/src/exe/rbdock.cxx#4 $)

>  <Rbt.Library>
libRbt.so (2013.1, Build901 2013/11/27)

>  <Rbt.Parameter_File>
/export/apps/rDock/src/rDock_2013.1_src/data/scripts/dock_solv.prm

>  <Rbt.Receptor>
prm/pocket_docking_8.prm

>  <SCORE>
-14.4123

>  <SCORE.INTER>
-7.50323

>  <SCORE.INTER.CONST>
1

>  <SCORE.INTER.POLAR>
0

>  <SCORE.INTER.ROT>
7

>  <SCORE.INTER.SOLV>
13.1601

>  <SCORE.INTER.VDW>
-17.6555

>  <SCORE.INTER.norm>
-0.277897

>  <SCORE.INTRA>
-6.90909

>  <SCORE.INTRA.DIHEDRAL>
-7.8172

>  <SCORE.INTRA.DIHEDRAL.0>
11.2699

>  <SCORE.INTRA.POLAR>
0

>  <SCORE.INTRA.POLAR.0>
0

>  <SCORE.INTRA.REPUL>
0

>  <SCORE.INTRA.REPUL.0>
0

>  <SCORE.INTRA.SOLV>
-0.743581

>  <SCORE.INTRA.SOLV.lig_0>
-48.6447

>  <SCORE.INTRA.VDW>
-2.6287

>  <SCORE.INTRA.VDW.0>
-0.0211724

>  <SCORE.INTRA.norm>
-0.255892

>  <SCORE.RESTR>
0

>  <SCORE.RESTR.CAVITY>
0

>  <SCORE.RESTR.norm>
0

>  <SCORE.SYSTEM>
0

>  <SCORE.SYSTEM.CONST>
0

>  <SCORE.SYSTEM.DIHEDRAL>
0

>  <SCORE.SYSTEM.SOLV>
0

>  <SCORE.SYSTEM.norm>
0

>  <SCORE.heavy>
27

>  <SCORE.norm>
-0.53379

>  <RMSD>
7.541

$$$$
ligand
 OpenBabel11021811483D
libRbt.so/2013.1/901 2013/11/27
 27 29  0  0  0  0  0  0  0  0999 V2000
   47.8671   54.1072   36.4317 N   0  0  0  0  0  0  0  0  0  0  0  0
   47.0322   54.3260   35.2567 C   0  0  2  0  0  0  0  0  0  0  0  0
   45.6595   53.7036   35.4519 C   0  0  0  0  0  0  0  0  0  0  0  0
   44.6546   54.2693   35.0275 O   0  0  0  0  0  0  0  0  0  0  0  0
   47.6850   53.7842   33.9858 C   0  0  0  0  0  0  0  0  0  0  0  0
   46.9461   54.1172   32.6952 C   0  0  0  0  0  0  0  0  0  0  0  0
   47.1996   55.8117   32.0986 S   0  0  2  0  0  0  0  0  0  0  0  0
   45.9798   56.7163   33.0829 C   0  0  0  0  0  0  0  0  0  0  0  0
   46.3418   55.7262   30.5047 C   0  0  0  0  0  0  0  0  0  0  0  0
   46.7457   56.9108   29.6397 C   0  0  1  0  0  0  0  0  0  0  0  0
   48.0963   56.7508   29.2781 O   0  0  0  0  0  0  0  0  0  0  0  0
   45.9977   57.0154   28.3259 C   0  0  1  0  0  0  0  0  0  0  0  0
   44.9324   57.9270   28.4415 O   0  0  0  0  0  0  0  0  0  0  0  0
   47.0466   57.5326   27.3582 C   0  0  1  0  0  0  0  0  0  0  0  0
   46.8078   58.8959   27.0997 O   0  0  0  0  0  0  0  0  0  0  0  0
   48.3937   57.3637   28.0495 C   0  0  2  0  0  0  0  0  0  0  0  0
   45.5328   52.6246   36.0316 O   0  0  0  0  0  0  0  0  0  0  0  0
   49.0180   54.8879   23.4490 N   0  0  0  0  0  0  0  0  0  0  0  0
   48.0053   55.7453   23.8288 C   0  0  0  0  0  0  0  0  0  0  0  0
   48.0021   56.3091   25.0915 N   0  0  0  0  0  0  0  0  0  0  0  0
   48.9848   56.0226   25.9735 C   0  0  0  0  0  0  0  0  0  0  0  0
   50.0163   55.1692   25.6107 C   0  0  0  0  0  0  0  0  0  0  0  0
   50.0275   54.5961   24.3419 C   0  0  0  0  0  0  0  0  0  0  0  0
   51.0052   53.7699   23.9788 N   0  0  0  0  0  0  0  0  0  0  0  0
   50.8560   55.0702   26.6653 N   0  0  0  0  0  0  0  0  0  0  0  0
   50.3887   55.8471   27.6708 C   0  0  0  0  0  0  0  0  0  0  0  0
   49.2273   56.4446   27.2563 N   0  0  0  0  0  0  0  0  0  0  0  0
  2  1  1  1  0  0  0
  2  3  1  0  0  0  0
  2  5  1  0  0  0  0
  3  4  1  0  0  0  0
  3 17  1  0  0  0  0
  5  6  1  0  0  0  0
  7  6  1  1  0  0  0
  7  8  1  0  0  0  0
  7  9  1  0  0  0  0
 10  9  1  6  0  0  0
 10 11  1  0  0  0  0
 10 12  1  0  0  0  0
 11 16  1  0  0  0  0
 12 13  1  1  0  0  0
 12 14  1  0  0  0  0
 14 15  1  1  0  0  0
 14 16  1  0  0  0  0
 16 27  1  6  0  0  0
 18 19  2  0  0  0  0
 18 23  1  0  0  0  0
 19 20  1  0  0  0  0
 20 21  2  0  0  0  0
 21 22  1  0  0  0  0
 21 27  1  0  0  0  0
 22 23  2  0  0  0  0
 22 25  1  0  0  0  0
 23 24  1  0  0  0  0
 25 26  2  0  0  0  0
 26 27  1  0  0  0  0
M  END
>  <CHROM.1>
142.15714460,-173.32301612,77.96989641,-83.24275411,-164.14611164,68.45352705
126.81285232,47.62180161,55.63376601,29.60316961,-1.96626328,0.76508747,-1.13275449

>  <Name>
ligand

>  <RI>
0

>  <Rbt.Current_Directory>
/home/itssahil/PROJECTS/Mol_Feturizer/New_Systems/rnas/3GX7

>  <Rbt.Executable>
rbdock ($Id: //depot/dev/client3/rdock/2013.1/src/exe/rbdock.cxx#4 $)

>  <Rbt.Library>
libRbt.so (2013.1, Build901 2013/11/27)

>  <Rbt.Parameter_File>
/export/apps/rDock/src/rDock_2013.1_src/data/scripts/dock_solv.prm

>  <Rbt.Receptor>
prm/pocket_docking_8.prm

>  <SCORE>
-13.5292

>  <SCORE.INTER>
-8.79466

>  <SCORE.INTER.CONST>
1

>  <SCORE.INTER.POLAR>
0

>  <SCORE.INTER.ROT>
7

>  <SCORE.INTER.SOLV>
10.3821

>  <SCORE.INTER.VDW>
-17.5905

>  <SCORE.INTER.norm>
-0.325728

>  <SCORE.INTRA>
-4.73453

>  <SCORE.INTRA.DIHEDRAL>
-4.42906

>  <SCORE.INTRA.DIHEDRAL.0>
11.2699

>  <SCORE.INTRA.POLAR>
0

>  <SCORE.INTRA.POLAR.0>
0

>  <SCORE.INTRA.REPUL>
0

>  <SCORE.INTRA.REPUL.0>
0

>  <SCORE.INTRA.SOLV>
-0.901164

>  <SCORE.INTRA.SOLV.lig_0>
-48.6447

>  <SCORE.INTRA.VDW>
-2.06942

>  <SCORE.INTRA.VDW.0>
-0.0211724

>  <SCORE.INTRA.norm>
-0.175353

>  <SCORE.RESTR>
0

>  <SCORE.RESTR.CAVITY>
0

>  <SCORE.RESTR.norm>
0

>  <SCORE.SYSTEM>
0

>  <SCORE.SYSTEM.CONST>
0

>  <SCORE.SYSTEM.DIHEDRAL>
0

>  <SCORE.SYSTEM.SOLV>
0

>  <SCORE.SYSTEM.norm>
0

>  <SCORE.heavy>
27

>  <SCORE.norm>
-0.501081

>  <RMSD>
7.548

$$$$
ligand
 OpenBabel11021811483D
libRbt.so/2013.1/901 2013/11/27
 27 29  0  0  0  0  0  0  0  0999 V2000
   47.0365   58.5146   32.9472 N   0  0  0  0  0  0  0  0  0  0  0  0
   47.0349   59.0588   31.5946 C   0  0  2  0  0  0  0  0  0  0  0  0
   46.3042   60.3907   31.5543 C   0  0  0  0  0  0  0  0  0  0  0  0
   45.1544   60.4819   31.9780 O   0  0  0  0  0  0  0  0  0  0  0  0
   46.4199   58.0851   30.5903 C   0  0  0  0  0  0  0  0  0  0  0  0
   46.6359   58.4538   29.1273 C   0  0  0  0  0  0  0  0  0  0  0  0
   45.8315   57.3389   27.9436 S   0  0  2  0  0  0  0  0  0  0  0  0
   44.1301   57.3407   28.5604 C   0  0  0  0  0  0  0  0  0  0  0  0
   46.4073   55.7366   28.5642 C   0  0  0  0  0  0  0  0  0  0  0  0
   45.7957   54.6155   27.7374 C   0  0  1  0  0  0  0  0  0  0  0  0
   46.4790   54.5522   26.5088 O   0  0  0  0  0  0  0  0  0  0  0  0
   45.9458   53.2337   28.3413 C   0  0  1  0  0  0  0  0  0  0  0  0
   44.7749   52.8727   29.0323 O   0  0  0  0  0  0  0  0  0  0  0  0
   46.1568   52.3377   27.1342 C   0  0  1  0  0  0  0  0  0  0  0  0
   44.9738   51.6187   26.8773 O   0  0  0  0  0  0  0  0  0  0  0  0
   46.4695   53.2586   25.9613 C   0  0  2  0  0  0  0  0  0  0  0  0
   46.8517   61.3971   31.1028 O   0  0  0  0  0  0  0  0  0  0  0  0
   51.3475   51.7090   27.1812 N   0  0  0  0  0  0  0  0  0  0  0  0
   50.2703   51.8882   28.0254 C   0  0  0  0  0  0  0  0  0  0  0  0
   49.0506   52.3055   27.5250 N   0  0  0  0  0  0  0  0  0  0  0  0
   48.8981   52.5514   26.2052 C   0  0  0  0  0  0  0  0  0  0  0  0
   49.9651   52.3710   25.3375 C   0  0  0  0  0  0  0  0  0  0  0  0
   51.1973   51.9520   25.8322 C   0  0  0  0  0  0  0  0  0  0  0  0
   52.2337   51.7802   25.0158 N   0  0  0  0  0  0  0  0  0  0  0  0
   49.5356   52.6730   24.0919 N   0  0  0  0  0  0  0  0  0  0  0  0
   48.2291   53.0224   24.1526 C   0  0  0  0  0  0  0  0  0  0  0  0
   47.8192   52.9520   25.4583 N   0  0  0  0  0  0  0  0  0  0  0  0
  2  1  1  1  0  0  0
  2  3  1  0  0  0  0
  2  5  1  0  0  0  0
  3  4  1  0  0  0  0
  3 17  1  0  0  0  0
  5  6  1  0  0  0  0
  7  6  1  1  0  0  0
  7  8  1  0  0  0  0
  7  9  1  0  0  0  0
 10  9  1  1  0  0  0
 10 11  1  0  0  0  0
 10 12  1  0  0  0  0
 11 16  1  0  0  0  0
 12 13  1  6  0  0  0
 12 14  1  0  0  0  0
 14 15  1  6  0  0  0
 14 16  1  0  0  0  0
 16 27  1  1  0  0  0
 18 19  2  0  0  0  0
 18 23  1  0  0  0  0
 19 20  1  0  0  0  0
 20 21  2  0  0  0  0
 21 22  1  0  0  0  0
 21 27  1  0  0  0  0
 22 23  2  0  0  0  0
 22 25  1  0  0  0  0
 23 24  1  0  0  0  0
 25 26  2  0  0  0  0
 26 27  1  0  0  0  0
M  END
>  <CHROM.1>
-54.45717479,-168.12708928,-177.05718435,52.73324421,177.63298381,76.38712332
79.53137863,47.27581871,55.10126602,28.00234560,-1.92173086,-0.02920317,-2.54103451

>  <Name>
ligand

>  <RI>
0

>  <Rbt.Current_Directory>
/home/itssahil/PROJECTS/Mol_Feturizer/New_Systems/rnas/3GX7

>  <Rbt.Executable>
rbdock ($Id: //depot/dev/client3/rdock/2013.1/src/exe/rbdock.cxx#4 $)

>  <Rbt.Library>
libRbt.so (2013.1, Build901 2013/11/27)

>  <Rbt.Parameter_File>
/export/apps/rDock/src/rDock_2013.1_src/data/scripts/dock_solv.prm

>  <Rbt.Receptor>
prm/blind_docking_100.prm

>  <SCORE>
-14.2645

>  <SCORE.INTER>
-9.08968

>  <SCORE.INTER.CONST>
1

>  <SCORE.INTER.POLAR>
0

>  <SCORE.INTER.ROT>
7

>  <SCORE.INTER.SOLV>
14.3246

>  <SCORE.INTER.VDW>
-19.1013

>  <SCORE.INTER.norm>
-0.336655

>  <SCORE.INTRA>
-5.17483

>  <SCORE.INTRA.DIHEDRAL>
-6.53913

>  <SCORE.INTRA.DIHEDRAL.0>
11.2699

>  <SCORE.INTRA.POLAR>
0

>  <SCORE.INTRA.POLAR.0>
0

>  <SCORE.INTRA.REPUL>
0

>  <SCORE.INTRA.REPUL.0>
0

>  <SCORE.INTRA.SOLV>
-1.09744

>  <SCORE.INTRA.SOLV.lig_0>
-48.6447

>  <SCORE.INTRA.VDW>
-1.35654

>  <SCORE.INTRA.VDW.0>
-0.0211724

>  <SCORE.INTRA.norm>
-0.19166

>  <SCORE.RESTR>
0

>  <SCORE.RESTR.CAVITY>
0

>  <SCORE.RESTR.norm>
0

>  <SCORE.SYSTEM>
0

>  <SCORE.SYSTEM.CONST>
0

>  <SCORE.SYSTEM.DIHEDRAL>
0

>  <SCORE.SYSTEM.SOLV>
0

>  <SCORE.SYSTEM.norm>
0

>  <SCORE.heavy>
27

>  <SCORE.norm>
-0.528315

>  <RMSD>
7.827

$$$$
ligand
 OpenBabel11021811483D
libRbt.so/2013.1/901 2013/11/27
 27 29  0  0  0  0  0  0  0  0999 V2000
   45.2531   52.9212   37.8504 N   0  0  0  0  0  0  0  0  0  0  0  0
   46.7098   52.8782   37.8081 C   0  0  2  0  0  0  0  0  0  0  0  0
   47.3031   53.9997   38.6447 C   0  0  0  0  0  0  0  0  0  0  0  0
   46.8119   54.2898   39.7331 O   0  0  0  0  0  0  0  0  0  0  0  0
   47.2398   52.9463   36.3766 C   0  0  0  0  0  0  0  0  0  0  0  0
   46.7579   54.1479   35.5724 C   0  0  0  0  0  0  0  0  0  0  0  0
   47.9169   54.7132   34.2963 S   0  0  2  0  0  0  0  0  0  0  0  0
   47.0410   56.1547   33.6406 C   0  0  0  0  0  0  0  0  0  0  0  0
   47.5812   53.5000   32.9928 C   0  0  0  0  0  0  0  0  0  0  0  0
   48.7326   53.4824   31.9985 C   0  0  1  0  0  0  0  0  0  0  0  0
   48.4506   52.5148   31.0164 O   0  0  0  0  0  0  0  0  0  0  0  0
   48.9223   54.7757   31.2317 C   0  0  1  0  0  0  0  0  0  0  0  0
   49.9286   55.5555   31.8304 O   0  0  0  0  0  0  0  0  0  0  0  0
   49.3499   54.3125   29.8508 C   0  0  1  0  0  0  0  0  0  0  0  0
   50.7325   54.5288   29.6959 O   0  0  0  0  0  0  0  0  0  0  0  0
   49.0471   52.8209   29.7819 C   0  0  2  0  0  0  0  0  0  0  0  0
   48.2844   54.6300   38.2497 O   0  0  0  0  0  0  0  0  0  0  0  0
   43.9659   52.1863   28.5726 N   0  0  0  0  0  0  0  0  0  0  0  0
   44.5286   52.4130   29.8123 C   0  0  0  0  0  0  0  0  0  0  0  0
   45.8977   52.5554   29.9442 N   0  0  0  0  0  0  0  0  0  0  0  0
   46.7042   52.4666   28.8638 C   0  0  0  0  0  0  0  0  0  0  0  0
   46.1598   52.2464   27.6072 C   0  0  0  0  0  0  0  0  0  0  0  0
   44.7824   52.1009   27.4647 C   0  0  0  0  0  0  0  0  0  0  0  0
   44.2431   51.8826   26.2682 N   0  0  0  0  0  0  0  0  0  0  0  0
   47.1784   52.2148   26.7193 N   0  0  0  0  0  0  0  0  0  0  0  0
   48.3414   52.4229   27.3804 C   0  0  0  0  0  0  0  0  0  0  0  0
   48.0631   52.5807   28.7129 N   0  0  0  0  0  0  0  0  0  0  0  0
  2  1  1  6  0  0  0
  2  3  1  0  0  0  0
  2  5  1  0  0  0  0
  3  4  1  0  0  0  0
  3 17  1  0  0  0  0
  5  6  1  0  0  0  0
  7  6  1  1  0  0  0
  7  8  1  0  0  0  0
  7  9  1  0  0  0  0
 10  9  1  1  0  0  0
 10 11  1  0  0  0  0
 10 12  1  0  0  0  0
 11 16  1  0  0  0  0
 12 13  1  1  0  0  0
 12 14  1  0  0  0  0
 14 15  1  1  0  0  0
 14 16  1  0  0  0  0
 16 27  1  6  0  0  0
 18 19  2  0  0  0  0
 18 23  1  0  0  0  0
 19 20  1  0  0  0  0
 20 21  2  0  0  0  0
 21 22  1  0  0  0  0
 21 27  1  0  0  0  0
 22 23  2  0  0  0  0
 22 25  1  0  0  0  0
 23 24  1  0  0  0  0
 25 26  2  0  0  0  0
 26 27  1  0  0  0  0
M  END
>  <CHROM.1>
40.90246469,55.24401711,150.71784598,-177.52262579,-161.68211842,178.94221599
17.77463728,47.33983947,53.49210690,32.15074378,1.51078657,0.42345830,1.43552802

>  <Name>
ligand

>  <RI>
0

>  <Rbt.Current_Directory>
/home/itssahil/PROJECTS/Mol_Feturizer/New_Systems/rnas/3GX7

>  <Rbt.Executable>
rbdock ($Id: //depot/dev/client3/rdock/2013.1/src/exe/rbdock.cxx#4 $)

>  <Rbt.Library>
libRbt.so (2013.1, Build901 2013/11/27)

>  <Rbt.Parameter_File>
/export/apps/rDock/src/rDock_2013.1_src/data/scripts/dock_solv.prm

>  <Rbt.Receptor>
prm/pocket_docking_8.prm

>  <SCORE>
-17.3737

>  <SCORE.INTER>
-13.6889

>  <SCORE.INTER.CONST>
1

>  <SCORE.INTER.POLAR>
0

>  <SCORE.INTER.ROT>
7

>  <SCORE.INTER.SOLV>
18.5801

>  <SCORE.INTER.VDW>
-23.5859

>  <SCORE.INTER.norm>
-0.506995

>  <SCORE.INTRA>
-3.68486

>  <SCORE.INTRA.DIHEDRAL>
-3.221

>  <SCORE.INTRA.DIHEDRAL.0>
11.2699

>  <SCORE.INTRA.POLAR>
0

>  <SCORE.INTRA.POLAR.0>
0

>  <SCORE.INTRA.REPUL>
0

>  <SCORE.INTRA.REPUL.0>
0

>  <SCORE.INTRA.SOLV>
-0.105045

>  <SCORE.INTRA.SOLV.lig_0>
-48.6447

>  <SCORE.INTRA.VDW>
-2.02183

>  <SCORE.INTRA.VDW.0>
-0.0211724

>  <SCORE.INTRA.norm>
-0.136476

>  <SCORE.RESTR>
0

>  <SCORE.RESTR.CAVITY>
0

>  <SCORE.RESTR.norm>
0

>  <SCORE.SYSTEM>
0

>  <SCORE.SYSTEM.CONST>
0

>  <SCORE.SYSTEM.DIHEDRAL>
0

>  <SCORE.SYSTEM.SOLV>
0

>  <SCORE.SYSTEM.norm>
0

>  <SCORE.heavy>
27

>  <SCORE.norm>
-0.643471

>  <RMSD>
7.827

$$$$
ligand
 OpenBabel11021811483D
libRbt.so/2013.1/901 2013/11/27
 27 29  0  0  0  0  0  0  0  0999 V2000
   45.6700   58.2382   32.0407 N   0  0  0  0  0  0  0  0  0  0  0  0
   45.5791   56.9426   32.7030 C   0  0  2  0  0  0  0  0  0  0  0  0
   44.5239   56.9730   33.7963 C   0  0  0  0  0  0  0  0  0  0  0  0
   44.3338   55.9867   34.5041 O   0  0  0  0  0  0  0  0  0  0  0  0
   46.9249   56.5007   33.2761 C   0  0  0  0  0  0  0  0  0  0  0  0
   47.9223   55.9880   32.2441 C   0  0  0  0  0  0  0  0  0  0  0  0
   47.3903   54.4959   31.3598 S   0  0  2  0  0  0  0  0  0  0  0  0
   48.7056   53.3359   31.8061 C   0  0  0  0  0  0  0  0  0  0  0  0
   47.8863   54.9257   29.6707 C   0  0  0  0  0  0  0  0  0  0  0  0
   46.9017   54.3263   28.6778 C   0  0  1  0  0  0  0  0  0  0  0  0
   47.3183   54.6759   27.3799 O   0  0  0  0  0  0  0  0  0  0  0  0
   46.8500   52.8117   28.6785 C   0  0  1  0  0  0  0  0  0  0  0  0
   45.7744   52.3600   29.4645 O   0  0  0  0  0  0  0  0  0  0  0  0
   46.6340   52.4613   27.2174 C   0  0  1  0  0  0  0  0  0  0  0  0
   45.2948   52.0706   27.0268 O   0  0  0  0  0  0  0  0  0  0  0  0
   46.9234   53.7278   26.4214 C   0  0  2  0  0  0  0  0  0  0  0  0
   43.8485   57.9837   33.9931 O   0  0  0  0  0  0  0  0  0  0  0  0
   49.6977   55.4536   22.2973 N   0  0  0  0  0  0  0  0  0  0  0  0
   48.6012   56.0397   22.8965 C   0  0  0  0  0  0  0  0  0  0  0  0
   47.9915   55.4377   23.9820 N   0  0  0  0  0  0  0  0  0  0  0  0
   48.4549   54.2644   24.4659 C   0  0  0  0  0  0  0  0  0  0  0  0
   49.5600   53.6612   23.8838 C   0  0  0  0  0  0  0  0  0  0  0  0
   50.1799   54.2594   22.7899 C   0  0  0  0  0  0  0  0  0  0  0  0
   51.2368   53.6919   22.2145 N   0  0  0  0  0  0  0  0  0  0  0  0
   49.8111   52.5214   24.5656 N   0  0  0  0  0  0  0  0  0  0  0  0
   48.9058   52.4012   25.5650 C   0  0  0  0  0  0  0  0  0  0  0  0
   48.0569   53.4758   25.5157 N   0  0  0  0  0  0  0  0  0  0  0  0
  2  1  1  1  0  0  0
  2  3  1  0  0  0  0
  2  5  1  0  0  0  0
  3  4  1  0  0  0  0
  3 17  1  0  0  0  0
  5  6  1  0  0  0  0
  7  6  1  1  0  0  0
  7  8  1  0  0  0  0
  7  9  1  0  0  0  0
 10  9  1  1  0  0  0
 10 11  1  0  0  0  0
 10 12  1  0  0  0  0
 11 16  1  0  0  0  0
 12 13  1  1  0  0  0
 12 14  1  0  0  0  0
 14 15  1  1  0  0  0
 14 16  1  0  0  0  0
 16 27  1  6  0  0  0
 18 19  2  0  0  0  0
 18 23  1  0  0  0  0
 19 20  1  0  0  0  0
 20 21  2  0  0  0  0
 21 22  1  0  0  0  0
 21 27  1  0  0  0  0
 22 23  2  0  0  0  0
 22 25  1  0  0  0  0
 23 24  1  0  0  0  0
 25 26  2  0  0  0  0
 26 27  1  0  0  0  0
M  END
>  <CHROM.1>
-177.25015302,-75.86072861,-62.81075043,-119.82322173,-146.41837113,-179.84598629
-79.62416400,47.37261919,54.62842478,28.38183241,-2.82628306,-1.19663664
-3.04810412

>  <Name>
ligand

>  <RI>
0

>  <Rbt.Current_Directory>
/home/itssahil/PROJECTS/Mol_Feturizer/New_Systems/rnas/3GX7

>  <Rbt.Executable>
rbdock ($Id: //depot/dev/client3/rdock/2013.1/src/exe/rbdock.cxx#4 $)

>  <Rbt.Library>
libRbt.so (2013.1, Build901 2013/11/27)

>  <Rbt.Parameter_File>
/export/apps/rDock/src/rDock_2013.1_src/data/scripts/dock_solv.prm

>  <Rbt.Receptor>
prm/blind_docking_100.prm

>  <SCORE>
-10.9046

>  <SCORE.INTER>
-9.08018

>  <SCORE.INTER.CONST>
1

>  <SCORE.INTER.POLAR>
0

>  <SCORE.INTER.ROT>
7

>  <SCORE.INTER.SOLV>
8.62876

>  <SCORE.INTER.VDW>
-17.1964

>  <SCORE.INTER.norm>
-0.336303

>  <SCORE.INTRA>
-1.82445

>  <SCORE.INTRA.DIHEDRAL>
0.456215

>  <SCORE.INTRA.DIHEDRAL.0>
11.2699

>  <SCORE.INTRA.POLAR>
0

>  <SCORE.INTRA.POLAR.0>
0

>  <SCORE.INTRA.REPUL>
0

>  <SCORE.INTRA.REPUL.0>
0

>  <SCORE.INTRA.SOLV>
0.0565476

>  <SCORE.INTRA.SOLV.lig_0>
-48.6447

>  <SCORE.INTRA.VDW>
-2.08083

>  <SCORE.INTRA.VDW.0>
-0.0211724

>  <SCORE.INTRA.norm>
-0.0675722

>  <SCORE.RESTR>
0

>  <SCORE.RESTR.CAVITY>
0

>  <SCORE.RESTR.norm>
0

>  <SCORE.SYSTEM>
0

>  <SCORE.SYSTEM.CONST>
0

>  <SCORE.SYSTEM.DIHEDRAL>
0

>  <SCORE.SYSTEM.SOLV>
0

>  <SCORE.SYSTEM.norm>
0

>  <SCORE.heavy>
27

>  <SCORE.norm>
-0.403875

>  <RMSD>
7.862

$$$$
ligand
 OpenBabel11021811483D
libRbt.so/2013.1/901 2013/11/27
 27 29  0  0  0  0  0  0  0  0999 V2000
   47.7571   53.3789   41.3342 N   0  0  0  0  0  0  0  0  0  0  0  0
   47.6516   53.3239   39.8812 C   0  0  2  0  0  0  0  0  0  0  0  0
   48.4164   54.4727   39.2449 C   0  0  0  0  0  0  0  0  0  0  0  0
   48.9804   55.3084   39.9473 O   0  0  0  0  0  0  0  0  0  0  0  0
   46.1963   53.3325   39.4155 C   0  0  0  0  0  0  0  0  0  0  0  0
   45.9950   53.0114   37.9394 C   0  0  0  0  0  0  0  0  0  0  0  0
   44.2896   53.2072   37.3524 S   0  0  2  0  0  0  0  0  0  0  0  0
   43.4900   51.7728   38.1126 C   0  0  0  0  0  0  0  0  0  0  0  0
   44.4648   52.6234   35.6458 C   0  0  0  0  0  0  0  0  0  0  0  0
   43.1393   52.7709   34.9138 C   0  0  1  0  0  0  0  0  0  0  0  0
   42.8744   54.1440   34.7564 O   0  0  0  0  0  0  0  0  0  0  0  0
   43.1303   52.2060   33.5076 C   0  0  1  0  0  0  0  0  0  0  0  0
   42.5741   50.9139   33.5037 O   0  0  0  0  0  0  0  0  0  0  0  0
   42.2487   53.1742   32.7397 C   0  0  1  0  0  0  0  0  0  0  0  0
   40.9917   52.5805   32.5163 O   0  0  0  0  0  0  0  0  0  0  0  0
   42.0910   54.4074   33.6205 C   0  0  2  0  0  0  0  0  0  0  0  0
   48.4873   54.5817   38.0203 O   0  0  0  0  0  0  0  0  0  0  0  0
   46.1722   57.7009   33.1961 N   0  0  0  0  0  0  0  0  0  0  0  0
   46.0175   56.6372   34.0619 C   0  0  0  0  0  0  0  0  0  0  0  0
   44.8652   55.8732   34.0334 N   0  0  0  0  0  0  0  0  0  0  0  0
   43.8720   56.1617   33.1640 C   0  0  0  0  0  0  0  0  0  0  0  0
   44.0091   57.2215   32.2798 C   0  0  0  0  0  0  0  0  0  0  0  0
   45.1653   57.9970   32.3018 C   0  0  0  0  0  0  0  0  0  0  0  0
   45.3114   59.0216   31.4657 N   0  0  0  0  0  0  0  0  0  0  0  0
   42.8875   57.2749   31.5273 N   0  0  0  0  0  0  0  0  0  0  0  0
   42.0599   56.2720   31.9041 C   0  0  0  0  0  0  0  0  0  0  0  0
   42.6573   55.5722   32.9196 N   0  0  0  0  0  0  0  0  0  0  0  0
  2  1  1  1  0  0  0
  2  3  1  0  0  0  0
  2  5  1  0  0  0  0
  3  4  1  0  0  0  0
  3 17  1  0  0  0  0
  5  6  1  0  0  0  0
  7  6  1  1  0  0  0
  7  8  1  0  0  0  0
  7  9  1  0  0  0  0
 10  9  1  6  0  0  0
 10 11  1  0  0  0  0
 10 12  1  0  0  0  0
 11 16  1  0  0  0  0
 12 13  1  1  0  0  0
 12 14  1  0  0  0  0
 14 15  1  1  0  0  0
 14 16  1  0  0  0  0
 16 27  1  6  0  0  0
 18 19  2  0  0  0  0
 18 23  1  0  0  0  0
 19 20  1  0  0  0  0
 20 21  2  0  0  0  0
 21 22  1  0  0  0  0
 21 27  1  0  0  0  0
 22 23  2  0  0  0  0
 22 25  1  0  0  0  0
 23 24  1  0  0  0  0
 25 26  2  0  0  0  0
 26 27  1  0  0  0  0
M  END
>  <CHROM.1>
-2.06467576,-168.88598818,-173.39975496,-72.93613511,-176.89536989,68.15347733
11.22088850,44.64681605,54.48751959,35.32784529,-0.85072343,-0.72451212,-0.77102520

>  <Name>
ligand

>  <RI>
0

>  <Rbt.Current_Directory>
/home/itssahil/PROJECTS/Mol_Feturizer/New_Systems/rnas/3GX7

>  <Rbt.Executable>
rbdock ($Id: //depot/dev/client3/rdock/2013.1/src/exe/rbdock.cxx#4 $)

>  <Rbt.Library>
libRbt.so (2013.1, Build901 2013/11/27)

>  <Rbt.Parameter_File>
/export/apps/rDock/src/rDock_2013.1_src/data/scripts/dock_solv.prm

>  <Rbt.Receptor>
prm/pocket_docking_8.prm

>  <SCORE>
-20.1534

>  <SCORE.INTER>
-13.9859

>  <SCORE.INTER.CONST>
1

>  <SCORE.INTER.POLAR>
0

>  <SCORE.INTER.ROT>
7

>  <SCORE.INTER.SOLV>
10.0262

>  <SCORE.INTER.VDW>
-20.9327

>  <SCORE.INTER.norm>
-0.517997

>  <SCORE.INTRA>
-6.16752

>  <SCORE.INTRA.DIHEDRAL>
-6.80956

>  <SCORE.INTRA.DIHEDRAL.0>
11.2699

>  <SCORE.INTRA.POLAR>
0

>  <SCORE.INTRA.POLAR.0>
0

>  <SCORE.INTRA.REPUL>
0

>  <SCORE.INTRA.REPUL.0>
0

>  <SCORE.INTRA.SOLV>
-1.07742

>  <SCORE.INTRA.SOLV.lig_0>
-48.6447

>  <SCORE.INTRA.VDW>
-2.22403

>  <SCORE.INTRA.VDW.0>
-0.0211724

>  <SCORE.INTRA.norm>
-0.228427

>  <SCORE.RESTR>
0

>  <SCORE.RESTR.CAVITY>
0

>  <SCORE.RESTR.norm>
0

>  <SCORE.SYSTEM>
0

>  <SCORE.SYSTEM.CONST>
0

>  <SCORE.SYSTEM.DIHEDRAL>
0

>  <SCORE.SYSTEM.SOLV>
0

>  <SCORE.SYSTEM.norm>
0

>  <SCORE.heavy>
27

>  <SCORE.norm>
-0.746424

>  <RMSD>
7.945

$$$$
ligand
 OpenBabel11021811483D
libRbt.so/2013.1/901 2013/11/27
 27 29  0  0  0  0  0  0  0  0999 V2000
   42.4695   56.6881   29.3971 N   0  0  0  0  0  0  0  0  0  0  0  0
   43.4613   55.9464   30.1664 C   0  0  2  0  0  0  0  0  0  0  0  0
   43.1519   56.0215   31.6524 C   0  0  0  0  0  0  0  0  0  0  0  0
   42.8986   57.1016   32.1806 O   0  0  0  0  0  0  0  0  0  0  0  0
   44.8805   56.4427   29.8937 C   0  0  0  0  0  0  0  0  0  0  0  0
   45.4855   55.9609   28.5806 C   0  0  0  0  0  0  0  0  0  0  0  0
   47.2007   56.4842   28.3054 S   0  0  2  0  0  0  0  0  0  0  0  0
   46.9538   58.0675   27.4646 C   0  0  0  0  0  0  0  0  0  0  0  0
   47.6408   55.4277   26.9003 C   0  0  0  0  0  0  0  0  0  0  0  0
   47.9037   54.0101   27.3859 C   0  0  1  0  0  0  0  0  0  0  0  0
   48.2442   53.2200   26.2723 O   0  0  0  0  0  0  0  0  0  0  0  0
   49.0777   53.8771   28.3349 C   0  0  1  0  0  0  0  0  0  0  0  0
   48.6291   53.8630   29.6681 O   0  0  0  0  0  0  0  0  0  0  0  0
   49.6911   52.5405   27.9587 C   0  0  1  0  0  0  0  0  0  0  0  0
   49.3555   51.5842   28.9362 O   0  0  0  0  0  0  0  0  0  0  0  0
   49.0831   52.1476   26.6181 C   0  0  2  0  0  0  0  0  0  0  0  0
   43.1452   55.0051   32.3475 O   0  0  0  0  0  0  0  0  0  0  0  0
   51.6016   54.5238   22.6564 N   0  0  0  0  0  0  0  0  0  0  0  0
   50.5465   55.0003   23.4079 C   0  0  0  0  0  0  0  0  0  0  0  0
   50.0034   54.2297   24.4197 N   0  0  0  0  0  0  0  0  0  0  0  0
   50.4919   52.9975   24.6814 C   0  0  0  0  0  0  0  0  0  0  0  0
   51.5565   52.5014   23.9435 C   0  0  0  0  0  0  0  0  0  0  0  0
   52.1092   53.2696   22.9222 C   0  0  0  0  0  0  0  0  0  0  0  0
   53.1263   52.8074   22.1996 N   0  0  0  0  0  0  0  0  0  0  0  0
   51.8455   51.2695   24.4187 N   0  0  0  0  0  0  0  0  0  0  0  0
   51.0037   50.9864   25.4405 C   0  0  0  0  0  0  0  0  0  0  0  0
   50.1572   52.0497   25.6153 N   0  0  0  0  0  0  0  0  0  0  0  0
  2  1  1  6  0  0  0
  2  3  1  0  0  0  0
  2  5  1  0  0  0  0
  3  4  1  0  0  0  0
  3 17  1  0  0  0  0
  5  6  1  0  0  0  0
  7  6  1  6  0  0  0
  7  8  1  0  0  0  0
  7  9  1  0  0  0  0
 10  9  1  6  0  0  0
 10 11  1  0  0  0  0
 10 12  1  0  0  0  0
 11 16  1  0  0  0  0
 12 13  1  1  0  0  0
 12 14  1  0  0  0  0
 14 15  1  1  0  0  0
 14 16  1  0  0  0  0
 16 27  1  6  0  0  0
 18 19  2  0  0  0  0
 18 23  1  0  0  0  0
 19 20  1  0  0  0  0
 20 21  2  0  0  0  0
 21 22  1  0  0  0  0
 21 27  1  0  0  0  0
 22 23  2  0  0  0  0
 22 25  1  0  0  0  0
 23 24  1  0  0  0  0
 25 26  2  0  0  0  0
 26 27  1  0  0  0  0
M  END
>  <CHROM.1>
-48.13501922,-77.65562489,-176.98637610,-89.30314696,-76.62347485,-179.88804086
13.95533784,48.07199720,54.36618408,27.27172677,2.98994086,-0.77544528,2.43954642

>  <Name>
ligand

>  <RI>
0

>  <Rbt.Current_Directory>
/home/itssahil/PROJECTS/Mol_Feturizer/New_Systems/rnas/3GX7

>  <Rbt.Executable>
rbdock ($Id: //depot/dev/client3/rdock/2013.1/src/exe/rbdock.cxx#4 $)

>  <Rbt.Library>
libRbt.so (2013.1, Build901 2013/11/27)

>  <Rbt.Parameter_File>
/export/apps/rDock/src/rDock_2013.1_src/data/scripts/dock_solv.prm

>  <Rbt.Receptor>
prm/blind_docking_80.prm

>  <SCORE>
-10.3753

>  <SCORE.INTER>
-4.49558

>  <SCORE.INTER.CONST>
1

>  <SCORE.INTER.POLAR>
0

>  <SCORE.INTER.ROT>
7

>  <SCORE.INTER.SOLV>
11.2946

>  <SCORE.INTER.VDW>
-15.0286

>  <SCORE.INTER.norm>
-0.166503

>  <SCORE.INTRA>
-5.88134

>  <SCORE.INTRA.DIHEDRAL>
-5.51268

>  <SCORE.INTRA.DIHEDRAL.0>
11.2699

>  <SCORE.INTRA.POLAR>
0

>  <SCORE.INTRA.POLAR.0>
0

>  <SCORE.INTRA.REPUL>
0

>  <SCORE.INTRA.REPUL.0>
0

>  <SCORE.INTRA.SOLV>
-0.34455

>  <SCORE.INTRA.SOLV.lig_0>
-48.6447

>  <SCORE.INTRA.VDW>
-2.95273

>  <SCORE.INTRA.VDW.0>
-0.0211724

>  <SCORE.INTRA.norm>
-0.217828

>  <SCORE.RESTR>
0.00164998

>  <SCORE.RESTR.CAVITY>
0.00164998

>  <SCORE.RESTR.norm>
6.11102e-05

>  <SCORE.SYSTEM>
0

>  <SCORE.SYSTEM.CONST>
0

>  <SCORE.SYSTEM.DIHEDRAL>
0

>  <SCORE.SYSTEM.SOLV>
0

>  <SCORE.SYSTEM.norm>
0

>  <SCORE.heavy>
27

>  <SCORE.norm>
-0.384269

>  <RMSD>
8.372

$$$$
ligand
 OpenBabel11021811483D
libRbt.so/2013.1/901 2013/11/27
 27 29  0  0  0  0  0  0  0  0999 V2000
   46.2179   55.3851   20.0292 N   0  0  0  0  0  0  0  0  0  0  0  0
   47.1178   54.2529   20.2128 C   0  0  2  0  0  0  0  0  0  0  0  0
   46.4289   52.9537   19.8295 C   0  0  0  0  0  0  0  0  0  0  0  0
   45.2351   52.7889   20.0697 O   0  0  0  0  0  0  0  0  0  0  0  0
   47.6455   54.1717   21.6446 C   0  0  0  0  0  0  0  0  0  0  0  0
   48.4146   55.4010   22.1136 C   0  0  0  0  0  0  0  0  0  0  0  0
   49.1508   55.2437   23.7642 S   0  0  2  0  0  0  0  0  0  0  0  0
   50.2395   53.8175   23.5283 C   0  0  0  0  0  0  0  0  0  0  0  0
   47.7785   54.4688   24.6589 C   0  0  0  0  0  0  0  0  0  0  0  0
   48.1881   54.2065   26.1005 C   0  0  1  0  0  0  0  0  0  0  0  0
   47.0447   54.3292   26.9116 O   0  0  0  0  0  0  0  0  0  0  0  0
   48.7068   52.8070   26.3631 C   0  0  1  0  0  0  0  0  0  0  0  0
   50.1134   52.7956   26.3426 O   0  0  0  0  0  0  0  0  0  0  0  0
   48.1857   52.4881   27.7527 C   0  0  1  0  0  0  0  0  0  0  0  0
   49.2431   52.5815   28.6778 O   0  0  0  0  0  0  0  0  0  0  0  0
   47.1260   53.5363   28.0683 C   0  0  2  0  0  0  0  0  0  0  0  0
   47.0517   52.0507   19.2700 O   0  0  0  0  0  0  0  0  0  0  0  0
   43.1586   50.9207   25.8093 N   0  0  0  0  0  0  0  0  0  0  0  0
   44.2958   51.4299   25.2156 C   0  0  0  0  0  0  0  0  0  0  0  0
   45.2417   52.0971   25.9722 N   0  0  0  0  0  0  0  0  0  0  0  0
   45.0626   52.2671   27.3005 C   0  0  0  0  0  0  0  0  0  0  0  0
   43.9307   51.7575   27.9194 C   0  0  0  0  0  0  0  0  0  0  0  0
   42.9724   51.0850   27.1657 C   0  0  0  0  0  0  0  0  0  0  0  0
   41.8772   50.5954   27.7410 N   0  0  0  0  0  0  0  0  0  0  0  0
   44.0133   52.0567   29.2350 N   0  0  0  0  0  0  0  0  0  0  0  0
   45.1691   52.7248   29.4597 C   0  0  0  0  0  0  0  0  0  0  0  0
   45.8313   52.8634   28.2680 N   0  0  0  0  0  0  0  0  0  0  0  0
  2  1  1  1  0  0  0
  2  3  1  0  0  0  0
  2  5  1  0  0  0  0
  3  4  1  0  0  0  0
  3 17  1  0  0  0  0
  5  6  1  0  0  0  0
  7  6  1  6  0  0  0
  7  8  1  0  0  0  0
  7  9  1  0  0  0  0
 10  9  1  6  0  0  0
 10 11  1  0  0  0  0
 10 12  1  0  0  0  0
 11 16  1  0  0  0  0
 12 13  1  1  0  0  0
 12 14  1  0  0  0  0
 14 15  1  1  0  0  0
 14 16  1  0  0  0  0
 16 27  1  6  0  0  0
 18 19  2  0  0  0  0
 18 23  1  0  0  0  0
 19 20  1  0  0  0  0
 20 21  2  0  0  0  0
 21 22  1  0  0  0  0
 21 27  1  0  0  0  0
 22 23  2  0  0  0  0
 22 25  1  0  0  0  0
 23 24  1  0  0  0  0
 25 26  2  0  0  0  0
 26 27  1  0  0  0  0
M  END
>  <CHROM.1>
-36.48925933,-59.10998449,-175.32734691,59.53722446,178.76952968,147.85074005
42.92877473,46.70181309,53.13032956,25.03424195,1.20126084,-0.41790387,-1.44810559

>  <Name>
ligand

>  <RI>
0

>  <Rbt.Current_Directory>
/home/itssahil/PROJECTS/Mol_Feturizer/New_Systems/rnas/3GX7

>  <Rbt.Executable>
rbdock ($Id: //depot/dev/client3/rdock/2013.1/src/exe/rbdock.cxx#4 $)

>  <Rbt.Library>
libRbt.so (2013.1, Build901 2013/11/27)

>  <Rbt.Parameter_File>
/export/apps/rDock/src/rDock_2013.1_src/data/scripts/dock_solv.prm

>  <Rbt.Receptor>
prm/blind_docking_80.prm

>  <SCORE>
-18.0706

>  <SCORE.INTER>
-13.9966

>  <SCORE.INTER.CONST>
1

>  <SCORE.INTER.POLAR>
0

>  <SCORE.INTER.ROT>
7

>  <SCORE.INTER.SOLV>
16.3234

>  <SCORE.INTER.VDW>
-23.0389

>  <SCORE.INTER.norm>
-0.518391

>  <SCORE.INTRA>
-4.07407

>  <SCORE.INTRA.DIHEDRAL>
-4.79256

>  <SCORE.INTRA.DIHEDRAL.0>
11.2699

>  <SCORE.INTRA.POLAR>
0

>  <SCORE.INTRA.POLAR.0>
0

>  <SCORE.INTRA.REPUL>
0

>  <SCORE.INTRA.REPUL.0>
0

>  <SCORE.INTRA.SOLV>
-0.145432

>  <SCORE.INTRA.SOLV.lig_0>
-48.6447

>  <SCORE.INTRA.VDW>
-1.60507

>  <SCORE.INTRA.VDW.0>
-0.0211724

>  <SCORE.INTRA.norm>
-0.150891

>  <SCORE.RESTR>
0

>  <SCORE.RESTR.CAVITY>
0

>  <SCORE.RESTR.norm>
0

>  <SCORE.SYSTEM>
0

>  <SCORE.SYSTEM.CONST>
0

>  <SCORE.SYSTEM.DIHEDRAL>
0

>  <SCORE.SYSTEM.SOLV>
0

>  <SCORE.SYSTEM.norm>
0

>  <SCORE.heavy>
27

>  <SCORE.norm>
-0.669283

>  <RMSD>
8.450

$$$$
ligand
 OpenBabel11021811483D
libRbt.so/2013.1/901 2013/11/27
 27 29  0  0  0  0  0  0  0  0999 V2000
   49.5779   59.0827   32.5674 N   0  0  0  0  0  0  0  0  0  0  0  0
   48.2043   59.3985   32.1947 C   0  0  2  0  0  0  0  0  0  0  0  0
   47.2266   58.5268   32.9653 C   0  0  0  0  0  0  0  0  0  0  0  0
   46.0171   58.6319   32.7753 O   0  0  0  0  0  0  0  0  0  0  0  0
   47.9747   59.2526   30.6911 C   0  0  0  0  0  0  0  0  0  0  0  0
   48.3550   57.8940   30.1148 C   0  0  0  0  0  0  0  0  0  0  0  0
   48.0256   57.7104   28.3402 S   0  0  2  0  0  0  0  0  0  0  0  0
   46.2167   57.6633   28.3222 C   0  0  0  0  0  0  0  0  0  0  0  0
   48.4053   55.9522   28.1200 C   0  0  0  0  0  0  0  0  0  0  0  0
   47.6704   55.4168   26.9001 C   0  0  1  0  0  0  0  0  0  0  0  0
   48.3292   55.8865   25.7488 O   0  0  0  0  0  0  0  0  0  0  0  0
   47.6822   53.9070   26.7703 C   0  0  1  0  0  0  0  0  0  0  0  0
   46.4879   53.3637   27.2777 O   0  0  0  0  0  0  0  0  0  0  0  0
   47.7846   53.6784   25.2731 C   0  0  1  0  0  0  0  0  0  0  0  0
   46.5301   53.2734   24.7784 O   0  0  0  0  0  0  0  0  0  0  0  0
   48.1784   55.0152   24.6573 C   0  0  2  0  0  0  0  0  0  0  0  0
   47.6287   57.7011   33.7855 O   0  0  0  0  0  0  0  0  0  0  0  0
   50.7480   53.2909   20.4019 N   0  0  0  0  0  0  0  0  0  0  0  0
   49.3944   53.2339   20.6657 C   0  0  0  0  0  0  0  0  0  0  0  0
   48.8898   53.7410   21.8492 N   0  0  0  0  0  0  0  0  0  0  0  0
   49.7147   54.2915   22.7668 C   0  0  0  0  0  0  0  0  0  0  0  0
   51.0775   54.3659   22.5196 C   0  0  0  0  0  0  0  0  0  0  0  0
   51.5948   53.8572   21.3312 C   0  0  0  0  0  0  0  0  0  0  0  0
   52.9001   53.9138   21.0800 N   0  0  0  0  0  0  0  0  0  0  0  0
   51.6548   54.9659   23.5844 N   0  0  0  0  0  0  0  0  0  0  0  0
   50.6927   55.2819   24.4830 C   0  0  0  0  0  0  0  0  0  0  0  0
   49.4828   54.8692   23.9895 N   0  0  0  0  0  0  0  0  0  0  0  0
  2  1  1  6  0  0  0
  2  3  1  0  0  0  0
  2  5  1  0  0  0  0
  3  4  1  0  0  0  0
  3 17  1  0  0  0  0
  5  6  1  0  0  0  0
  7  6  1  1  0  0  0
  7  8  1  0  0  0  0
  7  9  1  0  0  0  0
 10  9  1  1  0  0  0
 10 11  1  0  0  0  0
 10 12  1  0  0  0  0
 11 16  1  0  0  0  0
 12 13  1  6  0  0  0
 12 14  1  0  0  0  0
 14 15  1  6  0  0  0
 14 16  1  0  0  0  0
 16 27  1  1  0  0  0
 18 19  2  0  0  0  0
 18 23  1  0  0  0  0
 19 20  1  0  0  0  0
 20 21  2  0  0  0  0
 21 22  1  0  0  0  0
 21 27  1  0  0  0  0
 22 23  2  0  0  0  0
 22 25  1  0  0  0  0
 23 24  1  0  0  0  0
 25 26  2  0  0  0  0
 26 27  1  0  0  0  0
M  END
>  <CHROM.1>
-179.00883141,54.60668750,177.99188178,-70.16664103,156.17097114,74.97272337
-168.30907326,48.64590313,55.83628181,26.66007969,-1.84718859,-0.46329179
-2.13498586

>  <Name>
ligand

>  <RI>
0

>  <Rbt.Current_Directory>
/home/itssahil/PROJECTS/Mol_Feturizer/New_Systems/rnas/3GX7

>  <Rbt.Executable>
rbdock ($Id: //depot/dev/client3/rdock/2013.1/src/exe/rbdock.cxx#4 $)

>  <Rbt.Library>
libRbt.so (2013.1, Build901 2013/11/27)

>  <Rbt.Parameter_File>
/export/apps/rDock/src/rDock_2013.1_src/data/scripts/dock_solv.prm

>  <Rbt.Receptor>
prm/blind_docking_100.prm

>  <SCORE>
-16.014

>  <SCORE.INTER>
-11.3371

>  <SCORE.INTER.CONST>
1

>  <SCORE.INTER.POLAR>
0

>  <SCORE.INTER.ROT>
7

>  <SCORE.INTER.SOLV>
11.5239

>  <SCORE.INTER.VDW>
-19.666

>  <SCORE.INTER.norm>
-0.419893

>  <SCORE.INTRA>
-4.67694

>  <SCORE.INTRA.DIHEDRAL>
-6.50695

>  <SCORE.INTRA.DIHEDRAL.0>
11.2699

>  <SCORE.INTRA.POLAR>
0

>  <SCORE.INTRA.POLAR.0>
0

>  <SCORE.INTRA.REPUL>
0

>  <SCORE.INTRA.REPUL.0>
0

>  <SCORE.INTRA.SOLV>
-0.383891

>  <SCORE.INTRA.SOLV.lig_0>
-48.6447

>  <SCORE.INTRA.VDW>
-1.23152

>  <SCORE.INTRA.VDW.0>
-0.0211724

>  <SCORE.INTRA.norm>
-0.17322

>  <SCORE.RESTR>
0

>  <SCORE.RESTR.CAVITY>
0

>  <SCORE.RESTR.norm>
0

>  <SCORE.SYSTEM>
0

>  <SCORE.SYSTEM.CONST>
0

>  <SCORE.SYSTEM.DIHEDRAL>
0

>  <SCORE.SYSTEM.SOLV>
0

>  <SCORE.SYSTEM.norm>
0

>  <SCORE.heavy>
27

>  <SCORE.norm>
-0.593113

>  <RMSD>
8.894

$$$$
ligand
 OpenBabel11021811483D
libRbt.so/2013.1/901 2013/11/27
 27 29  0  0  0  0  0  0  0  0999 V2000
   45.7425   57.6350   18.5474 N   0  0  0  0  0  0  0  0  0  0  0  0
   45.5195   56.2085   18.7496 C   0  0  2  0  0  0  0  0  0  0  0  0
   44.1403   55.9602   19.3377 C   0  0  0  0  0  0  0  0  0  0  0  0
   43.7895   54.8222   19.6404 O   0  0  0  0  0  0  0  0  0  0  0  0
   46.5954   55.5846   19.6373 C   0  0  0  0  0  0  0  0  0  0  0  0
   48.0241   55.7794   19.1437 C   0  0  0  0  0  0  0  0  0  0  0  0
   49.2844   54.9271   20.1320 S   0  0  2  0  0  0  0  0  0  0  0  0
   48.6574   53.2297   20.1119 C   0  0  0  0  0  0  0  0  0  0  0  0
   48.7931   55.4423   21.7985 C   0  0  0  0  0  0  0  0  0  0  0  0
   49.9075   55.1241   22.7841 C   0  0  1  0  0  0  0  0  0  0  0  0
   49.5771   55.7035   24.0232 O   0  0  0  0  0  0  0  0  0  0  0  0
   50.0870   53.6481   23.0767 C   0  0  1  0  0  0  0  0  0  0  0  0
   51.1246   53.1166   22.2894 O   0  0  0  0  0  0  0  0  0  0  0  0
   50.4581   53.6185   24.5483 C   0  0  1  0  0  0  0  0  0  0  0  0
   51.8370   53.3635   24.6744 O   0  0  0  0  0  0  0  0  0  0  0  0
   50.1328   54.9993   25.1043 C   0  0  2  0  0  0  0  0  0  0  0  0
   43.3571   56.8919   19.5243 O   0  0  0  0  0  0  0  0  0  0  0  0
   45.6219   52.7057   26.5451 N   0  0  0  0  0  0  0  0  0  0  0  0
   46.3229   52.5496   25.3664 C   0  0  0  0  0  0  0  0  0  0  0  0
   47.5023   53.2405   25.1566 N   0  0  0  0  0  0  0  0  0  0  0  0
   47.9807   54.0834   26.0980 C   0  0  0  0  0  0  0  0  0  0  0  0
   47.2965   54.2502   27.2930 C   0  0  0  0  0  0  0  0  0  0  0  0
   46.1076   53.5595   27.5128 C   0  0  0  0  0  0  0  0  0  0  0  0
   45.4343   53.7122   28.6502 N   0  0  0  0  0  0  0  0  0  0  0  0
   47.9955   55.1284   28.0461 N   0  0  0  0  0  0  0  0  0  0  0  0
   49.1031   55.5043   27.3644 C   0  0  0  0  0  0  0  0  0  0  0  0
   49.1076   54.8640   26.1529 N   0  0  0  0  0  0  0  0  0  0  0  0
  2  1  1  1  0  0  0
  2  3  1  0  0  0  0
  2  5  1  0  0  0  0
  3  4  1  0  0  0  0
  3 17  1  0  0  0  0
  5  6  1  0  0  0  0
  7  6  1  6  0  0  0
  7  8  1  0  0  0  0
  7  9  1  0  0  0  0
 10  9  1  6  0  0  0
 10 11  1  0  0  0  0
 10 12  1  0  0  0  0
 11 16  1  0  0  0  0
 12 13  1  6  0  0  0
 12 14  1  0  0  0  0
 14 15  1  6  0  0  0
 14 16  1  0  0  0  0
 16 27  1  1  0  0  0
 18 19  2  0  0  0  0
 18 23  1  0  0  0  0
 19 20  1  0  0  0  0
 20 21  2  0  0  0  0
 21 22  1  0  0  0  0
 21 27  1  0  0  0  0
 22 23  2  0  0  0  0
 22 25  1  0  0  0  0
 23 24  1  0  0  0  0
 25 26  2  0  0  0  0
 26 27  1  0  0  0  0
M  END
>  <CHROM.1>
-176.50690594,-56.11256993,-175.48000803,54.25306664,-166.26133646,171.77822366
70.01596321,47.84685157,54.67551002,23.12978118,1.85325504,0.14363475,-1.36682517

>  <Name>
ligand

>  <RI>
0

>  <Rbt.Current_Directory>
/home/itssahil/PROJECTS/Mol_Feturizer/New_Systems/rnas/3GX7

>  <Rbt.Executable>
rbdock ($Id: //depot/dev/client3/rdock/2013.1/src/exe/rbdock.cxx#4 $)

>  <Rbt.Library>
libRbt.so (2013.1, Build901 2013/11/27)

>  <Rbt.Parameter_File>
/export/apps/rDock/src/rDock_2013.1_src/data/scripts/dock_solv.prm

>  <Rbt.Receptor>
prm/blind_docking_100.prm

>  <SCORE>
-15.0908

>  <SCORE.INTER>
-10.5062

>  <SCORE.INTER.CONST>
1

>  <SCORE.INTER.POLAR>
0

>  <SCORE.INTER.ROT>
7

>  <SCORE.INTER.SOLV>
16.9996

>  <SCORE.INTER.VDW>
-20.9373

>  <SCORE.INTER.norm>
-0.389117

>  <SCORE.INTRA>
-4.58466

>  <SCORE.INTRA.DIHEDRAL>
-6.44622

>  <SCORE.INTRA.DIHEDRAL.0>
11.2699

>  <SCORE.INTRA.POLAR>
0

>  <SCORE.INTRA.POLAR.0>
0

>  <SCORE.INTRA.REPUL>
0

>  <SCORE.INTRA.REPUL.0>
0

>  <SCORE.INTRA.SOLV>
-0.112669

>  <SCORE.INTRA.SOLV.lig_0>
-48.6447

>  <SCORE.INTRA.VDW>
-1.30521

>  <SCORE.INTRA.VDW.0>
-0.0211724

>  <SCORE.INTRA.norm>
-0.169802

>  <SCORE.RESTR>
0

>  <SCORE.RESTR.CAVITY>
0

>  <SCORE.RESTR.norm>
0

>  <SCORE.SYSTEM>
0

>  <SCORE.SYSTEM.CONST>
0

>  <SCORE.SYSTEM.DIHEDRAL>
0

>  <SCORE.SYSTEM.SOLV>
0

>  <SCORE.SYSTEM.norm>
0

>  <SCORE.heavy>
27

>  <SCORE.norm>
-0.558919

>  <RMSD>
9.199

$$$$
ligand
 OpenBabel11021811483D
libRbt.so/2013.1/901 2013/11/27
 27 29  0  0  0  0  0  0  0  0999 V2000
   53.3418   50.9468   26.0976 N   0  0  0  0  0  0  0  0  0  0  0  0
   52.3488   51.9039   26.5704 C   0  0  2  0  0  0  0  0  0  0  0  0
   50.9487   51.4594   26.1808 C   0  0  0  0  0  0  0  0  0  0  0  0
   49.9647   52.0535   26.6150 O   0  0  0  0  0  0  0  0  0  0  0  0
   52.6231   53.3134   26.0478 C   0  0  0  0  0  0  0  0  0  0  0  0
   53.0089   53.3859   24.5752 C   0  0  0  0  0  0  0  0  0  0  0  0
   51.7448   52.7598   23.4344 S   0  0  2  0  0  0  0  0  0  0  0  0
   52.7532   52.3326   21.9937 C   0  0  0  0  0  0  0  0  0  0  0  0
   51.0115   54.3197   22.8750 C   0  0  0  0  0  0  0  0  0  0  0  0
   49.6269   54.0596   22.3007 C   0  0  1  0  0  0  0  0  0  0  0  0
   48.9320   53.2203   23.1913 O   0  0  0  0  0  0  0  0  0  0  0  0
   48.7585   55.2943   22.1669 C   0  0  1  0  0  0  0  0  0  0  0  0
   48.8139   55.7905   20.8518 O   0  0  0  0  0  0  0  0  0  0  0  0
   47.3652   54.7877   22.4932 C   0  0  1  0  0  0  0  0  0  0  0  0
   46.6227   54.6718   21.3025 O   0  0  0  0  0  0  0  0  0  0  0  0
   47.5421   53.4151   23.1302 C   0  0  2  0  0  0  0  0  0  0  0  0
   50.7783   50.5038   25.4231 O   0  0  0  0  0  0  0  0  0  0  0  0
   48.1605   55.2855   28.0091 N   0  0  0  0  0  0  0  0  0  0  0  0
   48.9513   55.5093   26.9003 C   0  0  0  0  0  0  0  0  0  0  0  0
   48.6346   54.9287   25.6858 N   0  0  0  0  0  0  0  0  0  0  0  0
   47.5522   54.1285   25.5692 C   0  0  0  0  0  0  0  0  0  0  0  0
   46.7392   53.8956   26.6687 C   0  0  0  0  0  0  0  0  0  0  0  0
   47.0507   54.4750   27.8958 C   0  0  0  0  0  0  0  0  0  0  0  0
   46.2862   54.2574   28.9628 N   0  0  0  0  0  0  0  0  0  0  0  0
   45.7364   53.0810   26.2713 N   0  0  0  0  0  0  0  0  0  0  0  0
   45.8896   52.8095   24.9539 C   0  0  0  0  0  0  0  0  0  0  0  0
   47.0128   53.4527   24.5040 N   0  0  0  0  0  0  0  0  0  0  0  0
  2  1  1  6  0  0  0
  2  3  1  0  0  0  0
  2  5  1  0  0  0  0
  3  4  1  0  0  0  0
  3 17  1  0  0  0  0
  5  6  1  0  0  0  0
  7  6  1  1  0  0  0
  7  8  1  0  0  0  0
  7  9  1  0  0  0  0
 10  9  1  1  0  0  0
 10 11  1  0  0  0  0
 10 12  1  0  0  0  0
 11 16  1  0  0  0  0
 12 13  1  6  0  0  0
 12 14  1  0  0  0  0
 14 15  1  6  0  0  0
 14 16  1  0  0  0  0
 16 27  1  1  0  0  0
 18 19  2  0  0  0  0
 18 23  1  0  0  0  0
 19 20  1  0  0  0  0
 20 21  2  0  0  0  0
 21 22  1  0  0  0  0
 21 27  1  0  0  0  0
 22 23  2  0  0  0  0
 22 25  1  0  0  0  0
 23 24  1  0  0  0  0
 25 26  2  0  0  0  0
 26 27  1  0  0  0  0
M  END
>  <CHROM.1>
171.87984376,43.51658197,60.83786435,-156.50883073,-159.97255586,46.59829577
44.38445189,49.35790278,53.50010393,24.70471038,-0.15214899,-0.37721132,1.79001333

>  <Name>
ligand

>  <RI>
0

>  <Rbt.Current_Directory>
/home/itssahil/PROJECTS/Mol_Feturizer/New_Systems/rnas/3GX7

>  <Rbt.Executable>
rbdock ($Id: //depot/dev/client3/rdock/2013.1/src/exe/rbdock.cxx#4 $)

>  <Rbt.Library>
libRbt.so (2013.1, Build901 2013/11/27)

>  <Rbt.Parameter_File>
/export/apps/rDock/src/rDock_2013.1_src/data/scripts/dock_solv.prm

>  <Rbt.Receptor>
prm/blind_docking_80.prm

>  <SCORE>
-6.85644

>  <SCORE.INTER>
-1.7162

>  <SCORE.INTER.CONST>
1

>  <SCORE.INTER.POLAR>
0

>  <SCORE.INTER.ROT>
7

>  <SCORE.INTER.SOLV>
12.1095

>  <SCORE.INTER.VDW>
-13.4473

>  <SCORE.INTER.norm>
-0.0635629

>  <SCORE.INTRA>
-5.16332

>  <SCORE.INTRA.DIHEDRAL>
-2.08976

>  <SCORE.INTRA.DIHEDRAL.0>
11.2699

>  <SCORE.INTRA.POLAR>
0

>  <SCORE.INTRA.POLAR.0>
0

>  <SCORE.INTRA.REPUL>
0

>  <SCORE.INTRA.REPUL.0>
0

>  <SCORE.INTRA.SOLV>
0.915555

>  <SCORE.INTRA.SOLV.lig_0>
-48.6447

>  <SCORE.INTRA.VDW>
-4.57622

>  <SCORE.INTRA.VDW.0>
-0.0211724

>  <SCORE.INTRA.norm>
-0.191234

>  <SCORE.RESTR>
0.023074

>  <SCORE.RESTR.CAVITY>
0.023074

>  <SCORE.RESTR.norm>
0.000854591

>  <SCORE.SYSTEM>
0

>  <SCORE.SYSTEM.CONST>
0

>  <SCORE.SYSTEM.DIHEDRAL>
0

>  <SCORE.SYSTEM.SOLV>
0

>  <SCORE.SYSTEM.norm>
0

>  <SCORE.heavy>
27

>  <SCORE.norm>
-0.253942

>  <RMSD>
9.213

$$$$
ligand
 OpenBabel11021811483D
libRbt.so/2013.1/901 2013/11/27
 27 29  0  0  0  0  0  0  0  0999 V2000
   52.2953   54.1742   18.9909 N   0  0  0  0  0  0  0  0  0  0  0  0
   50.8917   54.3985   18.6667 C   0  0  2  0  0  0  0  0  0  0  0  0
   50.7560   55.4358   17.5643 C   0  0  0  0  0  0  0  0  0  0  0  0
   50.4401   55.0958   16.4265 O   0  0  0  0  0  0  0  0  0  0  0  0
   50.0844   54.8193   19.8939 C   0  0  0  0  0  0  0  0  0  0  0  0
   48.6021   55.0592   19.6331 C   0  0  0  0  0  0  0  0  0  0  0  0
   47.4879   54.2010   20.7791 S   0  0  2  0  0  0  0  0  0  0  0  0
   45.8739   54.7730   20.1936 C   0  0  0  0  0  0  0  0  0  0  0  0
   47.6879   55.2297   22.2575 C   0  0  0  0  0  0  0  0  0  0  0  0
   49.0266   54.9294   22.9151 C   0  0  1  0  0  0  0  0  0  0  0  0
   49.0563   55.5737   24.1658 O   0  0  0  0  0  0  0  0  0  0  0  0
   49.2625   53.4645   23.2228 C   0  0  1  0  0  0  0  0  0  0  0  0
   50.0375   52.8711   22.2097 O   0  0  0  0  0  0  0  0  0  0  0  0
   50.0235   53.4936   24.5359 C   0  0  1  0  0  0  0  0  0  0  0  0
   51.3810   53.2100   24.2922 O   0  0  0  0  0  0  0  0  0  0  0  0
   49.8796   54.9064   25.0880 C   0  0  2  0  0  0  0  0  0  0  0  0
   50.9547   56.6293   17.7933 O   0  0  0  0  0  0  0  0  0  0  0  0
   45.9660   52.7311   27.8514 N   0  0  0  0  0  0  0  0  0  0  0  0
   46.3219   52.4935   26.5391 C   0  0  0  0  0  0  0  0  0  0  0  0
   47.3892   53.1645   25.9708 N   0  0  0  0  0  0  0  0  0  0  0  0
   48.0931   54.0671   26.6887 C   0  0  0  0  0  0  0  0  0  0  0  0
   47.7576   54.3164   28.0112 C   0  0  0  0  0  0  0  0  0  0  0  0
   46.6840   53.6463   28.5917 C   0  0  0  0  0  0  0  0  0  0  0  0
   46.3435   53.8776   29.8570 N   0  0  0  0  0  0  0  0  0  0  0  0
   48.6221   55.2408   28.4859 N   0  0  0  0  0  0  0  0  0  0  0  0
   49.4965   55.5661   27.5049 C   0  0  0  0  0  0  0  0  0  0  0  0
   49.1807   54.8457   26.3829 N   0  0  0  0  0  0  0  0  0  0  0  0
  2  1  1  1  0  0  0
  2  3  1  0  0  0  0
  2  5  1  0  0  0  0
  3  4  1  0  0  0  0
  3 17  1  0  0  0  0
  5  6  1  0  0  0  0
  7  6  1  6  0  0  0
  7  8  1  0  0  0  0
  7  9  1  0  0  0  0
 10  9  1  1  0  0  0
 10 11  1  0  0  0  0
 10 12  1  0  0  0  0
 11 16  1  0  0  0  0
 12 13  1  6  0  0  0
 12 14  1  0  0  0  0
 14 15  1  6  0  0  0
 14 16  1  0  0  0  0
 16 27  1  1  0  0  0
 18 19  2  0  0  0  0
 18 23  1  0  0  0  0
 19 20  1  0  0  0  0
 20 21  2  0  0  0  0
 21 22  1  0  0  0  0
 21 27  1  0  0  0  0
 22 23  2  0  0  0  0
 22 25  1  0  0  0  0
 23 24  1  0  0  0  0
 25 26  2  0  0  0  0
 26 27  1  0  0  0  0
M  END
>  <CHROM.1>
106.74836653,-179.44642743,129.69258669,178.02009311,-75.33145403,-170.47685852
71.74848380,48.84940209,54.38439096,23.23777187,-1.30256749,0.11525873,1.65194070

>  <Name>
ligand

>  <RI>
0

>  <Rbt.Current_Directory>
/home/itssahil/PROJECTS/Mol_Feturizer/New_Systems/rnas/3GX7

>  <Rbt.Executable>
rbdock ($Id: //depot/dev/client3/rdock/2013.1/src/exe/rbdock.cxx#4 $)

>  <Rbt.Library>
libRbt.so (2013.1, Build901 2013/11/27)

>  <Rbt.Parameter_File>
/export/apps/rDock/src/rDock_2013.1_src/data/scripts/dock_solv.prm

>  <Rbt.Receptor>
prm/blind_docking_80.prm

>  <SCORE>
-14.7892

>  <SCORE.INTER>
-10.9261

>  <SCORE.INTER.CONST>
1

>  <SCORE.INTER.POLAR>
0

>  <SCORE.INTER.ROT>
7

>  <SCORE.INTER.SOLV>
6.4997

>  <SCORE.INTER.VDW>
-17.7173

>  <SCORE.INTER.norm>
-0.404671

>  <SCORE.INTRA>
-3.86305

>  <SCORE.INTRA.DIHEDRAL>
-2.33991

>  <SCORE.INTRA.DIHEDRAL.0>
11.2699

>  <SCORE.INTRA.POLAR>
0

>  <SCORE.INTRA.POLAR.0>
0

>  <SCORE.INTRA.REPUL>
0

>  <SCORE.INTRA.REPUL.0>
0

>  <SCORE.INTRA.SOLV>
-0.381146

>  <SCORE.INTRA.SOLV.lig_0>
-48.6447

>  <SCORE.INTRA.VDW>
-2.50252

>  <SCORE.INTRA.VDW.0>
-0.0211724

>  <SCORE.INTRA.norm>
-0.143076

>  <SCORE.RESTR>
0

>  <SCORE.RESTR.CAVITY>
0

>  <SCORE.RESTR.norm>
0

>  <SCORE.SYSTEM>
0

>  <SCORE.SYSTEM.CONST>
0

>  <SCORE.SYSTEM.DIHEDRAL>
0

>  <SCORE.SYSTEM.SOLV>
0

>  <SCORE.SYSTEM.norm>
0

>  <SCORE.heavy>
27

>  <SCORE.norm>
-0.547747

>  <RMSD>
9.268

$$$$
ligand
 OpenBabel11021811483D
libRbt.so/2013.1/901 2013/11/27
 27 29  0  0  0  0  0  0  0  0999 V2000
   47.8581   56.2642   32.8573 N   0  0  0  0  0  0  0  0  0  0  0  0
   49.0274   56.4526   32.0071 C   0  0  2  0  0  0  0  0  0  0  0  0
   49.1407   57.9026   31.5662 C   0  0  0  0  0  0  0  0  0  0  0  0
   49.9004   58.6720   32.1499 O   0  0  0  0  0  0  0  0  0  0  0  0
   49.0013   55.5283   30.7906 C   0  0  0  0  0  0  0  0  0  0  0  0
   50.2570   55.5707   29.9279 C   0  0  0  0  0  0  0  0  0  0  0  0
   50.1947   54.5123   28.4557 S   0  0  2  0  0  0  0  0  0  0  0  0
   51.8026   54.8631   27.7032 C   0  0  0  0  0  0  0  0  0  0  0  0
   49.1087   55.4992   27.3924 C   0  0  0  0  0  0  0  0  0  0  0  0
   48.6105   54.6470   26.2348 C   0  0  1  0  0  0  0  0  0  0  0  0
   49.7211   54.2674   25.4585 O   0  0  0  0  0  0  0  0  0  0  0  0
   47.9569   53.3436   26.6479 C   0  0  1  0  0  0  0  0  0  0  0  0
   46.5574   53.4849   26.6715 O   0  0  0  0  0  0  0  0  0  0  0  0
   48.3819   52.3714   25.5624 C   0  0  1  0  0  0  0  0  0  0  0  0
   47.2951   52.1356   24.6988 O   0  0  0  0  0  0  0  0  0  0  0  0
   49.5153   53.0445   24.7984 C   0  0  2  0  0  0  0  0  0  0  0  0
   48.4797   58.3270   30.6178 O   0  0  0  0  0  0  0  0  0  0  0  0
   53.6029   50.8455   22.3205 N   0  0  0  0  0  0  0  0  0  0  0  0
   52.5852   51.6071   21.7827 C   0  0  0  0  0  0  0  0  0  0  0  0
   51.5824   52.1077   22.5927 N   0  0  0  0  0  0  0  0  0  0  0  0
   51.5800   51.8519   23.9194 C   0  0  0  0  0  0  0  0  0  0  0  0
   52.5967   51.0949   24.4825 C   0  0  0  0  0  0  0  0  0  0  0  0
   53.6102   50.5859   23.6747 C   0  0  0  0  0  0  0  0  0  0  0  0
   54.5898   49.8520   24.1962 N   0  0  0  0  0  0  0  0  0  0  0  0
   52.3552   51.0071   25.8095 N   0  0  0  0  0  0  0  0  0  0  0  0
   51.2268   51.6982   26.0953 C   0  0  0  0  0  0  0  0  0  0  0  0
   50.7338   52.2283   24.9317 N   0  0  0  0  0  0  0  0  0  0  0  0
  2  1  1  6  0  0  0
  2  3  1  0  0  0  0
  2  5  1  0  0  0  0
  3  4  1  0  0  0  0
  3 17  1  0  0  0  0
  5  6  1  0  0  0  0
  7  6  1  1  0  0  0
  7  8  1  0  0  0  0
  7  9  1  0  0  0  0
 10  9  1  1  0  0  0
 10 11  1  0  0  0  0
 10 12  1  0  0  0  0
 11 16  1  0  0  0  0
 12 13  1  6  0  0  0
 12 14  1  0  0  0  0
 14 15  1  6  0  0  0
 14 16  1  0  0  0  0
 16 27  1  1  0  0  0
 18 19  2  0  0  0  0
 18 23  1  0  0  0  0
 19 20  1  0  0  0  0
 20 21  2  0  0  0  0
 21 22  1  0  0  0  0
 21 27  1  0  0  0  0
 22 23  2  0  0  0  0
 22 25  1  0  0  0  0
 23 24  1  0  0  0  0
 25 26  2  0  0  0  0
 26 27  1  0  0  0  0
M  END
>  <CHROM.1>
98.65854229,-174.27702827,-178.03547229,178.75965894,-165.12914978,-63.30452574
-113.64162231,50.19506172,53.81358746,26.94306486,-1.91067399,0.14170575
-2.16993501

>  <Name>
ligand

>  <RI>
0

>  <Rbt.Current_Directory>
/home/itssahil/PROJECTS/Mol_Feturizer/New_Systems/rnas/3GX7

>  <Rbt.Executable>
rbdock ($Id: //depot/dev/client3/rdock/2013.1/src/exe/rbdock.cxx#4 $)

>  <Rbt.Library>
libRbt.so (2013.1, Build901 2013/11/27)

>  <Rbt.Parameter_File>
/export/apps/rDock/src/rDock_2013.1_src/data/scripts/dock_solv.prm

>  <Rbt.Receptor>
prm/blind_docking_100.prm

>  <SCORE>
-15.9171

>  <SCORE.INTER>
-9.70829

>  <SCORE.INTER.CONST>
1

>  <SCORE.INTER.POLAR>
0

>  <SCORE.INTER.ROT>
7

>  <SCORE.INTER.SOLV>
7.36474

>  <SCORE.INTER.VDW>
-17.1938

>  <SCORE.INTER.norm>
-0.359566

>  <SCORE.INTRA>
-6.20881

>  <SCORE.INTRA.DIHEDRAL>
-6.36814

>  <SCORE.INTRA.DIHEDRAL.0>
11.2699

>  <SCORE.INTRA.POLAR>
0

>  <SCORE.INTRA.POLAR.0>
0

>  <SCORE.INTRA.REPUL>
0

>  <SCORE.INTRA.REPUL.0>
0

>  <SCORE.INTRA.SOLV>
-0.896599

>  <SCORE.INTRA.SOLV.lig_0>
-48.6447

>  <SCORE.INTRA.VDW>
-2.57644

>  <SCORE.INTRA.VDW.0>
-0.0211724

>  <SCORE.INTRA.norm>
-0.229956

>  <SCORE.RESTR>
0

>  <SCORE.RESTR.CAVITY>
0

>  <SCORE.RESTR.norm>
0

>  <SCORE.SYSTEM>
0

>  <SCORE.SYSTEM.CONST>
0

>  <SCORE.SYSTEM.DIHEDRAL>
0

>  <SCORE.SYSTEM.SOLV>
0

>  <SCORE.SYSTEM.norm>
0

>  <SCORE.heavy>
27

>  <SCORE.norm>
-0.589522

>  <RMSD>
9.368

$$$$
ligand
 OpenBabel11021811483D
libRbt.so/2013.1/901 2013/11/27
 27 29  0  0  0  0  0  0  0  0999 V2000
   52.1035   54.4079   16.8132 N   0  0  0  0  0  0  0  0  0  0  0  0
   51.8832   54.5650   18.2458 C   0  0  2  0  0  0  0  0  0  0  0  0
   52.7301   53.5758   19.0294 C   0  0  0  0  0  0  0  0  0  0  0  0
   53.2724   52.6328   18.4581 O   0  0  0  0  0  0  0  0  0  0  0  0
   50.4086   54.4108   18.6151 C   0  0  0  0  0  0  0  0  0  0  0  0
   50.0438   54.9023   20.0108 C   0  0  0  0  0  0  0  0  0  0  0  0
   48.2937   54.7030   20.4454 S   0  0  2  0  0  0  0  0  0  0  0  0
   47.5148   55.8802   19.3129 C   0  0  0  0  0  0  0  0  0  0  0  0
   48.2347   55.6434   21.9933 C   0  0  0  0  0  0  0  0  0  0  0  0
   49.1199   54.9750   23.0346 C   0  0  1  0  0  0  0  0  0  0  0  0
   48.8260   55.5401   24.2894 O   0  0  0  0  0  0  0  0  0  0  0  0
   48.8772   53.4891   23.2071 C   0  0  1  0  0  0  0  0  0  0  0  0
   49.8159   52.7512   22.4632 O   0  0  0  0  0  0  0  0  0  0  0  0
   49.0740   53.2658   24.6957 C   0  0  1  0  0  0  0  0  0  0  0  0
   50.3182   52.6429   24.9112 O   0  0  0  0  0  0  0  0  0  0  0  0
   49.0643   54.6441   25.3448 C   0  0  2  0  0  0  0  0  0  0  0  0
   52.8899   53.7052   20.2435 O   0  0  0  0  0  0  0  0  0  0  0  0
   46.8287   52.6362   29.6638 N   0  0  0  0  0  0  0  0  0  0  0  0
   47.9968   52.2424   29.0431 C   0  0  0  0  0  0  0  0  0  0  0  0
   48.4370   52.8908   27.9037 N   0  0  0  0  0  0  0  0  0  0  0  0
   47.7265   53.9126   27.3778 C   0  0  0  0  0  0  0  0  0  0  0  0
   46.5534   54.3297   27.9891 C   0  0  0  0  0  0  0  0  0  0  0  0
   46.1018   53.6824   29.1361 C   0  0  0  0  0  0  0  0  0  0  0  0
   44.9753   54.0644   29.7322 N   0  0  0  0  0  0  0  0  0  0  0  0
   46.0612   55.3626   27.2694 N   0  0  0  0  0  0  0  0  0  0  0  0
   46.8984   55.6132   26.2354 C   0  0  0  0  0  0  0  0  0  0  0  0
   47.9370   54.7209   26.2892 N   0  0  0  0  0  0  0  0  0  0  0  0
  2  1  1  6  0  0  0
  2  3  1  0  0  0  0
  2  5  1  0  0  0  0
  3  4  1  0  0  0  0
  3 17  1  0  0  0  0
  5  6  1  0  0  0  0
  7  6  1  6  0  0  0
  7  8  1  0  0  0  0
  7  9  1  0  0  0  0
 10  9  1  6  0  0  0
 10 11  1  0  0  0  0
 10 12  1  0  0  0  0
 11 16  1  0  0  0  0
 12 13  1  6  0  0  0
 12 14  1  0  0  0  0
 14 15  1  6  0  0  0
 14 16  1  0  0  0  0
 16 27  1  1  0  0  0
 18 19  2  0  0  0  0
 18 23  1  0  0  0  0
 19 20  1  0  0  0  0
 20 21  2  0  0  0  0
 21 22  1  0  0  0  0
 21 27  1  0  0  0  0
 22 23  2  0  0  0  0
 22 25  1  0  0  0  0
 23 24  1  0  0  0  0
 25 26  2  0  0  0  0
 26 27  1  0  0  0  0
M  END
>  <CHROM.1>
-13.68074527,-165.22416626,-179.53240003,-67.56203772,-63.75491542,-167.04587236
173.11471109,49.00182519,54.13905200,23.48749029,1.05035905,0.56411675,-1.23490768

>  <Name>
ligand

>  <RI>
0

>  <Rbt.Current_Directory>
/home/itssahil/PROJECTS/Mol_Feturizer/New_Systems/rnas/3GX7

>  <Rbt.Executable>
rbdock ($Id: //depot/dev/client3/rdock/2013.1/src/exe/rbdock.cxx#4 $)

>  <Rbt.Library>
libRbt.so (2013.1, Build901 2013/11/27)

>  <Rbt.Parameter_File>
/export/apps/rDock/src/rDock_2013.1_src/data/scripts/dock_solv.prm

>  <Rbt.Receptor>
prm/blind_docking_80.prm

>  <SCORE>
-14.8694

>  <SCORE.INTER>
-9.35732

>  <SCORE.INTER.CONST>
1

>  <SCORE.INTER.POLAR>
0

>  <SCORE.INTER.ROT>
7

>  <SCORE.INTER.SOLV>
7.95128

>  <SCORE.INTER.VDW>
-17.1553

>  <SCORE.INTER.norm>
-0.346567

>  <SCORE.INTRA>
-5.51205

>  <SCORE.INTRA.DIHEDRAL>
-6.6466

>  <SCORE.INTRA.DIHEDRAL.0>
11.2699

>  <SCORE.INTRA.POLAR>
0

>  <SCORE.INTRA.POLAR.0>
0

>  <SCORE.INTRA.REPUL>
0

>  <SCORE.INTRA.REPUL.0>
0

>  <SCORE.INTRA.SOLV>
-0.684602

>  <SCORE.INTRA.SOLV.lig_0>
-48.6447

>  <SCORE.INTRA.VDW>
-1.84645

>  <SCORE.INTRA.VDW.0>
-0.0211724

>  <SCORE.INTRA.norm>
-0.20415

>  <SCORE.RESTR>
0

>  <SCORE.RESTR.CAVITY>
0

>  <SCORE.RESTR.norm>
0

>  <SCORE.SYSTEM>
0

>  <SCORE.SYSTEM.CONST>
0

>  <SCORE.SYSTEM.DIHEDRAL>
0

>  <SCORE.SYSTEM.SOLV>
0

>  <SCORE.SYSTEM.norm>
0

>  <SCORE.heavy>
27

>  <SCORE.norm>
-0.550717

>  <RMSD>
9.431

$$$$
ligand
 OpenBabel11021811483D
libRbt.so/2013.1/901 2013/11/27
 27 29  0  0  0  0  0  0  0  0999 V2000
   51.8707   55.7186   17.4929 N   0  0  0  0  0  0  0  0  0  0  0  0
   51.7152   54.2751   17.6257 C   0  0  2  0  0  0  0  0  0  0  0  0
   51.4699   53.6360   16.2689 C   0  0  0  0  0  0  0  0  0  0  0  0
   52.1558   52.6871   15.8958 O   0  0  0  0  0  0  0  0  0  0  0  0
   50.5918   53.9106   18.5952 C   0  0  0  0  0  0  0  0  0  0  0  0
   50.7969   54.3982   20.0245 C   0  0  0  0  0  0  0  0  0  0  0  0
   49.4493   53.9774   21.1639 S   0  0  2  0  0  0  0  0  0  0  0  0
   48.0861   54.9419   20.4664 C   0  0  0  0  0  0  0  0  0  0  0  0
   49.8923   55.0097   22.5858 C   0  0  0  0  0  0  0  0  0  0  0  0
   51.1298   54.4435   23.2660 C   0  0  1  0  0  0  0  0  0  0  0  0
   51.4748   55.2959   24.3312 O   0  0  0  0  0  0  0  0  0  0  0  0
   50.9318   53.0821   23.9015 C   0  0  1  0  0  0  0  0  0  0  0  0
   51.3869   52.0690   23.0381 O   0  0  0  0  0  0  0  0  0  0  0  0
   51.7858   53.1456   25.1549 C   0  0  1  0  0  0  0  0  0  0  0  0
   52.9606   52.3958   24.9546 O   0  0  0  0  0  0  0  0  0  0  0  0
   52.1364   54.6133   25.3655 C   0  0  2  0  0  0  0  0  0  0  0  0
   50.5806   54.0535   15.5265 O   0  0  0  0  0  0  0  0  0  0  0  0
   47.9147   56.4661   27.9009 N   0  0  0  0  0  0  0  0  0  0  0  0
   48.0374   56.1449   26.5642 C   0  0  0  0  0  0  0  0  0  0  0  0
   49.2358   55.6672   26.0661 N   0  0  0  0  0  0  0  0  0  0  0  0
   50.3049   55.5158   26.8783 C   0  0  0  0  0  0  0  0  0  0  0  0
   50.2022   55.8255   28.2265 C   0  0  0  0  0  0  0  0  0  0  0  0
   48.9999   56.3080   28.7368 C   0  0  0  0  0  0  0  0  0  0  0  0
   48.8849   56.6166   30.0259 N   0  0  0  0  0  0  0  0  0  0  0  0
   51.4007   55.5716   28.7975 N   0  0  0  0  0  0  0  0  0  0  0  0
   52.2449   55.0989   27.8506 C   0  0  0  0  0  0  0  0  0  0  0  0
   51.5789   55.0588   26.6537 N   0  0  0  0  0  0  0  0  0  0  0  0
  2  1  1  6  0  0  0
  2  3  1  0  0  0  0
  2  5  1  0  0  0  0
  3  4  1  0  0  0  0
  3 17  1  0  0  0  0
  5  6  1  0  0  0  0
  7  6  1  6  0  0  0
  7  8  1  0  0  0  0
  7  9  1  0  0  0  0
 10  9  1  1  0  0  0
 10 11  1  0  0  0  0
 10 12  1  0  0  0  0
 11 16  1  0  0  0  0
 12 13  1  6  0  0  0
 12 14  1  0  0  0  0
 14 15  1  6  0  0  0
 14 16  1  0  0  0  0
 16 27  1  1  0  0  0
 18 19  2  0  0  0  0
 18 23  1  0  0  0  0
 19 20  1  0  0  0  0
 20 21  2  0  0  0  0
 21 22  1  0  0  0  0
 21 27  1  0  0  0  0
 22 23  2  0  0  0  0
 22 25  1  0  0  0  0
 23 24  1  0  0  0  0
 25 26  2  0  0  0  0
 26 27  1  0  0  0  0
M  END
>  <CHROM.1>
128.18956503,-61.49033659,179.32919424,-65.32179220,-71.26058175,177.76980515
28.61851048,50.60515947,54.58436307,23.20869019,1.46250116,0.57061134,-1.67570834

>  <Name>
ligand

>  <RI>
0

>  <Rbt.Current_Directory>
/home/itssahil/PROJECTS/Mol_Feturizer/New_Systems/rnas/3GX7

>  <Rbt.Executable>
rbdock ($Id: //depot/dev/client3/rdock/2013.1/src/exe/rbdock.cxx#4 $)

>  <Rbt.Library>
libRbt.so (2013.1, Build901 2013/11/27)

>  <Rbt.Parameter_File>
/export/apps/rDock/src/rDock_2013.1_src/data/scripts/dock_solv.prm

>  <Rbt.Receptor>
prm/blind_docking_100.prm

>  <SCORE>
-20.7792

>  <SCORE.INTER>
-13.8356

>  <SCORE.INTER.CONST>
1

>  <SCORE.INTER.POLAR>
0

>  <SCORE.INTER.ROT>
7

>  <SCORE.INTER.SOLV>
8.776

>  <SCORE.INTER.VDW>
-20.4157

>  <SCORE.INTER.norm>
-0.512429

>  <SCORE.INTRA>
-6.9436

>  <SCORE.INTRA.DIHEDRAL>
-8.02081

>  <SCORE.INTRA.DIHEDRAL.0>
11.2699

>  <SCORE.INTRA.POLAR>
0

>  <SCORE.INTRA.POLAR.0>
0

>  <SCORE.INTRA.REPUL>
0

>  <SCORE.INTRA.REPUL.0>
0

>  <SCORE.INTRA.SOLV>
-0.21571

>  <SCORE.INTRA.SOLV.lig_0>
-48.6447

>  <SCORE.INTRA.VDW>
-2.82535

>  <SCORE.INTRA.VDW.0>
-0.0211724

>  <SCORE.INTRA.norm>
-0.257171

>  <SCORE.RESTR>
0

>  <SCORE.RESTR.CAVITY>
0

>  <SCORE.RESTR.norm>
0

>  <SCORE.SYSTEM>
0

>  <SCORE.SYSTEM.CONST>
0

>  <SCORE.SYSTEM.DIHEDRAL>
0

>  <SCORE.SYSTEM.SOLV>
0

>  <SCORE.SYSTEM.norm>
0

>  <SCORE.heavy>
27

>  <SCORE.norm>
-0.7696

>  <RMSD>
9.479

$$$$
ligand
 OpenBabel11021811483D
libRbt.so/2013.1/901 2013/11/27
 27 29  0  0  0  0  0  0  0  0999 V2000
   43.6026   55.8736   30.7026 N   0  0  0  0  0  0  0  0  0  0  0  0
   44.4772   55.1870   29.7597 C   0  0  2  0  0  0  0  0  0  0  0  0
   44.9475   53.8608   30.3338 C   0  0  0  0  0  0  0  0  0  0  0  0
   44.9146   52.8407   29.6494 O   0  0  0  0  0  0  0  0  0  0  0  0
   45.6752   56.0488   29.3635 C   0  0  0  0  0  0  0  0  0  0  0  0
   46.6236   55.4034   28.3602 C   0  0  0  0  0  0  0  0  0  0  0  0
   48.0487   56.4293   27.9043 S   0  0  2  0  0  0  0  0  0  0  0  0
   47.3001   57.5550   26.7012 C   0  0  0  0  0  0  0  0  0  0  0  0
   48.9244   55.2941   26.7959 C   0  0  0  0  0  0  0  0  0  0  0  0
   47.9618   54.7536   25.7490 C   0  0  1  0  0  0  0  0  0  0  0  0
   48.5515   54.9195   24.4822 O   0  0  0  0  0  0  0  0  0  0  0  0
   47.6805   53.2686   25.8592 C   0  0  1  0  0  0  0  0  0  0  0  0
   46.4771   53.0495   26.5540 O   0  0  0  0  0  0  0  0  0  0  0  0
   47.5575   52.8204   24.4141 C   0  0  1  0  0  0  0  0  0  0  0  0
   46.1995   52.6099   24.1074 O   0  0  0  0  0  0  0  0  0  0  0  0
   48.1125   53.9542   23.5609 C   0  0  2  0  0  0  0  0  0  0  0  0
   45.3720   53.7879   31.4874 O   0  0  0  0  0  0  0  0  0  0  0  0
   52.6370   51.2758   23.7578 N   0  0  0  0  0  0  0  0  0  0  0  0
   51.7527   51.5384   24.7845 C   0  0  0  0  0  0  0  0  0  0  0  0
   50.6015   52.2670   24.5477 N   0  0  0  0  0  0  0  0  0  0  0  0
   50.3301   52.7387   23.3110 C   0  0  0  0  0  0  0  0  0  0  0  0
   51.2011   52.4807   22.2628 C   0  0  0  0  0  0  0  0  0  0  0  0
   52.3632   51.7487   22.4918 C   0  0  0  0  0  0  0  0  0  0  0  0
   53.2136   51.4972   21.4999 N   0  0  0  0  0  0  0  0  0  0  0  0
   50.6851   53.0515   21.1515 N   0  0  0  0  0  0  0  0  0  0  0  0
   49.5112   53.6459   21.4700 C   0  0  0  0  0  0  0  0  0  0  0  0
   49.2775   53.4604   22.8074 N   0  0  0  0  0  0  0  0  0  0  0  0
  2  1  1  1  0  0  0
  2  3  1  0  0  0  0
  2  5  1  0  0  0  0
  3  4  1  0  0  0  0
  3 17  1  0  0  0  0
  5  6  1  0  0  0  0
  7  6  1  6  0  0  0
  7  8  1  0  0  0  0
  7  9  1  0  0  0  0
 10  9  1  1  0  0  0
 10 11  1  0  0  0  0
 10 12  1  0  0  0  0
 11 16  1  0  0  0  0
 12 13  1  1  0  0  0
 12 14  1  0  0  0  0
 14 15  1  6  0  0  0
 14 16  1  0  0  0  0
 16 27  1  1  0  0  0
 18 19  2  0  0  0  0
 18 23  1  0  0  0  0
 19 20  1  0  0  0  0
 20 21  2  0  0  0  0
 21 22  1  0  0  0  0
 21 27  1  0  0  0  0
 22 23  2  0  0  0  0
 22 25  1  0  0  0  0
 23 24  1  0  0  0  0
 25 26  2  0  0  0  0
 26 27  1  0  0  0  0
M  END
>  <CHROM.1>
133.61559809,-179.05104962,-179.60856112,-79.43798110,50.78532791,129.91759317
66.08017456,48.19272351,53.91034488,25.89024385,-3.01095446,-0.91008383,2.94209764

>  <Name>
ligand

>  <RI>
0

>  <Rbt.Current_Directory>
/home/itssahil/PROJECTS/Mol_Feturizer/New_Systems/rnas/3GX7

>  <Rbt.Executable>
rbdock ($Id: //depot/dev/client3/rdock/2013.1/src/exe/rbdock.cxx#4 $)

>  <Rbt.Library>
libRbt.so (2013.1, Build901 2013/11/27)

>  <Rbt.Parameter_File>
/export/apps/rDock/src/rDock_2013.1_src/data/scripts/dock_solv.prm

>  <Rbt.Receptor>
prm/blind_docking_80.prm

>  <SCORE>
-9.2005

>  <SCORE.INTER>
-5.63852

>  <SCORE.INTER.CONST>
1

>  <SCORE.INTER.POLAR>
0

>  <SCORE.INTER.ROT>
7

>  <SCORE.INTER.SOLV>
11.2559

>  <SCORE.INTER.VDW>
-15.7777

>  <SCORE.INTER.norm>
-0.208834

>  <SCORE.INTRA>
-3.56389

>  <SCORE.INTRA.DIHEDRAL>
-2.89905

>  <SCORE.INTRA.DIHEDRAL.0>
11.2699

>  <SCORE.INTRA.POLAR>
0

>  <SCORE.INTRA.POLAR.0>
0

>  <SCORE.INTRA.REPUL>
0

>  <SCORE.INTRA.REPUL.0>
0

>  <SCORE.INTRA.SOLV>
-0.652306

>  <SCORE.INTRA.SOLV.lig_0>
-48.6447

>  <SCORE.INTRA.VDW>
-1.78821

>  <SCORE.INTRA.VDW.0>
-0.0211724

>  <SCORE.INTRA.norm>
-0.131996

>  <SCORE.RESTR>
0.00190779

>  <SCORE.RESTR.CAVITY>
0.00190779

>  <SCORE.RESTR.norm>
7.06589e-05

>  <SCORE.SYSTEM>
0

>  <SCORE.SYSTEM.CONST>
0

>  <SCORE.SYSTEM.DIHEDRAL>
0

>  <SCORE.SYSTEM.SOLV>
0

>  <SCORE.SYSTEM.norm>
0

>  <SCORE.heavy>
27

>  <SCORE.norm>
-0.340759

>  <RMSD>
9.540

$$$$
ligand
 OpenBabel11021811483D
libRbt.so/2013.1/901 2013/11/27
 27 29  0  0  0  0  0  0  0  0999 V2000
   52.8762   54.4904   18.7278 N   0  0  0  0  0  0  0  0  0  0  0  0
   51.7392   54.6903   17.8374 C   0  0  2  0  0  0  0  0  0  0  0  0
   51.6576   56.1406   17.3906 C   0  0  0  0  0  0  0  0  0  0  0  0
   51.6343   56.4221   16.1947 O   0  0  0  0  0  0  0  0  0  0  0  0
   50.4248   54.2603   18.4874 C   0  0  0  0  0  0  0  0  0  0  0  0
   50.1005   54.9629   19.8003 C   0  0  0  0  0  0  0  0  0  0  0  0
   48.4348   54.6329   20.4390 S   0  0  2  0  0  0  0  0  0  0  0  0
   47.4535   55.8211   19.4904 C   0  0  0  0  0  0  0  0  0  0  0  0
   48.5267   55.4805   22.0381 C   0  0  0  0  0  0  0  0  0  0  0  0
   49.5594   54.7981   22.9227 C   0  0  1  0  0  0  0  0  0  0  0  0
   49.4333   55.3157   24.2252 O   0  0  0  0  0  0  0  0  0  0  0  0
   49.3686   53.3025   23.0748 C   0  0  1  0  0  0  0  0  0  0  0  0
   50.2072   52.6098   22.1827 O   0  0  0  0  0  0  0  0  0  0  0  0
   49.7743   53.0354   24.5130 C   0  0  1  0  0  0  0  0  0  0  0  0
   51.0469   52.4331   24.5321 O   0  0  0  0  0  0  0  0  0  0  0  0
   49.8315   54.3914   25.2053 C   0  0  2  0  0  0  0  0  0  0  0  0
   51.6087   57.0532   18.2159 O   0  0  0  0  0  0  0  0  0  0  0  0
   48.1993   52.1392   29.6716 N   0  0  0  0  0  0  0  0  0  0  0  0
   49.2686   51.7832   28.8747 C   0  0  0  0  0  0  0  0  0  0  0  0
   49.5517   52.4955   27.7238 N   0  0  0  0  0  0  0  0  0  0  0  0
   48.7817   53.5441   27.3589 C   0  0  0  0  0  0  0  0  0  0  0  0
   47.7065   53.9240   28.1484 C   0  0  0  0  0  0  0  0  0  0  0  0
   47.4131   53.2123   29.3086 C   0  0  0  0  0  0  0  0  0  0  0  0
   46.3817   53.5581   30.0746 N   0  0  0  0  0  0  0  0  0  0  0  0
   47.1262   54.9950   27.5624 N   0  0  0  0  0  0  0  0  0  0  0  0
   47.8146   55.3050   26.4386 C   0  0  0  0  0  0  0  0  0  0  0  0
   48.8453   54.4128   26.2988 N   0  0  0  0  0  0  0  0  0  0  0  0
  2  1  1  1  0  0  0
  2  3  1  0  0  0  0
  2  5  1  0  0  0  0
  3  4  1  0  0  0  0
  3 17  1  0  0  0  0
  5  6  1  0  0  0  0
  7  6  1  6  0  0  0
  7  8  1  0  0  0  0
  7  9  1  0  0  0  0
 10  9  1  6  0  0  0
 10 11  1  0  0  0  0
 10 12  1  0  0  0  0
 11 16  1  0  0  0  0
 12 13  1  6  0  0  0
 12 14  1  0  0  0  0
 14 15  1  6  0  0  0
 14 16  1  0  0  0  0
 16 27  1  1  0  0  0
 18 19  2  0  0  0  0
 18 23  1  0  0  0  0
 19 20  1  0  0  0  0
 20 21  2  0  0  0  0
 21 22  1  0  0  0  0
 21 27  1  0  0  0  0
 22 23  2  0  0  0  0
 22 25  1  0  0  0  0
 23 24  1  0  0  0  0
 25 26  2  0  0  0  0
 26 27  1  0  0  0  0
M  END
>  <CHROM.1>
124.93878341,57.44520854,171.39038866,-82.66870928,-64.58569903,-169.34990436
171.32164035,49.43126437,54.31236389,23.29115284,-1.25908773,-0.58763429
1.95864222

>  <Name>
ligand

>  <RI>
0

>  <Rbt.Current_Directory>
/home/itssahil/PROJECTS/Mol_Feturizer/New_Systems/rnas/3GX7

>  <Rbt.Executable>
rbdock ($Id: //depot/dev/client3/rdock/2013.1/src/exe/rbdock.cxx#4 $)

>  <Rbt.Library>
libRbt.so (2013.1, Build901 2013/11/27)

>  <Rbt.Parameter_File>
/export/apps/rDock/src/rDock_2013.1_src/data/scripts/dock_solv.prm

>  <Rbt.Receptor>
prm/blind_docking_80.prm

>  <SCORE>
-16.3902

>  <SCORE.INTER>
-10.8913

>  <SCORE.INTER.CONST>
1

>  <SCORE.INTER.POLAR>
0

>  <SCORE.INTER.ROT>
7

>  <SCORE.INTER.SOLV>
7.91519

>  <SCORE.INTER.VDW>
-18.1659

>  <SCORE.INTER.norm>
-0.40338

>  <SCORE.INTRA>
-5.49895

>  <SCORE.INTRA.DIHEDRAL>
-6.78815

>  <SCORE.INTRA.DIHEDRAL.0>
11.2699

>  <SCORE.INTRA.POLAR>
0

>  <SCORE.INTRA.POLAR.0>
0

>  <SCORE.INTRA.REPUL>
0

>  <SCORE.INTRA.REPUL.0>
0

>  <SCORE.INTRA.SOLV>
-0.0344673

>  <SCORE.INTRA.SOLV.lig_0>
-48.6447

>  <SCORE.INTRA.VDW>
-2.08764

>  <SCORE.INTRA.VDW.0>
-0.0211724

>  <SCORE.INTRA.norm>
-0.203665

>  <SCORE.RESTR>
0

>  <SCORE.RESTR.CAVITY>
0

>  <SCORE.RESTR.norm>
0

>  <SCORE.SYSTEM>
0

>  <SCORE.SYSTEM.CONST>
0

>  <SCORE.SYSTEM.DIHEDRAL>
0

>  <SCORE.SYSTEM.SOLV>
0

>  <SCORE.SYSTEM.norm>
0

>  <SCORE.heavy>
27

>  <SCORE.norm>
-0.607045

>  <RMSD>
9.573

$$$$
ligand
 OpenBabel11021811483D
libRbt.so/2013.1/901 2013/11/27
 27 29  0  0  0  0  0  0  0  0999 V2000
   50.6981   54.6005   16.3156 N   0  0  0  0  0  0  0  0  0  0  0  0
   51.3393   54.5494   17.6240 C   0  0  2  0  0  0  0  0  0  0  0  0
   51.1710   53.1745   18.2493 C   0  0  0  0  0  0  0  0  0  0  0  0
   51.8186   52.8615   19.2456 O   0  0  0  0  0  0  0  0  0  0  0  0
   50.8031   55.6290   18.5630 C   0  0  0  0  0  0  0  0  0  0  0  0
   49.3165   55.5199   18.8806 C   0  0  0  0  0  0  0  0  0  0  0  0
   48.9057   54.2844   20.1440 S   0  0  2  0  0  0  0  0  0  0  0  0
   47.0988   54.3836   20.1572 C   0  0  0  0  0  0  0  0  0  0  0  0
   49.2998   55.2150   21.6482 C   0  0  0  0  0  0  0  0  0  0  0  0
   50.4912   54.5788   22.3486 C   0  0  1  0  0  0  0  0  0  0  0  0
   50.6837   55.2394   23.5761 O   0  0  0  0  0  0  0  0  0  0  0  0
   50.3018   53.1202   22.7137 C   0  0  1  0  0  0  0  0  0  0  0  0
   50.8926   52.2926   21.7415 O   0  0  0  0  0  0  0  0  0  0  0  0
   51.0225   52.9887   24.0432 C   0  0  1  0  0  0  0  0  0  0  0  0
   52.2487   52.3263   23.8430 O   0  0  0  0  0  0  0  0  0  0  0  0
   51.2737   54.4065   24.5412 C   0  0  2  0  0  0  0  0  0  0  0  0
   50.3828   52.3571   17.7730 O   0  0  0  0  0  0  0  0  0  0  0  0
   47.1718   56.6103   26.9908 N   0  0  0  0  0  0  0  0  0  0  0  0
   47.5074   56.6784   25.6538 C   0  0  0  0  0  0  0  0  0  0  0  0
   48.6341   56.0308   25.1810 N   0  0  0  0  0  0  0  0  0  0  0  0
   49.4261   55.3297   26.0217 C   0  0  0  0  0  0  0  0  0  0  0  0
   49.1040   55.2418   27.3679 C   0  0  0  0  0  0  0  0  0  0  0  0
   47.9721   55.8913   27.8533 C   0  0  0  0  0  0  0  0  0  0  0  0
   47.6512   55.8237   29.1428 N   0  0  0  0  0  0  0  0  0  0  0  0
   50.0471   54.4802   27.9659 N   0  0  0  0  0  0  0  0  0  0  0  0
   50.9406   54.0773   27.0320 C   0  0  0  0  0  0  0  0  0  0  0  0
   50.5685   54.5970   25.8199 N   0  0  0  0  0  0  0  0  0  0  0  0
  2  1  1  6  0  0  0
  2  3  1  0  0  0  0
  2  5  1  0  0  0  0
  3  4  1  0  0  0  0
  3 17  1  0  0  0  0
  5  6  1  0  0  0  0
  7  6  1  6  0  0  0
  7  8  1  0  0  0  0
  7  9  1  0  0  0  0
 10  9  1  1  0  0  0
 10 11  1  0  0  0  0
 10 12  1  0  0  0  0
 11 16  1  0  0  0  0
 12 13  1  6  0  0  0
 12 14  1  0  0  0  0
 14 15  1  6  0  0  0
 14 16  1  0  0  0  0
 16 27  1  1  0  0  0
 18 19  2  0  0  0  0
 18 23  1  0  0  0  0
 19 20  1  0  0  0  0
 20 21  2  0  0  0  0
 21 22  1  0  0  0  0
 21 27  1  0  0  0  0
 22 23  2  0  0  0  0
 22 25  1  0  0  0  0
 23 24  1  0  0  0  0
 25 26  2  0  0  0  0
 26 27  1  0  0  0  0
M  END
>  <CHROM.1>
168.13381703,61.98019068,79.68554901,-176.62654755,-113.38671839,-174.08559284
7.42928048,49.86524860,54.47012387,22.73164292,1.35789649,0.66667182,-1.60237633

>  <Name>
ligand

>  <RI>
0

>  <Rbt.Current_Directory>
/home/itssahil/PROJECTS/Mol_Feturizer/New_Systems/rnas/3GX7

>  <Rbt.Executable>
rbdock ($Id: //depot/dev/client3/rdock/2013.1/src/exe/rbdock.cxx#4 $)

>  <Rbt.Library>
libRbt.so (2013.1, Build901 2013/11/27)

>  <Rbt.Parameter_File>
/export/apps/rDock/src/rDock_2013.1_src/data/scripts/dock_solv.prm

>  <Rbt.Receptor>
prm/blind_docking_80.prm

>  <SCORE>
-15.7212

>  <SCORE.INTER>
-10.9171

>  <SCORE.INTER.CONST>
1

>  <SCORE.INTER.POLAR>
0

>  <SCORE.INTER.ROT>
7

>  <SCORE.INTER.SOLV>
12.0032

>  <SCORE.INTER.VDW>
-19.5458

>  <SCORE.INTER.norm>
-0.404335

>  <SCORE.INTRA>
-4.80708

>  <SCORE.INTRA.DIHEDRAL>
-2.49204

>  <SCORE.INTRA.DIHEDRAL.0>
11.2699

>  <SCORE.INTRA.POLAR>
0

>  <SCORE.INTRA.POLAR.0>
0

>  <SCORE.INTRA.REPUL>
0

>  <SCORE.INTRA.REPUL.0>
0

>  <SCORE.INTRA.SOLV>
0.2761

>  <SCORE.INTRA.SOLV.lig_0>
-48.6447

>  <SCORE.INTRA.VDW>
-3.69911

>  <SCORE.INTRA.VDW.0>
-0.0211724

>  <SCORE.INTRA.norm>
-0.17804

>  <SCORE.RESTR>
0.00294838

>  <SCORE.RESTR.CAVITY>
0.00294838

>  <SCORE.RESTR.norm>
0.000109199

>  <SCORE.SYSTEM>
0

>  <SCORE.SYSTEM.CONST>
0

>  <SCORE.SYSTEM.DIHEDRAL>
0

>  <SCORE.SYSTEM.SOLV>
0

>  <SCORE.SYSTEM.norm>
0

>  <SCORE.heavy>
27

>  <SCORE.norm>
-0.582266

>  <RMSD>
9.727

$$$$
ligand
 OpenBabel11021811483D
libRbt.so/2013.1/901 2013/11/27
 27 29  0  0  0  0  0  0  0  0999 V2000
   46.5686   55.3690   28.6042 N   0  0  0  0  0  0  0  0  0  0  0  0
   46.6517   56.8240   28.5652 C   0  0  2  0  0  0  0  0  0  0  0  0
   45.2842   57.4315   28.2997 C   0  0  0  0  0  0  0  0  0  0  0  0
   44.3706   56.7375   27.8597 O   0  0  0  0  0  0  0  0  0  0  0  0
   47.6593   57.3088   27.5237 C   0  0  0  0  0  0  0  0  0  0  0  0
   49.1200   57.0703   27.8872 C   0  0  0  0  0  0  0  0  0  0  0  0
   49.6697   55.3509   27.7057 S   0  0  2  0  0  0  0  0  0  0  0  0
   51.3636   55.4560   28.3339 C   0  0  0  0  0  0  0  0  0  0  0  0
   49.9806   55.2964   25.9213 C   0  0  0  0  0  0  0  0  0  0  0  0
   48.6974   54.9374   25.1870 C   0  0  1  0  0  0  0  0  0  0  0  0
   48.7458   55.5198   23.9068 O   0  0  0  0  0  0  0  0  0  0  0  0
   48.5088   53.4548   24.9364 C   0  0  1  0  0  0  0  0  0  0  0  0
   47.6738   52.8953   25.9207 O   0  0  0  0  0  0  0  0  0  0  0  0
   47.8429   53.4050   23.5732 C   0  0  1  0  0  0  0  0  0  0  0  0
   46.4765   53.1058   23.7347 O   0  0  0  0  0  0  0  0  0  0  0  0
   48.0018   54.7921   22.9633 C   0  0  2  0  0  0  0  0  0  0  0  0
   45.0687   58.6229   28.5248 O   0  0  0  0  0  0  0  0  0  0  0  0
   52.1238   52.5476   20.5853 N   0  0  0  0  0  0  0  0  0  0  0  0
   51.6774   52.3637   21.8783 C   0  0  0  0  0  0  0  0  0  0  0  0
   50.5656   53.0452   22.3387 N   0  0  0  0  0  0  0  0  0  0  0  0
   49.9061   53.9061   21.5329 C   0  0  0  0  0  0  0  0  0  0  0  0
   50.3329   54.1011   20.2276 C   0  0  0  0  0  0  0  0  0  0  0  0
   51.4518   53.4199   19.7555 C   0  0  0  0  0  0  0  0  0  0  0  0
   51.8796   53.5994   18.5085 N   0  0  0  0  0  0  0  0  0  0  0  0
   49.4957   54.9924   19.6516 N   0  0  0  0  0  0  0  0  0  0  0  0
   48.5502   55.3494   20.5524 C   0  0  0  0  0  0  0  0  0  0  0  0
   48.7920   54.6833   21.7253 N   0  0  0  0  0  0  0  0  0  0  0  0
  2  1  1  6  0  0  0
  2  3  1  0  0  0  0
  2  5  1  0  0  0  0
  3  4  1  0  0  0  0
  3 17  1  0  0  0  0
  5  6  1  0  0  0  0
  7  6  1  6  0  0  0
  7  8  1  0  0  0  0
  7  9  1  0  0  0  0
 10  9  1  6  0  0  0
 10 11  1  0  0  0  0
 10 12  1  0  0  0  0
 11 16  1  0  0  0  0
 12 13  1  1  0  0  0
 12 14  1  0  0  0  0
 14 15  1  1  0  0  0
 14 16  1  0  0  0  0
 16 27  1  6  0  0  0
 18 19  2  0  0  0  0
 18 23  1  0  0  0  0
 19 20  1  0  0  0  0
 20 21  2  0  0  0  0
 21 22  1  0  0  0  0
 21 27  1  0  0  0  0
 22 23  2  0  0  0  0
 22 25  1  0  0  0  0
 23 24  1  0  0  0  0
 25 26  2  0  0  0  0
 26 27  1  0  0  0  0
M  END
>  <CHROM.1>
-16.34941195,-71.72023971,75.49994647,-175.96700616,-87.26947801,151.22497542
72.24215438,48.73485756,54.92631831,24.57526526,-2.01819294,0.30721940,-1.80576671

>  <Name>
ligand

>  <RI>
0

>  <Rbt.Current_Directory>
/home/itssahil/PROJECTS/Mol_Feturizer/New_Systems/rnas/3GX7

>  <Rbt.Executable>
rbdock ($Id: //depot/dev/client3/rdock/2013.1/src/exe/rbdock.cxx#4 $)

>  <Rbt.Library>
libRbt.so (2013.1, Build901 2013/11/27)

>  <Rbt.Parameter_File>
/export/apps/rDock/src/rDock_2013.1_src/data/scripts/dock_solv.prm

>  <Rbt.Receptor>
prm/blind_docking_100.prm

>  <SCORE>
-15.3206

>  <SCORE.INTER>
-11.1699

>  <SCORE.INTER.CONST>
1

>  <SCORE.INTER.POLAR>
0

>  <SCORE.INTER.ROT>
7

>  <SCORE.INTER.SOLV>
8.15496

>  <SCORE.INTER.VDW>
-18.4316

>  <SCORE.INTER.norm>
-0.413701

>  <SCORE.INTRA>
-4.15071

>  <SCORE.INTRA.DIHEDRAL>
-2.83191

>  <SCORE.INTRA.DIHEDRAL.0>
11.2699

>  <SCORE.INTRA.POLAR>
0

>  <SCORE.INTRA.POLAR.0>
0

>  <SCORE.INTRA.REPUL>
0

>  <SCORE.INTRA.REPUL.0>
0

>  <SCORE.INTRA.SOLV>
1.65162

>  <SCORE.INTRA.SOLV.lig_0>
-48.6447

>  <SCORE.INTRA.VDW>
-3.56057

>  <SCORE.INTRA.VDW.0>
-0.0211724

>  <SCORE.INTRA.norm>
-0.15373

>  <SCORE.RESTR>
0

>  <SCORE.RESTR.CAVITY>
0

>  <SCORE.RESTR.norm>
0

>  <SCORE.SYSTEM>
0

>  <SCORE.SYSTEM.CONST>
0

>  <SCORE.SYSTEM.DIHEDRAL>
0

>  <SCORE.SYSTEM.SOLV>
0

>  <SCORE.SYSTEM.norm>
0

>  <SCORE.heavy>
27

>  <SCORE.norm>
-0.567431

>  <RMSD>
9.871

$$$$
ligand
 OpenBabel11021811483D
libRbt.so/2013.1/901 2013/11/27
 27 29  0  0  0  0  0  0  0  0999 V2000
   52.6113   53.5838   17.3314 N   0  0  0  0  0  0  0  0  0  0  0  0
   51.3121   53.7711   17.9658 C   0  0  2  0  0  0  0  0  0  0  0  0
   50.5487   54.9032   17.2986 C   0  0  0  0  0  0  0  0  0  0  0  0
   50.5326   55.0050   16.0742 O   0  0  0  0  0  0  0  0  0  0  0  0
   51.4434   54.0309   19.4658 C   0  0  0  0  0  0  0  0  0  0  0  0
   50.1337   53.9689   20.2428 C   0  0  0  0  0  0  0  0  0  0  0  0
   50.3153   54.1468   22.0391 S   0  0  2  0  0  0  0  0  0  0  0  0
   51.2644   52.6604   22.4447 C   0  0  0  0  0  0  0  0  0  0  0  0
   48.6619   53.6433   22.5838 C   0  0  0  0  0  0  0  0  0  0  0  0
   48.5701   53.7356   24.0996 C   0  0  1  0  0  0  0  0  0  0  0  0
   47.2117   53.8391   24.4522 O   0  0  0  0  0  0  0  0  0  0  0  0
   49.0744   52.5113   24.8367 C   0  0  1  0  0  0  0  0  0  0  0  0
   50.3986   52.7113   25.2673 O   0  0  0  0  0  0  0  0  0  0  0  0
   48.1339   52.3961   26.0227 C   0  0  1  0  0  0  0  0  0  0  0  0
   48.7981   52.8303   27.1858 O   0  0  0  0  0  0  0  0  0  0  0  0
   46.9519   53.3112   25.7279 C   0  0  2  0  0  0  0  0  0  0  0  0
   49.9325   55.7307   17.9709 O   0  0  0  0  0  0  0  0  0  0  0  0
   42.8810   51.3006   28.3867 N   0  0  0  0  0  0  0  0  0  0  0  0
   43.9134   52.0820   28.8649 C   0  0  0  0  0  0  0  0  0  0  0  0
   44.9088   52.5247   28.0131 N   0  0  0  0  0  0  0  0  0  0  0  0
   44.8895   52.1923   26.7037 C   0  0  0  0  0  0  0  0  0  0  0  0
   43.8578   51.4140   26.2000 C   0  0  0  0  0  0  0  0  0  0  0  0
   42.8516   50.9629   27.0501 C   0  0  0  0  0  0  0  0  0  0  0  0
   41.8578   50.2098   26.5860 N   0  0  0  0  0  0  0  0  0  0  0  0
   44.0791   51.2469   24.8770 N   0  0  0  0  0  0  0  0  0  0  0  0
   45.2095   51.9090   24.5357 C   0  0  0  0  0  0  0  0  0  0  0  0
   45.7242   52.5008   25.6594 N   0  0  0  0  0  0  0  0  0  0  0  0
  2  1  1  6  0  0  0
  2  3  1  0  0  0  0
  2  5  1  0  0  0  0
  3  4  1  0  0  0  0
  3 17  1  0  0  0  0
  5  6  1  0  0  0  0
  7  6  1  6  0  0  0
  7  8  1  0  0  0  0
  7  9  1  0  0  0  0
 10  9  1  6  0  0  0
 10 11  1  0  0  0  0
 10 12  1  0  0  0  0
 11 16  1  0  0  0  0
 12 13  1  1  0  0  0
 12 14  1  0  0  0  0
 14 15  1  1  0  0  0
 14 16  1  0  0  0  0
 16 27  1  6  0  0  0
 18 19  2  0  0  0  0
 18 23  1  0  0  0  0
 19 20  1  0  0  0  0
 20 21  2  0  0  0  0
 21 22  1  0  0  0  0
 21 27  1  0  0  0  0
 22 23  2  0  0  0  0
 22 25  1  0  0  0  0
 23 24  1  0  0  0  0
 25 26  2  0  0  0  0
 26 27  1  0  0  0  0
M  END
>  <CHROM.1>
43.11065642,-168.72100247,175.35725338,-64.55904963,-179.16078222,158.18261329
-156.51377192,47.86999547,53.03237459,23.46502436,0.90701587,-0.20713785
-1.42546354

>  <Name>
ligand

>  <RI>
0

>  <Rbt.Current_Directory>
/home/itssahil/PROJECTS/Mol_Feturizer/New_Systems/rnas/3GX7

>  <Rbt.Executable>
rbdock ($Id: //depot/dev/client3/rdock/2013.1/src/exe/rbdock.cxx#4 $)

>  <Rbt.Library>
libRbt.so (2013.1, Build901 2013/11/27)

>  <Rbt.Parameter_File>
/export/apps/rDock/src/rDock_2013.1_src/data/scripts/dock_solv.prm

>  <Rbt.Receptor>
prm/blind_docking_80.prm

>  <SCORE>
-20.6555

>  <SCORE.INTER>
-16.8656

>  <SCORE.INTER.CONST>
1

>  <SCORE.INTER.POLAR>
0

>  <SCORE.INTER.ROT>
7

>  <SCORE.INTER.SOLV>
14.1309

>  <SCORE.INTER.VDW>
-24.2207

>  <SCORE.INTER.norm>
-0.62465

>  <SCORE.INTRA>
-3.78993

>  <SCORE.INTRA.DIHEDRAL>
-5.7829

>  <SCORE.INTRA.DIHEDRAL.0>
11.2699

>  <SCORE.INTRA.POLAR>
0

>  <SCORE.INTRA.POLAR.0>
0

>  <SCORE.INTRA.REPUL>
0

>  <SCORE.INTRA.REPUL.0>
0

>  <SCORE.INTRA.SOLV>
-0.849649

>  <SCORE.INTRA.SOLV.lig_0>
-48.6447

>  <SCORE.INTRA.VDW>
-0.47366

>  <SCORE.INTRA.VDW.0>
-0.0211724

>  <SCORE.INTRA.norm>
-0.140368

>  <SCORE.RESTR>
0

>  <SCORE.RESTR.CAVITY>
0

>  <SCORE.RESTR.norm>
0

>  <SCORE.SYSTEM>
0

>  <SCORE.SYSTEM.CONST>
0

>  <SCORE.SYSTEM.DIHEDRAL>
0

>  <SCORE.SYSTEM.SOLV>
0

>  <SCORE.SYSTEM.norm>
0

>  <SCORE.heavy>
27

>  <SCORE.norm>
-0.765018

>  <RMSD>
9.918

$$$$
ligand
 OpenBabel11021811483D
libRbt.so/2013.1/901 2013/11/27
 27 29  0  0  0  0  0  0  0  0999 V2000
   45.5956   56.1005   30.3857 N   0  0  0  0  0  0  0  0  0  0  0  0
   44.8188   55.0656   29.7141 C   0  0  2  0  0  0  0  0  0  0  0  0
   43.6206   54.6632   30.5577 C   0  0  0  0  0  0  0  0  0  0  0  0
   42.4789   54.8254   30.1331 O   0  0  0  0  0  0  0  0  0  0  0  0
   45.6698   53.8406   29.3820 C   0  0  0  0  0  0  0  0  0  0  0  0
   46.8204   54.1033   28.4178 C   0  0  0  0  0  0  0  0  0  0  0  0
   47.7786   52.6292   27.9702 S   0  0  2  0  0  0  0  0  0  0  0  0
   48.6920   52.3259   29.5027 C   0  0  0  0  0  0  0  0  0  0  0  0
   49.0765   53.3821   26.9541 C   0  0  0  0  0  0  0  0  0  0  0  0
   48.4693   53.9400   25.6756 C   0  0  1  0  0  0  0  0  0  0  0  0
   49.4894   54.5792   24.9468 O   0  0  0  0  0  0  0  0  0  0  0  0
   47.9119   52.8920   24.7336 C   0  0  1  0  0  0  0  0  0  0  0  0
   46.5218   52.7668   24.9094 O   0  0  0  0  0  0  0  0  0  0  0  0
   48.2332   53.4431   23.3561 C   0  0  1  0  0  0  0  0  0  0  0  0
   47.0580   53.9584   22.7766 O   0  0  0  0  0  0  0  0  0  0  0  0
   49.2441   54.5639   23.5637 C   0  0  2  0  0  0  0  0  0  0  0  0
   43.7734   54.1656   31.6738 O   0  0  0  0  0  0  0  0  0  0  0  0
   51.7616   54.3007   18.9510 N   0  0  0  0  0  0  0  0  0  0  0  0
   50.4718   54.7250   19.1989 C   0  0  0  0  0  0  0  0  0  0  0  0
   49.9706   54.7255   20.4877 N   0  0  0  0  0  0  0  0  0  0  0  0
   50.7326   54.3034   21.5205 C   0  0  0  0  0  0  0  0  0  0  0  0
   52.0339   53.8794   21.2955 C   0  0  0  0  0  0  0  0  0  0  0  0
   52.5470   53.8746   20.0012 C   0  0  0  0  0  0  0  0  0  0  0  0
   53.7907   53.4650   19.7655 N   0  0  0  0  0  0  0  0  0  0  0  0
   52.5628   53.5293   22.4892 N   0  0  0  0  0  0  0  0  0  0  0  0
   51.6368   53.7352   23.4550 C   0  0  0  0  0  0  0  0  0  0  0  0
   50.4950   54.2155   22.8690 N   0  0  0  0  0  0  0  0  0  0  0  0
  2  1  1  1  0  0  0
  2  3  1  0  0  0  0
  2  5  1  0  0  0  0
  3  4  1  0  0  0  0
  3 17  1  0  0  0  0
  5  6  1  0  0  0  0
  7  6  1  1  0  0  0
  7  8  1  0  0  0  0
  7  9  1  0  0  0  0
 10  9  1  1  0  0  0
 10 11  1  0  0  0  0
 10 12  1  0  0  0  0
 11 16  1  0  0  0  0
 12 13  1  6  0  0  0
 12 14  1  0  0  0  0
 14 15  1  1  0  0  0
 14 16  1  0  0  0  0
 16 27  1  6  0  0  0
 18 19  2  0  0  0  0
 18 23  1  0  0  0  0
 19 20  1  0  0  0  0
 20 21  2  0  0  0  0
 21 22  1  0  0  0  0
 21 27  1  0  0  0  0
 22 23  2  0  0  0  0
 22 25  1  0  0  0  0
 23 24  1  0  0  0  0
 25 26  2  0  0  0  0
 26 27  1  0  0  0  0
M  END
>  <CHROM.1>
118.26479024,-62.46275684,-177.33868579,-72.79605433,-66.99649981,176.85606292
-168.79504773,48.42097453,53.92781172,25.25291614,2.22060295,-0.28703415
1.76021096

>  <Name>
ligand

>  <RI>
0

>  <Rbt.Current_Directory>
/home/itssahil/PROJECTS/Mol_Feturizer/New_Systems/rnas/3GX7

>  <Rbt.Executable>
rbdock ($Id: //depot/dev/client3/rdock/2013.1/src/exe/rbdock.cxx#4 $)

>  <Rbt.Library>
libRbt.so (2013.1, Build901 2013/11/27)

>  <Rbt.Parameter_File>
/export/apps/rDock/src/rDock_2013.1_src/data/scripts/dock_solv.prm

>  <Rbt.Receptor>
prm/blind_docking_80.prm

>  <SCORE>
-11.5662

>  <SCORE.INTER>
-5.13762

>  <SCORE.INTER.CONST>
1

>  <SCORE.INTER.POLAR>
0

>  <SCORE.INTER.ROT>
7

>  <SCORE.INTER.SOLV>
5.25755

>  <SCORE.INTER.VDW>
-13.4443

>  <SCORE.INTER.norm>
-0.190282

>  <SCORE.INTRA>
-6.42857

>  <SCORE.INTRA.DIHEDRAL>
-7.97236

>  <SCORE.INTRA.DIHEDRAL.0>
11.2699

>  <SCORE.INTRA.POLAR>
0

>  <SCORE.INTRA.POLAR.0>
0

>  <SCORE.INTRA.REPUL>
0

>  <SCORE.INTRA.REPUL.0>
0

>  <SCORE.INTRA.SOLV>
-0.264637

>  <SCORE.INTRA.SOLV.lig_0>
-48.6447

>  <SCORE.INTRA.VDW>
-2.31008

>  <SCORE.INTRA.VDW.0>
-0.0211724

>  <SCORE.INTRA.norm>
-0.238095

>  <SCORE.RESTR>
0

>  <SCORE.RESTR.CAVITY>
0

>  <SCORE.RESTR.norm>
0

>  <SCORE.SYSTEM>
0

>  <SCORE.SYSTEM.CONST>
0

>  <SCORE.SYSTEM.DIHEDRAL>
0

>  <SCORE.SYSTEM.SOLV>
0

>  <SCORE.SYSTEM.norm>
0

>  <SCORE.heavy>
27

>  <SCORE.norm>
-0.428377

>  <RMSD>
9.944

$$$$
ligand
 OpenBabel11021811483D
libRbt.so/2013.1/901 2013/11/27
 27 29  0  0  0  0  0  0  0  0999 V2000
   52.6361   54.8462   17.1881 N   0  0  0  0  0  0  0  0  0  0  0  0
   52.5372   53.4253   17.4992 C   0  0  2  0  0  0  0  0  0  0  0  0
   52.4035   52.6064   16.2260 C   0  0  0  0  0  0  0  0  0  0  0  0
   52.3856   53.1608   15.1295 O   0  0  0  0  0  0  0  0  0  0  0  0
   51.3742   53.1295   18.4453 C   0  0  0  0  0  0  0  0  0  0  0  0
   51.4931   53.7675   19.8242 C   0  0  0  0  0  0  0  0  0  0  0  0
   50.1336   53.3691   20.9575 S   0  0  2  0  0  0  0  0  0  0  0  0
   48.7569   54.2456   20.1758 C   0  0  0  0  0  0  0  0  0  0  0  0
   50.5105   54.4964   22.3253 C   0  0  0  0  0  0  0  0  0  0  0  0
   51.7233   53.9883   23.0906 C   0  0  1  0  0  0  0  0  0  0  0  0
   52.0122   54.9070   24.1167 O   0  0  0  0  0  0  0  0  0  0  0  0
   51.5126   52.6644   23.7974 C   0  0  1  0  0  0  0  0  0  0  0  0
   52.0160   51.6082   23.0164 O   0  0  0  0  0  0  0  0  0  0  0  0
   52.3104   52.8137   25.0801 C   0  0  1  0  0  0  0  0  0  0  0  0
   53.5010   52.0693   24.9756 O   0  0  0  0  0  0  0  0  0  0  0  0
   52.6355   54.2959   25.2173 C   0  0  2  0  0  0  0  0  0  0  0  0
   52.3162   51.3789   16.2717 O   0  0  0  0  0  0  0  0  0  0  0  0
   48.3690   56.4682   27.3995 N   0  0  0  0  0  0  0  0  0  0  0  0
   48.5652   56.1036   26.0829 C   0  0  0  0  0  0  0  0  0  0  0  0
   49.7637   55.5411   25.6833 N   0  0  0  0  0  0  0  0  0  0  0  0
   50.7617   55.3482   26.5735 C   0  0  0  0  0  0  0  0  0  0  0  0
   50.5839   55.7005   27.9032 C   0  0  0  0  0  0  0  0  0  0  0  0
   49.3810   56.2683   28.3146 C   0  0  0  0  0  0  0  0  0  0  0  0
   49.1950   56.6187   29.5846 N   0  0  0  0  0  0  0  0  0  0  0  0
   51.7214   55.3909   28.5646 N   0  0  0  0  0  0  0  0  0  0  0  0
   52.5991   54.8425   27.6919 C   0  0  0  0  0  0  0  0  0  0  0  0
   52.0176   54.8095   26.4515 N   0  0  0  0  0  0  0  0  0  0  0  0
  2  1  1  6  0  0  0
  2  3  1  0  0  0  0
  2  5  1  0  0  0  0
  3  4  1  0  0  0  0
  3 17  1  0  0  0  0
  5  6  1  0  0  0  0
  7  6  1  6  0  0  0
  7  8  1  0  0  0  0
  7  9  1  0  0  0  0
 10  9  1  1  0  0  0
 10 11  1  0  0  0  0
 10 12  1  0  0  0  0
 11 16  1  0  0  0  0
 12 13  1  6  0  0  0
 12 14  1  0  0  0  0
 14 15  1  6  0  0  0
 14 16  1  0  0  0  0
 16 27  1  1  0  0  0
 18 19  2  0  0  0  0
 18 23  1  0  0  0  0
 19 20  1  0  0  0  0
 20 21  2  0  0  0  0
 21 22  1  0  0  0  0
 21 27  1  0  0  0  0
 22 23  2  0  0  0  0
 22 25  1  0  0  0  0
 23 24  1  0  0  0  0
 25 26  2  0  0  0  0
 26 27  1  0  0  0  0
M  END
>  <CHROM.1>
-0.26861897,-63.44485024,-178.19874196,-68.45484044,-73.03540858,178.18910641
23.71834947,51.20822115,54.11873538,23.00049686,1.40540389,0.62115976,-1.71428326

>  <Name>
ligand

>  <RI>
0

>  <Rbt.Current_Directory>
/home/itssahil/PROJECTS/Mol_Feturizer/New_Systems/rnas/3GX7

>  <Rbt.Executable>
rbdock ($Id: //depot/dev/client3/rdock/2013.1/src/exe/rbdock.cxx#4 $)

>  <Rbt.Library>
libRbt.so (2013.1, Build901 2013/11/27)

>  <Rbt.Parameter_File>
/export/apps/rDock/src/rDock_2013.1_src/data/scripts/dock_solv.prm

>  <Rbt.Receptor>
prm/blind_docking_100.prm

>  <SCORE>
-20.6126

>  <SCORE.INTER>
-14.004

>  <SCORE.INTER.CONST>
1

>  <SCORE.INTER.POLAR>
0

>  <SCORE.INTER.ROT>
7

>  <SCORE.INTER.SOLV>
9.27403

>  <SCORE.INTER.VDW>
-20.694

>  <SCORE.INTER.norm>
-0.518667

>  <SCORE.INTRA>
-6.60861

>  <SCORE.INTRA.DIHEDRAL>
-7.95873

>  <SCORE.INTRA.DIHEDRAL.0>
11.2699

>  <SCORE.INTRA.POLAR>
0

>  <SCORE.INTRA.POLAR.0>
0

>  <SCORE.INTRA.REPUL>
0

>  <SCORE.INTRA.REPUL.0>
0

>  <SCORE.INTRA.SOLV>
-0.217392

>  <SCORE.INTRA.SOLV.lig_0>
-48.6447

>  <SCORE.INTRA.VDW>
-2.52055

>  <SCORE.INTRA.VDW.0>
-0.0211724

>  <SCORE.INTRA.norm>
-0.244763

>  <SCORE.RESTR>
0

>  <SCORE.RESTR.CAVITY>
0

>  <SCORE.RESTR.norm>
0

>  <SCORE.SYSTEM>
0

>  <SCORE.SYSTEM.CONST>
0

>  <SCORE.SYSTEM.DIHEDRAL>
0

>  <SCORE.SYSTEM.SOLV>
0

>  <SCORE.SYSTEM.norm>
0

>  <SCORE.heavy>
27

>  <SCORE.norm>
-0.76343

>  <RMSD>
9.946

$$$$
ligand
 OpenBabel11021811483D
libRbt.so/2013.1/901 2013/11/27
 27 29  0  0  0  0  0  0  0  0999 V2000
   51.0015   52.3892   16.9639 N   0  0  0  0  0  0  0  0  0  0  0  0
   50.9326   53.8267   17.1969 C   0  0  2  0  0  0  0  0  0  0  0  0
   51.6066   54.5854   16.0656 C   0  0  0  0  0  0  0  0  0  0  0  0
   52.4142   54.0196   15.3325 O   0  0  0  0  0  0  0  0  0  0  0  0
   51.5505   54.2158   18.5392 C   0  0  0  0  0  0  0  0  0  0  0  0
   50.9894   53.4677   19.7426 C   0  0  0  0  0  0  0  0  0  0  0  0
   51.7922   53.8688   21.3193 S   0  0  2  0  0  0  0  0  0  0  0  0
   53.4936   53.3479   20.9892 C   0  0  0  0  0  0  0  0  0  0  0  0
   51.2142   52.4864   22.3386 C   0  0  0  0  0  0  0  0  0  0  0  0
   51.7103   52.6583   23.7665 C   0  0  1  0  0  0  0  0  0  0  0  0
   50.8225   53.5177   24.4399 O   0  0  0  0  0  0  0  0  0  0  0  0
   51.7212   51.3843   24.5870 C   0  0  1  0  0  0  0  0  0  0  0  0
   53.0089   50.8179   24.5927 O   0  0  0  0  0  0  0  0  0  0  0  0
   51.3324   51.8522   25.9778 C   0  0  1  0  0  0  0  0  0  0  0  0
   52.4768   51.8715   26.7979 O   0  0  0  0  0  0  0  0  0  0  0  0
   50.7824   53.2644   25.8211 C   0  0  2  0  0  0  0  0  0  0  0  0
   51.3519   55.7730   15.8630 O   0  0  0  0  0  0  0  0  0  0  0  0
   47.3885   52.1255   29.6770 N   0  0  0  0  0  0  0  0  0  0  0  0
   48.7555   51.9363   29.6567 C   0  0  0  0  0  0  0  0  0  0  0  0
   49.4959   52.2974   28.5460 N   0  0  0  0  0  0  0  0  0  0  0  0
   48.8912   52.8325   27.4626 C   0  0  0  0  0  0  0  0  0  0  0  0
   47.5196   53.0383   27.4638 C   0  0  0  0  0  0  0  0  0  0  0  0
   46.7657   52.6770   28.5773 C   0  0  0  0  0  0  0  0  0  0  0  0
   45.4481   52.8608   28.5936 N   0  0  0  0  0  0  0  0  0  0  0  0
   47.1871   53.5899   26.2753 N   0  0  0  0  0  0  0  0  0  0  0  0
   48.3109   53.7485   25.5373 C   0  0  0  0  0  0  0  0  0  0  0  0
   49.3771   53.2827   26.2611 N   0  0  0  0  0  0  0  0  0  0  0  0
  2  1  1  6  0  0  0
  2  3  1  0  0  0  0
  2  5  1  0  0  0  0
  3  4  1  0  0  0  0
  3 17  1  0  0  0  0
  5  6  1  0  0  0  0
  7  6  1  6  0  0  0
  7  8  1  0  0  0  0
  7  9  1  0  0  0  0
 10  9  1  6  0  0  0
 10 11  1  0  0  0  0
 10 12  1  0  0  0  0
 11 16  1  0  0  0  0
 12 13  1  1  0  0  0
 12 14  1  0  0  0  0
 14 15  1  1  0  0  0
 14 16  1  0  0  0  0
 16 27  1  6  0  0  0
 18 19  2  0  0  0  0
 18 23  1  0  0  0  0
 19 20  1  0  0  0  0
 20 21  2  0  0  0  0
 21 22  1  0  0  0  0
 21 27  1  0  0  0  0
 22 23  2  0  0  0  0
 22 25  1  0  0  0  0
 23 24  1  0  0  0  0
 25 26  2  0  0  0  0
 26 27  1  0  0  0  0
M  END
>  <CHROM.1>
-20.01684038,-53.85901275,176.75849871,-61.25613770,-176.69841380,83.51952937
166.52610411,50.43237490,53.07356250,23.40794376,1.25285193,0.32518570,-1.32461900

>  <Name>
ligand

>  <RI>
0

>  <Rbt.Current_Directory>
/home/itssahil/PROJECTS/Mol_Feturizer/New_Systems/rnas/3GX7

>  <Rbt.Executable>
rbdock ($Id: //depot/dev/client3/rdock/2013.1/src/exe/rbdock.cxx#4 $)

>  <Rbt.Library>
libRbt.so (2013.1, Build901 2013/11/27)

>  <Rbt.Parameter_File>
/export/apps/rDock/src/rDock_2013.1_src/data/scripts/dock_solv.prm

>  <Rbt.Receptor>
prm/blind_docking_80.prm

>  <SCORE>
-13.1392

>  <SCORE.INTER>
-8.33831

>  <SCORE.INTER.CONST>
1

>  <SCORE.INTER.POLAR>
0

>  <SCORE.INTER.ROT>
7

>  <SCORE.INTER.SOLV>
14.4331

>  <SCORE.INTER.VDW>
-18.6366

>  <SCORE.INTER.norm>
-0.308826

>  <SCORE.INTRA>
-4.80093

>  <SCORE.INTRA.DIHEDRAL>
-5.61864

>  <SCORE.INTRA.DIHEDRAL.0>
11.2699

>  <SCORE.INTRA.POLAR>
0

>  <SCORE.INTRA.POLAR.0>
0

>  <SCORE.INTRA.REPUL>
0

>  <SCORE.INTRA.REPUL.0>
0

>  <SCORE.INTRA.SOLV>
-0.378023

>  <SCORE.INTRA.SOLV.lig_0>
-48.6447

>  <SCORE.INTRA.VDW>
-1.80259

>  <SCORE.INTRA.VDW.0>
-0.0211724

>  <SCORE.INTRA.norm>
-0.177812

>  <SCORE.RESTR>
0

>  <SCORE.RESTR.CAVITY>
0

>  <SCORE.RESTR.norm>
0

>  <SCORE.SYSTEM>
0

>  <SCORE.SYSTEM.CONST>
0

>  <SCORE.SYSTEM.DIHEDRAL>
0

>  <SCORE.SYSTEM.SOLV>
0

>  <SCORE.SYSTEM.norm>
0

>  <SCORE.heavy>
27

>  <SCORE.norm>
-0.486638

>  <RMSD>
10.003

$$$$
ligand
 OpenBabel11021811483D
libRbt.so/2013.1/901 2013/11/27
 27 29  0  0  0  0  0  0  0  0999 V2000
   45.3786   54.8013   28.8432 N   0  0  0  0  0  0  0  0  0  0  0  0
   45.2836   53.3564   29.0130 C   0  0  2  0  0  0  0  0  0  0  0  0
   44.5605   53.0156   30.3056 C   0  0  0  0  0  0  0  0  0  0  0  0
   43.8183   52.0381   30.3635 O   0  0  0  0  0  0  0  0  0  0  0  0
   46.6573   52.6881   28.9811 C   0  0  0  0  0  0  0  0  0  0  0  0
   47.3490   52.7123   27.6233 C   0  0  0  0  0  0  0  0  0  0  0  0
   49.0660   52.1267   27.6428 S   0  0  2  0  0  0  0  0  0  0  0  0
   49.9247   53.5793   28.2966 C   0  0  0  0  0  0  0  0  0  0  0  0
   49.4756   52.2636   25.8829 C   0  0  0  0  0  0  0  0  0  0  0  0
   50.8998   51.7829   25.6480 C   0  0  1  0  0  0  0  0  0  0  0  0
   51.0027   51.3485   24.3134 O   0  0  0  0  0  0  0  0  0  0  0  0
   51.9590   52.8568   25.7936 C   0  0  1  0  0  0  0  0  0  0  0  0
   52.5377   52.8018   27.0747 O   0  0  0  0  0  0  0  0  0  0  0  0
   52.9780   52.5001   24.7265 C   0  0  1  0  0  0  0  0  0  0  0  0
   54.1062   51.9199   25.3373 O   0  0  0  0  0  0  0  0  0  0  0  0
   52.3062   51.4867   23.8084 C   0  0  2  0  0  0  0  0  0  0  0  0
   44.7098   53.7077   31.3132 O   0  0  0  0  0  0  0  0  0  0  0  0
   49.5134   54.4088   20.4402 N   0  0  0  0  0  0  0  0  0  0  0  0
   49.2129   54.0893   21.7488 C   0  0  0  0  0  0  0  0  0  0  0  0
   50.0718   53.3003   22.4918 N   0  0  0  0  0  0  0  0  0  0  0  0
   51.2123   52.8246   21.9453 C   0  0  0  0  0  0  0  0  0  0  0  0
   51.5379   53.1390   20.6342 C   0  0  0  0  0  0  0  0  0  0  0  0
   50.6788   53.9321   19.8781 C   0  0  0  0  0  0  0  0  0  0  0  0
   50.9715   54.2383   18.6169 N   0  0  0  0  0  0  0  0  0  0  0  0
   52.7216   52.5498   20.3536 N   0  0  0  0  0  0  0  0  0  0  0  0
   53.1528   51.8889   21.4536 C   0  0  0  0  0  0  0  0  0  0  0  0
   52.2261   52.0501   22.4502 N   0  0  0  0  0  0  0  0  0  0  0  0
  2  1  1  1  0  0  0
  2  3  1  0  0  0  0
  2  5  1  0  0  0  0
  3  4  1  0  0  0  0
  3 17  1  0  0  0  0
  5  6  1  0  0  0  0
  7  6  1  6  0  0  0
  7  8  1  0  0  0  0
  7  9  1  0  0  0  0
 10  9  1  6  0  0  0
 10 11  1  0  0  0  0
 10 12  1  0  0  0  0
 11 16  1  0  0  0  0
 12 13  1  1  0  0  0
 12 14  1  0  0  0  0
 14 15  1  1  0  0  0
 14 16  1  0  0  0  0
 16 27  1  6  0  0  0
 18 19  2  0  0  0  0
 18 23  1  0  0  0  0
 19 20  1  0  0  0  0
 20 21  2  0  0  0  0
 21 22  1  0  0  0  0
 21 27  1  0  0  0  0
 22 23  2  0  0  0  0
 22 25  1  0  0  0  0
 23 24  1  0  0  0  0
 25 26  2  0  0  0  0
 26 27  1  0  0  0  0
M  END
>  <CHROM.1>
144.23455680,-68.73867819,171.93309994,-78.74735236,-178.71266420,154.75049332
25.42540271,49.68630196,52.81898779,25.26063145,2.23915812,-0.27756668,1.76682268

>  <Name>
ligand

>  <RI>
0

>  <Rbt.Current_Directory>
/home/itssahil/PROJECTS/Mol_Feturizer/New_Systems/rnas/3GX7

>  <Rbt.Executable>
rbdock ($Id: //depot/dev/client3/rdock/2013.1/src/exe/rbdock.cxx#4 $)

>  <Rbt.Library>
libRbt.so (2013.1, Build901 2013/11/27)

>  <Rbt.Parameter_File>
/export/apps/rDock/src/rDock_2013.1_src/data/scripts/dock_solv.prm

>  <Rbt.Receptor>
prm/blind_docking_80.prm

>  <SCORE>
-13.0501

>  <SCORE.INTER>
-7.86453

>  <SCORE.INTER.CONST>
1

>  <SCORE.INTER.POLAR>
0

>  <SCORE.INTER.ROT>
7

>  <SCORE.INTER.SOLV>
8.74452

>  <SCORE.INTER.VDW>
-16.4245

>  <SCORE.INTER.norm>
-0.291279

>  <SCORE.INTRA>
-5.19462

>  <SCORE.INTRA.DIHEDRAL>
-5.03549

>  <SCORE.INTRA.DIHEDRAL.0>
11.2699

>  <SCORE.INTRA.POLAR>
0

>  <SCORE.INTRA.POLAR.0>
0

>  <SCORE.INTRA.REPUL>
0

>  <SCORE.INTRA.REPUL.0>
0

>  <SCORE.INTRA.SOLV>
-0.166421

>  <SCORE.INTRA.SOLV.lig_0>
-48.6447

>  <SCORE.INTRA.VDW>
-2.59366

>  <SCORE.INTRA.VDW.0>
-0.0211724

>  <SCORE.INTRA.norm>
-0.192393

>  <SCORE.RESTR>
0.00902283

>  <SCORE.RESTR.CAVITY>
0.00902283

>  <SCORE.RESTR.norm>
0.000334179

>  <SCORE.SYSTEM>
0

>  <SCORE.SYSTEM.CONST>
0

>  <SCORE.SYSTEM.DIHEDRAL>
0

>  <SCORE.SYSTEM.SOLV>
0

>  <SCORE.SYSTEM.norm>
0

>  <SCORE.heavy>
27

>  <SCORE.norm>
-0.483338

>  <RMSD>
10.142

$$$$
ligand
 OpenBabel11021811483D
libRbt.so/2013.1/901 2013/11/27
 27 29  0  0  0  0  0  0  0  0999 V2000
   46.1237   53.6878   29.8071 N   0  0  0  0  0  0  0  0  0  0  0  0
   47.1886   53.1176   28.9908 C   0  0  2  0  0  0  0  0  0  0  0  0
   48.3172   52.6009   29.8678 C   0  0  0  0  0  0  0  0  0  0  0  0
   48.6654   53.2273   30.8658 O   0  0  0  0  0  0  0  0  0  0  0  0
   47.7252   54.1226   27.9725 C   0  0  0  0  0  0  0  0  0  0  0  0
   48.8374   53.5926   27.0755 C   0  0  0  0  0  0  0  0  0  0  0  0
   48.4276   52.0608   26.1939 S   0  0  2  0  0  0  0  0  0  0  0  0
   50.0766   51.4500   25.7668 C   0  0  0  0  0  0  0  0  0  0  0  0
   47.9005   52.7365   24.5972 C   0  0  0  0  0  0  0  0  0  0  0  0
   49.1180   53.1793   23.7996 C   0  0  1  0  0  0  0  0  0  0  0  0
   48.7883   53.1332   22.4323 O   0  0  0  0  0  0  0  0  0  0  0  0
   49.5493   54.6101   24.0510 C   0  0  1  0  0  0  0  0  0  0  0  0
   50.5998   54.6465   24.9859 O   0  0  0  0  0  0  0  0  0  0  0  0
   50.0233   55.0845   22.6892 C   0  0  1  0  0  0  0  0  0  0  0  0
   51.4307   55.1245   22.6756 O   0  0  0  0  0  0  0  0  0  0  0  0
   49.5234   54.0617   21.6767 C   0  0  2  0  0  0  0  0  0  0  0  0
   48.8953   51.5480   29.5965 O   0  0  0  0  0  0  0  0  0  0  0  0
   44.5199   54.8772   20.2684 N   0  0  0  0  0  0  0  0  0  0  0  0
   45.0013   54.1139   21.3127 C   0  0  0  0  0  0  0  0  0  0  0  0
   46.3623   54.0113   21.5355 N   0  0  0  0  0  0  0  0  0  0  0  0
   47.2395   54.6496   20.7301 C   0  0  0  0  0  0  0  0  0  0  0  0
   46.7778   55.4279   19.6790 C   0  0  0  0  0  0  0  0  0  0  0  0
   45.4093   55.5365   19.4463 C   0  0  0  0  0  0  0  0  0  0  0  0
   44.9484   56.2731   18.4388 N   0  0  0  0  0  0  0  0  0  0  0  0
   47.8551   55.9531   19.0541 N   0  0  0  0  0  0  0  0  0  0  0  0
   48.9754   55.5385   19.6912 C   0  0  0  0  0  0  0  0  0  0  0  0
   48.6093   54.7283   20.7339 N   0  0  0  0  0  0  0  0  0  0  0  0
  2  1  1  1  0  0  0
  2  3  1  0  0  0  0
  2  5  1  0  0  0  0
  3  4  1  0  0  0  0
  3 17  1  0  0  0  0
  5  6  1  0  0  0  0
  7  6  1  1  0  0  0
  7  8  1  0  0  0  0
  7  9  1  0  0  0  0
 10  9  1  1  0  0  0
 10 11  1  0  0  0  0
 10 12  1  0  0  0  0
 11 16  1  0  0  0  0
 12 13  1  1  0  0  0
 12 14  1  0  0  0  0
 14 15  1  1  0  0  0
 14 16  1  0  0  0  0
 16 27  1  6  0  0  0
 18 19  2  0  0  0  0
 18 23  1  0  0  0  0
 19 20  1  0  0  0  0
 20 21  2  0  0  0  0
 21 22  1  0  0  0  0
 21 27  1  0  0  0  0
 22 23  2  0  0  0  0
 22 25  1  0  0  0  0
 23 24  1  0  0  0  0
 25 26  2  0  0  0  0
 26 27  1  0  0  0  0
M  END
>  <CHROM.1>
-39.23579041,-179.62066282,54.04553144,-160.40042180,75.47894852,154.42674653
10.53304906,48.11836475,53.91100147,24.07932237,1.41809557,-0.05221513,1.83186887

>  <Name>
ligand

>  <RI>
0

>  <Rbt.Current_Directory>
/home/itssahil/PROJECTS/Mol_Feturizer/New_Systems/rnas/3GX7

>  <Rbt.Executable>
rbdock ($Id: //depot/dev/client3/rdock/2013.1/src/exe/rbdock.cxx#4 $)

>  <Rbt.Library>
libRbt.so (2013.1, Build901 2013/11/27)

>  <Rbt.Parameter_File>
/export/apps/rDock/src/rDock_2013.1_src/data/scripts/dock_solv.prm

>  <Rbt.Receptor>
prm/blind_docking_80.prm

>  <SCORE>
-14.6999

>  <SCORE.INTER>
-12.9794

>  <SCORE.INTER.CONST>
1

>  <SCORE.INTER.POLAR>
0

>  <SCORE.INTER.ROT>
7

>  <SCORE.INTER.SOLV>
13.7177

>  <SCORE.INTER.VDW>
-21.4922

>  <SCORE.INTER.norm>
-0.48072

>  <SCORE.INTRA>
-1.72046

>  <SCORE.INTRA.DIHEDRAL>
-2.5483

>  <SCORE.INTRA.DIHEDRAL.0>
11.2699

>  <SCORE.INTRA.POLAR>
0

>  <SCORE.INTRA.POLAR.0>
0

>  <SCORE.INTRA.REPUL>
0

>  <SCORE.INTRA.REPUL.0>
0

>  <SCORE.INTRA.SOLV>
-0.385311

>  <SCORE.INTRA.SOLV.lig_0>
-48.6447

>  <SCORE.INTRA.VDW>
-0.253652

>  <SCORE.INTRA.VDW.0>
-0.0211724

>  <SCORE.INTRA.norm>
-0.0637207

>  <SCORE.RESTR>
0

>  <SCORE.RESTR.CAVITY>
0

>  <SCORE.RESTR.norm>
0

>  <SCORE.SYSTEM>
0

>  <SCORE.SYSTEM.CONST>
0

>  <SCORE.SYSTEM.DIHEDRAL>
0

>  <SCORE.SYSTEM.SOLV>
0

>  <SCORE.SYSTEM.norm>
0

>  <SCORE.heavy>
27

>  <SCORE.norm>
-0.544441

>  <RMSD>
10.171

$$$$
ligand
 OpenBabel11021811483D
libRbt.so/2013.1/901 2013/11/27
 27 29  0  0  0  0  0  0  0  0999 V2000
   52.3344   55.7021   17.4081 N   0  0  0  0  0  0  0  0  0  0  0  0
   51.9684   54.3242   17.7129 C   0  0  2  0  0  0  0  0  0  0  0  0
   52.1865   53.4319   16.5021 C   0  0  0  0  0  0  0  0  0  0  0  0
   52.0675   52.2128   16.5991 O   0  0  0  0  0  0  0  0  0  0  0  0
   50.5245   54.2136   18.2007 C   0  0  0  0  0  0  0  0  0  0  0  0
   50.2594   54.8441   19.5627 C   0  0  0  0  0  0  0  0  0  0  0  0
   48.5775   54.5915   20.1943 S   0  0  2  0  0  0  0  0  0  0  0  0
   47.6647   55.8568   19.2774 C   0  0  0  0  0  0  0  0  0  0  0  0
   48.7159   55.3913   21.8145 C   0  0  0  0  0  0  0  0  0  0  0  0
   49.7752   54.6849   22.6473 C   0  0  1  0  0  0  0  0  0  0  0  0
   49.6378   55.1066   23.9828 O   0  0  0  0  0  0  0  0  0  0  0  0
   49.6356   53.1767   22.6960 C   0  0  1  0  0  0  0  0  0  0  0  0
   50.4929   52.5761   21.7561 O   0  0  0  0  0  0  0  0  0  0  0  0
   50.0568   52.8248   24.1113 C   0  0  1  0  0  0  0  0  0  0  0  0
   51.3490   52.2662   24.0857 O   0  0  0  0  0  0  0  0  0  0  0  0
   50.0714   54.1308   24.8956 C   0  0  2  0  0  0  0  0  0  0  0  0
   52.4799   53.9142   15.4078 O   0  0  0  0  0  0  0  0  0  0  0  0
   45.2789   52.5264   26.3589 N   0  0  0  0  0  0  0  0  0  0  0  0
   45.8805   52.4076   25.1224 C   0  0  0  0  0  0  0  0  0  0  0  0
   47.1589   52.8930   24.9164 N   0  0  0  0  0  0  0  0  0  0  0  0
   47.8335   53.4970   25.9192 C   0  0  0  0  0  0  0  0  0  0  0  0
   47.2511   53.6209   27.1720 C   0  0  0  0  0  0  0  0  0  0  0  0
   45.9640   53.1360   27.3886 C   0  0  0  0  0  0  0  0  0  0  0  0
   45.3868   53.2520   28.5818 N   0  0  0  0  0  0  0  0  0  0  0  0
   48.1399   54.2446   27.9770 N   0  0  0  0  0  0  0  0  0  0  0  0
   49.2653   54.5013   27.2698 C   0  0  0  0  0  0  0  0  0  0  0  0
   49.0901   54.0431   25.9903 N   0  0  0  0  0  0  0  0  0  0  0  0
  2  1  1  6  0  0  0
  2  3  1  0  0  0  0
  2  5  1  0  0  0  0
  3  4  1  0  0  0  0
  3 17  1  0  0  0  0
  5  6  1  0  0  0  0
  7  6  1  6  0  0  0
  7  8  1  0  0  0  0
  7  9  1  0  0  0  0
 10  9  1  6  0  0  0
 10 11  1  0  0  0  0
 10 12  1  0  0  0  0
 11 16  1  0  0  0  0
 12 13  1  6  0  0  0
 12 14  1  0  0  0  0
 14 15  1  6  0  0  0
 14 16  1  0  0  0  0
 16 27  1  1  0  0  0
 18 19  2  0  0  0  0
 18 23  1  0  0  0  0
 19 20  1  0  0  0  0
 20 21  2  0  0  0  0
 21 22  1  0  0  0  0
 21 27  1  0  0  0  0
 22 23  2  0  0  0  0
 22 25  1  0  0  0  0
 23 24  1  0  0  0  0
 25 26  2  0  0  0  0
 26 27  1  0  0  0  0
M  END
>  <CHROM.1>
172.43890007,-67.90685515,-175.28435898,-79.92442392,-60.87828123,-166.06406949
72.44625879,49.26258726,53.86580727,22.47472776,-1.14213273,-0.20687134,1.73601107

>  <Name>
ligand

>  <RI>
0

>  <Rbt.Current_Directory>
/home/itssahil/PROJECTS/Mol_Feturizer/New_Systems/rnas/3GX7

>  <Rbt.Executable>
rbdock ($Id: //depot/dev/client3/rdock/2013.1/src/exe/rbdock.cxx#4 $)

>  <Rbt.Library>
libRbt.so (2013.1, Build901 2013/11/27)

>  <Rbt.Parameter_File>
/export/apps/rDock/src/rDock_2013.1_src/data/scripts/dock_solv.prm

>  <Rbt.Receptor>
prm/blind_docking_80.prm

>  <SCORE>
-15.7994

>  <SCORE.INTER>
-10.289

>  <SCORE.INTER.CONST>
1

>  <SCORE.INTER.POLAR>
0

>  <SCORE.INTER.ROT>
7

>  <SCORE.INTER.SOLV>
9.95604

>  <SCORE.INTER.VDW>
-18.4447

>  <SCORE.INTER.norm>
-0.381075

>  <SCORE.INTRA>
-5.51036

>  <SCORE.INTRA.DIHEDRAL>
-6.56688

>  <SCORE.INTRA.DIHEDRAL.0>
11.2699

>  <SCORE.INTRA.POLAR>
0

>  <SCORE.INTRA.POLAR.0>
0

>  <SCORE.INTRA.REPUL>
0

>  <SCORE.INTRA.REPUL.0>
0

>  <SCORE.INTRA.SOLV>
-0.0514608

>  <SCORE.INTRA.SOLV.lig_0>
-48.6447

>  <SCORE.INTRA.VDW>
-2.20119

>  <SCORE.INTRA.VDW.0>
-0.0211724

>  <SCORE.INTRA.norm>
-0.204087

>  <SCORE.RESTR>
0

>  <SCORE.RESTR.CAVITY>
0

>  <SCORE.RESTR.norm>
0

>  <SCORE.SYSTEM>
0

>  <SCORE.SYSTEM.CONST>
0

>  <SCORE.SYSTEM.DIHEDRAL>
0

>  <SCORE.SYSTEM.SOLV>
0

>  <SCORE.SYSTEM.norm>
0

>  <SCORE.heavy>
27

>  <SCORE.norm>
-0.585163

>  <RMSD>
10.241

$$$$
ligand
 OpenBabel11021811483D
libRbt.so/2013.1/901 2013/11/27
 27 29  0  0  0  0  0  0  0  0999 V2000
   50.7453   53.3620   16.8556 N   0  0  0  0  0  0  0  0  0  0  0  0
   50.8401   54.7315   17.3464 C   0  0  2  0  0  0  0  0  0  0  0  0
   51.9155   55.4970   16.5933 C   0  0  0  0  0  0  0  0  0  0  0  0
   51.6638   56.5895   16.0903 O   0  0  0  0  0  0  0  0  0  0  0  0
   51.1084   54.7799   18.8499 C   0  0  0  0  0  0  0  0  0  0  0  0
   49.9675   54.2661   19.7201 C   0  0  0  0  0  0  0  0  0  0  0  0
   50.2963   54.3243   21.5034 S   0  0  2  0  0  0  0  0  0  0  0  0
   51.2926   52.8299   21.7253 C   0  0  0  0  0  0  0  0  0  0  0  0
   48.6999   53.7568   22.1463 C   0  0  0  0  0  0  0  0  0  0  0  0
   48.6843   53.8780   23.6627 C   0  0  1  0  0  0  0  0  0  0  0  0
   47.3440   53.9620   24.0833 O   0  0  0  0  0  0  0  0  0  0  0  0
   49.2511   52.6791   24.3961 C   0  0  1  0  0  0  0  0  0  0  0  0
   50.5913   52.9138   24.7535 O   0  0  0  0  0  0  0  0  0  0  0  0
   48.3755   52.5696   25.6313 C   0  0  1  0  0  0  0  0  0  0  0  0
   49.0896   53.0402   26.7498 O   0  0  0  0  0  0  0  0  0  0  0  0
   47.1613   53.4551   25.3807 C   0  0  2  0  0  0  0  0  0  0  0  0
   53.0530   55.0393   16.4793 O   0  0  0  0  0  0  0  0  0  0  0  0
   43.2378   51.4733   28.2725 N   0  0  0  0  0  0  0  0  0  0  0  0
   44.2716   52.2923   28.6795 C   0  0  0  0  0  0  0  0  0  0  0  0
   45.2242   52.7201   27.7729 N   0  0  0  0  0  0  0  0  0  0  0  0
   45.1613   52.3364   26.4789 C   0  0  0  0  0  0  0  0  0  0  0  0
   44.1271   51.5195   26.0464 C   0  0  0  0  0  0  0  0  0  0  0  0
   43.1639   51.0830   26.9521 C   0  0  0  0  0  0  0  0  0  0  0  0
   42.1685   50.2937   26.5566 N   0  0  0  0  0  0  0  0  0  0  0  0
   44.3007   51.3050   24.7231 N   0  0  0  0  0  0  0  0  0  0  0  0
   45.4033   51.9745   24.3125 C   0  0  0  0  0  0  0  0  0  0  0  0
   45.9487   52.6195   25.3916 N   0  0  0  0  0  0  0  0  0  0  0  0
  2  1  1  6  0  0  0
  2  3  1  0  0  0  0
  2  5  1  0  0  0  0
  3  4  1  0  0  0  0
  3 17  1  0  0  0  0
  5  6  1  0  0  0  0
  7  6  1  6  0  0  0
  7  8  1  0  0  0  0
  7  9  1  0  0  0  0
 10  9  1  6  0  0  0
 10 11  1  0  0  0  0
 10 12  1  0  0  0  0
 11 16  1  0  0  0  0
 12 13  1  1  0  0  0
 12 14  1  0  0  0  0
 14 15  1  1  0  0  0
 14 16  1  0  0  0  0
 16 27  1  6  0  0  0
 18 19  2  0  0  0  0
 18 23  1  0  0  0  0
 19 20  1  0  0  0  0
 20 21  2  0  0  0  0
 21 22  1  0  0  0  0
 21 27  1  0  0  0  0
 22 23  2  0  0  0  0
 22 25  1  0  0  0  0
 23 24  1  0  0  0  0
 25 26  2  0  0  0  0
 26 27  1  0  0  0  0
M  END
>  <CHROM.1>
128.80053809,-66.97949963,179.88367315,-80.70626059,-173.44080110,156.64684504
-155.20003692,48.13101484,53.25938762,23.05270848,0.91234096,-0.27851599
-1.45372218

>  <Name>
ligand

>  <RI>
0

>  <Rbt.Current_Directory>
/home/itssahil/PROJECTS/Mol_Feturizer/New_Systems/rnas/3GX7

>  <Rbt.Executable>
rbdock ($Id: //depot/dev/client3/rdock/2013.1/src/exe/rbdock.cxx#4 $)

>  <Rbt.Library>
libRbt.so (2013.1, Build901 2013/11/27)

>  <Rbt.Parameter_File>
/export/apps/rDock/src/rDock_2013.1_src/data/scripts/dock_solv.prm

>  <Rbt.Receptor>
prm/blind_docking_80.prm

>  <SCORE>
-19.8013

>  <SCORE.INTER>
-14.6537

>  <SCORE.INTER.CONST>
1

>  <SCORE.INTER.POLAR>
0

>  <SCORE.INTER.ROT>
7

>  <SCORE.INTER.SOLV>
17.6567

>  <SCORE.INTER.VDW>
-23.9213

>  <SCORE.INTER.norm>
-0.542728

>  <SCORE.INTRA>
-5.14761

>  <SCORE.INTRA.DIHEDRAL>
-5.17182

>  <SCORE.INTRA.DIHEDRAL.0>
11.2699

>  <SCORE.INTRA.POLAR>
0

>  <SCORE.INTRA.POLAR.0>
0

>  <SCORE.INTRA.REPUL>
0

>  <SCORE.INTRA.REPUL.0>
0

>  <SCORE.INTRA.SOLV>
-0.29002

>  <SCORE.INTRA.SOLV.lig_0>
-48.6447

>  <SCORE.INTRA.VDW>
-2.41669

>  <SCORE.INTRA.VDW.0>
-0.0211724

>  <SCORE.INTRA.norm>
-0.190652

>  <SCORE.RESTR>
0

>  <SCORE.RESTR.CAVITY>
0

>  <SCORE.RESTR.norm>
0

>  <SCORE.SYSTEM>
0

>  <SCORE.SYSTEM.CONST>
0

>  <SCORE.SYSTEM.DIHEDRAL>
0

>  <SCORE.SYSTEM.SOLV>
0

>  <SCORE.SYSTEM.norm>
0

>  <SCORE.heavy>
27

>  <SCORE.norm>
-0.73338

>  <RMSD>
10.249

$$$$
ligand
 OpenBabel11021811483D
libRbt.so/2013.1/901 2013/11/27
 27 29  0  0  0  0  0  0  0  0999 V2000
   51.4386   55.1747   28.6358 N   0  0  0  0  0  0  0  0  0  0  0  0
   50.1745   55.5280   29.2704 C   0  0  2  0  0  0  0  0  0  0  0  0
   49.9277   54.6593   30.4927 C   0  0  0  0  0  0  0  0  0  0  0  0
   49.5500   55.1636   31.5476 O   0  0  0  0  0  0  0  0  0  0  0  0
   49.0005   55.4223   28.2980 C   0  0  0  0  0  0  0  0  0  0  0  0
   49.0378   56.4124   27.1401 C   0  0  0  0  0  0  0  0  0  0  0  0
   48.9927   55.6486   25.4951 S   0  0  2  0  0  0  0  0  0  0  0  0
   47.4734   54.6715   25.6035 C   0  0  0  0  0  0  0  0  0  0  0  0
   50.2382   54.3494   25.7064 C   0  0  0  0  0  0  0  0  0  0  0  0
   50.6670   53.8224   24.3452 C   0  0  1  0  0  0  0  0  0  0  0  0
   49.5144   53.4127   23.6494 O   0  0  0  0  0  0  0  0  0  0  0  0
   51.3208   54.8539   23.4479 C   0  0  1  0  0  0  0  0  0  0  0  0
   52.7216   54.7510   23.5253 O   0  0  0  0  0  0  0  0  0  0  0  0
   50.8292   54.4830   22.0605 C   0  0  1  0  0  0  0  0  0  0  0  0
   51.8691   53.8495   21.3535 O   0  0  0  0  0  0  0  0  0  0  0  0
   49.6699   53.5141   22.2570 C   0  0  2  0  0  0  0  0  0  0  0  0
   50.0967   53.4404   30.4448 O   0  0  0  0  0  0  0  0  0  0  0  0
   47.5873   56.3311   18.3313 N   0  0  0  0  0  0  0  0  0  0  0  0
   48.9028   55.9534   18.5092 C   0  0  0  0  0  0  0  0  0  0  0  0
   49.2738   55.2069   19.6126 N   0  0  0  0  0  0  0  0  0  0  0  0
   48.3562   54.8439   20.5355 C   0  0  0  0  0  0  0  0  0  0  0  0
   47.0272   55.2063   20.3733 C   0  0  0  0  0  0  0  0  0  0  0  0
   46.6444   55.9587   19.2660 C   0  0  0  0  0  0  0  0  0  0  0  0
   45.3754   56.3211   19.0974 N   0  0  0  0  0  0  0  0  0  0  0  0
   46.3357   54.7079   21.4224 N   0  0  0  0  0  0  0  0  0  0  0  0
   47.1893   54.0327   22.2276 C   0  0  0  0  0  0  0  0  0  0  0  0
   48.4475   54.1085   21.6902 N   0  0  0  0  0  0  0  0  0  0  0  0
  2  1  1  6  0  0  0
  2  3  1  0  0  0  0
  2  5  1  0  0  0  0
  3  4  1  0  0  0  0
  3 17  1  0  0  0  0
  5  6  1  0  0  0  0
  7  6  1  1  0  0  0
  7  8  1  0  0  0  0
  7  9  1  0  0  0  0
 10  9  1  1  0  0  0
 10 11  1  0  0  0  0
 10 12  1  0  0  0  0
 11 16  1  0  0  0  0
 12 13  1  6  0  0  0
 12 14  1  0  0  0  0
 14 15  1  6  0  0  0
 14 16  1  0  0  0  0
 16 27  1  6  0  0  0
 18 19  2  0  0  0  0
 18 23  1  0  0  0  0
 19 20  1  0  0  0  0
 20 21  2  0  0  0  0
 21 22  1  0  0  0  0
 21 27  1  0  0  0  0
 22 23  2  0  0  0  0
 22 25  1  0  0  0  0
 23 24  1  0  0  0  0
 25 26  2  0  0  0  0
 26 27  1  0  0  0  0
M  END
>  <CHROM.1>
134.06370881,-65.39035371,123.10493980,56.15003535,-163.88790240,-54.64825100
152.54738570,49.21869506,54.89672008,24.05706921,-1.35305790,0.26196108,-1.58554822

>  <Name>
ligand

>  <RI>
0

>  <Rbt.Current_Directory>
/home/itssahil/PROJECTS/Mol_Feturizer/New_Systems/rnas/3GX7

>  <Rbt.Executable>
rbdock ($Id: //depot/dev/client3/rdock/2013.1/src/exe/rbdock.cxx#4 $)

>  <Rbt.Library>
libRbt.so (2013.1, Build901 2013/11/27)

>  <Rbt.Parameter_File>
/export/apps/rDock/src/rDock_2013.1_src/data/scripts/dock_solv.prm

>  <Rbt.Receptor>
prm/blind_docking_100.prm

>  <SCORE>
-12.7752

>  <SCORE.INTER>
-11.1159

>  <SCORE.INTER.CONST>
1

>  <SCORE.INTER.POLAR>
0

>  <SCORE.INTER.ROT>
7

>  <SCORE.INTER.SOLV>
16.1164

>  <SCORE.INTER.VDW>
-21.0494

>  <SCORE.INTER.norm>
-0.411701

>  <SCORE.INTRA>
-1.65927

>  <SCORE.INTRA.DIHEDRAL>
-0.786591

>  <SCORE.INTRA.DIHEDRAL.0>
11.2699

>  <SCORE.INTRA.POLAR>
0

>  <SCORE.INTRA.POLAR.0>
0

>  <SCORE.INTRA.REPUL>
0

>  <SCORE.INTRA.REPUL.0>
0

>  <SCORE.INTRA.SOLV>
1.283

>  <SCORE.INTRA.SOLV.lig_0>
-48.6447

>  <SCORE.INTRA.VDW>
-1.90747

>  <SCORE.INTRA.VDW.0>
-0.0211724

>  <SCORE.INTRA.norm>
-0.0614543

>  <SCORE.RESTR>
0

>  <SCORE.RESTR.CAVITY>
0

>  <SCORE.RESTR.norm>
0

>  <SCORE.SYSTEM>
0

>  <SCORE.SYSTEM.CONST>
0

>  <SCORE.SYSTEM.DIHEDRAL>
0

>  <SCORE.SYSTEM.SOLV>
0

>  <SCORE.SYSTEM.norm>
0

>  <SCORE.heavy>
27

>  <SCORE.norm>
-0.473155

>  <RMSD>
10.289

$$$$
ligand
 OpenBabel11021811483D
libRbt.so/2013.1/901 2013/11/27
 27 29  0  0  0  0  0  0  0  0999 V2000
   51.2497   53.2951   28.3109 N   0  0  0  0  0  0  0  0  0  0  0  0
   49.9706   53.7248   28.8630 C   0  0  2  0  0  0  0  0  0  0  0  0
   49.3075   52.5890   29.6245 C   0  0  0  0  0  0  0  0  0  0  0  0
   49.2238   51.4702   29.1232 O   0  0  0  0  0  0  0  0  0  0  0  0
   49.0330   54.2564   27.7798 C   0  0  0  0  0  0  0  0  0  0  0  0
   49.5505   55.4774   27.0288 C   0  0  0  0  0  0  0  0  0  0  0  0
   48.3421   56.2420   25.9122 S   0  0  2  0  0  0  0  0  0  0  0  0
   46.8997   56.3782   26.9964 C   0  0  0  0  0  0  0  0  0  0  0  0
   47.8707   54.8062   24.9121 C   0  0  0  0  0  0  0  0  0  0  0  0
   48.3206   55.0121   23.4734 C   0  0  1  0  0  0  0  0  0  0  0  0
   49.7216   54.8875   23.4289 O   0  0  0  0  0  0  0  0  0  0  0  0
   47.8034   53.9748   22.4973 C   0  0  1  0  0  0  0  0  0  0  0  0
   46.6643   54.4586   21.8283 O   0  0  0  0  0  0  0  0  0  0  0  0
   48.9579   53.7884   21.5295 C   0  0  1  0  0  0  0  0  0  0  0  0
   48.6582   54.4407   20.3182 O   0  0  0  0  0  0  0  0  0  0  0  0
   50.1754   54.4341   22.1791 C   0  0  2  0  0  0  0  0  0  0  0  0
   48.8495   52.7692   30.7532 O   0  0  0  0  0  0  0  0  0  0  0  0
   51.9709   50.6530   25.3672 N   0  0  0  0  0  0  0  0  0  0  0  0
   50.8695   51.4665   25.5402 C   0  0  0  0  0  0  0  0  0  0  0  0
   50.5448   52.4168   24.5894 N   0  0  0  0  0  0  0  0  0  0  0  0
   51.3050   52.5679   23.4827 C   0  0  0  0  0  0  0  0  0  0  0  0
   52.4123   51.7564   23.2848 C   0  0  0  0  0  0  0  0  0  0  0  0
   52.7476   50.7974   24.2370 C   0  0  0  0  0  0  0  0  0  0  0  0
   53.8100   50.0148   24.0672 N   0  0  0  0  0  0  0  0  0  0  0  0
   52.9743   52.1103   22.1075 N   0  0  0  0  0  0  0  0  0  0  0  0
   52.2438   53.1081   21.5567 C   0  0  0  0  0  0  0  0  0  0  0  0
   51.2040   53.4033   22.3990 N   0  0  0  0  0  0  0  0  0  0  0  0
  2  1  1  6  0  0  0
  2  3  1  0  0  0  0
  2  5  1  0  0  0  0
  3  4  1  0  0  0  0
  3 17  1  0  0  0  0
  5  6  1  0  0  0  0
  7  6  1  1  0  0  0
  7  8  1  0  0  0  0
  7  9  1  0  0  0  0
 10  9  1  1  0  0  0
 10 11  1  0  0  0  0
 10 12  1  0  0  0  0
 11 16  1  0  0  0  0
 12 13  1  6  0  0  0
 12 14  1  0  0  0  0
 14 15  1  6  0  0  0
 14 16  1  0  0  0  0
 16 27  1  1  0  0  0
 18 19  2  0  0  0  0
 18 23  1  0  0  0  0
 19 20  1  0  0  0  0
 20 21  2  0  0  0  0
 21 22  1  0  0  0  0
 21 27  1  0  0  0  0
 22 23  2  0  0  0  0
 22 25  1  0  0  0  0
 23 24  1  0  0  0  0
 25 26  2  0  0  0  0
 26 27  1  0  0  0  0
M  END
>  <CHROM.1>
-47.90025737,-61.28792974,-171.81064364,48.97224711,-114.33668073,71.96457753
28.02979839,49.87091834,53.52241181,24.94127129,-1.85227927,0.74069050,-1.44536133

>  <Name>
ligand

>  <RI>
0

>  <Rbt.Current_Directory>
/home/itssahil/PROJECTS/Mol_Feturizer/New_Systems/rnas/3GX7

>  <Rbt.Executable>
rbdock ($Id: //depot/dev/client3/rdock/2013.1/src/exe/rbdock.cxx#4 $)

>  <Rbt.Library>
libRbt.so (2013.1, Build901 2013/11/27)

>  <Rbt.Parameter_File>
/export/apps/rDock/src/rDock_2013.1_src/data/scripts/dock_solv.prm

>  <Rbt.Receptor>
prm/blind_docking_100.prm

>  <SCORE>
-14.6294

>  <SCORE.INTER>
-10.2655

>  <SCORE.INTER.CONST>
1

>  <SCORE.INTER.POLAR>
0

>  <SCORE.INTER.ROT>
7

>  <SCORE.INTER.SOLV>
11.1722

>  <SCORE.INTER.VDW>
-18.8344

>  <SCORE.INTER.norm>
-0.380205

>  <SCORE.INTRA>
-4.36387

>  <SCORE.INTRA.DIHEDRAL>
-3.50108

>  <SCORE.INTRA.DIHEDRAL.0>
11.2699

>  <SCORE.INTRA.POLAR>
0

>  <SCORE.INTRA.POLAR.0>
0

>  <SCORE.INTRA.REPUL>
0

>  <SCORE.INTRA.REPUL.0>
0

>  <SCORE.INTRA.SOLV>
0.0298672

>  <SCORE.INTRA.SOLV.lig_0>
-48.6447

>  <SCORE.INTRA.VDW>
-2.62826

>  <SCORE.INTRA.VDW.0>
-0.0211724

>  <SCORE.INTRA.norm>
-0.161625

>  <SCORE.RESTR>
0

>  <SCORE.RESTR.CAVITY>
0

>  <SCORE.RESTR.norm>
0

>  <SCORE.SYSTEM>
0

>  <SCORE.SYSTEM.CONST>
0

>  <SCORE.SYSTEM.DIHEDRAL>
0

>  <SCORE.SYSTEM.SOLV>
0

>  <SCORE.SYSTEM.norm>
0

>  <SCORE.heavy>
27

>  <SCORE.norm>
-0.541829

>  <RMSD>
10.328

$$$$
ligand
 OpenBabel11021811483D
libRbt.so/2013.1/901 2013/11/27
 27 29  0  0  0  0  0  0  0  0999 V2000
   55.7849   50.0078   25.0906 N   0  0  0  0  0  0  0  0  0  0  0  0
   54.7346   49.1168   24.6127 C   0  0  2  0  0  0  0  0  0  0  0  0
   55.3030   48.0864   23.6510 C   0  0  0  0  0  0  0  0  0  0  0  0
   56.2727   47.4040   23.9733 O   0  0  0  0  0  0  0  0  0  0  0  0
   53.5923   49.8868   23.9515 C   0  0  0  0  0  0  0  0  0  0  0  0
   54.0271   50.8882   22.8881 C   0  0  0  0  0  0  0  0  0  0  0  0
   52.6694   51.5704   21.8969 S   0  0  2  0  0  0  0  0  0  0  0  0
   53.5094   52.9211   21.0338 C   0  0  0  0  0  0  0  0  0  0  0  0
   51.7725   52.4974   23.1697 C   0  0  0  0  0  0  0  0  0  0  0  0
   50.5080   53.0973   22.5732 C   0  0  1  0  0  0  0  0  0  0  0  0
   49.5762   53.2809   23.6117 O   0  0  0  0  0  0  0  0  0  0  0  0
   50.6906   54.4722   21.9625 C   0  0  1  0  0  0  0  0  0  0  0  0
   50.8640   54.3693   20.5703 O   0  0  0  0  0  0  0  0  0  0  0  0
   49.3915   55.1847   22.2924 C   0  0  1  0  0  0  0  0  0  0  0  0
   48.5944   55.2567   21.1339 O   0  0  0  0  0  0  0  0  0  0  0  0
   48.6926   54.3415   23.3516 C   0  0  2  0  0  0  0  0  0  0  0  0
   54.8002   47.9157   22.5399 O   0  0  0  0  0  0  0  0  0  0  0  0
   50.8436   55.7513   27.9417 N   0  0  0  0  0  0  0  0  0  0  0  0
   51.3536   54.8985   26.9838 C   0  0  0  0  0  0  0  0  0  0  0  0
   50.6422   54.6400   25.8265 N   0  0  0  0  0  0  0  0  0  0  0  0
   49.4353   55.2116   25.6207 C   0  0  0  0  0  0  0  0  0  0  0  0
   48.9068   56.0775   26.5666 C   0  0  0  0  0  0  0  0  0  0  0  0
   49.6154   56.3431   27.7354 C   0  0  0  0  0  0  0  0  0  0  0  0
   49.1210   57.1657   28.6568 N   0  0  0  0  0  0  0  0  0  0  0  0
   47.7112   56.5077   26.1054 N   0  0  0  0  0  0  0  0  0  0  0  0
   47.4831   55.9485   24.8937 C   0  0  0  0  0  0  0  0  0  0  0  0
   48.5447   55.1410   24.5794 N   0  0  0  0  0  0  0  0  0  0  0  0
  2  1  1  6  0  0  0
  2  3  1  0  0  0  0
  2  5  1  0  0  0  0
  3  4  1  0  0  0  0
  3 17  1  0  0  0  0
  5  6  1  0  0  0  0
  7  6  1  1  0  0  0
  7  8  1  0  0  0  0
  7  9  1  0  0  0  0
 10  9  1  1  0  0  0
 10 11  1  0  0  0  0
 10 12  1  0  0  0  0
 11 16  1  0  0  0  0
 12 13  1  6  0  0  0
 12 14  1  0  0  0  0
 14 15  1  6  0  0  0
 14 16  1  0  0  0  0
 16 27  1  1  0  0  0
 18 19  2  0  0  0  0
 18 23  1  0  0  0  0
 19 20  1  0  0  0  0
 20 21  2  0  0  0  0
 21 22  1  0  0  0  0
 21 27  1  0  0  0  0
 22 23  2  0  0  0  0
 22 25  1  0  0  0  0
 23 24  1  0  0  0  0
 25 26  2  0  0  0  0
 26 27  1  0  0  0  0
M  END
>  <CHROM.1>
52.33558642,50.59599463,169.20249391,168.65514589,-176.23590462,154.53697529
23.20961535,51.39962485,53.10245363,23.99478790,-0.41295853,-0.80122117,1.36451442

>  <Name>
ligand

>  <RI>
0

>  <Rbt.Current_Directory>
/home/itssahil/PROJECTS/Mol_Feturizer/New_Systems/rnas/3GX7

>  <Rbt.Executable>
rbdock ($Id: //depot/dev/client3/rdock/2013.1/src/exe/rbdock.cxx#4 $)

>  <Rbt.Library>
libRbt.so (2013.1, Build901 2013/11/27)

>  <Rbt.Parameter_File>
/export/apps/rDock/src/rDock_2013.1_src/data/scripts/dock_solv.prm

>  <Rbt.Receptor>
prm/blind_docking_100.prm

>  <SCORE>
-16.7366

>  <SCORE.INTER>
-12.6874

>  <SCORE.INTER.CONST>
1

>  <SCORE.INTER.POLAR>
0

>  <SCORE.INTER.ROT>
7

>  <SCORE.INTER.SOLV>
16.9875

>  <SCORE.INTER.VDW>
-22.3874

>  <SCORE.INTER.norm>
-0.469904

>  <SCORE.INTRA>
-4.04919

>  <SCORE.INTRA.DIHEDRAL>
-4.89868

>  <SCORE.INTRA.DIHEDRAL.0>
11.2699

>  <SCORE.INTRA.POLAR>
0

>  <SCORE.INTRA.POLAR.0>
0

>  <SCORE.INTRA.REPUL>
0

>  <SCORE.INTRA.REPUL.0>
0

>  <SCORE.INTRA.SOLV>
-0.0931195

>  <SCORE.INTRA.SOLV.lig_0>
-48.6447

>  <SCORE.INTRA.VDW>
-1.55329

>  <SCORE.INTRA.VDW.0>
-0.0211724

>  <SCORE.INTRA.norm>
-0.14997

>  <SCORE.RESTR>
0

>  <SCORE.RESTR.CAVITY>
0

>  <SCORE.RESTR.norm>
0

>  <SCORE.SYSTEM>
0

>  <SCORE.SYSTEM.CONST>
0

>  <SCORE.SYSTEM.DIHEDRAL>
0

>  <SCORE.SYSTEM.SOLV>
0

>  <SCORE.SYSTEM.norm>
0

>  <SCORE.heavy>
27

>  <SCORE.norm>
-0.619874

>  <RMSD>
10.384

$$$$
ligand
 OpenBabel11021811483D
libRbt.so/2013.1/901 2013/11/27
 27 29  0  0  0  0  0  0  0  0999 V2000
   55.6502   50.5254   23.9624 N   0  0  0  0  0  0  0  0  0  0  0  0
   54.4109   49.8161   23.6685 C   0  0  2  0  0  0  0  0  0  0  0  0
   54.3315   49.4664   22.1916 C   0  0  0  0  0  0  0  0  0  0  0  0
   54.9056   50.1614   21.3567 O   0  0  0  0  0  0  0  0  0  0  0  0
   53.1815   50.6193   24.0908 C   0  0  0  0  0  0  0  0  0  0  0  0
   53.0830   52.0096   23.4743 C   0  0  0  0  0  0  0  0  0  0  0  0
   52.0043   52.1128   22.0193 S   0  0  2  0  0  0  0  0  0  0  0  0
   53.2039   52.4966   20.7198 C   0  0  0  0  0  0  0  0  0  0  0  0
   51.2637   53.7461   22.2797 C   0  0  0  0  0  0  0  0  0  0  0  0
   49.7782   53.6943   21.9550 C   0  0  1  0  0  0  0  0  0  0  0  0
   49.1176   53.0534   23.0195 O   0  0  0  0  0  0  0  0  0  0  0  0
   49.1114   55.0502   21.8390 C   0  0  1  0  0  0  0  0  0  0  0  0
   49.0229   55.4373   20.4895 O   0  0  0  0  0  0  0  0  0  0  0  0
   47.7301   54.8198   22.4250 C   0  0  1  0  0  0  0  0  0  0  0  0
   46.7878   54.7544   21.3808 O   0  0  0  0  0  0  0  0  0  0  0  0
   47.7877   53.4845   23.1564 C   0  0  2  0  0  0  0  0  0  0  0  0
   53.6973   48.4824   21.8096 O   0  0  0  0  0  0  0  0  0  0  0  0
   44.7519   52.2533   27.2737 N   0  0  0  0  0  0  0  0  0  0  0  0
   44.6755   51.7757   25.9810 C   0  0  0  0  0  0  0  0  0  0  0  0
   45.5651   52.2160   25.0182 N   0  0  0  0  0  0  0  0  0  0  0  0
   46.5157   53.1252   25.3268 C   0  0  0  0  0  0  0  0  0  0  0  0
   46.6155   53.6134   26.6213 C   0  0  0  0  0  0  0  0  0  0  0  0
   45.7236   53.1766   27.5972 C   0  0  0  0  0  0  0  0  0  0  0  0
   45.8000   53.6389   28.8424 N   0  0  0  0  0  0  0  0  0  0  0  0
   47.6465   54.4871   26.6512 N   0  0  0  0  0  0  0  0  0  0  0  0
   48.2032   54.5488   25.4187 C   0  0  0  0  0  0  0  0  0  0  0  0
   47.5118   53.7089   24.5855 N   0  0  0  0  0  0  0  0  0  0  0  0
  2  1  1  6  0  0  0
  2  3  1  0  0  0  0
  2  5  1  0  0  0  0
  3  4  1  0  0  0  0
  3 17  1  0  0  0  0
  5  6  1  0  0  0  0
  7  6  1  1  0  0  0
  7  8  1  0  0  0  0
  7  9  1  0  0  0  0
 10  9  1  1  0  0  0
 10 11  1  0  0  0  0
 10 12  1  0  0  0  0
 11 16  1  0  0  0  0
 12 13  1  6  0  0  0
 12 14  1  0  0  0  0
 14 15  1  6  0  0  0
 14 16  1  0  0  0  0
 16 27  1  1  0  0  0
 18 19  2  0  0  0  0
 18 23  1  0  0  0  0
 19 20  1  0  0  0  0
 20 21  2  0  0  0  0
 21 22  1  0  0  0  0
 21 27  1  0  0  0  0
 22 23  2  0  0  0  0
 22 25  1  0  0  0  0
 23 24  1  0  0  0  0
 25 26  2  0  0  0  0
 26 27  1  0  0  0  0
M  END
>  <CHROM.1>
-27.88750378,56.60316804,97.82803053,-113.82946500,-138.10238450,76.05855517
-123.44519860,49.76596057,52.63554238,23.63569264,-0.17707509,-0.50227168
2.12966658

>  <Name>
ligand

>  <RI>
0

>  <Rbt.Current_Directory>
/home/itssahil/PROJECTS/Mol_Feturizer/New_Systems/rnas/3GX7

>  <Rbt.Executable>
rbdock ($Id: //depot/dev/client3/rdock/2013.1/src/exe/rbdock.cxx#4 $)

>  <Rbt.Library>
libRbt.so (2013.1, Build901 2013/11/27)

>  <Rbt.Parameter_File>
/export/apps/rDock/src/rDock_2013.1_src/data/scripts/dock_solv.prm

>  <Rbt.Receptor>
prm/blind_docking_80.prm

>  <SCORE>
-13.8362

>  <SCORE.INTER>
-13.1169

>  <SCORE.INTER.CONST>
1

>  <SCORE.INTER.POLAR>
0

>  <SCORE.INTER.ROT>
7

>  <SCORE.INTER.SOLV>
9.57097

>  <SCORE.INTER.VDW>
-20.2016

>  <SCORE.INTER.norm>
-0.485811

>  <SCORE.INTRA>
-0.719357

>  <SCORE.INTRA.DIHEDRAL>
4.49491

>  <SCORE.INTRA.DIHEDRAL.0>
11.2699

>  <SCORE.INTRA.POLAR>
0

>  <SCORE.INTRA.POLAR.0>
0

>  <SCORE.INTRA.REPUL>
0

>  <SCORE.INTRA.REPUL.0>
0

>  <SCORE.INTRA.SOLV>
-0.0957228

>  <SCORE.INTRA.SOLV.lig_0>
-48.6447

>  <SCORE.INTRA.VDW>
-2.91895

>  <SCORE.INTRA.VDW.0>
-0.0211724

>  <SCORE.INTRA.norm>
-0.0266428

>  <SCORE.RESTR>
0

>  <SCORE.RESTR.CAVITY>
0

>  <SCORE.RESTR.norm>
0

>  <SCORE.SYSTEM>
0

>  <SCORE.SYSTEM.CONST>
0

>  <SCORE.SYSTEM.DIHEDRAL>
0

>  <SCORE.SYSTEM.SOLV>
0

>  <SCORE.SYSTEM.norm>
0

>  <SCORE.heavy>
27

>  <SCORE.norm>
-0.512454

>  <RMSD>
10.396

$$$$
ligand
 OpenBabel11021811483D
libRbt.so/2013.1/901 2013/11/27
 27 29  0  0  0  0  0  0  0  0999 V2000
   47.1717   54.5771   28.7773 N   0  0  0  0  0  0  0  0  0  0  0  0
   47.3663   53.2385   29.3213 C   0  0  2  0  0  0  0  0  0  0  0  0
   47.8917   53.3106   30.7455 C   0  0  0  0  0  0  0  0  0  0  0  0
   49.0887   53.4887   30.9580 O   0  0  0  0  0  0  0  0  0  0  0  0
   48.3030   52.4014   28.4515 C   0  0  0  0  0  0  0  0  0  0  0  0
   49.6462   53.0537   28.1464 C   0  0  0  0  0  0  0  0  0  0  0  0
   50.8271   51.9781   27.2862 S   0  0  2  0  0  0  0  0  0  0  0  0
   52.0560   53.1830   26.7268 C   0  0  0  0  0  0  0  0  0  0  0  0
   49.9283   51.6797   25.7412 C   0  0  0  0  0  0  0  0  0  0  0  0
   49.4627   53.0036   25.1537 C   0  0  1  0  0  0  0  0  0  0  0  0
   50.4897   53.5057   24.3330 O   0  0  0  0  0  0  0  0  0  0  0  0
   48.2523   52.8996   24.2479 C   0  0  1  0  0  0  0  0  0  0  0  0
   47.0811   53.2184   24.9591 O   0  0  0  0  0  0  0  0  0  0  0  0
   48.5247   53.9314   23.1684 C   0  0  1  0  0  0  0  0  0  0  0  0
   47.7149   55.0615   23.3913 O   0  0  0  0  0  0  0  0  0  0  0  0
   49.9943   54.3129   23.2955 C   0  0  2  0  0  0  0  0  0  0  0  0
   47.1290   53.1970   31.7056 O   0  0  0  0  0  0  0  0  0  0  0  0
   50.2636   54.9846   18.0840 N   0  0  0  0  0  0  0  0  0  0  0  0
   49.3797   55.5574   18.9760 C   0  0  0  0  0  0  0  0  0  0  0  0
   49.4563   55.2619   20.3248 N   0  0  0  0  0  0  0  0  0  0  0  0
   50.3912   54.4029   20.7871 C   0  0  0  0  0  0  0  0  0  0  0  0
   51.2942   53.8212   19.9096 C   0  0  0  0  0  0  0  0  0  0  0  0
   51.2242   54.1120   18.5498 C   0  0  0  0  0  0  0  0  0  0  0  0
   52.0778   53.5582   17.6924 N   0  0  0  0  0  0  0  0  0  0  0  0
   52.1137   53.0258   20.6328 N   0  0  0  0  0  0  0  0  0  0  0  0
   51.7597   53.1040   21.9372 C   0  0  0  0  0  0  0  0  0  0  0  0
   50.6916   53.9551   22.0487 N   0  0  0  0  0  0  0  0  0  0  0  0
  2  1  1  6  0  0  0
  2  3  1  0  0  0  0
  2  5  1  0  0  0  0
  3  4  1  0  0  0  0
  3 17  1  0  0  0  0
  5  6  1  0  0  0  0
  7  6  1  1  0  0  0
  7  8  1  0  0  0  0
  7  9  1  0  0  0  0
 10  9  1  6  0  0  0
 10 11  1  0  0  0  0
 10 12  1  0  0  0  0
 11 16  1  0  0  0  0
 12 13  1  1  0  0  0
 12 14  1  0  0  0  0
 14 15  1  1  0  0  0
 14 16  1  0  0  0  0
 16 27  1  6  0  0  0
 18 19  2  0  0  0  0
 18 23  1  0  0  0  0
 19 20  1  0  0  0  0
 20 21  2  0  0  0  0
 21 22  1  0  0  0  0
 21 27  1  0  0  0  0
 22 23  2  0  0  0  0
 22 25  1  0  0  0  0
 23 24  1  0  0  0  0
 25 26  2  0  0  0  0
 26 27  1  0  0  0  0
M  END
>  <CHROM.1>
-81.68867088,53.04862028,172.95279285,165.68808061,50.22270550,88.14216975
172.03149753,49.63256261,53.53621184,24.55562529,1.81930810,-0.42905637,1.79281566

>  <Name>
ligand

>  <RI>
0

>  <Rbt.Current_Directory>
/home/itssahil/PROJECTS/Mol_Feturizer/New_Systems/rnas/3GX7

>  <Rbt.Executable>
rbdock ($Id: //depot/dev/client3/rdock/2013.1/src/exe/rbdock.cxx#4 $)

>  <Rbt.Library>
libRbt.so (2013.1, Build901 2013/11/27)

>  <Rbt.Parameter_File>
/export/apps/rDock/src/rDock_2013.1_src/data/scripts/dock_solv.prm

>  <Rbt.Receptor>
prm/blind_docking_80.prm

>  <SCORE>
-12.8014

>  <SCORE.INTER>
-9.90248

>  <SCORE.INTER.CONST>
1

>  <SCORE.INTER.POLAR>
0

>  <SCORE.INTER.ROT>
7

>  <SCORE.INTER.SOLV>
5.76822

>  <SCORE.INTER.VDW>
-16.7911

>  <SCORE.INTER.norm>
-0.366759

>  <SCORE.INTRA>
-2.8989

>  <SCORE.INTRA.DIHEDRAL>
-5.24332

>  <SCORE.INTRA.DIHEDRAL.0>
11.2699

>  <SCORE.INTRA.POLAR>
0

>  <SCORE.INTRA.POLAR.0>
0

>  <SCORE.INTRA.REPUL>
0

>  <SCORE.INTRA.REPUL.0>
0

>  <SCORE.INTRA.SOLV>
0.164203

>  <SCORE.INTRA.SOLV.lig_0>
-48.6447

>  <SCORE.INTRA.VDW>
-0.359336

>  <SCORE.INTRA.VDW.0>
-0.0211724

>  <SCORE.INTRA.norm>
-0.107367

>  <SCORE.RESTR>
0

>  <SCORE.RESTR.CAVITY>
0

>  <SCORE.RESTR.norm>
0

>  <SCORE.SYSTEM>
0

>  <SCORE.SYSTEM.CONST>
0

>  <SCORE.SYSTEM.DIHEDRAL>
0

>  <SCORE.SYSTEM.SOLV>
0

>  <SCORE.SYSTEM.norm>
0

>  <SCORE.heavy>
27

>  <SCORE.norm>
-0.474125

>  <RMSD>
10.429

$$$$
ligand
 OpenBabel11021811483D
libRbt.so/2013.1/901 2013/11/27
 27 29  0  0  0  0  0  0  0  0999 V2000
   56.1383   49.5310   22.2513 N   0  0  0  0  0  0  0  0  0  0  0  0
   55.0624   49.8744   23.1733 C   0  0  2  0  0  0  0  0  0  0  0  0
   54.6952   48.6788   24.0366 C   0  0  0  0  0  0  0  0  0  0  0  0
   53.6266   48.6548   24.6428 O   0  0  0  0  0  0  0  0  0  0  0  0
   53.8289   50.3978   22.4388 C   0  0  0  0  0  0  0  0  0  0  0  0
   54.0173   51.7452   21.7518 C   0  0  0  0  0  0  0  0  0  0  0  0
   52.5207   52.4056   20.9673 S   0  0  2  0  0  0  0  0  0  0  0  0
   53.0743   54.0624   20.4947 C   0  0  0  0  0  0  0  0  0  0  0  0
   51.5295   52.7930   22.4340 C   0  0  0  0  0  0  0  0  0  0  0  0
   50.0858   53.0462   22.0262 C   0  0  1  0  0  0  0  0  0  0  0  0
   49.2971   53.0674   23.1914 O   0  0  0  0  0  0  0  0  0  0  0  0
   49.8444   54.3881   21.3648 C   0  0  1  0  0  0  0  0  0  0  0  0
   49.8346   54.2481   19.9650 O   0  0  0  0  0  0  0  0  0  0  0  0
   48.4741   54.7961   21.8750 C   0  0  1  0  0  0  0  0  0  0  0  0
   47.5244   54.6133   20.8517 O   0  0  0  0  0  0  0  0  0  0  0  0
   48.1574   53.8760   23.0473 C   0  0  2  0  0  0  0  0  0  0  0  0
   55.4568   47.7166   24.1385 O   0  0  0  0  0  0  0  0  0  0  0  0
   45.8856   54.2832   27.7756 N   0  0  0  0  0  0  0  0  0  0  0  0
   45.7619   53.2654   26.8516 C   0  0  0  0  0  0  0  0  0  0  0  0
   46.4389   53.3269   25.6474 N   0  0  0  0  0  0  0  0  0  0  0  0
   47.2240   54.3870   25.3550 C   0  0  0  0  0  0  0  0  0  0  0  0
   47.3687   55.4178   26.2717 C   0  0  0  0  0  0  0  0  0  0  0  0
   46.6902   55.3650   27.4864 C   0  0  0  0  0  0  0  0  0  0  0  0
   46.8117   56.3478   28.3750 N   0  0  0  0  0  0  0  0  0  0  0  0
   48.2086   56.3298   25.7333 N   0  0  0  0  0  0  0  0  0  0  0  0
   48.6047   55.8936   24.5144 C   0  0  0  0  0  0  0  0  0  0  0  0
   48.0015   54.6887   24.2655 N   0  0  0  0  0  0  0  0  0  0  0  0
  2  1  1  6  0  0  0
  2  3  1  0  0  0  0
  2  5  1  0  0  0  0
  3  4  1  0  0  0  0
  3 17  1  0  0  0  0
  5  6  1  0  0  0  0
  7  6  1  1  0  0  0
  7  8  1  0  0  0  0
  7  9  1  0  0  0  0
 10  9  1  1  0  0  0
 10 11  1  0  0  0  0
 10 12  1  0  0  0  0
 11 16  1  0  0  0  0
 12 13  1  6  0  0  0
 12 14  1  0  0  0  0
 14 15  1  6  0  0  0
 14 16  1  0  0  0  0
 16 27  1  1  0  0  0
 18 19  2  0  0  0  0
 18 23  1  0  0  0  0
 19 20  1  0  0  0  0
 20 21  2  0  0  0  0
 21 22  1  0  0  0  0
 21 27  1  0  0  0  0
 22 23  2  0  0  0  0
 22 25  1  0  0  0  0
 23 24  1  0  0  0  0
 25 26  2  0  0  0  0
 26 27  1  0  0  0  0
M  END
>  <CHROM.1>
-162.72589304,-67.35123718,-176.50866128,172.24577539,-166.07189282,167.96316374
-94.65930937,50.34909121,52.99174815,23.52741542,-0.10439309,-0.66210024
1.98628059

>  <Name>
ligand

>  <RI>
0

>  <Rbt.Current_Directory>
/home/itssahil/PROJECTS/Mol_Feturizer/New_Systems/rnas/3GX7

>  <Rbt.Executable>
rbdock ($Id: //depot/dev/client3/rdock/2013.1/src/exe/rbdock.cxx#4 $)

>  <Rbt.Library>
libRbt.so (2013.1, Build901 2013/11/27)

>  <Rbt.Parameter_File>
/export/apps/rDock/src/rDock_2013.1_src/data/scripts/dock_solv.prm

>  <Rbt.Receptor>
prm/blind_docking_80.prm

>  <SCORE>
-16.5747

>  <SCORE.INTER>
-11.9261

>  <SCORE.INTER.CONST>
1

>  <SCORE.INTER.POLAR>
0

>  <SCORE.INTER.ROT>
7

>  <SCORE.INTER.SOLV>
9.12552

>  <SCORE.INTER.VDW>
-19.2592

>  <SCORE.INTER.norm>
-0.441707

>  <SCORE.INTRA>
-4.64863

>  <SCORE.INTRA.DIHEDRAL>
-6.02299

>  <SCORE.INTRA.DIHEDRAL.0>
11.2699

>  <SCORE.INTRA.POLAR>
0

>  <SCORE.INTRA.POLAR.0>
0

>  <SCORE.INTRA.REPUL>
0

>  <SCORE.INTRA.REPUL.0>
0

>  <SCORE.INTRA.SOLV>
-0.265264

>  <SCORE.INTRA.SOLV.lig_0>
-48.6447

>  <SCORE.INTRA.VDW>
-1.5045

>  <SCORE.INTRA.VDW.0>
-0.0211724

>  <SCORE.INTRA.norm>
-0.172172

>  <SCORE.RESTR>
0

>  <SCORE.RESTR.CAVITY>
0

>  <SCORE.RESTR.norm>
0

>  <SCORE.SYSTEM>
0

>  <SCORE.SYSTEM.CONST>
0

>  <SCORE.SYSTEM.DIHEDRAL>
0

>  <SCORE.SYSTEM.SOLV>
0

>  <SCORE.SYSTEM.norm>
0

>  <SCORE.heavy>
27

>  <SCORE.norm>
-0.613878

>  <RMSD>
10.466

$$$$
ligand
 OpenBabel11021811483D
libRbt.so/2013.1/901 2013/11/27
 27 29  0  0  0  0  0  0  0  0999 V2000
   47.7093   53.4926   30.3025 N   0  0  0  0  0  0  0  0  0  0  0  0
   47.4619   52.7367   29.0807 C   0  0  2  0  0  0  0  0  0  0  0  0
   48.6576   52.8225   28.1465 C   0  0  0  0  0  0  0  0  0  0  0  0
   49.2576   51.8044   27.8099 O   0  0  0  0  0  0  0  0  0  0  0  0
   46.1956   53.2075   28.3668 C   0  0  0  0  0  0  0  0  0  0  0  0
   45.7807   52.3566   27.1724 C   0  0  0  0  0  0  0  0  0  0  0  0
   46.0981   53.1204   25.5577 S   0  0  2  0  0  0  0  0  0  0  0  0
   45.1865   52.0089   24.4585 C   0  0  0  0  0  0  0  0  0  0  0  0
   47.7960   52.5602   25.2620 C   0  0  0  0  0  0  0  0  0  0  0  0
   48.5448   53.6005   24.4424 C   0  0  1  0  0  0  0  0  0  0  0  0
   49.9192   53.3050   24.5070 O   0  0  0  0  0  0  0  0  0  0  0  0
   48.2118   53.5964   22.9640 C   0  0  1  0  0  0  0  0  0  0  0  0
   47.2550   54.5866   22.6760 O   0  0  0  0  0  0  0  0  0  0  0  0
   49.5376   53.9187   22.2987 C   0  0  1  0  0  0  0  0  0  0  0  0
   49.5203   55.2539   21.8519 O   0  0  0  0  0  0  0  0  0  0  0  0
   50.6111   53.7423   23.3654 C   0  0  2  0  0  0  0  0  0  0  0  0
   49.0401   53.9085   27.7097 O   0  0  0  0  0  0  0  0  0  0  0  0
   53.8431   49.8851   24.9016 N   0  0  0  0  0  0  0  0  0  0  0  0
   53.0866   50.7313   25.6870 C   0  0  0  0  0  0  0  0  0  0  0  0
   52.2867   51.6978   25.1054 N   0  0  0  0  0  0  0  0  0  0  0  0
   52.2404   51.8328   23.7618 C   0  0  0  0  0  0  0  0  0  0  0  0
   52.9866   50.9887   22.9530 C   0  0  0  0  0  0  0  0  0  0  0  0
   53.7957   50.0131   23.5295 C   0  0  0  0  0  0  0  0  0  0  0  0
   54.5237   49.1989   22.7696 N   0  0  0  0  0  0  0  0  0  0  0  0
   52.7452   51.3331   21.6684 N   0  0  0  0  0  0  0  0  0  0  0  0
   51.8598   52.3570   21.6492 C   0  0  0  0  0  0  0  0  0  0  0  0
   51.5372   52.6786   22.9416 N   0  0  0  0  0  0  0  0  0  0  0  0
  2  1  1  1  0  0  0
  2  3  1  0  0  0  0
  2  5  1  0  0  0  0
  3  4  1  0  0  0  0
  3 17  1  0  0  0  0
  5  6  1  0  0  0  0
  7  6  1  1  0  0  0
  7  8  1  0  0  0  0
  7  9  1  0  0  0  0
 10  9  1  1  0  0  0
 10 11  1  0  0  0  0
 10 12  1  0  0  0  0
 11 16  1  0  0  0  0
 12 13  1  1  0  0  0
 12 14  1  0  0  0  0
 14 15  1  1  0  0  0
 14 16  1  0  0  0  0
 16 27  1  6  0  0  0
 18 19  2  0  0  0  0
 18 23  1  0  0  0  0
 19 20  1  0  0  0  0
 20 21  2  0  0  0  0
 21 22  1  0  0  0  0
 21 27  1  0  0  0  0
 22 23  2  0  0  0  0
 22 25  1  0  0  0  0
 23 24  1  0  0  0  0
 25 26  2  0  0  0  0
 26 27  1  0  0  0  0
M  END
>  <CHROM.1>
119.54795769,-173.04449357,-105.90867202,-168.81423859,-148.90772684,165.82922468
-36.12446066,49.57577790,52.55164419,24.90575429,-2.67736960,0.44243561,-1.31244509

>  <Name>
ligand

>  <RI>
0

>  <Rbt.Current_Directory>
/home/itssahil/PROJECTS/Mol_Feturizer/New_Systems/rnas/3GX7

>  <Rbt.Executable>
rbdock ($Id: //depot/dev/client3/rdock/2013.1/src/exe/rbdock.cxx#4 $)

>  <Rbt.Library>
libRbt.so (2013.1, Build901 2013/11/27)

>  <Rbt.Parameter_File>
/export/apps/rDock/src/rDock_2013.1_src/data/scripts/dock_solv.prm

>  <Rbt.Receptor>
prm/blind_docking_80.prm

>  <SCORE>
-16.0518

>  <SCORE.INTER>
-13.265

>  <SCORE.INTER.CONST>
1

>  <SCORE.INTER.POLAR>
0

>  <SCORE.INTER.ROT>
7

>  <SCORE.INTER.SOLV>
10.1825

>  <SCORE.INTER.VDW>
-20.5042

>  <SCORE.INTER.norm>
-0.491298

>  <SCORE.INTRA>
-2.78673

>  <SCORE.INTRA.DIHEDRAL>
1.78398

>  <SCORE.INTRA.DIHEDRAL.0>
11.2699

>  <SCORE.INTRA.POLAR>
0

>  <SCORE.INTRA.POLAR.0>
0

>  <SCORE.INTRA.REPUL>
0

>  <SCORE.INTRA.REPUL.0>
0

>  <SCORE.INTRA.SOLV>
-0.758254

>  <SCORE.INTRA.SOLV.lig_0>
-48.6447

>  <SCORE.INTRA.VDW>
-3.2996

>  <SCORE.INTRA.VDW.0>
-0.0211724

>  <SCORE.INTRA.norm>
-0.103212

>  <SCORE.RESTR>
0

>  <SCORE.RESTR.CAVITY>
0

>  <SCORE.RESTR.norm>
0

>  <SCORE.SYSTEM>
0

>  <SCORE.SYSTEM.CONST>
0

>  <SCORE.SYSTEM.DIHEDRAL>
0

>  <SCORE.SYSTEM.SOLV>
0

>  <SCORE.SYSTEM.norm>
0

>  <SCORE.heavy>
27

>  <SCORE.norm>
-0.59451

>  <RMSD>
10.520

$$$$
ligand
 OpenBabel11021811483D
libRbt.so/2013.1/901 2013/11/27
 27 29  0  0  0  0  0  0  0  0999 V2000
   45.4247   52.5405   26.4293 N   0  0  0  0  0  0  0  0  0  0  0  0
   45.9433   52.4191   27.7864 C   0  0  2  0  0  0  0  0  0  0  0  0
   44.8812   52.8062   28.8022 C   0  0  0  0  0  0  0  0  0  0  0  0
   44.8621   53.9378   29.2807 O   0  0  0  0  0  0  0  0  0  0  0  0
   47.2043   53.2575   27.9910 C   0  0  0  0  0  0  0  0  0  0  0  0
   48.4989   52.5830   27.5534 C   0  0  0  0  0  0  0  0  0  0  0  0
   48.5934   52.2148   25.7795 S   0  0  2  0  0  0  0  0  0  0  0  0
   50.2802   51.5734   25.6436 C   0  0  0  0  0  0  0  0  0  0  0  0
   48.8190   53.8847   25.1130 C   0  0  0  0  0  0  0  0  0  0  0  0
   49.3285   53.8023   23.6818 C   0  0  1  0  0  0  0  0  0  0  0  0
   48.2817   53.3288   22.8692 O   0  0  0  0  0  0  0  0  0  0  0  0
   49.7235   55.1341   23.0763 C   0  0  1  0  0  0  0  0  0  0  0  0
   51.1139   55.3231   23.1763 O   0  0  0  0  0  0  0  0  0  0  0  0
   49.3005   55.0053   21.6241 C   0  0  1  0  0  0  0  0  0  0  0  0
   50.4412   54.7997   20.8247 O   0  0  0  0  0  0  0  0  0  0  0  0
   48.3861   53.7892   21.5461 C   0  0  2  0  0  0  0  0  0  0  0  0
   44.0232   51.9974   29.1571 O   0  0  0  0  0  0  0  0  0  0  0  0
   45.6653   56.9270   18.3157 N   0  0  0  0  0  0  0  0  0  0  0  0
   47.0347   56.8122   18.4446 C   0  0  0  0  0  0  0  0  0  0  0  0
   47.5803   55.9268   19.3560 N   0  0  0  0  0  0  0  0  0  0  0  0
   46.7816   55.1680   20.1382 C   0  0  0  0  0  0  0  0  0  0  0  0
   45.4027   55.2617   20.0206 C   0  0  0  0  0  0  0  0  0  0  0  0
   44.8442   56.1511   19.1064 C   0  0  0  0  0  0  0  0  0  0  0  0
   43.5237   56.2593   18.9846 N   0  0  0  0  0  0  0  0  0  0  0  0
   44.8566   54.3940   20.9015 N   0  0  0  0  0  0  0  0  0  0  0  0
   45.8519   53.7505   21.5556 C   0  0  0  0  0  0  0  0  0  0  0  0
   47.0530   54.2205   21.0927 N   0  0  0  0  0  0  0  0  0  0  0  0
  2  1  1  6  0  0  0
  2  3  1  0  0  0  0
  2  5  1  0  0  0  0
  3  4  1  0  0  0  0
  3 17  1  0  0  0  0
  5  6  1  0  0  0  0
  7  6  1  1  0  0  0
  7  8  1  0  0  0  0
  7  9  1  0  0  0  0
 10  9  1  1  0  0  0
 10 11  1  0  0  0  0
 10 12  1  0  0  0  0
 11 16  1  0  0  0  0
 12 13  1  6  0  0  0
 12 14  1  0  0  0  0
 14 15  1  6  0  0  0
 14 16  1  0  0  0  0
 16 27  1  1  0  0  0
 18 19  2  0  0  0  0
 18 23  1  0  0  0  0
 19 20  1  0  0  0  0
 20 21  2  0  0  0  0
 21 22  1  0  0  0  0
 21 27  1  0  0  0  0
 22 23  2  0  0  0  0
 22 25  1  0  0  0  0
 23 24  1  0  0  0  0
 25 26  2  0  0  0  0
 26 27  1  0  0  0  0
M  END
>  <CHROM.1>
-97.26095733,-84.24182328,63.12046640,175.42591789,163.47645833,70.68381084
152.76639989,47.28752143,54.06603162,23.49279096,1.57671025,-0.10005421,1.93180819

>  <Name>
ligand

>  <RI>
0

>  <Rbt.Current_Directory>
/home/itssahil/PROJECTS/Mol_Feturizer/New_Systems/rnas/3GX7

>  <Rbt.Executable>
rbdock ($Id: //depot/dev/client3/rdock/2013.1/src/exe/rbdock.cxx#4 $)

>  <Rbt.Library>
libRbt.so (2013.1, Build901 2013/11/27)

>  <Rbt.Parameter_File>
/export/apps/rDock/src/rDock_2013.1_src/data/scripts/dock_solv.prm

>  <Rbt.Receptor>
prm/blind_docking_80.prm

>  <SCORE>
-19.009

>  <SCORE.INTER>
-15.3362

>  <SCORE.INTER.CONST>
1

>  <SCORE.INTER.POLAR>
0

>  <SCORE.INTER.ROT>
7

>  <SCORE.INTER.SOLV>
18.2532

>  <SCORE.INTER.VDW>
-24.5752

>  <SCORE.INTER.norm>
-0.568006

>  <SCORE.INTRA>
-3.67286

>  <SCORE.INTRA.DIHEDRAL>
-5.3451

>  <SCORE.INTRA.DIHEDRAL.0>
11.2699

>  <SCORE.INTRA.POLAR>
0

>  <SCORE.INTRA.POLAR.0>
0

>  <SCORE.INTRA.REPUL>
0

>  <SCORE.INTRA.REPUL.0>
0

>  <SCORE.INTRA.SOLV>
1.04516

>  <SCORE.INTRA.SOLV.lig_0>
-48.6447

>  <SCORE.INTRA.VDW>
-1.52289

>  <SCORE.INTRA.VDW.0>
-0.0211724

>  <SCORE.INTRA.norm>
-0.136032

>  <SCORE.RESTR>
0

>  <SCORE.RESTR.CAVITY>
0

>  <SCORE.RESTR.norm>
0

>  <SCORE.SYSTEM>
0

>  <SCORE.SYSTEM.CONST>
0

>  <SCORE.SYSTEM.DIHEDRAL>
0

>  <SCORE.SYSTEM.SOLV>
0

>  <SCORE.SYSTEM.norm>
0

>  <SCORE.heavy>
27

>  <SCORE.norm>
-0.704038

>  <RMSD>
10.595

$$$$
ligand
 OpenBabel11021811483D
libRbt.so/2013.1/901 2013/11/27
 27 29  0  0  0  0  0  0  0  0999 V2000
   48.4884   54.5785   29.9129 N   0  0  0  0  0  0  0  0  0  0  0  0
   47.5662   54.2883   28.8217 C   0  0  2  0  0  0  0  0  0  0  0  0
   46.1505   54.6965   29.1943 C   0  0  0  0  0  0  0  0  0  0  0  0
   45.6804   54.3841   30.2857 O   0  0  0  0  0  0  0  0  0  0  0  0
   47.6054   52.8145   28.4202 C   0  0  0  0  0  0  0  0  0  0  0  0
   46.6507   52.4322   27.2955 C   0  0  0  0  0  0  0  0  0  0  0  0
   46.8879   53.3647   25.7574 S   0  0  2  0  0  0  0  0  0  0  0  0
   45.9526   52.3517   24.5852 C   0  0  0  0  0  0  0  0  0  0  0  0
   48.5821   52.8760   25.3397 C   0  0  0  0  0  0  0  0  0  0  0  0
   49.0991   53.7388   24.1982 C   0  0  1  0  0  0  0  0  0  0  0  0
   50.4884   53.5413   24.0922 O   0  0  0  0  0  0  0  0  0  0  0  0
   48.5462   53.3763   22.8346 C   0  0  1  0  0  0  0  0  0  0  0  0
   47.4703   54.2199   22.5036 O   0  0  0  0  0  0  0  0  0  0  0  0
   49.7200   53.6084   21.9004 C   0  0  1  0  0  0  0  0  0  0  0  0
   49.5129   54.8018   21.1825 O   0  0  0  0  0  0  0  0  0  0  0  0
   50.9552   53.7411   22.7824 C   0  0  2  0  0  0  0  0  0  0  0  0
   45.4560   55.3485   28.4138 O   0  0  0  0  0  0  0  0  0  0  0  0
   53.5700   49.5237   24.5318 N   0  0  0  0  0  0  0  0  0  0  0  0
   52.7002   50.3399   25.2262 C   0  0  0  0  0  0  0  0  0  0  0  0
   52.0984   51.4157   24.5992 N   0  0  0  0  0  0  0  0  0  0  0  0
   52.3593   51.6876   23.3017 C   0  0  0  0  0  0  0  0  0  0  0  0
   53.2246   50.8765   22.5826 C   0  0  0  0  0  0  0  0  0  0  0  0
   53.8359   49.7917   23.2056 C   0  0  0  0  0  0  0  0  0  0  0  0
   54.6740   49.0067   22.5334 N   0  0  0  0  0  0  0  0  0  0  0  0
   53.2927   51.3645   21.3239 N   0  0  0  0  0  0  0  0  0  0  0  0
   52.4852   52.4471   21.2305 C   0  0  0  0  0  0  0  0  0  0  0  0
   51.8989   52.6603   22.4506 N   0  0  0  0  0  0  0  0  0  0  0  0
  2  1  1  1  0  0  0
  2  3  1  0  0  0  0
  2  5  1  0  0  0  0
  3  4  1  0  0  0  0
  3 17  1  0  0  0  0
  5  6  1  0  0  0  0
  7  6  1  1  0  0  0
  7  8  1  0  0  0  0
  7  9  1  0  0  0  0
 10  9  1  1  0  0  0
 10 11  1  0  0  0  0
 10 12  1  0  0  0  0
 11 16  1  0  0  0  0
 12 13  1  6  0  0  0
 12 14  1  0  0  0  0
 14 15  1  1  0  0  0
 14 16  1  0  0  0  0
 16 27  1  6  0  0  0
 18 19  2  0  0  0  0
 18 23  1  0  0  0  0
 19 20  1  0  0  0  0
 20 21  2  0  0  0  0
 21 22  1  0  0  0  0
 21 27  1  0  0  0  0
 22 23  2  0  0  0  0
 22 25  1  0  0  0  0
 23 24  1  0  0  0  0
 25 26  2  0  0  0  0
 26 27  1  0  0  0  0
M  END
>  <CHROM.1>
-47.01557179,179.18599806,57.50109776,164.88997890,-169.84243758,167.43451344
-5.85251849,49.56116490,52.80745081,24.84696146,-2.57284388,0.57181389,-1.34798909

>  <Name>
ligand

>  <RI>
0

>  <Rbt.Current_Directory>
/home/itssahil/PROJECTS/Mol_Feturizer/New_Systems/rnas/3GX7

>  <Rbt.Executable>
rbdock ($Id: //depot/dev/client3/rdock/2013.1/src/exe/rbdock.cxx#4 $)

>  <Rbt.Library>
libRbt.so (2013.1, Build901 2013/11/27)

>  <Rbt.Parameter_File>
/export/apps/rDock/src/rDock_2013.1_src/data/scripts/dock_solv.prm

>  <Rbt.Receptor>
prm/blind_docking_80.prm

>  <SCORE>
-16.4347

>  <SCORE.INTER>
-10.3104

>  <SCORE.INTER.CONST>
1

>  <SCORE.INTER.POLAR>
0

>  <SCORE.INTER.ROT>
7

>  <SCORE.INTER.SOLV>
7.73931

>  <SCORE.INTER.VDW>
-17.72

>  <SCORE.INTER.norm>
-0.381866

>  <SCORE.INTRA>
-6.12428

>  <SCORE.INTRA.DIHEDRAL>
-6.48702

>  <SCORE.INTRA.DIHEDRAL.0>
11.2699

>  <SCORE.INTRA.POLAR>
0

>  <SCORE.INTRA.POLAR.0>
0

>  <SCORE.INTRA.REPUL>
0

>  <SCORE.INTRA.REPUL.0>
0

>  <SCORE.INTRA.SOLV>
-0.681987

>  <SCORE.INTRA.SOLV.lig_0>
-48.6447

>  <SCORE.INTRA.VDW>
-2.53978

>  <SCORE.INTRA.VDW.0>
-0.0211724

>  <SCORE.INTRA.norm>
-0.226825

>  <SCORE.RESTR>
0

>  <SCORE.RESTR.CAVITY>
0

>  <SCORE.RESTR.norm>
0

>  <SCORE.SYSTEM>
0

>  <SCORE.SYSTEM.CONST>
0

>  <SCORE.SYSTEM.DIHEDRAL>
0

>  <SCORE.SYSTEM.SOLV>
0

>  <SCORE.SYSTEM.norm>
0

>  <SCORE.heavy>
27

>  <SCORE.norm>
-0.608691

>  <RMSD>
10.658

$$$$
ligand
 OpenBabel11021811483D
libRbt.so/2013.1/901 2013/11/27
 27 29  0  0  0  0  0  0  0  0999 V2000
   48.4740   57.1614   29.1084 N   0  0  0  0  0  0  0  0  0  0  0  0
   47.6958   57.8317   28.0736 C   0  0  2  0  0  0  0  0  0  0  0  0
   46.2117   57.7691   28.3947 C   0  0  0  0  0  0  0  0  0  0  0  0
   45.5605   58.8026   28.5274 O   0  0  0  0  0  0  0  0  0  0  0  0
   47.9647   57.2441   26.6890 C   0  0  0  0  0  0  0  0  0  0  0  0
   47.8669   55.7253   26.6086 C   0  0  0  0  0  0  0  0  0  0  0  0
   47.7190   55.0689   24.9238 S   0  0  2  0  0  0  0  0  0  0  0  0
   47.4268   53.3140   25.2554 C   0  0  0  0  0  0  0  0  0  0  0  0
   49.4640   55.0281   24.4370 C   0  0  0  0  0  0  0  0  0  0  0  0
   49.5729   54.8626   22.9286 C   0  0  1  0  0  0  0  0  0  0  0  0
   50.9171   54.5921   22.6119 O   0  0  0  0  0  0  0  0  0  0  0  0
   48.7939   53.6908   22.3658 C   0  0  1  0  0  0  0  0  0  0  0  0
   47.5533   54.1247   21.8643 O   0  0  0  0  0  0  0  0  0  0  0  0
   49.6794   53.1794   21.2439 C   0  0  1  0  0  0  0  0  0  0  0  0
   49.1342   53.5722   20.0065 O   0  0  0  0  0  0  0  0  0  0  0  0
   51.0437   53.8288   21.4394 C   0  0  2  0  0  0  0  0  0  0  0  0
   45.6389   56.6864   28.5218 O   0  0  0  0  0  0  0  0  0  0  0  0
   52.9220   50.2352   24.7923 N   0  0  0  0  0  0  0  0  0  0  0  0
   51.8665   51.1058   24.9739 C   0  0  0  0  0  0  0  0  0  0  0  0
   51.5099   51.9919   23.9739 N   0  0  0  0  0  0  0  0  0  0  0  0
   52.1940   52.0237   22.8092 C   0  0  0  0  0  0  0  0  0  0  0  0
   53.2536   51.1530   22.6023 C   0  0  0  0  0  0  0  0  0  0  0  0
   53.6205   50.2579   23.6037 C   0  0  0  0  0  0  0  0  0  0  0  0
   54.6385   49.4199   23.4255 N   0  0  0  0  0  0  0  0  0  0  0  0
   53.7426   51.3897   21.3646 N   0  0  0  0  0  0  0  0  0  0  0  0
   53.0118   52.3716   20.7861 C   0  0  0  0  0  0  0  0  0  0  0  0
   52.0467   52.7756   21.6710 N   0  0  0  0  0  0  0  0  0  0  0  0
  2  1  1  1  0  0  0
  2  3  1  0  0  0  0
  2  5  1  0  0  0  0
  3  4  1  0  0  0  0
  3 17  1  0  0  0  0
  5  6  1  0  0  0  0
  7  6  1  1  0  0  0
  7  8  1  0  0  0  0
  7  9  1  0  0  0  0
 10  9  1  1  0  0  0
 10 11  1  0  0  0  0
 10 12  1  0  0  0  0
 11 16  1  0  0  0  0
 12 13  1  6  0  0  0
 12 14  1  0  0  0  0
 14 15  1  6  0  0  0
 14 16  1  0  0  0  0
 16 27  1  1  0  0  0
 18 19  2  0  0  0  0
 18 23  1  0  0  0  0
 19 20  1  0  0  0  0
 20 21  2  0  0  0  0
 21 22  1  0  0  0  0
 21 27  1  0  0  0  0
 22 23  2  0  0  0  0
 22 25  1  0  0  0  0
 23 24  1  0  0  0  0
 25 26  2  0  0  0  0
 26 27  1  0  0  0  0
M  END
>  <CHROM.1>
120.91030711,49.87761605,163.58628141,-173.34804423,-164.84345600,-169.47858656
40.98976586,49.76942065,54.02646076,24.24786806,-2.47405685,0.69843649,-1.70417087

>  <Name>
ligand

>  <RI>
0

>  <Rbt.Current_Directory>
/home/itssahil/PROJECTS/Mol_Feturizer/New_Systems/rnas/3GX7

>  <Rbt.Executable>
rbdock ($Id: //depot/dev/client3/rdock/2013.1/src/exe/rbdock.cxx#4 $)

>  <Rbt.Library>
libRbt.so (2013.1, Build901 2013/11/27)

>  <Rbt.Parameter_File>
/export/apps/rDock/src/rDock_2013.1_src/data/scripts/dock_solv.prm

>  <Rbt.Receptor>
prm/blind_docking_100.prm

>  <SCORE>
-18.2912

>  <SCORE.INTER>
-13.4276

>  <SCORE.INTER.CONST>
1

>  <SCORE.INTER.POLAR>
0

>  <SCORE.INTER.ROT>
7

>  <SCORE.INTER.SOLV>
9.67814

>  <SCORE.INTER.VDW>
-20.4445

>  <SCORE.INTER.norm>
-0.49732

>  <SCORE.INTRA>
-4.86355

>  <SCORE.INTRA.DIHEDRAL>
-4.24808

>  <SCORE.INTRA.DIHEDRAL.0>
11.2699

>  <SCORE.INTRA.POLAR>
0

>  <SCORE.INTRA.POLAR.0>
0

>  <SCORE.INTRA.REPUL>
0

>  <SCORE.INTRA.REPUL.0>
0

>  <SCORE.INTRA.SOLV>
-0.0470544

>  <SCORE.INTRA.SOLV.lig_0>
-48.6447

>  <SCORE.INTRA.VDW>
-2.71598

>  <SCORE.INTRA.VDW.0>
-0.0211724

>  <SCORE.INTRA.norm>
-0.180131

>  <SCORE.RESTR>
0

>  <SCORE.RESTR.CAVITY>
0

>  <SCORE.RESTR.norm>
0

>  <SCORE.SYSTEM>
0

>  <SCORE.SYSTEM.CONST>
0

>  <SCORE.SYSTEM.DIHEDRAL>
0

>  <SCORE.SYSTEM.SOLV>
0

>  <SCORE.SYSTEM.norm>
0

>  <SCORE.heavy>
27

>  <SCORE.norm>
-0.677451

>  <RMSD>
10.743

$$$$
ligand
 OpenBabel11021811483D
libRbt.so/2013.1/901 2013/11/27
 27 29  0  0  0  0  0  0  0  0999 V2000
   47.4563   52.2339   29.6282 N   0  0  0  0  0  0  0  0  0  0  0  0
   48.8950   52.4503   29.7211 C   0  0  2  0  0  0  0  0  0  0  0  0
   49.2304   53.3088   30.9294 C   0  0  0  0  0  0  0  0  0  0  0  0
   50.3915   53.6453   31.1497 O   0  0  0  0  0  0  0  0  0  0  0  0
   49.4589   53.0811   28.4487 C   0  0  0  0  0  0  0  0  0  0  0  0
   48.7657   54.3654   28.0099 C   0  0  0  0  0  0  0  0  0  0  0  0
   49.4255   55.0934   26.4847 S   0  0  2  0  0  0  0  0  0  0  0  0
   48.2222   56.4091   26.1749 C   0  0  0  0  0  0  0  0  0  0  0  0
   48.8845   53.8576   25.2748 C   0  0  0  0  0  0  0  0  0  0  0  0
   49.2304   54.3282   23.8700 C   0  0  1  0  0  0  0  0  0  0  0  0
   50.6086   54.1297   23.6668 O   0  0  0  0  0  0  0  0  0  0  0  0
   48.5540   53.5487   22.7603 C   0  0  1  0  0  0  0  0  0  0  0  0
   47.4064   54.2293   22.3145 O   0  0  0  0  0  0  0  0  0  0  0  0
   49.6071   53.4957   21.6683 C   0  0  1  0  0  0  0  0  0  0  0  0
   49.2624   54.4013   20.6467 O   0  0  0  0  0  0  0  0  0  0  0  0
   50.9212   53.9172   22.3138 C   0  0  2  0  0  0  0  0  0  0  0  0
   48.3474   53.6837   31.7015 O   0  0  0  0  0  0  0  0  0  0  0  0
   53.1562   49.8540   24.7996 N   0  0  0  0  0  0  0  0  0  0  0  0
   52.2127   50.7383   25.2821 C   0  0  0  0  0  0  0  0  0  0  0  0
   51.7335   51.7576   24.4797 N   0  0  0  0  0  0  0  0  0  0  0  0
   52.1876   51.9072   23.2160 C   0  0  0  0  0  0  0  0  0  0  0  0
   53.1304   51.0259   22.7080 C   0  0  0  0  0  0  0  0  0  0  0  0
   53.6194   49.9971   23.5087 C   0  0  0  0  0  0  0  0  0  0  0  0
   54.5289   49.1463   23.0406 N   0  0  0  0  0  0  0  0  0  0  0  0
   53.3930   51.3960   21.4348 N   0  0  0  0  0  0  0  0  0  0  0  0
   52.6324   52.4728   21.1268 C   0  0  0  0  0  0  0  0  0  0  0  0
   51.8788   52.8021   22.2229 N   0  0  0  0  0  0  0  0  0  0  0  0
  2  1  1  6  0  0  0
  2  3  1  0  0  0  0
  2  5  1  0  0  0  0
  3  4  1  0  0  0  0
  3 17  1  0  0  0  0
  5  6  1  0  0  0  0
  7  6  1  1  0  0  0
  7  8  1  0  0  0  0
  7  9  1  0  0  0  0
 10  9  1  1  0  0  0
 10 11  1  0  0  0  0
 10 12  1  0  0  0  0
 11 16  1  0  0  0  0
 12 13  1  6  0  0  0
 12 14  1  0  0  0  0
 14 15  1  6  0  0  0
 14 16  1  0  0  0  0
 16 27  1  1  0  0  0
 18 19  2  0  0  0  0
 18 23  1  0  0  0  0
 19 20  1  0  0  0  0
 20 21  2  0  0  0  0
 21 22  1  0  0  0  0
 21 27  1  0  0  0  0
 22 23  2  0  0  0  0
 22 25  1  0  0  0  0
 23 24  1  0  0  0  0
 25 26  2  0  0  0  0
 26 27  1  0  0  0  0
M  END
>  <CHROM.1>
-177.19945481,53.71982021,-179.12202402,172.02449344,175.05245015,76.72820161
14.19310697,50.36029714,53.03505436,25.18005587,-2.11939967,0.74471461,-1.40809320

>  <Name>
ligand

>  <RI>
0

>  <Rbt.Current_Directory>
/home/itssahil/PROJECTS/Mol_Feturizer/New_Systems/rnas/3GX7

>  <Rbt.Executable>
rbdock ($Id: //depot/dev/client3/rdock/2013.1/src/exe/rbdock.cxx#4 $)

>  <Rbt.Library>
libRbt.so (2013.1, Build901 2013/11/27)

>  <Rbt.Parameter_File>
/export/apps/rDock/src/rDock_2013.1_src/data/scripts/dock_solv.prm

>  <Rbt.Receptor>
prm/blind_docking_100.prm

>  <SCORE>
-17.3158

>  <SCORE.INTER>
-11.3589

>  <SCORE.INTER.CONST>
1

>  <SCORE.INTER.POLAR>
0

>  <SCORE.INTER.ROT>
7

>  <SCORE.INTER.SOLV>
11.6333

>  <SCORE.INTER.VDW>
-19.717

>  <SCORE.INTER.norm>
-0.420701

>  <SCORE.INTRA>
-5.9569

>  <SCORE.INTRA.DIHEDRAL>
-6.94737

>  <SCORE.INTRA.DIHEDRAL.0>
11.2699

>  <SCORE.INTRA.POLAR>
0

>  <SCORE.INTRA.POLAR.0>
0

>  <SCORE.INTRA.REPUL>
0

>  <SCORE.INTRA.REPUL.0>
0

>  <SCORE.INTRA.SOLV>
-0.366814

>  <SCORE.INTRA.SOLV.lig_0>
-48.6447

>  <SCORE.INTRA.VDW>
-2.29981

>  <SCORE.INTRA.VDW.0>
-0.0211724

>  <SCORE.INTRA.norm>
-0.220626

>  <SCORE.RESTR>
0

>  <SCORE.RESTR.CAVITY>
0

>  <SCORE.RESTR.norm>
0

>  <SCORE.SYSTEM>
0

>  <SCORE.SYSTEM.CONST>
0

>  <SCORE.SYSTEM.DIHEDRAL>
0

>  <SCORE.SYSTEM.SOLV>
0

>  <SCORE.SYSTEM.norm>
0

>  <SCORE.heavy>
27

>  <SCORE.norm>
-0.641327

>  <RMSD>
10.798

$$$$
ligand
 OpenBabel11021811483D
libRbt.so/2013.1/901 2013/11/27
 27 29  0  0  0  0  0  0  0  0999 V2000
   45.4450   52.6475   29.5937 N   0  0  0  0  0  0  0  0  0  0  0  0
   46.8944   52.4926   29.6229 C   0  0  2  0  0  0  0  0  0  0  0  0
   47.4850   53.2065   30.8276 C   0  0  0  0  0  0  0  0  0  0  0  0
   47.1057   54.3358   31.1283 O   0  0  0  0  0  0  0  0  0  0  0  0
   47.5465   52.9952   28.3356 C   0  0  0  0  0  0  0  0  0  0  0  0
   49.0641   52.8627   28.2933 C   0  0  0  0  0  0  0  0  0  0  0  0
   49.8600   53.7580   26.9308 S   0  0  2  0  0  0  0  0  0  0  0  0
   49.1056   55.3944   27.0983 C   0  0  0  0  0  0  0  0  0  0  0  0
   48.9247   53.1043   25.5230 C   0  0  0  0  0  0  0  0  0  0  0  0
   49.3218   53.8443   24.2543 C   0  0  1  0  0  0  0  0  0  0  0  0
   50.7010   53.6554   24.0486 O   0  0  0  0  0  0  0  0  0  0  0  0
   48.6625   53.3276   22.9914 C   0  0  1  0  0  0  0  0  0  0  0  0
   47.5430   54.1154   22.6674 O   0  0  0  0  0  0  0  0  0  0  0  0
   49.7461   53.4724   21.9383 C   0  0  1  0  0  0  0  0  0  0  0  0
   49.4508   54.5774   21.1171 O   0  0  0  0  0  0  0  0  0  0  0  0
   51.0491   53.7173   22.6891 C   0  0  2  0  0  0  0  0  0  0  0  0
   48.3460   52.6652   31.5219 O   0  0  0  0  0  0  0  0  0  0  0  0
   53.5577   49.4843   24.5525 N   0  0  0  0  0  0  0  0  0  0  0  0
   52.6819   50.3206   25.2150 C   0  0  0  0  0  0  0  0  0  0  0  0
   52.1119   51.3973   24.5607 N   0  0  0  0  0  0  0  0  0  0  0  0
   52.4099   51.6506   23.2675 C   0  0  0  0  0  0  0  0  0  0  0  0
   53.2819   50.8193   22.5801 C   0  0  0  0  0  0  0  0  0  0  0  0
   53.8614   49.7333   23.2308 C   0  0  0  0  0  0  0  0  0  0  0  0
   54.7052   48.9290   22.5893 N   0  0  0  0  0  0  0  0  0  0  0  0
   53.3893   51.2918   21.3182 N   0  0  0  0  0  0  0  0  0  0  0  0
   52.5999   52.3844   21.1918 C   0  0  0  0  0  0  0  0  0  0  0  0
   51.9856   52.6198   22.3939 N   0  0  0  0  0  0  0  0  0  0  0  0
  2  1  1  6  0  0  0
  2  3  1  0  0  0  0
  2  5  1  0  0  0  0
  3  4  1  0  0  0  0
  3 17  1  0  0  0  0
  5  6  1  0  0  0  0
  7  6  1  1  0  0  0
  7  8  1  0  0  0  0
  7  9  1  0  0  0  0
 10  9  1  1  0  0  0
 10 11  1  0  0  0  0
 10 12  1  0  0  0  0
 11 16  1  0  0  0  0
 12 13  1  6  0  0  0
 12 14  1  0  0  0  0
 14 15  1  6  0  0  0
 14 16  1  0  0  0  0
 16 27  1  1  0  0  0
 18 19  2  0  0  0  0
 18 23  1  0  0  0  0
 19 20  1  0  0  0  0
 20 21  2  0  0  0  0
 21 22  1  0  0  0  0
 21 27  1  0  0  0  0
 22 23  2  0  0  0  0
 22 25  1  0  0  0  0
 23 24  1  0  0  0  0
 25 26  2  0  0  0  0
 26 27  1  0  0  0  0
M  END
>  <CHROM.1>
-44.29893026,-179.90881951,-168.08897779,49.75394010,173.60892148,59.83090499
2.89181923,50.14919149,52.67176005,25.31169715,2.36207992,-0.67036410,1.87517784

>  <Name>
ligand

>  <RI>
0

>  <Rbt.Current_Directory>
/home/itssahil/PROJECTS/Mol_Feturizer/New_Systems/rnas/3GX7

>  <Rbt.Executable>
rbdock ($Id: //depot/dev/client3/rdock/2013.1/src/exe/rbdock.cxx#4 $)

>  <Rbt.Library>
libRbt.so (2013.1, Build901 2013/11/27)

>  <Rbt.Parameter_File>
/export/apps/rDock/src/rDock_2013.1_src/data/scripts/dock_solv.prm

>  <Rbt.Receptor>
prm/blind_docking_80.prm

>  <SCORE>
-14.8478

>  <SCORE.INTER>
-9.20713

>  <SCORE.INTER.CONST>
1

>  <SCORE.INTER.POLAR>
0

>  <SCORE.INTER.ROT>
7

>  <SCORE.INTER.SOLV>
10.7552

>  <SCORE.INTER.VDW>
-17.9898

>  <SCORE.INTER.norm>
-0.341005

>  <SCORE.INTRA>
-5.64067

>  <SCORE.INTRA.DIHEDRAL>
-7.56665

>  <SCORE.INTRA.DIHEDRAL.0>
11.2699

>  <SCORE.INTRA.POLAR>
0

>  <SCORE.INTRA.POLAR.0>
0

>  <SCORE.INTRA.REPUL>
0

>  <SCORE.INTRA.REPUL.0>
0

>  <SCORE.INTRA.SOLV>
-1.05335

>  <SCORE.INTRA.SOLV.lig_0>
-48.6447

>  <SCORE.INTRA.VDW>
-1.33067

>  <SCORE.INTRA.VDW.0>
-0.0211724

>  <SCORE.INTRA.norm>
-0.208914

>  <SCORE.RESTR>
0

>  <SCORE.RESTR.CAVITY>
0

>  <SCORE.RESTR.norm>
0

>  <SCORE.SYSTEM>
0

>  <SCORE.SYSTEM.CONST>
0

>  <SCORE.SYSTEM.DIHEDRAL>
0

>  <SCORE.SYSTEM.SOLV>
0

>  <SCORE.SYSTEM.norm>
0

>  <SCORE.heavy>
27

>  <SCORE.norm>
-0.549919

>  <RMSD>
10.813

$$$$
ligand
 OpenBabel11021811483D
libRbt.so/2013.1/901 2013/11/27
 27 29  0  0  0  0  0  0  0  0999 V2000
   48.3919   57.4749   29.6457 N   0  0  0  0  0  0  0  0  0  0  0  0
   48.4195   57.7698   28.2182 C   0  0  2  0  0  0  0  0  0  0  0  0
   47.0833   58.3318   27.7617 C   0  0  0  0  0  0  0  0  0  0  0  0
   46.9824   58.8848   26.6690 O   0  0  0  0  0  0  0  0  0  0  0  0
   48.7890   56.5400   27.3901 C   0  0  0  0  0  0  0  0  0  0  0  0
   50.1435   55.9268   27.7247 C   0  0  0  0  0  0  0  0  0  0  0  0
   50.4375   54.2991   26.9795 S   0  0  2  0  0  0  0  0  0  0  0  0
   51.9127   53.7623   27.8798 C   0  0  0  0  0  0  0  0  0  0  0  0
   51.1749   54.7938   25.3998 C   0  0  0  0  0  0  0  0  0  0  0  0
   50.0759   55.0951   24.3919 C   0  0  1  0  0  0  0  0  0  0  0  0
   50.6761   55.3036   23.1362 O   0  0  0  0  0  0  0  0  0  0  0  0
   49.0936   53.9619   24.1736 C   0  0  1  0  0  0  0  0  0  0  0  0
   47.9371   54.1618   24.9492 O   0  0  0  0  0  0  0  0  0  0  0  0
   48.7710   54.0494   22.6929 C   0  0  1  0  0  0  0  0  0  0  0  0
   47.4893   54.6088   22.5293 O   0  0  0  0  0  0  0  0  0  0  0  0
   49.8199   54.9656   22.0751 C   0  0  2  0  0  0  0  0  0  0  0  0
   46.0832   58.2384   28.4740 O   0  0  0  0  0  0  0  0  0  0  0  0
   51.0861   54.4549   16.9938 N   0  0  0  0  0  0  0  0  0  0  0  0
   50.2522   55.3866   17.5784 C   0  0  0  0  0  0  0  0  0  0  0  0
   50.0319   55.3699   18.9435 N   0  0  0  0  0  0  0  0  0  0  0  0
   50.6226   54.4373   19.7226 C   0  0  0  0  0  0  0  0  0  0  0  0
   51.4700   53.4959   19.1574 C   0  0  0  0  0  0  0  0  0  0  0  0
   51.6973   53.5043   17.7838 C   0  0  0  0  0  0  0  0  0  0  0  0
   52.5017   52.6048   17.2233 N   0  0  0  0  0  0  0  0  0  0  0  0
   51.9259   52.7045   20.1539 N   0  0  0  0  0  0  0  0  0  0  0  0
   51.4008   53.1316   21.3264 C   0  0  0  0  0  0  0  0  0  0  0  0
   50.5893   54.2067   21.0747 N   0  0  0  0  0  0  0  0  0  0  0  0
  2  1  1  1  0  0  0
  2  3  1  0  0  0  0
  2  5  1  0  0  0  0
  3  4  1  0  0  0  0
  3 17  1  0  0  0  0
  5  6  1  0  0  0  0
  7  6  1  1  0  0  0
  7  8  1  0  0  0  0
  7  9  1  0  0  0  0
 10  9  1  1  0  0  0
 10 11  1  0  0  0  0
 10 12  1  0  0  0  0
 11 16  1  0  0  0  0
 12 13  1  1  0  0  0
 12 14  1  0  0  0  0
 14 15  1  1  0  0  0
 14 16  1  0  0  0  0
 16 27  1  6  0  0  0
 18 19  2  0  0  0  0
 18 23  1  0  0  0  0
 19 20  1  0  0  0  0
 20 21  2  0  0  0  0
 21 22  1  0  0  0  0
 21 27  1  0  0  0  0
 22 23  2  0  0  0  0
 22 25  1  0  0  0  0
 23 24  1  0  0  0  0
 25 26  2  0  0  0  0
 26 27  1  0  0  0  0
M  END
>  <CHROM.1>
165.59922026,-58.83633554,168.68576082,-167.85486603,-84.85454872,-172.40953025
-130.98316519,49.78224253,55.09113697,23.63548098,-1.95195869,0.74865674
-1.61767141

>  <Name>
ligand

>  <RI>
0

>  <Rbt.Current_Directory>
/home/itssahil/PROJECTS/Mol_Feturizer/New_Systems/rnas/3GX7

>  <Rbt.Executable>
rbdock ($Id: //depot/dev/client3/rdock/2013.1/src/exe/rbdock.cxx#4 $)

>  <Rbt.Library>
libRbt.so (2013.1, Build901 2013/11/27)

>  <Rbt.Parameter_File>
/export/apps/rDock/src/rDock_2013.1_src/data/scripts/dock_solv.prm

>  <Rbt.Receptor>
prm/blind_docking_100.prm

>  <SCORE>
-17.4985

>  <SCORE.INTER>
-12.0805

>  <SCORE.INTER.CONST>
1

>  <SCORE.INTER.POLAR>
0

>  <SCORE.INTER.ROT>
7

>  <SCORE.INTER.SOLV>
12.375

>  <SCORE.INTER.VDW>
-20.4453

>  <SCORE.INTER.norm>
-0.447425

>  <SCORE.INTRA>
-5.41807

>  <SCORE.INTRA.DIHEDRAL>
-5.52028

>  <SCORE.INTRA.DIHEDRAL.0>
11.2699

>  <SCORE.INTRA.POLAR>
0

>  <SCORE.INTRA.POLAR.0>
0

>  <SCORE.INTRA.REPUL>
0

>  <SCORE.INTRA.REPUL.0>
0

>  <SCORE.INTRA.SOLV>
-0.0998043

>  <SCORE.INTRA.SOLV.lig_0>
-48.6447

>  <SCORE.INTRA.VDW>
-2.60803

>  <SCORE.INTRA.VDW.0>
-0.0211724

>  <SCORE.INTRA.norm>
-0.200669

>  <SCORE.RESTR>
0

>  <SCORE.RESTR.CAVITY>
0

>  <SCORE.RESTR.norm>
0

>  <SCORE.SYSTEM>
0

>  <SCORE.SYSTEM.CONST>
0

>  <SCORE.SYSTEM.DIHEDRAL>
0

>  <SCORE.SYSTEM.SOLV>
0

>  <SCORE.SYSTEM.norm>
0

>  <SCORE.heavy>
27

>  <SCORE.norm>
-0.648094

>  <RMSD>
10.852

$$$$
ligand
 OpenBabel11021811483D
libRbt.so/2013.1/901 2013/11/27
 27 29  0  0  0  0  0  0  0  0999 V2000
   46.8237   54.9887   28.9700 N   0  0  0  0  0  0  0  0  0  0  0  0
   46.3411   53.9945   28.0192 C   0  0  2  0  0  0  0  0  0  0  0  0
   45.8327   52.7606   28.7463 C   0  0  0  0  0  0  0  0  0  0  0  0
   44.8208   52.1825   28.3568 O   0  0  0  0  0  0  0  0  0  0  0  0
   47.4168   53.6076   27.0052 C   0  0  0  0  0  0  0  0  0  0  0  0
   47.8205   54.7201   26.0450 C   0  0  0  0  0  0  0  0  0  0  0  0
   49.1427   54.2714   24.8866 S   0  0  2  0  0  0  0  0  0  0  0  0
   50.6129   54.7231   25.8403 C   0  0  0  0  0  0  0  0  0  0  0  0
   49.0527   55.6676   23.7349 C   0  0  0  0  0  0  0  0  0  0  0  0
   49.1448   55.1597   22.3037 C   0  0  1  0  0  0  0  0  0  0  0  0
   50.4911   54.8536   22.0317 O   0  0  0  0  0  0  0  0  0  0  0  0
   48.3893   53.8723   22.0425 C   0  0  1  0  0  0  0  0  0  0  0  0
   47.1307   54.1502   21.4789 O   0  0  0  0  0  0  0  0  0  0  0  0
   49.2722   53.1351   21.0519 C   0  0  1  0  0  0  0  0  0  0  0  0
   48.6996   53.2183   19.7682 O   0  0  0  0  0  0  0  0  0  0  0  0
   50.6215   53.8426   21.0651 C   0  0  2  0  0  0  0  0  0  0  0  0
   46.4266   52.3191   29.7306 O   0  0  0  0  0  0  0  0  0  0  0  0
   52.2736   50.6746   24.9275 N   0  0  0  0  0  0  0  0  0  0  0  0
   51.1446   51.4680   24.8955 C   0  0  0  0  0  0  0  0  0  0  0  0
   50.8661   52.2448   23.7858 N   0  0  0  0  0  0  0  0  0  0  0  0
   51.6985   52.2445   22.7216 C   0  0  0  0  0  0  0  0  0  0  0  0
   52.8350   51.4495   22.7291 C   0  0  0  0  0  0  0  0  0  0  0  0
   53.1242   50.6647   23.8423 C   0  0  0  0  0  0  0  0  0  0  0  0
   54.2133   49.9009   23.8700 N   0  0  0  0  0  0  0  0  0  0  0  0
   53.4702   51.6316   21.5499 N   0  0  0  0  0  0  0  0  0  0  0  0
   52.7578   52.5049   20.7999 C   0  0  0  0  0  0  0  0  0  0  0  0
   51.6551   52.8945   21.5140 N   0  0  0  0  0  0  0  0  0  0  0  0
  2  1  1  1  0  0  0
  2  3  1  0  0  0  0
  2  5  1  0  0  0  0
  3  4  1  0  0  0  0
  3 17  1  0  0  0  0
  5  6  1  0  0  0  0
  7  6  1  1  0  0  0
  7  8  1  0  0  0  0
  7  9  1  0  0  0  0
 10  9  1  1  0  0  0
 10 11  1  0  0  0  0
 10 12  1  0  0  0  0
 11 16  1  0  0  0  0
 12 13  1  6  0  0  0
 12 14  1  0  0  0  0
 14 15  1  6  0  0  0
 14 16  1  0  0  0  0
 16 27  1  1  0  0  0
 18 19  2  0  0  0  0
 18 23  1  0  0  0  0
 19 20  1  0  0  0  0
 20 21  2  0  0  0  0
 21 22  1  0  0  0  0
 21 27  1  0  0  0  0
 22 23  2  0  0  0  0
 22 25  1  0  0  0  0
 23 24  1  0  0  0  0
 25 26  2  0  0  0  0
 26 27  1  0  0  0  0
M  END
>  <CHROM.1>
140.39250590,-66.87427560,177.77231560,-89.03276898,-136.06376769,-77.22079740
53.63324309,49.59194536,53.17200744,24.20158929,-2.42862276,0.54576276,-1.21656632

>  <Name>
ligand

>  <RI>
0

>  <Rbt.Current_Directory>
/home/itssahil/PROJECTS/Mol_Feturizer/New_Systems/rnas/3GX7

>  <Rbt.Executable>
rbdock ($Id: //depot/dev/client3/rdock/2013.1/src/exe/rbdock.cxx#4 $)

>  <Rbt.Library>
libRbt.so (2013.1, Build901 2013/11/27)

>  <Rbt.Parameter_File>
/export/apps/rDock/src/rDock_2013.1_src/data/scripts/dock_solv.prm

>  <Rbt.Receptor>
prm/blind_docking_100.prm

>  <SCORE>
-15.1646

>  <SCORE.INTER>
-10.8024

>  <SCORE.INTER.CONST>
1

>  <SCORE.INTER.POLAR>
0

>  <SCORE.INTER.ROT>
7

>  <SCORE.INTER.SOLV>
8.60109

>  <SCORE.INTER.VDW>
-18.3353

>  <SCORE.INTER.norm>
-0.400087

>  <SCORE.INTRA>
-4.36228

>  <SCORE.INTRA.DIHEDRAL>
-1.60742

>  <SCORE.INTRA.DIHEDRAL.0>
11.2699

>  <SCORE.INTRA.POLAR>
0

>  <SCORE.INTRA.POLAR.0>
0

>  <SCORE.INTRA.REPUL>
0

>  <SCORE.INTRA.REPUL.0>
0

>  <SCORE.INTRA.SOLV>
-0.201529

>  <SCORE.INTRA.SOLV.lig_0>
-48.6447

>  <SCORE.INTRA.VDW>
-3.4578

>  <SCORE.INTRA.VDW.0>
-0.0211724

>  <SCORE.INTRA.norm>
-0.161566

>  <SCORE.RESTR>
0

>  <SCORE.RESTR.CAVITY>
0

>  <SCORE.RESTR.norm>
0

>  <SCORE.SYSTEM>
0

>  <SCORE.SYSTEM.CONST>
0

>  <SCORE.SYSTEM.DIHEDRAL>
0

>  <SCORE.SYSTEM.SOLV>
0

>  <SCORE.SYSTEM.norm>
0

>  <SCORE.heavy>
27

>  <SCORE.norm>
-0.561653

>  <RMSD>
10.892

$$$$
ligand
 OpenBabel11021811483D
libRbt.so/2013.1/901 2013/11/27
 27 29  0  0  0  0  0  0  0  0999 V2000
   45.5944   56.8892   28.1023 N   0  0  0  0  0  0  0  0  0  0  0  0
   46.9778   56.8786   27.6422 C   0  0  2  0  0  0  0  0  0  0  0  0
   47.4629   58.2932   27.3715 C   0  0  0  0  0  0  0  0  0  0  0  0
   48.3707   58.7780   28.0428 O   0  0  0  0  0  0  0  0  0  0  0  0
   47.1574   56.0087   26.3989 C   0  0  0  0  0  0  0  0  0  0  0  0
   48.6049   55.7882   25.9760 C   0  0  0  0  0  0  0  0  0  0  0  0
   48.8328   54.5069   24.7120 S   0  0  2  0  0  0  0  0  0  0  0  0
   48.4089   53.0150   25.6445 C   0  0  0  0  0  0  0  0  0  0  0  0
   50.6408   54.3851   24.6958 C   0  0  0  0  0  0  0  0  0  0  0  0
   51.0607   53.0555   24.0871 C   0  0  1  0  0  0  0  0  0  0  0  0
   50.6402   53.0344   22.7443 O   0  0  0  0  0  0  0  0  0  0  0  0
   52.5587   52.8331   24.0324 C   0  0  1  0  0  0  0  0  0  0  0  0
   52.9767   52.0516   25.1249 O   0  0  0  0  0  0  0  0  0  0  0  0
   52.7612   52.0857   22.7268 C   0  0  1  0  0  0  0  0  0  0  0  0
   53.0107   50.7278   23.0030 O   0  0  0  0  0  0  0  0  0  0  0  0
   51.4625   52.2256   21.9424 C   0  0  2  0  0  0  0  0  0  0  0  0
   46.9597   58.9720   26.4757 O   0  0  0  0  0  0  0  0  0  0  0  0
   49.6972   55.6919   18.3995 N   0  0  0  0  0  0  0  0  0  0  0  0
   49.0756   55.2538   19.5514 C   0  0  0  0  0  0  0  0  0  0  0  0
   49.6942   54.3285   20.3721 N   0  0  0  0  0  0  0  0  0  0  0  0
   50.9109   53.8345   20.0543 C   0  0  0  0  0  0  0  0  0  0  0  0
   51.5571   54.2660   18.9053 C   0  0  0  0  0  0  0  0  0  0  0  0
   50.9418   55.1967   18.0724 C   0  0  0  0  0  0  0  0  0  0  0  0
   51.5436   55.6170   16.9628 N   0  0  0  0  0  0  0  0  0  0  0  0
   52.7465   53.6272   18.8399 N   0  0  0  0  0  0  0  0  0  0  0  0
   52.8697   52.8207   19.9203 C   0  0  0  0  0  0  0  0  0  0  0  0
   51.7377   52.9384   20.6835 N   0  0  0  0  0  0  0  0  0  0  0  0
  2  1  1  6  0  0  0
  2  3  1  0  0  0  0
  2  5  1  0  0  0  0
  3  4  1  0  0  0  0
  3 17  1  0  0  0  0
  5  6  1  0  0  0  0
  7  6  1  1  0  0  0
  7  8  1  0  0  0  0
  7  9  1  0  0  0  0
 10  9  1  6  0  0  0
 10 11  1  0  0  0  0
 10 12  1  0  0  0  0
 11 16  1  0  0  0  0
 12 13  1  1  0  0  0
 12 14  1  0  0  0  0
 14 15  1  1  0  0  0
 14 16  1  0  0  0  0
 16 27  1  6  0  0  0
 18 19  2  0  0  0  0
 18 23  1  0  0  0  0
 19 20  1  0  0  0  0
 20 21  2  0  0  0  0
 21 22  1  0  0  0  0
 21 27  1  0  0  0  0
 22 23  2  0  0  0  0
 22 25  1  0  0  0  0
 23 24  1  0  0  0  0
 25 26  2  0  0  0  0
 26 27  1  0  0  0  0
M  END
>  <CHROM.1>
115.50005402,-171.69327832,168.61977589,-68.53863958,159.99809651,63.85133718
-30.39476080,50.07771884,54.55960042,23.17954820,2.40379863,-0.87836165,1.83132826

>  <Name>
ligand

>  <RI>
0

>  <Rbt.Current_Directory>
/home/itssahil/PROJECTS/Mol_Feturizer/New_Systems/rnas/3GX7

>  <Rbt.Executable>
rbdock ($Id: //depot/dev/client3/rdock/2013.1/src/exe/rbdock.cxx#4 $)

>  <Rbt.Library>
libRbt.so (2013.1, Build901 2013/11/27)

>  <Rbt.Parameter_File>
/export/apps/rDock/src/rDock_2013.1_src/data/scripts/dock_solv.prm

>  <Rbt.Receptor>
prm/blind_docking_100.prm

>  <SCORE>
-16.9672

>  <SCORE.INTER>
-11.556

>  <SCORE.INTER.CONST>
1

>  <SCORE.INTER.POLAR>
0

>  <SCORE.INTER.ROT>
7

>  <SCORE.INTER.SOLV>
10.8935

>  <SCORE.INTER.VDW>
-19.6018

>  <SCORE.INTER.norm>
-0.428002

>  <SCORE.INTRA>
-5.41117

>  <SCORE.INTRA.DIHEDRAL>
-6.93227

>  <SCORE.INTRA.DIHEDRAL.0>
11.2699

>  <SCORE.INTRA.POLAR>
0

>  <SCORE.INTRA.POLAR.0>
0

>  <SCORE.INTRA.REPUL>
0

>  <SCORE.INTRA.REPUL.0>
0

>  <SCORE.INTRA.SOLV>
-1.06089

>  <SCORE.INTRA.SOLV.lig_0>
-48.6447

>  <SCORE.INTRA.VDW>
-1.41459

>  <SCORE.INTRA.VDW.0>
-0.0211724

>  <SCORE.INTRA.norm>
-0.200414

>  <SCORE.RESTR>
0

>  <SCORE.RESTR.CAVITY>
0

>  <SCORE.RESTR.norm>
0

>  <SCORE.SYSTEM>
0

>  <SCORE.SYSTEM.CONST>
0

>  <SCORE.SYSTEM.DIHEDRAL>
0

>  <SCORE.SYSTEM.SOLV>
0

>  <SCORE.SYSTEM.norm>
0

>  <SCORE.heavy>
27

>  <SCORE.norm>
-0.628415

>  <RMSD>
10.954

$$$$
ligand
 OpenBabel11021811483D
libRbt.so/2013.1/901 2013/11/27
 27 29  0  0  0  0  0  0  0  0999 V2000
   44.0937   51.9634   28.6209 N   0  0  0  0  0  0  0  0  0  0  0  0
   44.8917   52.4946   27.5225 C   0  0  2  0  0  0  0  0  0  0  0  0
   44.5577   51.7797   26.2236 C   0  0  0  0  0  0  0  0  0  0  0  0
   44.0047   50.6826   26.2424 O   0  0  0  0  0  0  0  0  0  0  0  0
   46.3895   52.4011   27.8101 C   0  0  0  0  0  0  0  0  0  0  0  0
   47.2568   53.3602   27.0036 C   0  0  0  0  0  0  0  0  0  0  0  0
   47.6895   52.7689   25.3439 S   0  0  2  0  0  0  0  0  0  0  0  0
   49.2407   51.8977   25.6752 C   0  0  0  0  0  0  0  0  0  0  0  0
   48.3200   54.3002   24.6081 C   0  0  0  0  0  0  0  0  0  0  0  0
   48.8077   54.0275   23.1930 C   0  0  1  0  0  0  0  0  0  0  0  0
   47.7055   53.6186   22.4194 O   0  0  0  0  0  0  0  0  0  0  0  0
   49.3634   55.2401   22.4737 C   0  0  1  0  0  0  0  0  0  0  0  0
   50.7670   55.2615   22.5650 O   0  0  0  0  0  0  0  0  0  0  0  0
   48.9200   55.0366   21.0363 C   0  0  1  0  0  0  0  0  0  0  0  0
   50.0218   54.6194   20.2652 O   0  0  0  0  0  0  0  0  0  0  0  0
   47.8599   53.9426   21.0613 C   0  0  2  0  0  0  0  0  0  0  0  0
   44.8303   52.2882   25.1357 O   0  0  0  0  0  0  0  0  0  0  0  0
   45.5590   57.4687   17.9059 N   0  0  0  0  0  0  0  0  0  0  0  0
   46.9071   57.2495   18.1048 C   0  0  0  0  0  0  0  0  0  0  0  0
   47.3352   56.2702   18.9822 N   0  0  0  0  0  0  0  0  0  0  0  0
   46.4409   55.5202   19.6629 C   0  0  0  0  0  0  0  0  0  0  0  0
   45.0812   55.7183   19.4733 C   0  0  0  0  0  0  0  0  0  0  0  0
   44.6408   56.7027   18.5925 C   0  0  0  0  0  0  0  0  0  0  0  0
   43.3405   56.9114   18.4031 N   0  0  0  0  0  0  0  0  0  0  0  0
   44.4251   54.8356   20.2591 N   0  0  0  0  0  0  0  0  0  0  0  0
   45.3331   54.0821   20.9229 C   0  0  0  0  0  0  0  0  0  0  0  0
   46.5891   54.4956   20.5633 N   0  0  0  0  0  0  0  0  0  0  0  0
  2  1  1  1  0  0  0
  2  3  1  0  0  0  0
  2  5  1  0  0  0  0
  3  4  1  0  0  0  0
  3 17  1  0  0  0  0
  5  6  1  0  0  0  0
  7  6  1  1  0  0  0
  7  8  1  0  0  0  0
  7  9  1  0  0  0  0
 10  9  1  1  0  0  0
 10 11  1  0  0  0  0
 10 12  1  0  0  0  0
 11 16  1  0  0  0  0
 12 13  1  6  0  0  0
 12 14  1  0  0  0  0
 14 15  1  6  0  0  0
 14 16  1  0  0  0  0
 16 27  1  1  0  0  0
 18 19  2  0  0  0  0
 18 23  1  0  0  0  0
 19 20  1  0  0  0  0
 20 21  2  0  0  0  0
 21 22  1  0  0  0  0
 21 27  1  0  0  0  0
 22 23  2  0  0  0  0
 22 25  1  0  0  0  0
 23 24  1  0  0  0  0
 25 26  2  0  0  0  0
 26 27  1  0  0  0  0
M  END
>  <CHROM.1>
-19.42778109,-158.40096492,-83.56350823,-90.48543008,177.71367243,63.40165624
142.61968549,46.77410196,54.13038198,22.80817454,1.60979381,0.05423246,2.04703820

>  <Name>
ligand

>  <RI>
0

>  <Rbt.Current_Directory>
/home/itssahil/PROJECTS/Mol_Feturizer/New_Systems/rnas/3GX7

>  <Rbt.Executable>
rbdock ($Id: //depot/dev/client3/rdock/2013.1/src/exe/rbdock.cxx#4 $)

>  <Rbt.Library>
libRbt.so (2013.1, Build901 2013/11/27)

>  <Rbt.Parameter_File>
/export/apps/rDock/src/rDock_2013.1_src/data/scripts/dock_solv.prm

>  <Rbt.Receptor>
prm/blind_docking_80.prm

>  <SCORE>
-21.4907

>  <SCORE.INTER>
-17.088

>  <SCORE.INTER.CONST>
1

>  <SCORE.INTER.POLAR>
0

>  <SCORE.INTER.ROT>
7

>  <SCORE.INTER.SOLV>
19.2048

>  <SCORE.INTER.VDW>
-26.0603

>  <SCORE.INTER.norm>
-0.632888

>  <SCORE.INTRA>
-4.40273

>  <SCORE.INTRA.DIHEDRAL>
-3.1762

>  <SCORE.INTRA.DIHEDRAL.0>
11.2699

>  <SCORE.INTRA.POLAR>
0

>  <SCORE.INTRA.POLAR.0>
0

>  <SCORE.INTRA.REPUL>
0

>  <SCORE.INTRA.REPUL.0>
0

>  <SCORE.INTRA.SOLV>
-0.911509

>  <SCORE.INTRA.SOLV.lig_0>
-48.6447

>  <SCORE.INTRA.VDW>
-2.35888

>  <SCORE.INTRA.VDW.0>
-0.0211724

>  <SCORE.INTRA.norm>
-0.163064

>  <SCORE.RESTR>
0

>  <SCORE.RESTR.CAVITY>
0

>  <SCORE.RESTR.norm>
0

>  <SCORE.SYSTEM>
0

>  <SCORE.SYSTEM.CONST>
0

>  <SCORE.SYSTEM.DIHEDRAL>
0

>  <SCORE.SYSTEM.SOLV>
0

>  <SCORE.SYSTEM.norm>
0

>  <SCORE.heavy>
27

>  <SCORE.norm>
-0.795952

>  <RMSD>
11.053

$$$$
ligand
 OpenBabel11021811483D
libRbt.so/2013.1/901 2013/11/27
 27 29  0  0  0  0  0  0  0  0999 V2000
   45.7415   54.3087   26.1764 N   0  0  0  0  0  0  0  0  0  0  0  0
   46.1837   52.9941   25.7272 C   0  0  2  0  0  0  0  0  0  0  0  0
   45.0007   52.0505   25.5863 C   0  0  0  0  0  0  0  0  0  0  0  0
   44.7048   51.5845   24.4885 O   0  0  0  0  0  0  0  0  0  0  0  0
   47.2318   52.3954   26.6642 C   0  0  0  0  0  0  0  0  0  0  0  0
   48.5790   53.1079   26.6558 C   0  0  0  0  0  0  0  0  0  0  0  0
   49.6331   52.7076   25.2346 S   0  0  2  0  0  0  0  0  0  0  0  0
   51.0269   53.8298   25.5046 C   0  0  0  0  0  0  0  0  0  0  0  0
   48.7504   53.5860   23.9182 C   0  0  0  0  0  0  0  0  0  0  0  0
   49.4656   53.3769   22.5918 C   0  0  1  0  0  0  0  0  0  0  0  0
   48.5036   53.4010   21.5651 O   0  0  0  0  0  0  0  0  0  0  0  0
   50.4529   54.4681   22.2299 C   0  0  1  0  0  0  0  0  0  0  0  0
   51.7591   54.0812   22.5809 O   0  0  0  0  0  0  0  0  0  0  0  0
   50.3138   54.5900   20.7233 C   0  0  1  0  0  0  0  0  0  0  0  0
   51.4244   53.9853   20.1040 O   0  0  0  0  0  0  0  0  0  0  0  0
   49.0395   53.8454   20.3449 C   0  0  2  0  0  0  0  0  0  0  0  0
   44.3253   51.7350   26.5664 O   0  0  0  0  0  0  0  0  0  0  0  0
   44.0037   55.2754   19.8156 N   0  0  0  0  0  0  0  0  0  0  0  0
   44.5231   54.2269   20.5477 C   0  0  0  0  0  0  0  0  0  0  0  0
   45.8866   53.9971   20.5712 N   0  0  0  0  0  0  0  0  0  0  0  0
   46.7282   54.7898   19.8720 C   0  0  0  0  0  0  0  0  0  0  0  0
   46.2289   55.8536   19.1352 C   0  0  0  0  0  0  0  0  0  0  0  0
   44.8575   56.0922   19.1048 C   0  0  0  0  0  0  0  0  0  0  0  0
   44.3600   57.1038   18.3981 N   0  0  0  0  0  0  0  0  0  0  0  0
   47.2778   56.4772   18.5537 N   0  0  0  0  0  0  0  0  0  0  0  0
   48.4184   55.8446   18.9164 C   0  0  0  0  0  0  0  0  0  0  0  0
   48.0933   54.7947   19.7347 N   0  0  0  0  0  0  0  0  0  0  0  0
  2  1  1  1  0  0  0
  2  3  1  0  0  0  0
  2  5  1  0  0  0  0
  3  4  1  0  0  0  0
  3 17  1  0  0  0  0
  5  6  1  0  0  0  0
  7  6  1  1  0  0  0
  7  8  1  0  0  0  0
  7  9  1  0  0  0  0
 10  9  1  1  0  0  0
 10 11  1  0  0  0  0
 10 12  1  0  0  0  0
 11 16  1  0  0  0  0
 12 13  1  6  0  0  0
 12 14  1  0  0  0  0
 14 15  1  6  0  0  0
 14 16  1  0  0  0  0
 16 27  1  1  0  0  0
 18 19  2  0  0  0  0
 18 23  1  0  0  0  0
 19 20  1  0  0  0  0
 20 21  2  0  0  0  0
 21 22  1  0  0  0  0
 21 27  1  0  0  0  0
 22 23  2  0  0  0  0
 22 25  1  0  0  0  0
 23 24  1  0  0  0  0
 25 26  2  0  0  0  0
 26 27  1  0  0  0  0
M  END
>  <CHROM.1>
116.95824733,-68.54947650,-78.15798640,175.19217334,-179.47761197,148.92863908
-30.30412314,47.65207682,53.97982039,22.48992268,1.44311787,-0.00997440,1.97763984

>  <Name>
ligand

>  <RI>
0

>  <Rbt.Current_Directory>
/home/itssahil/PROJECTS/Mol_Feturizer/New_Systems/rnas/3GX7

>  <Rbt.Executable>
rbdock ($Id: //depot/dev/client3/rdock/2013.1/src/exe/rbdock.cxx#4 $)

>  <Rbt.Library>
libRbt.so (2013.1, Build901 2013/11/27)

>  <Rbt.Parameter_File>
/export/apps/rDock/src/rDock_2013.1_src/data/scripts/dock_solv.prm

>  <Rbt.Receptor>
prm/blind_docking_80.prm

>  <SCORE>
-18.9458

>  <SCORE.INTER>
-15.3072

>  <SCORE.INTER.CONST>
1

>  <SCORE.INTER.POLAR>
0

>  <SCORE.INTER.ROT>
7

>  <SCORE.INTER.SOLV>
16.1261

>  <SCORE.INTER.VDW>
-23.8468

>  <SCORE.INTER.norm>
-0.566933

>  <SCORE.INTRA>
-3.63866

>  <SCORE.INTRA.DIHEDRAL>
-3.66187

>  <SCORE.INTRA.DIHEDRAL.0>
11.2699

>  <SCORE.INTRA.POLAR>
0

>  <SCORE.INTRA.POLAR.0>
0

>  <SCORE.INTRA.REPUL>
0

>  <SCORE.INTRA.REPUL.0>
0

>  <SCORE.INTRA.SOLV>
0.675971

>  <SCORE.INTRA.SOLV.lig_0>
-48.6447

>  <SCORE.INTRA.VDW>
-2.14571

>  <SCORE.INTRA.VDW.0>
-0.0211724

>  <SCORE.INTRA.norm>
-0.134765

>  <SCORE.RESTR>
0

>  <SCORE.RESTR.CAVITY>
0

>  <SCORE.RESTR.norm>
0

>  <SCORE.SYSTEM>
0

>  <SCORE.SYSTEM.CONST>
0

>  <SCORE.SYSTEM.DIHEDRAL>
0

>  <SCORE.SYSTEM.SOLV>
0

>  <SCORE.SYSTEM.norm>
0

>  <SCORE.heavy>
27

>  <SCORE.norm>
-0.701698

>  <RMSD>
11.055

$$$$
ligand
 OpenBabel11021811483D
libRbt.so/2013.1/901 2013/11/27
 27 29  0  0  0  0  0  0  0  0999 V2000
   46.7314   55.2356   29.1356 N   0  0  0  0  0  0  0  0  0  0  0  0
   46.0363   55.2982   27.8556 C   0  0  2  0  0  0  0  0  0  0  0  0
   46.0599   53.9438   27.1667 C   0  0  0  0  0  0  0  0  0  0  0  0
   45.4474   53.7704   26.1157 O   0  0  0  0  0  0  0  0  0  0  0  0
   46.6256   56.3701   26.9398 C   0  0  0  0  0  0  0  0  0  0  0  0
   48.1011   56.1854   26.6058 C   0  0  0  0  0  0  0  0  0  0  0  0
   48.4465   54.8352   25.4443 S   0  0  2  0  0  0  0  0  0  0  0  0
   50.2558   54.8062   25.4681 C   0  0  0  0  0  0  0  0  0  0  0  0
   48.1491   55.6789   23.8684 C   0  0  0  0  0  0  0  0  0  0  0  0
   48.2988   54.6914   22.7207 C   0  0  1  0  0  0  0  0  0  0  0  0
   47.0129   54.3635   22.2524 O   0  0  0  0  0  0  0  0  0  0  0  0
   49.0293   55.2380   21.5108 C   0  0  1  0  0  0  0  0  0  0  0  0
   50.3816   54.8516   21.5408 O   0  0  0  0  0  0  0  0  0  0  0  0
   48.3109   54.5939   20.3390 C   0  0  1  0  0  0  0  0  0  0  0  0
   49.1132   53.5639   19.8119 O   0  0  0  0  0  0  0  0  0  0  0  0
   47.0163   54.0116   20.8924 C   0  0  2  0  0  0  0  0  0  0  0  0
   46.6944   53.0034   27.6457 O   0  0  0  0  0  0  0  0  0  0  0  0
   45.4529   57.8430   17.6428 N   0  0  0  0  0  0  0  0  0  0  0  0
   46.7369   57.5286   18.0398 C   0  0  0  0  0  0  0  0  0  0  0  0
   46.9630   56.4777   18.9098 N   0  0  0  0  0  0  0  0  0  0  0  0
   45.9309   55.7496   19.3894 C   0  0  0  0  0  0  0  0  0  0  0  0
   44.6330   56.0433   18.9982 C   0  0  0  0  0  0  0  0  0  0  0  0
   44.3954   57.1001   18.1234 C   0  0  0  0  0  0  0  0  0  0  0  0
   43.1565   57.4006   17.7425 N   0  0  0  0  0  0  0  0  0  0  0  0
   43.8112   55.1622   19.6110 N   0  0  0  0  0  0  0  0  0  0  0  0
   44.5570   54.3177   20.3616 C   0  0  0  0  0  0  0  0  0  0  0  0
   45.8751   54.6701   20.2344 N   0  0  0  0  0  0  0  0  0  0  0  0
  2  1  1  1  0  0  0
  2  3  1  0  0  0  0
  2  5  1  0  0  0  0
  3  4  1  0  0  0  0
  3 17  1  0  0  0  0
  5  6  1  0  0  0  0
  7  6  1  1  0  0  0
  7  8  1  0  0  0  0
  7  9  1  0  0  0  0
 10  9  1  1  0  0  0
 10 11  1  0  0  0  0
 10 12  1  0  0  0  0
 11 16  1  0  0  0  0
 12 13  1  1  0  0  0
 12 14  1  0  0  0  0
 14 15  1  1  0  0  0
 14 16  1  0  0  0  0
 16 27  1  6  0  0  0
 18 19  2  0  0  0  0
 18 23  1  0  0  0  0
 19 20  1  0  0  0  0
 20 21  2  0  0  0  0
 21 22  1  0  0  0  0
 21 27  1  0  0  0  0
 22 23  2  0  0  0  0
 22 25  1  0  0  0  0
 23 24  1  0  0  0  0
 25 26  2  0  0  0  0
 26 27  1  0  0  0  0
M  END
>  <CHROM.1>
175.07524170,59.24751481,73.17715238,-173.31475477,-176.44523986,104.60333929
105.96121198,46.92707608,55.22072330,22.62090032,1.36024716,-0.20643558,1.70188102

>  <Name>
ligand

>  <RI>
0

>  <Rbt.Current_Directory>
/home/itssahil/PROJECTS/Mol_Feturizer/New_Systems/rnas/3GX7

>  <Rbt.Executable>
rbdock ($Id: //depot/dev/client3/rdock/2013.1/src/exe/rbdock.cxx#4 $)

>  <Rbt.Library>
libRbt.so (2013.1, Build901 2013/11/27)

>  <Rbt.Parameter_File>
/export/apps/rDock/src/rDock_2013.1_src/data/scripts/dock_solv.prm

>  <Rbt.Receptor>
prm/blind_docking_80.prm

>  <SCORE>
-21.2179

>  <SCORE.INTER>
-18.1407

>  <SCORE.INTER.CONST>
1

>  <SCORE.INTER.POLAR>
0

>  <SCORE.INTER.ROT>
7

>  <SCORE.INTER.SOLV>
12.8429

>  <SCORE.INTER.VDW>
-24.6414

>  <SCORE.INTER.norm>
-0.671878

>  <SCORE.INTRA>
-3.07831

>  <SCORE.INTRA.DIHEDRAL>
-2.00166

>  <SCORE.INTRA.DIHEDRAL.0>
11.2699

>  <SCORE.INTRA.POLAR>
0

>  <SCORE.INTRA.POLAR.0>
0

>  <SCORE.INTRA.REPUL>
0

>  <SCORE.INTRA.REPUL.0>
0

>  <SCORE.INTRA.SOLV>
0.127949

>  <SCORE.INTRA.SOLV.lig_0>
-48.6447

>  <SCORE.INTRA.VDW>
-2.14146

>  <SCORE.INTRA.VDW.0>
-0.0211724

>  <SCORE.INTRA.norm>
-0.114012

>  <SCORE.RESTR>
0.00109901

>  <SCORE.RESTR.CAVITY>
0.00109901

>  <SCORE.RESTR.norm>
4.0704e-05

>  <SCORE.SYSTEM>
0

>  <SCORE.SYSTEM.CONST>
0

>  <SCORE.SYSTEM.DIHEDRAL>
0

>  <SCORE.SYSTEM.SOLV>
0

>  <SCORE.SYSTEM.norm>
0

>  <SCORE.heavy>
27

>  <SCORE.norm>
-0.785849

>  <RMSD>
11.147

$$$$
ligand
 OpenBabel11021811483D
libRbt.so/2013.1/901 2013/11/27
 27 29  0  0  0  0  0  0  0  0999 V2000
   50.0022   53.0112   29.5146 N   0  0  0  0  0  0  0  0  0  0  0  0
   48.7550   53.4955   28.9354 C   0  0  2  0  0  0  0  0  0  0  0  0
   47.5939   52.6031   29.3417 C   0  0  0  0  0  0  0  0  0  0  0  0
   46.5091   52.6968   28.7722 O   0  0  0  0  0  0  0  0  0  0  0  0
   48.8371   53.5998   27.4132 C   0  0  0  0  0  0  0  0  0  0  0  0
   47.8977   54.6257   26.7906 C   0  0  0  0  0  0  0  0  0  0  0  0
   47.8002   54.5559   24.9803 S   0  0  2  0  0  0  0  0  0  0  0  0
   47.2244   52.8593   24.7252 C   0  0  0  0  0  0  0  0  0  0  0  0
   49.5555   54.3758   24.5676 C   0  0  0  0  0  0  0  0  0  0  0  0
   49.7486   54.5288   23.0663 C   0  0  1  0  0  0  0  0  0  0  0  0
   51.1081   54.3128   22.7737 O   0  0  0  0  0  0  0  0  0  0  0  0
   49.0007   53.5115   22.2283 C   0  0  1  0  0  0  0  0  0  0  0  0
   47.7908   54.0573   21.7623 O   0  0  0  0  0  0  0  0  0  0  0  0
   49.9469   53.2351   21.0739 C   0  0  1  0  0  0  0  0  0  0  0  0
   49.4727   53.8858   19.9189 O   0  0  0  0  0  0  0  0  0  0  0  0
   51.2991   53.8108   21.4756 C   0  0  2  0  0  0  0  0  0  0  0  0
   47.7220   51.7716   30.2409 O   0  0  0  0  0  0  0  0  0  0  0  0
   53.3690   49.9353   24.3704 N   0  0  0  0  0  0  0  0  0  0  0  0
   52.3628   50.8156   24.7133 C   0  0  0  0  0  0  0  0  0  0  0  0
   51.9423   51.7814   23.8173 N   0  0  0  0  0  0  0  0  0  0  0  0
   52.5153   51.8822   22.5978 C   0  0  0  0  0  0  0  0  0  0  0  0
   53.5232   51.0034   22.2294 C   0  0  0  0  0  0  0  0  0  0  0  0
   53.9538   50.0283   23.1252 C   0  0  0  0  0  0  0  0  0  0  0  0
   54.9240   49.1811   22.7916 N   0  0  0  0  0  0  0  0  0  0  0  0
   53.9016   51.3187   20.9706 N   0  0  0  0  0  0  0  0  0  0  0  0
   53.1511   52.3581   20.5358 C   0  0  0  0  0  0  0  0  0  0  0  0
   52.2859   52.7192   21.5352 N   0  0  0  0  0  0  0  0  0  0  0  0
  2  1  1  6  0  0  0
  2  3  1  0  0  0  0
  2  5  1  0  0  0  0
  3  4  1  0  0  0  0
  3 17  1  0  0  0  0
  5  6  1  0  0  0  0
  7  6  1  1  0  0  0
  7  8  1  0  0  0  0
  7  9  1  0  0  0  0
 10  9  1  1  0  0  0
 10 11  1  0  0  0  0
 10 12  1  0  0  0  0
 11 16  1  0  0  0  0
 12 13  1  6  0  0  0
 12 14  1  0  0  0  0
 14 15  1  6  0  0  0
 14 16  1  0  0  0  0
 16 27  1  1  0  0  0
 18 19  2  0  0  0  0
 18 23  1  0  0  0  0
 19 20  1  0  0  0  0
 20 21  2  0  0  0  0
 21 22  1  0  0  0  0
 21 27  1  0  0  0  0
 22 23  2  0  0  0  0
 22 25  1  0  0  0  0
 23 24  1  0  0  0  0
 25 26  2  0  0  0  0
 26 27  1  0  0  0  0
M  END
>  <CHROM.1>
-166.94996484,-153.96958416,-170.44327298,59.14721807,-170.55341801,-176.90734419
29.20076310,50.22667842,52.79475054,24.30577069,-2.36448143,0.59274964,-1.27570829

>  <Name>
ligand

>  <RI>
0

>  <Rbt.Current_Directory>
/home/itssahil/PROJECTS/Mol_Feturizer/New_Systems/rnas/3GX7

>  <Rbt.Executable>
rbdock ($Id: //depot/dev/client3/rdock/2013.1/src/exe/rbdock.cxx#4 $)

>  <Rbt.Library>
libRbt.so (2013.1, Build901 2013/11/27)

>  <Rbt.Parameter_File>
/export/apps/rDock/src/rDock_2013.1_src/data/scripts/dock_solv.prm

>  <Rbt.Receptor>
prm/blind_docking_80.prm

>  <SCORE>
-14.2905

>  <SCORE.INTER>
-10.5885

>  <SCORE.INTER.CONST>
1

>  <SCORE.INTER.POLAR>
0

>  <SCORE.INTER.ROT>
7

>  <SCORE.INTER.SOLV>
9.09271

>  <SCORE.INTER.VDW>
-18.3566

>  <SCORE.INTER.norm>
-0.392168

>  <SCORE.INTRA>
-3.70197

>  <SCORE.INTRA.DIHEDRAL>
-4.41092

>  <SCORE.INTRA.DIHEDRAL.0>
11.2699

>  <SCORE.INTRA.POLAR>
0

>  <SCORE.INTRA.POLAR.0>
0

>  <SCORE.INTRA.REPUL>
0

>  <SCORE.INTRA.REPUL.0>
0

>  <SCORE.INTRA.SOLV>
-0.697967

>  <SCORE.INTRA.SOLV.lig_0>
-48.6447

>  <SCORE.INTRA.VDW>
-1.14753

>  <SCORE.INTRA.VDW.0>
-0.0211724

>  <SCORE.INTRA.norm>
-0.13711

>  <SCORE.RESTR>
0

>  <SCORE.RESTR.CAVITY>
0

>  <SCORE.RESTR.norm>
0

>  <SCORE.SYSTEM>
0

>  <SCORE.SYSTEM.CONST>
0

>  <SCORE.SYSTEM.DIHEDRAL>
0

>  <SCORE.SYSTEM.SOLV>
0

>  <SCORE.SYSTEM.norm>
0

>  <SCORE.heavy>
27

>  <SCORE.norm>
-0.529278

>  <RMSD>
11.212

$$$$
ligand
 OpenBabel11021811483D
libRbt.so/2013.1/901 2013/11/27
 27 29  0  0  0  0  0  0  0  0999 V2000
   47.9112   54.0526   30.8632 N   0  0  0  0  0  0  0  0  0  0  0  0
   48.0757   53.6706   29.4659 C   0  0  2  0  0  0  0  0  0  0  0  0
   49.1294   52.5841   29.3283 C   0  0  0  0  0  0  0  0  0  0  0  0
   50.2783   52.8706   29.0002 O   0  0  0  0  0  0  0  0  0  0  0  0
   48.4305   54.8687   28.5864 C   0  0  0  0  0  0  0  0  0  0  0  0
   48.3107   54.6197   27.0876 C   0  0  0  0  0  0  0  0  0  0  0  0
   48.7565   56.0402   26.0508 S   0  0  2  0  0  0  0  0  0  0  0  0
   47.4236   57.1975   26.4493 C   0  0  0  0  0  0  0  0  0  0  0  0
   48.2053   55.4449   24.4304 C   0  0  0  0  0  0  0  0  0  0  0  0
   49.0338   54.2374   24.0176 C   0  0  1  0  0  0  0  0  0  0  0  0
   48.7258   53.9297   22.6794 O   0  0  0  0  0  0  0  0  0  0  0  0
   50.5317   54.4666   24.0326 C   0  0  1  0  0  0  0  0  0  0  0  0
   51.0879   53.9834   25.2311 O   0  0  0  0  0  0  0  0  0  0  0  0
   51.0279   53.6614   22.8453 C   0  0  1  0  0  0  0  0  0  0  0  0
   51.6446   52.4834   23.3085 O   0  0  0  0  0  0  0  0  0  0  0  0
   49.7987   53.3119   22.0156 C   0  0  2  0  0  0  0  0  0  0  0  0
   48.8515   51.4046   29.5473 O   0  0  0  0  0  0  0  0  0  0  0  0
   52.6411   53.5647   17.5951 N   0  0  0  0  0  0  0  0  0  0  0  0
   52.8745   52.7997   18.7199 C   0  0  0  0  0  0  0  0  0  0  0  0
   52.0131   52.8618   19.7999 N   0  0  0  0  0  0  0  0  0  0  0  0
   50.9363   53.6775   19.7728 C   0  0  0  0  0  0  0  0  0  0  0  0
   50.6783   54.4498   18.6500 C   0  0  0  0  0  0  0  0  0  0  0  0
   51.5405   54.3946   17.5581 C   0  0  0  0  0  0  0  0  0  0  0  0
   51.3127   55.1333   16.4752 N   0  0  0  0  0  0  0  0  0  0  0  0
   49.5476   55.1517   18.8866 N   0  0  0  0  0  0  0  0  0  0  0  0
   49.0831   54.8307   20.1170 C   0  0  0  0  0  0  0  0  0  0  0  0
   49.9349   53.9166   20.6797 N   0  0  0  0  0  0  0  0  0  0  0  0
  2  1  1  1  0  0  0
  2  3  1  0  0  0  0
  2  5  1  0  0  0  0
  3  4  1  0  0  0  0
  3 17  1  0  0  0  0
  5  6  1  0  0  0  0
  7  6  1  1  0  0  0
  7  8  1  0  0  0  0
  7  9  1  0  0  0  0
 10  9  1  6  0  0  0
 10 11  1  0  0  0  0
 10 12  1  0  0  0  0
 11 16  1  0  0  0  0
 12 13  1  1  0  0  0
 12 14  1  0  0  0  0
 14 15  1  1  0  0  0
 14 16  1  0  0  0  0
 16 27  1  6  0  0  0
 18 19  2  0  0  0  0
 18 23  1  0  0  0  0
 19 20  1  0  0  0  0
 20 21  2  0  0  0  0
 21 22  1  0  0  0  0
 21 27  1  0  0  0  0
 22 23  2  0  0  0  0
 22 25  1  0  0  0  0
 23 24  1  0  0  0  0
 25 26  2  0  0  0  0
 26 27  1  0  0  0  0
M  END
>  <CHROM.1>
-98.70243979,-166.82570196,-179.17013288,-67.36510464,-64.89188087,-171.03279634
173.55553925,49.84118208,54.14150187,23.71581588,1.97383145,-0.87607201,1.89404297

>  <Name>
ligand

>  <RI>
0

>  <Rbt.Current_Directory>
/home/itssahil/PROJECTS/Mol_Feturizer/New_Systems/rnas/3GX7

>  <Rbt.Executable>
rbdock ($Id: //depot/dev/client3/rdock/2013.1/src/exe/rbdock.cxx#4 $)

>  <Rbt.Library>
libRbt.so (2013.1, Build901 2013/11/27)

>  <Rbt.Parameter_File>
/export/apps/rDock/src/rDock_2013.1_src/data/scripts/dock_solv.prm

>  <Rbt.Receptor>
prm/blind_docking_80.prm

>  <SCORE>
-15.5632

>  <SCORE.INTER>
-10.127

>  <SCORE.INTER.CONST>
1

>  <SCORE.INTER.POLAR>
0

>  <SCORE.INTER.ROT>
7

>  <SCORE.INTER.SOLV>
8.42662

>  <SCORE.INTER.VDW>
-17.8269

>  <SCORE.INTER.norm>
-0.375074

>  <SCORE.INTRA>
-5.43626

>  <SCORE.INTRA.DIHEDRAL>
-7.1455

>  <SCORE.INTRA.DIHEDRAL.0>
11.2699

>  <SCORE.INTRA.POLAR>
0

>  <SCORE.INTRA.POLAR.0>
0

>  <SCORE.INTRA.REPUL>
0

>  <SCORE.INTRA.REPUL.0>
0

>  <SCORE.INTRA.SOLV>
-0.757329

>  <SCORE.INTRA.SOLV.lig_0>
-48.6447

>  <SCORE.INTRA.VDW>
-1.48484

>  <SCORE.INTRA.VDW.0>
-0.0211724

>  <SCORE.INTRA.norm>
-0.201343

>  <SCORE.RESTR>
0

>  <SCORE.RESTR.CAVITY>
0

>  <SCORE.RESTR.norm>
0

>  <SCORE.SYSTEM>
0

>  <SCORE.SYSTEM.CONST>
0

>  <SCORE.SYSTEM.DIHEDRAL>
0

>  <SCORE.SYSTEM.SOLV>
0

>  <SCORE.SYSTEM.norm>
0

>  <SCORE.heavy>
27

>  <SCORE.norm>
-0.576417

>  <RMSD>
11.248

$$$$
ligand
 OpenBabel11021811483D
libRbt.so/2013.1/901 2013/11/27
 27 29  0  0  0  0  0  0  0  0999 V2000
   48.5093   53.5232   30.0019 N   0  0  0  0  0  0  0  0  0  0  0  0
   47.9969   53.2524   28.6642 C   0  0  2  0  0  0  0  0  0  0  0  0
   46.6040   52.6488   28.7364 C   0  0  0  0  0  0  0  0  0  0  0  0
   46.1403   52.2830   29.8139 O   0  0  0  0  0  0  0  0  0  0  0  0
   48.9307   52.3394   27.8710 C   0  0  0  0  0  0  0  0  0  0  0  0
   48.5889   52.2039   26.3920 C   0  0  0  0  0  0  0  0  0  0  0  0
   49.0199   53.6499   25.3846 S   0  0  2  0  0  0  0  0  0  0  0  0
   47.6878   54.7932   25.8239 C   0  0  0  0  0  0  0  0  0  0  0  0
   48.4537   53.0912   23.7563 C   0  0  0  0  0  0  0  0  0  0  0  0
   49.2519   53.7915   22.6667 C   0  0  1  0  0  0  0  0  0  0  0  0
   50.6203   53.5870   22.9238 O   0  0  0  0  0  0  0  0  0  0  0  0
   49.0287   53.2435   21.2716 C   0  0  1  0  0  0  0  0  0  0  0  0
   48.0871   54.0296   20.5828 O   0  0  0  0  0  0  0  0  0  0  0  0
   50.3970   53.3501   20.6231 C   0  0  1  0  0  0  0  0  0  0  0  0
   50.4012   54.4331   19.7233 O   0  0  0  0  0  0  0  0  0  0  0  0
   51.3906   53.6073   21.7492 C   0  0  2  0  0  0  0  0  0  0  0  0
   45.9183   52.5216   27.7215 O   0  0  0  0  0  0  0  0  0  0  0  0
   53.4013   49.6885   24.6274 N   0  0  0  0  0  0  0  0  0  0  0  0
   52.4168   50.5900   24.9783 C   0  0  0  0  0  0  0  0  0  0  0  0
   52.0096   51.5645   24.0857 N   0  0  0  0  0  0  0  0  0  0  0  0
   52.5747   51.6532   22.8617 C   0  0  0  0  0  0  0  0  0  0  0  0
   53.5607   50.7533   22.4852 C   0  0  0  0  0  0  0  0  0  0  0  0
   53.9779   49.7693   23.3775 C   0  0  0  0  0  0  0  0  0  0  0  0
   54.9271   48.9017   23.0361 N   0  0  0  0  0  0  0  0  0  0  0  0
   53.9355   51.0606   21.2233 N   0  0  0  0  0  0  0  0  0  0  0  0
   53.2036   52.1157   20.7945 C   0  0  0  0  0  0  0  0  0  0  0  0
   52.3544   52.4950   21.8008 N   0  0  0  0  0  0  0  0  0  0  0  0
  2  1  1  1  0  0  0
  2  3  1  0  0  0  0
  2  5  1  0  0  0  0
  3  4  1  0  0  0  0
  3 17  1  0  0  0  0
  5  6  1  0  0  0  0
  7  6  1  1  0  0  0
  7  8  1  0  0  0  0
  7  9  1  0  0  0  0
 10  9  1  1  0  0  0
 10 11  1  0  0  0  0
 10 12  1  0  0  0  0
 11 16  1  0  0  0  0
 12 13  1  6  0  0  0
 12 14  1  0  0  0  0
 14 15  1  6  0  0  0
 14 16  1  0  0  0  0
 16 27  1  1  0  0  0
 18 19  2  0  0  0  0
 18 23  1  0  0  0  0
 19 20  1  0  0  0  0
 20 21  2  0  0  0  0
 21 22  1  0  0  0  0
 21 27  1  0  0  0  0
 22 23  2  0  0  0  0
 22 25  1  0  0  0  0
 23 24  1  0  0  0  0
 25 26  2  0  0  0  0
 26 27  1  0  0  0  0
M  END
>  <CHROM.1>
-10.08439816,-169.97772808,74.76982649,-76.58645183,-153.49524284,53.76003214
-6.12898948,50.18195403,52.51579819,24.26825844,-2.41020571,0.57093604,-1.22504037

>  <Name>
ligand

>  <RI>
0

>  <Rbt.Current_Directory>
/home/itssahil/PROJECTS/Mol_Feturizer/New_Systems/rnas/3GX7

>  <Rbt.Executable>
rbdock ($Id: //depot/dev/client3/rdock/2013.1/src/exe/rbdock.cxx#4 $)

>  <Rbt.Library>
libRbt.so (2013.1, Build901 2013/11/27)

>  <Rbt.Parameter_File>
/export/apps/rDock/src/rDock_2013.1_src/data/scripts/dock_solv.prm

>  <Rbt.Receptor>
prm/blind_docking_80.prm

>  <SCORE>
-16.721

>  <SCORE.INTER>
-11.8252

>  <SCORE.INTER.CONST>
1

>  <SCORE.INTER.POLAR>
0

>  <SCORE.INTER.ROT>
7

>  <SCORE.INTER.SOLV>
7.37571

>  <SCORE.INTER.VDW>
-18.6087

>  <SCORE.INTER.norm>
-0.437969

>  <SCORE.INTRA>
-4.89585

>  <SCORE.INTRA.DIHEDRAL>
-3.91424

>  <SCORE.INTRA.DIHEDRAL.0>
11.2699

>  <SCORE.INTRA.POLAR>
0

>  <SCORE.INTRA.POLAR.0>
0

>  <SCORE.INTRA.REPUL>
0

>  <SCORE.INTRA.REPUL.0>
0

>  <SCORE.INTRA.SOLV>
-0.693816

>  <SCORE.INTRA.SOLV.lig_0>
-48.6447

>  <SCORE.INTRA.VDW>
-2.59182

>  <SCORE.INTRA.VDW.0>
-0.0211724

>  <SCORE.INTRA.norm>
-0.181328

>  <SCORE.RESTR>
0

>  <SCORE.RESTR.CAVITY>
0

>  <SCORE.RESTR.norm>
0

>  <SCORE.SYSTEM>
0

>  <SCORE.SYSTEM.CONST>
0

>  <SCORE.SYSTEM.DIHEDRAL>
0

>  <SCORE.SYSTEM.SOLV>
0

>  <SCORE.SYSTEM.norm>
0

>  <SCORE.heavy>
27

>  <SCORE.norm>
-0.619297

>  <RMSD>
11.329

$$$$
ligand
 OpenBabel11021811483D
libRbt.so/2013.1/901 2013/11/27
 27 29  0  0  0  0  0  0  0  0999 V2000
   54.9591   53.0978   20.9801 N   0  0  0  0  0  0  0  0  0  0  0  0
   53.6902   52.4446   21.2781 C   0  0  2  0  0  0  0  0  0  0  0  0
   53.9041   50.9700   21.5770 C   0  0  0  0  0  0  0  0  0  0  0  0
   53.1574   50.3785   22.3530 O   0  0  0  0  0  0  0  0  0  0  0  0
   52.6818   52.6154   20.1428 C   0  0  0  0  0  0  0  0  0  0  0  0
   52.1743   54.0390   19.9467 C   0  0  0  0  0  0  0  0  0  0  0  0
   51.2479   54.3026   18.4093 S   0  0  2  0  0  0  0  0  0  0  0  0
   52.3854   55.3710   17.4930 C   0  0  0  0  0  0  0  0  0  0  0  0
   50.0285   55.5202   18.9700 C   0  0  0  0  0  0  0  0  0  0  0  0
   48.8258   54.8052   19.5675 C   0  0  1  0  0  0  0  0  0  0  0  0
   49.2455   54.1384   20.7335 O   0  0  0  0  0  0  0  0  0  0  0  0
   47.7088   55.7233   20.0213 C   0  0  1  0  0  0  0  0  0  0  0  0
   46.7117   55.8054   19.0323 O   0  0  0  0  0  0  0  0  0  0  0  0
   47.1746   55.0453   21.2699 C   0  0  1  0  0  0  0  0  0  0  0  0
   45.9484   54.4212   20.9707 O   0  0  0  0  0  0  0  0  0  0  0  0
   48.2065   53.9976   21.6685 C   0  0  2  0  0  0  0  0  0  0  0  0
   54.8223   50.3454   21.0449 O   0  0  0  0  0  0  0  0  0  0  0  0
   47.9110   53.0572   26.8368 N   0  0  0  0  0  0  0  0  0  0  0  0
   47.1746   52.4848   25.8195 C   0  0  0  0  0  0  0  0  0  0  0  0
   47.3884   52.8577   24.5051 N   0  0  0  0  0  0  0  0  0  0  0  0
   48.3145   53.7928   24.1991 C   0  0  0  0  0  0  0  0  0  0  0  0
   49.0710   54.3760   25.2048 C   0  0  0  0  0  0  0  0  0  0  0  0
   48.8622   54.0075   26.5311 C   0  0  0  0  0  0  0  0  0  0  0  0
   49.5738   54.5612   27.5095 N   0  0  0  0  0  0  0  0  0  0  0  0
   49.9171   55.2554   24.6233 N   0  0  0  0  0  0  0  0  0  0  0  0
   49.7225   55.2289   23.2838 C   0  0  0  0  0  0  0  0  0  0  0  0
   48.7304   54.3256   23.0051 N   0  0  0  0  0  0  0  0  0  0  0  0
  2  1  1  6  0  0  0
  2  3  1  0  0  0  0
  2  5  1  0  0  0  0
  3  4  1  0  0  0  0
  3 17  1  0  0  0  0
  5  6  1  0  0  0  0
  7  6  1  1  0  0  0
  7  8  1  0  0  0  0
  7  9  1  0  0  0  0
 10  9  1  1  0  0  0
 10 11  1  0  0  0  0
 10 12  1  0  0  0  0
 11 16  1  0  0  0  0
 12 13  1  6  0  0  0
 12 14  1  0  0  0  0
 14 15  1  6  0  0  0
 14 16  1  0  0  0  0
 16 27  1  1  0  0  0
 18 19  2  0  0  0  0
 18 23  1  0  0  0  0
 19 20  1  0  0  0  0
 20 21  2  0  0  0  0
 21 22  1  0  0  0  0
 21 27  1  0  0  0  0
 22 23  2  0  0  0  0
 22 25  1  0  0  0  0
 23 24  1  0  0  0  0
 25 26  2  0  0  0  0
 26 27  1  0  0  0  0
M  END
>  <CHROM.1>
149.48286441,-68.31478349,168.30866838,-111.48268178,-86.41619416,65.68350392
-148.97004519,50.07329056,53.82293478,21.83953414,-0.72354044,-0.44370656
1.84888716

>  <Name>
ligand

>  <RI>
0

>  <Rbt.Current_Directory>
/home/itssahil/PROJECTS/Mol_Feturizer/New_Systems/rnas/3GX7

>  <Rbt.Executable>
rbdock ($Id: //depot/dev/client3/rdock/2013.1/src/exe/rbdock.cxx#4 $)

>  <Rbt.Library>
libRbt.so (2013.1, Build901 2013/11/27)

>  <Rbt.Parameter_File>
/export/apps/rDock/src/rDock_2013.1_src/data/scripts/dock_solv.prm

>  <Rbt.Receptor>
prm/blind_docking_80.prm

>  <SCORE>
-15.226

>  <SCORE.INTER>
-10.7166

>  <SCORE.INTER.CONST>
1

>  <SCORE.INTER.POLAR>
0

>  <SCORE.INTER.ROT>
7

>  <SCORE.INTER.SOLV>
7.84403

>  <SCORE.INTER.VDW>
-18.0258

>  <SCORE.INTER.norm>
-0.396912

>  <SCORE.INTRA>
-4.5094

>  <SCORE.INTRA.DIHEDRAL>
-2.78072

>  <SCORE.INTRA.DIHEDRAL.0>
11.2699

>  <SCORE.INTRA.POLAR>
0

>  <SCORE.INTRA.POLAR.0>
0

>  <SCORE.INTRA.REPUL>
0

>  <SCORE.INTRA.REPUL.0>
0

>  <SCORE.INTRA.SOLV>
-0.431907

>  <SCORE.INTRA.SOLV.lig_0>
-48.6447

>  <SCORE.INTRA.VDW>
-2.90309

>  <SCORE.INTRA.VDW.0>
-0.0211724

>  <SCORE.INTRA.norm>
-0.167015

>  <SCORE.RESTR>
0

>  <SCORE.RESTR.CAVITY>
0

>  <SCORE.RESTR.norm>
0

>  <SCORE.SYSTEM>
0

>  <SCORE.SYSTEM.CONST>
0

>  <SCORE.SYSTEM.DIHEDRAL>
0

>  <SCORE.SYSTEM.SOLV>
0

>  <SCORE.SYSTEM.norm>
0

>  <SCORE.heavy>
27

>  <SCORE.norm>
-0.563927

>  <RMSD>
11.332

$$$$
ligand
 OpenBabel11021811483D
libRbt.so/2013.1/901 2013/11/27
 27 29  0  0  0  0  0  0  0  0999 V2000
   49.5824   54.2033   28.5348 N   0  0  0  0  0  0  0  0  0  0  0  0
   48.4583   53.2821   28.4201 C   0  0  2  0  0  0  0  0  0  0  0  0
   48.1036   52.6985   29.7778 C   0  0  0  0  0  0  0  0  0  0  0  0
   46.9688   52.2819   29.9979 O   0  0  0  0  0  0  0  0  0  0  0  0
   48.7395   52.1631   27.4182 C   0  0  0  0  0  0  0  0  0  0  0  0
   48.8579   52.6174   25.9683 C   0  0  0  0  0  0  0  0  0  0  0  0
   47.5325   53.7267   25.4167 S   0  0  2  0  0  0  0  0  0  0  0  0
   46.0713   52.8743   26.0596 C   0  0  0  0  0  0  0  0  0  0  0  0
   47.4373   53.2724   23.6650 C   0  0  0  0  0  0  0  0  0  0  0  0
   48.4977   54.0297   22.8795 C   0  0  1  0  0  0  0  0  0  0  0  0
   49.7524   53.7495   23.4519 O   0  0  0  0  0  0  0  0  0  0  0  0
   48.6259   53.6106   21.4289 C   0  0  1  0  0  0  0  0  0  0  0  0
   47.9036   54.4890   20.6009 O   0  0  0  0  0  0  0  0  0  0  0  0
   50.1156   53.7167   21.1571 C   0  0  1  0  0  0  0  0  0  0  0  0
   50.3665   54.8707   20.3904 O   0  0  0  0  0  0  0  0  0  0  0  0
   50.7955   53.8380   22.5151 C   0  0  2  0  0  0  0  0  0  0  0  0
   48.9453   52.6294   30.6740 O   0  0  0  0  0  0  0  0  0  0  0  0
   54.7793   51.0255   20.5394 N   0  0  0  0  0  0  0  0  0  0  0  0
   54.1688   52.1400   20.0007 C   0  0  0  0  0  0  0  0  0  0  0  0
   53.1244   52.7562   20.6654 N   0  0  0  0  0  0  0  0  0  0  0  0
   52.6817   52.2717   21.8465 C   0  0  0  0  0  0  0  0  0  0  0  0
   53.2851   51.1571   22.4098 C   0  0  0  0  0  0  0  0  0  0  0  0
   54.3367   50.5295   21.7475 C   0  0  0  0  0  0  0  0  0  0  0  0
   54.9231   49.4553   22.2695 N   0  0  0  0  0  0  0  0  0  0  0  0
   52.6600   50.9008   23.5806 N   0  0  0  0  0  0  0  0  0  0  0  0
   51.6942   51.8297   23.7732 C   0  0  0  0  0  0  0  0  0  0  0  0
   51.6953   52.6877   22.7047 N   0  0  0  0  0  0  0  0  0  0  0  0
  2  1  1  1  0  0  0
  2  3  1  0  0  0  0
  2  5  1  0  0  0  0
  3  4  1  0  0  0  0
  3 17  1  0  0  0  0
  5  6  1  0  0  0  0
  7  6  1  1  0  0  0
  7  8  1  0  0  0  0
  7  9  1  0  0  0  0
 10  9  1  1  0  0  0
 10 11  1  0  0  0  0
 10 12  1  0  0  0  0
 11 16  1  0  0  0  0
 12 13  1  6  0  0  0
 12 14  1  0  0  0  0
 14 15  1  6  0  0  0
 14 16  1  0  0  0  0
 16 27  1  1  0  0  0
 18 19  2  0  0  0  0
 18 23  1  0  0  0  0
 19 20  1  0  0  0  0
 20 21  2  0  0  0  0
 21 22  1  0  0  0  0
 21 27  1  0  0  0  0
 22 23  2  0  0  0  0
 22 25  1  0  0  0  0
 23 24  1  0  0  0  0
 25 26  2  0  0  0  0
 26 27  1  0  0  0  0
M  END
>  <CHROM.1>
155.40003866,-66.95515813,-47.59421335,-45.87215498,-83.28197259,56.34349129
167.04137228,50.14274129,52.78356082,24.12532695,-2.28302087,0.48251220,-1.32717472

>  <Name>
ligand

>  <RI>
0

>  <Rbt.Current_Directory>
/home/itssahil/PROJECTS/Mol_Feturizer/New_Systems/rnas/3GX7

>  <Rbt.Executable>
rbdock ($Id: //depot/dev/client3/rdock/2013.1/src/exe/rbdock.cxx#4 $)

>  <Rbt.Library>
libRbt.so (2013.1, Build901 2013/11/27)

>  <Rbt.Parameter_File>
/export/apps/rDock/src/rDock_2013.1_src/data/scripts/dock_solv.prm

>  <Rbt.Receptor>
prm/blind_docking_80.prm

>  <SCORE>
-14.6492

>  <SCORE.INTER>
-10.794

>  <SCORE.INTER.CONST>
1

>  <SCORE.INTER.POLAR>
0

>  <SCORE.INTER.ROT>
7

>  <SCORE.INTER.SOLV>
6.98113

>  <SCORE.INTER.VDW>
-17.7897

>  <SCORE.INTER.norm>
-0.399779

>  <SCORE.INTRA>
-3.8552

>  <SCORE.INTRA.DIHEDRAL>
-5.31554

>  <SCORE.INTRA.DIHEDRAL.0>
11.2699

>  <SCORE.INTRA.POLAR>
0

>  <SCORE.INTRA.POLAR.0>
0

>  <SCORE.INTRA.REPUL>
0

>  <SCORE.INTRA.REPUL.0>
0

>  <SCORE.INTRA.SOLV>
0.556864

>  <SCORE.INTRA.SOLV.lig_0>
-48.6447

>  <SCORE.INTRA.VDW>
-1.47587

>  <SCORE.INTRA.VDW.0>
-0.0211724

>  <SCORE.INTRA.norm>
-0.142785

>  <SCORE.RESTR>
0

>  <SCORE.RESTR.CAVITY>
0

>  <SCORE.RESTR.norm>
0

>  <SCORE.SYSTEM>
0

>  <SCORE.SYSTEM.CONST>
0

>  <SCORE.SYSTEM.DIHEDRAL>
0

>  <SCORE.SYSTEM.SOLV>
0

>  <SCORE.SYSTEM.norm>
0

>  <SCORE.heavy>
27

>  <SCORE.norm>
-0.542564

>  <RMSD>
11.399

$$$$
ligand
 OpenBabel11021811483D
libRbt.so/2013.1/901 2013/11/27
 27 29  0  0  0  0  0  0  0  0999 V2000
   49.0292   54.0767   29.5426 N   0  0  0  0  0  0  0  0  0  0  0  0
   48.0910   53.2121   28.8371 C   0  0  2  0  0  0  0  0  0  0  0  0
   47.3454   52.3197   29.8156 C   0  0  0  0  0  0  0  0  0  0  0  0
   46.1240   52.2054   29.7459 O   0  0  0  0  0  0  0  0  0  0  0  0
   48.7871   52.3665   27.7717 C   0  0  0  0  0  0  0  0  0  0  0  0
   49.4546   53.1638   26.6575 C   0  0  0  0  0  0  0  0  0  0  0  0
   50.0986   52.1564   25.2930 S   0  0  2  0  0  0  0  0  0  0  0  0
   51.6293   51.5200   26.0188 C   0  0  0  0  0  0  0  0  0  0  0  0
   50.7579   53.4547   24.2143 C   0  0  0  0  0  0  0  0  0  0  0  0
   49.6110   54.2341   23.5883 C   0  0  1  0  0  0  0  0  0  0  0  0
   50.1273   54.9980   22.5251 O   0  0  0  0  0  0  0  0  0  0  0  0
   48.5311   53.3732   22.9644 C   0  0  1  0  0  0  0  0  0  0  0  0
   47.4562   53.2142   23.8579 O   0  0  0  0  0  0  0  0  0  0  0  0
   48.1034   54.1665   21.7430 C   0  0  1  0  0  0  0  0  0  0  0  0
   46.8595   54.7753   21.9969 O   0  0  0  0  0  0  0  0  0  0  0  0
   49.1688   55.2338   21.5256 C   0  0  2  0  0  0  0  0  0  0  0  0
   47.9510   51.6955   30.6874 O   0  0  0  0  0  0  0  0  0  0  0  0
   52.9547   52.7602   18.8363 N   0  0  0  0  0  0  0  0  0  0  0  0
   52.6713   52.6806   20.1848 C   0  0  0  0  0  0  0  0  0  0  0  0
   51.6281   53.4100   20.7252 N   0  0  0  0  0  0  0  0  0  0  0  0
   50.8773   54.2165   19.9432 C   0  0  0  0  0  0  0  0  0  0  0  0
   51.1396   54.3063   18.5842 C   0  0  0  0  0  0  0  0  0  0  0  0
   52.1884   53.5763   18.0313 C   0  0  0  0  0  0  0  0  0  0  0  0
   52.4590   53.6552   16.7310 N   0  0  0  0  0  0  0  0  0  0  0  0
   50.2410   55.1628   18.0493 N   0  0  0  0  0  0  0  0  0  0  0  0
   49.4161   55.5997   19.0299 C   0  0  0  0  0  0  0  0  0  0  0  0
   49.7988   55.0210   20.2116 N   0  0  0  0  0  0  0  0  0  0  0  0
  2  1  1  1  0  0  0
  2  3  1  0  0  0  0
  2  5  1  0  0  0  0
  3  4  1  0  0  0  0
  3 17  1  0  0  0  0
  5  6  1  0  0  0  0
  7  6  1  1  0  0  0
  7  8  1  0  0  0  0
  7  9  1  0  0  0  0
 10  9  1  6  0  0  0
 10 11  1  0  0  0  0
 10 12  1  0  0  0  0
 11 16  1  0  0  0  0
 12 13  1  1  0  0  0
 12 14  1  0  0  0  0
 14 15  1  1  0  0  0
 14 16  1  0  0  0  0
 16 27  1  6  0  0  0
 18 19  2  0  0  0  0
 18 23  1  0  0  0  0
 19 20  1  0  0  0  0
 20 21  2  0  0  0  0
 21 22  1  0  0  0  0
 21 27  1  0  0  0  0
 22 23  2  0  0  0  0
 22 25  1  0  0  0  0
 23 24  1  0  0  0  0
 25 26  2  0  0  0  0
 26 27  1  0  0  0  0
M  END
>  <CHROM.1>
132.37593219,-62.06409640,-172.77495254,-77.89857905,-70.90088958,-165.73851318
25.82322389,49.67890559,53.48761359,23.45848695,-1.89374177,0.44933968,-1.26408215

>  <Name>
ligand

>  <RI>
0

>  <Rbt.Current_Directory>
/home/itssahil/PROJECTS/Mol_Feturizer/New_Systems/rnas/3GX7

>  <Rbt.Executable>
rbdock ($Id: //depot/dev/client3/rdock/2013.1/src/exe/rbdock.cxx#4 $)

>  <Rbt.Library>
libRbt.so (2013.1, Build901 2013/11/27)

>  <Rbt.Parameter_File>
/export/apps/rDock/src/rDock_2013.1_src/data/scripts/dock_solv.prm

>  <Rbt.Receptor>
prm/blind_docking_80.prm

>  <SCORE>
-17.9117

>  <SCORE.INTER>
-11.6731

>  <SCORE.INTER.CONST>
1

>  <SCORE.INTER.POLAR>
0

>  <SCORE.INTER.ROT>
7

>  <SCORE.INTER.SOLV>
7.89245

>  <SCORE.INTER.VDW>
-18.6795

>  <SCORE.INTER.norm>
-0.432337

>  <SCORE.INTRA>
-6.23865

>  <SCORE.INTRA.DIHEDRAL>
-6.90418

>  <SCORE.INTRA.DIHEDRAL.0>
11.2699

>  <SCORE.INTRA.POLAR>
0

>  <SCORE.INTRA.POLAR.0>
0

>  <SCORE.INTRA.REPUL>
0

>  <SCORE.INTRA.REPUL.0>
0

>  <SCORE.INTRA.SOLV>
-0.0863502

>  <SCORE.INTRA.SOLV.lig_0>
-48.6447

>  <SCORE.INTRA.VDW>
-2.74338

>  <SCORE.INTRA.VDW.0>
-0.0211724

>  <SCORE.INTRA.norm>
-0.231061

>  <SCORE.RESTR>
0

>  <SCORE.RESTR.CAVITY>
0

>  <SCORE.RESTR.norm>
0

>  <SCORE.SYSTEM>
0

>  <SCORE.SYSTEM.CONST>
0

>  <SCORE.SYSTEM.DIHEDRAL>
0

>  <SCORE.SYSTEM.SOLV>
0

>  <SCORE.SYSTEM.norm>
0

>  <SCORE.heavy>
27

>  <SCORE.norm>
-0.663398

>  <RMSD>
11.420

$$$$
ligand
 OpenBabel11021811483D
libRbt.so/2013.1/901 2013/11/27
 27 29  0  0  0  0  0  0  0  0999 V2000
   51.4964   55.8835   17.6398 N   0  0  0  0  0  0  0  0  0  0  0  0
   51.6296   54.4572   17.9107 C   0  0  2  0  0  0  0  0  0  0  0  0
   50.9884   53.6394   16.8018 C   0  0  0  0  0  0  0  0  0  0  0  0
   50.5881   54.1873   15.7774 O   0  0  0  0  0  0  0  0  0  0  0  0
   51.0318   54.0769   19.2645 C   0  0  0  0  0  0  0  0  0  0  0  0
   49.5855   54.5110   19.4699 C   0  0  0  0  0  0  0  0  0  0  0  0
   48.7955   53.8206   20.9500 S   0  0  2  0  0  0  0  0  0  0  0  0
   47.1405   54.5434   20.8338 C   0  0  0  0  0  0  0  0  0  0  0  0
   49.5280   54.8737   22.2299 C   0  0  0  0  0  0  0  0  0  0  0  0
   49.1822   54.3254   23.6063 C   0  0  1  0  0  0  0  0  0  0  0  0
   49.5784   52.9760   23.6543 O   0  0  0  0  0  0  0  0  0  0  0  0
   49.9173   54.9910   24.7522 C   0  0  1  0  0  0  0  0  0  0  0  0
   49.1093   55.9799   25.3423 O   0  0  0  0  0  0  0  0  0  0  0  0
   50.1705   53.8521   25.7233 C   0  0  1  0  0  0  0  0  0  0  0  0
   49.2799   53.9605   26.8084 O   0  0  0  0  0  0  0  0  0  0  0  0
   49.9011   52.5628   24.9576 C   0  0  2  0  0  0  0  0  0  0  0  0
   50.8645   52.4189   16.9091 O   0  0  0  0  0  0  0  0  0  0  0  0
   53.8442   50.7985   21.9537 N   0  0  0  0  0  0  0  0  0  0  0  0
   52.7778   51.5938   21.5856 C   0  0  0  0  0  0  0  0  0  0  0  0
   51.8253   51.9629   22.5177 N   0  0  0  0  0  0  0  0  0  0  0  0
   51.9203   51.5441   23.7988 C   0  0  0  0  0  0  0  0  0  0  0  0
   52.9874   50.7502   24.1925 C   0  0  0  0  0  0  0  0  0  0  0  0
   53.9508   50.3728   23.2608 C   0  0  0  0  0  0  0  0  0  0  0  0
   54.9776   49.6061   23.6189 N   0  0  0  0  0  0  0  0  0  0  0  0
   52.8409   50.4916   25.5111 N   0  0  0  0  0  0  0  0  0  0  0  0
   51.7230   51.1116   25.9568 C   0  0  0  0  0  0  0  0  0  0  0  0
   51.1404   51.7690   24.9050 N   0  0  0  0  0  0  0  0  0  0  0  0
  2  1  1  6  0  0  0
  2  3  1  0  0  0  0
  2  5  1  0  0  0  0
  3  4  1  0  0  0  0
  3 17  1  0  0  0  0
  5  6  1  0  0  0  0
  7  6  1  6  0  0  0
  7  8  1  0  0  0  0
  7  9  1  0  0  0  0
 10  9  1  6  0  0  0
 10 11  1  0  0  0  0
 10 12  1  0  0  0  0
 11 16  1  0  0  0  0
 12 13  1  1  0  0  0
 12 14  1  0  0  0  0
 14 15  1  1  0  0  0
 14 16  1  0  0  0  0
 16 27  1  6  0  0  0
 18 19  2  0  0  0  0
 18 23  1  0  0  0  0
 19 20  1  0  0  0  0
 20 21  2  0  0  0  0
 21 22  1  0  0  0  0
 21 27  1  0  0  0  0
 22 23  2  0  0  0  0
 22 25  1  0  0  0  0
 23 24  1  0  0  0  0
 25 26  2  0  0  0  0
 26 27  1  0  0  0  0
M  END
>  <CHROM.1>
8.17109253,53.86617405,170.18310141,-179.69306139,-170.64320650,54.05712401
4.60220733,50.81911229,53.10031670,22.11729294,1.73211504,0.72354081,-1.41556781

>  <Name>
ligand

>  <RI>
0

>  <Rbt.Current_Directory>
/home/itssahil/PROJECTS/Mol_Feturizer/New_Systems/rnas/3GX7

>  <Rbt.Executable>
rbdock ($Id: //depot/dev/client3/rdock/2013.1/src/exe/rbdock.cxx#4 $)

>  <Rbt.Library>
libRbt.so (2013.1, Build901 2013/11/27)

>  <Rbt.Parameter_File>
/export/apps/rDock/src/rDock_2013.1_src/data/scripts/dock_solv.prm

>  <Rbt.Receptor>
prm/blind_docking_80.prm

>  <SCORE>
-22.2093

>  <SCORE.INTER>
-16.3575

>  <SCORE.INTER.CONST>
1

>  <SCORE.INTER.POLAR>
0

>  <SCORE.INTER.ROT>
7

>  <SCORE.INTER.SOLV>
7.88204

>  <SCORE.INTER.VDW>
-21.799

>  <SCORE.INTER.norm>
-0.605834

>  <SCORE.INTRA>
-5.85175

>  <SCORE.INTRA.DIHEDRAL>
-6.39374

>  <SCORE.INTRA.DIHEDRAL.0>
11.2699

>  <SCORE.INTRA.POLAR>
0

>  <SCORE.INTRA.POLAR.0>
0

>  <SCORE.INTRA.REPUL>
0

>  <SCORE.INTRA.REPUL.0>
0

>  <SCORE.INTRA.SOLV>
-0.337462

>  <SCORE.INTRA.SOLV.lig_0>
-48.6447

>  <SCORE.INTRA.VDW>
-2.48615

>  <SCORE.INTRA.VDW.0>
-0.0211724

>  <SCORE.INTRA.norm>
-0.216732

>  <SCORE.RESTR>
0

>  <SCORE.RESTR.CAVITY>
0

>  <SCORE.RESTR.norm>
0

>  <SCORE.SYSTEM>
0

>  <SCORE.SYSTEM.CONST>
0

>  <SCORE.SYSTEM.DIHEDRAL>
0

>  <SCORE.SYSTEM.SOLV>
0

>  <SCORE.SYSTEM.norm>
0

>  <SCORE.heavy>
27

>  <SCORE.norm>
-0.822566

>  <RMSD>
11.494

$$$$
ligand
 OpenBabel11021811483D
libRbt.so/2013.1/901 2013/11/27
 27 29  0  0  0  0  0  0  0  0999 V2000
   48.7552   57.8743   28.2286 N   0  0  0  0  0  0  0  0  0  0  0  0
   48.4591   56.4470   28.2561 C   0  0  2  0  0  0  0  0  0  0  0  0
   49.2431   55.7588   29.3612 C   0  0  0  0  0  0  0  0  0  0  0  0
   50.4714   55.7935   29.3661 O   0  0  0  0  0  0  0  0  0  0  0  0
   48.7422   55.7811   26.9103 C   0  0  0  0  0  0  0  0  0  0  0  0
   47.9375   56.3350   25.7406 C   0  0  0  0  0  0  0  0  0  0  0  0
   48.0503   55.3546   24.2182 S   0  0  2  0  0  0  0  0  0  0  0  0
   47.5680   53.7172   24.8189 C   0  0  0  0  0  0  0  0  0  0  0  0
   49.8466   55.1477   24.0980 C   0  0  0  0  0  0  0  0  0  0  0  0
   50.1668   53.8775   23.3243 C   0  0  1  0  0  0  0  0  0  0  0  0
   49.5762   53.9777   22.0509 O   0  0  0  0  0  0  0  0  0  0  0  0
   51.6421   53.6583   23.0563 C   0  0  1  0  0  0  0  0  0  0  0  0
   52.1872   52.7813   24.0116 O   0  0  0  0  0  0  0  0  0  0  0  0
   51.6644   53.0309   21.6742 C   0  0  1  0  0  0  0  0  0  0  0  0
   51.9295   51.6533   21.7940 O   0  0  0  0  0  0  0  0  0  0  0  0
   50.2774   53.2428   21.0805 C   0  0  2  0  0  0  0  0  0  0  0  0
   48.6628   55.1618   30.2685 O   0  0  0  0  0  0  0  0  0  0  0  0
   52.3446   53.6517   16.2593 N   0  0  0  0  0  0  0  0  0  0  0  0
   52.4863   52.6212   17.1665 C   0  0  0  0  0  0  0  0  0  0  0  0
   51.8652   52.6845   18.4005 N   0  0  0  0  0  0  0  0  0  0  0  0
   51.1183   53.7584   18.7385 C   0  0  0  0  0  0  0  0  0  0  0  0
   50.9563   54.8023   17.8397 C   0  0  0  0  0  0  0  0  0  0  0  0
   51.5785   54.7479   16.5953 C   0  0  0  0  0  0  0  0  0  0  0  0
   51.4399   55.7430   15.7230 N   0  0  0  0  0  0  0  0  0  0  0  0
   50.1622   55.7268   18.4244 N   0  0  0  0  0  0  0  0  0  0  0  0
   49.8111   55.2861   19.6553 C   0  0  0  0  0  0  0  0  0  0  0  0
   50.3973   54.0653   19.8648 N   0  0  0  0  0  0  0  0  0  0  0  0
  2  1  1  6  0  0  0
  2  3  1  0  0  0  0
  2  5  1  0  0  0  0
  3  4  1  0  0  0  0
  3 17  1  0  0  0  0
  5  6  1  0  0  0  0
  7  6  1  1  0  0  0
  7  8  1  0  0  0  0
  7  9  1  0  0  0  0
 10  9  1  1  0  0  0
 10 11  1  0  0  0  0
 10 12  1  0  0  0  0
 11 16  1  0  0  0  0
 12 13  1  1  0  0  0
 12 14  1  0  0  0  0
 14 15  1  1  0  0  0
 14 16  1  0  0  0  0
 16 27  1  6  0  0  0
 18 19  2  0  0  0  0
 18 23  1  0  0  0  0
 19 20  1  0  0  0  0
 20 21  2  0  0  0  0
 21 22  1  0  0  0  0
 21 27  1  0  0  0  0
 22 23  2  0  0  0  0
 22 25  1  0  0  0  0
 23 24  1  0  0  0  0
 25 26  2  0  0  0  0
 26 27  1  0  0  0  0
M  END
>  <CHROM.1>
-59.58205983,-60.14060413,-169.47460287,54.10971864,153.74686778,58.32393907
173.49002127,50.14889748,54.56980759,22.70956774,1.95914359,-0.87772972,1.70114088

>  <Name>
ligand

>  <RI>
0

>  <Rbt.Current_Directory>
/home/itssahil/PROJECTS/Mol_Feturizer/New_Systems/rnas/3GX7

>  <Rbt.Executable>
rbdock ($Id: //depot/dev/client3/rdock/2013.1/src/exe/rbdock.cxx#4 $)

>  <Rbt.Library>
libRbt.so (2013.1, Build901 2013/11/27)

>  <Rbt.Parameter_File>
/export/apps/rDock/src/rDock_2013.1_src/data/scripts/dock_solv.prm

>  <Rbt.Receptor>
prm/blind_docking_100.prm

>  <SCORE>
-13.3279

>  <SCORE.INTER>
-9.45743

>  <SCORE.INTER.CONST>
1

>  <SCORE.INTER.POLAR>
0

>  <SCORE.INTER.ROT>
7

>  <SCORE.INTER.SOLV>
18.1673

>  <SCORE.INTER.VDW>
-20.6274

>  <SCORE.INTER.norm>
-0.350275

>  <SCORE.INTRA>
-3.87048

>  <SCORE.INTRA.DIHEDRAL>
-6.77191

>  <SCORE.INTRA.DIHEDRAL.0>
11.2699

>  <SCORE.INTRA.POLAR>
0

>  <SCORE.INTRA.POLAR.0>
0

>  <SCORE.INTRA.REPUL>
0

>  <SCORE.INTRA.REPUL.0>
0

>  <SCORE.INTRA.SOLV>
-0.370691

>  <SCORE.INTRA.SOLV.lig_0>
-48.6447

>  <SCORE.INTRA.VDW>
-0.299174

>  <SCORE.INTRA.VDW.0>
-0.0211724

>  <SCORE.INTRA.norm>
-0.143351

>  <SCORE.RESTR>
0

>  <SCORE.RESTR.CAVITY>
0

>  <SCORE.RESTR.norm>
0

>  <SCORE.SYSTEM>
0

>  <SCORE.SYSTEM.CONST>
0

>  <SCORE.SYSTEM.DIHEDRAL>
0

>  <SCORE.SYSTEM.SOLV>
0

>  <SCORE.SYSTEM.norm>
0

>  <SCORE.heavy>
27

>  <SCORE.norm>
-0.493626

>  <RMSD>
11.837

$$$$
ligand
 OpenBabel11021811483D
libRbt.so/2013.1/901 2013/11/27
 27 29  0  0  0  0  0  0  0  0999 V2000
   49.2439   54.1143   28.9363 N   0  0  0  0  0  0  0  0  0  0  0  0
   48.1888   53.2329   28.4509 C   0  0  2  0  0  0  0  0  0  0  0  0
   47.7133   52.3068   29.5581 C   0  0  0  0  0  0  0  0  0  0  0  0
   48.5101   51.5767   30.1427 O   0  0  0  0  0  0  0  0  0  0  0  0
   48.6388   52.4215   27.2368 C   0  0  0  0  0  0  0  0  0  0  0  0
   49.0026   53.2518   26.0117 C   0  0  0  0  0  0  0  0  0  0  0  0
   47.6011   54.1051   25.2376 S   0  0  2  0  0  0  0  0  0  0  0  0
   46.6649   52.7077   24.5700 C   0  0  0  0  0  0  0  0  0  0  0  0
   48.3917   54.7253   23.7296 C   0  0  0  0  0  0  0  0  0  0  0  0
   49.1130   53.5876   23.0224 C   0  0  1  0  0  0  0  0  0  0  0  0
   48.8264   53.6728   21.6473 O   0  0  0  0  0  0  0  0  0  0  0  0
   50.6245   53.6478   23.1125 C   0  0  1  0  0  0  0  0  0  0  0  0
   51.0858   52.8140   24.1474 O   0  0  0  0  0  0  0  0  0  0  0  0
   51.0834   53.1324   21.7605 C   0  0  1  0  0  0  0  0  0  0  0  0
   51.5644   51.8169   21.9040 O   0  0  0  0  0  0  0  0  0  0  0  0
   49.8577   53.1409   20.8555 C   0  0  2  0  0  0  0  0  0  0  0  0
   46.5276   52.2767   29.8894 O   0  0  0  0  0  0  0  0  0  0  0  0
   52.2449   53.8279   16.2173 N   0  0  0  0  0  0  0  0  0  0  0  0
   52.2686   52.7166   17.0355 C   0  0  0  0  0  0  0  0  0  0  0  0
   51.5758   52.7136   18.2324 N   0  0  0  0  0  0  0  0  0  0  0  0
   50.8732   53.8003   18.6213 C   0  0  0  0  0  0  0  0  0  0  0  0
   50.8296   54.9254   17.8113 C   0  0  0  0  0  0  0  0  0  0  0  0
   51.5248   54.9380   16.6050 C   0  0  0  0  0  0  0  0  0  0  0  0
   51.4999   56.0108   15.8184 N   0  0  0  0  0  0  0  0  0  0  0  0
   50.0559   55.8453   18.4295 N   0  0  0  0  0  0  0  0  0  0  0  0
   49.6027   55.3242   19.5939 C   0  0  0  0  0  0  0  0  0  0  0  0
   50.1019   54.0551   19.7270 N   0  0  0  0  0  0  0  0  0  0  0  0
  2  1  1  1  0  0  0
  2  3  1  0  0  0  0
  2  5  1  0  0  0  0
  3  4  1  0  0  0  0
  3 17  1  0  0  0  0
  5  6  1  0  0  0  0
  7  6  1  1  0  0  0
  7  8  1  0  0  0  0
  7  9  1  0  0  0  0
 10  9  1  1  0  0  0
 10 11  1  0  0  0  0
 10 12  1  0  0  0  0
 11 16  1  0  0  0  0
 12 13  1  1  0  0  0
 12 14  1  0  0  0  0
 14 15  1  1  0  0  0
 14 16  1  0  0  0  0
 16 27  1  6  0  0  0
 18 19  2  0  0  0  0
 18 23  1  0  0  0  0
 19 20  1  0  0  0  0
 20 21  2  0  0  0  0
 21 22  1  0  0  0  0
 21 27  1  0  0  0  0
 22 23  2  0  0  0  0
 22 25  1  0  0  0  0
 23 24  1  0  0  0  0
 25 26  2  0  0  0  0
 26 27  1  0  0  0  0
M  END
>  <CHROM.1>
-56.41278744,-62.35511092,-67.77932180,-68.44055211,51.21291547,135.66722822
-169.00596783,49.60734218,53.56367022,22.80790860,-1.94497223,0.65421156
-1.19464222

>  <Name>
ligand

>  <RI>
0

>  <Rbt.Current_Directory>
/home/itssahil/PROJECTS/Mol_Feturizer/New_Systems/rnas/3GX7

>  <Rbt.Executable>
rbdock ($Id: //depot/dev/client3/rdock/2013.1/src/exe/rbdock.cxx#4 $)

>  <Rbt.Library>
libRbt.so (2013.1, Build901 2013/11/27)

>  <Rbt.Parameter_File>
/export/apps/rDock/src/rDock_2013.1_src/data/scripts/dock_solv.prm

>  <Rbt.Receptor>
prm/blind_docking_80.prm

>  <SCORE>
-14.1944

>  <SCORE.INTER>
-11.6702

>  <SCORE.INTER.CONST>
1

>  <SCORE.INTER.POLAR>
0

>  <SCORE.INTER.ROT>
7

>  <SCORE.INTER.SOLV>
12.8648

>  <SCORE.INTER.VDW>
-20.3351

>  <SCORE.INTER.norm>
-0.432229

>  <SCORE.INTRA>
-2.52426

>  <SCORE.INTRA.DIHEDRAL>
-3.48478

>  <SCORE.INTRA.DIHEDRAL.0>
11.2699

>  <SCORE.INTRA.POLAR>
0

>  <SCORE.INTRA.POLAR.0>
0

>  <SCORE.INTRA.REPUL>
0

>  <SCORE.INTRA.REPUL.0>
0

>  <SCORE.INTRA.SOLV>
0.426528

>  <SCORE.INTRA.SOLV.lig_0>
-48.6447

>  <SCORE.INTRA.VDW>
-0.995128

>  <SCORE.INTRA.VDW.0>
-0.0211724

>  <SCORE.INTRA.norm>
-0.093491

>  <SCORE.RESTR>
0

>  <SCORE.RESTR.CAVITY>
0

>  <SCORE.RESTR.norm>
0

>  <SCORE.SYSTEM>
0

>  <SCORE.SYSTEM.CONST>
0

>  <SCORE.SYSTEM.DIHEDRAL>
0

>  <SCORE.SYSTEM.SOLV>
0

>  <SCORE.SYSTEM.norm>
0

>  <SCORE.heavy>
27

>  <SCORE.norm>
-0.52572

>  <RMSD>
11.944

$$$$
ligand
 OpenBabel11021811483D
libRbt.so/2013.1/901 2013/11/27
 27 29  0  0  0  0  0  0  0  0999 V2000
   46.9299   53.8179   29.4955 N   0  0  0  0  0  0  0  0  0  0  0  0
   47.5222   53.9837   28.1736 C   0  0  2  0  0  0  0  0  0  0  0  0
   46.8105   55.0826   27.4020 C   0  0  0  0  0  0  0  0  0  0  0  0
   45.5839   55.1550   27.4124 O   0  0  0  0  0  0  0  0  0  0  0  0
   47.5079   52.6803   27.3762 C   0  0  0  0  0  0  0  0  0  0  0  0
   48.1773   52.7593   26.0093 C   0  0  0  0  0  0  0  0  0  0  0  0
   47.2272   53.6657   24.7574 S   0  0  2  0  0  0  0  0  0  0  0  0
   45.9827   52.4335   24.3013 C   0  0  0  0  0  0  0  0  0  0  0  0
   48.3523   53.5400   23.3424 C   0  0  0  0  0  0  0  0  0  0  0  0
   47.9393   54.5345   22.2677 C   0  0  1  0  0  0  0  0  0  0  0  0
   49.0804   54.8663   21.5139 O   0  0  0  0  0  0  0  0  0  0  0  0
   46.9459   53.9949   21.2586 C   0  0  1  0  0  0  0  0  0  0  0  0
   45.6383   54.3800   21.6062 O   0  0  0  0  0  0  0  0  0  0  0  0
   47.3710   54.6469   19.9553 C   0  0  1  0  0  0  0  0  0  0  0  0
   46.4684   55.6796   19.6368 O   0  0  0  0  0  0  0  0  0  0  0  0
   48.7595   55.2267   20.1946 C   0  0  2  0  0  0  0  0  0  0  0  0
   47.4487   55.9178   26.7606 O   0  0  0  0  0  0  0  0  0  0  0  0
   52.4172   55.8976   16.4723 N   0  0  0  0  0  0  0  0  0  0  0  0
   51.6857   56.8612   17.1367 C   0  0  0  0  0  0  0  0  0  0  0  0
   50.7567   56.4982   18.0946 N   0  0  0  0  0  0  0  0  0  0  0  0
   50.5461   55.1962   18.3876 C   0  0  0  0  0  0  0  0  0  0  0  0
   51.2750   54.2114   17.7375 C   0  0  0  0  0  0  0  0  0  0  0  0
   52.2120   54.5672   16.7710 C   0  0  0  0  0  0  0  0  0  0  0  0
   52.9156   53.6359   16.1323 N   0  0  0  0  0  0  0  0  0  0  0  0
   50.8760   53.0161   18.2267 N   0  0  0  0  0  0  0  0  0  0  0  0
   49.9305   53.2246   19.1730 C   0  0  0  0  0  0  0  0  0  0  0  0
   49.7148   54.5733   19.2840 N   0  0  0  0  0  0  0  0  0  0  0  0
  2  1  1  1  0  0  0
  2  3  1  0  0  0  0
  2  5  1  0  0  0  0
  3  4  1  0  0  0  0
  3 17  1  0  0  0  0
  5  6  1  0  0  0  0
  7  6  1  1  0  0  0
  7  8  1  0  0  0  0
  7  9  1  0  0  0  0
 10  9  1  1  0  0  0
 10 11  1  0  0  0  0
 10 12  1  0  0  0  0
 11 16  1  0  0  0  0
 12 13  1  1  0  0  0
 12 14  1  0  0  0  0
 14 15  1  1  0  0  0
 14 16  1  0  0  0  0
 16 27  1  6  0  0  0
 18 19  2  0  0  0  0
 18 23  1  0  0  0  0
 19 20  1  0  0  0  0
 20 21  2  0  0  0  0
 21 22  1  0  0  0  0
 21 27  1  0  0  0  0
 22 23  2  0  0  0  0
 22 25  1  0  0  0  0
 23 24  1  0  0  0  0
 25 26  2  0  0  0  0
 26 27  1  0  0  0  0
M  END
>  <CHROM.1>
-43.60050866,-176.97311806,-73.44991067,-77.59733263,-165.29735857,153.44932478
-121.85647461,48.57950370,54.41077424,22.05978090,-2.00209017,0.17223795
-1.39797897

>  <Name>
ligand

>  <RI>
0

>  <Rbt.Current_Directory>
/home/itssahil/PROJECTS/Mol_Feturizer/New_Systems/rnas/3GX7

>  <Rbt.Executable>
rbdock ($Id: //depot/dev/client3/rdock/2013.1/src/exe/rbdock.cxx#4 $)

>  <Rbt.Library>
libRbt.so (2013.1, Build901 2013/11/27)

>  <Rbt.Parameter_File>
/export/apps/rDock/src/rDock_2013.1_src/data/scripts/dock_solv.prm

>  <Rbt.Receptor>
prm/blind_docking_80.prm

>  <SCORE>
-14.029

>  <SCORE.INTER>
-8.91123

>  <SCORE.INTER.CONST>
1

>  <SCORE.INTER.POLAR>
0

>  <SCORE.INTER.ROT>
7

>  <SCORE.INTER.SOLV>
11.6013

>  <SCORE.INTER.VDW>
-18.0746

>  <SCORE.INTER.norm>
-0.330046

>  <SCORE.INTRA>
-5.11777

>  <SCORE.INTRA.DIHEDRAL>
-3.66246

>  <SCORE.INTRA.DIHEDRAL.0>
11.2699

>  <SCORE.INTRA.POLAR>
0

>  <SCORE.INTRA.POLAR.0>
0

>  <SCORE.INTRA.REPUL>
0

>  <SCORE.INTRA.REPUL.0>
0

>  <SCORE.INTRA.SOLV>
-0.793978

>  <SCORE.INTRA.SOLV.lig_0>
-48.6447

>  <SCORE.INTRA.VDW>
-2.88955

>  <SCORE.INTRA.VDW.0>
-0.0211724

>  <SCORE.INTRA.norm>
-0.189547

>  <SCORE.RESTR>
0

>  <SCORE.RESTR.CAVITY>
0

>  <SCORE.RESTR.norm>
0

>  <SCORE.SYSTEM>
0

>  <SCORE.SYSTEM.CONST>
0

>  <SCORE.SYSTEM.DIHEDRAL>
0

>  <SCORE.SYSTEM.SOLV>
0

>  <SCORE.SYSTEM.norm>
0

>  <SCORE.heavy>
27

>  <SCORE.norm>
-0.519593

>  <RMSD>
12.165

$$$$
ligand
 OpenBabel11021811483D
libRbt.so/2013.1/901 2013/11/27
 27 29  0  0  0  0  0  0  0  0999 V2000
   51.1044   53.8954   15.7512 N   0  0  0  0  0  0  0  0  0  0  0  0
   51.7139   53.7726   17.0698 C   0  0  2  0  0  0  0  0  0  0  0  0
   52.5692   52.5188   17.1496 C   0  0  0  0  0  0  0  0  0  0  0  0
   53.5049   52.4544   17.9434 O   0  0  0  0  0  0  0  0  0  0  0  0
   50.6671   53.7729   18.1829 C   0  0  0  0  0  0  0  0  0  0  0  0
   51.2132   54.0685   19.5747 C   0  0  0  0  0  0  0  0  0  0  0  0
   50.2188   53.3916   20.9327 S   0  0  2  0  0  0  0  0  0  0  0  0
   48.6850   54.3342   20.7481 C   0  0  0  0  0  0  0  0  0  0  0  0
   50.9676   54.2497   22.3422 C   0  0  0  0  0  0  0  0  0  0  0  0
   50.5616   53.5620   23.6371 C   0  0  1  0  0  0  0  0  0  0  0  0
   51.0867   52.2565   23.6249 O   0  0  0  0  0  0  0  0  0  0  0  0
   51.1241   54.1992   24.8918 C   0  0  1  0  0  0  0  0  0  0  0  0
   50.1723   55.0567   25.4731 O   0  0  0  0  0  0  0  0  0  0  0  0
   51.4065   53.0146   25.7979 C   0  0  1  0  0  0  0  0  0  0  0  0
   50.4192   52.9506   26.7997 O   0  0  0  0  0  0  0  0  0  0  0  0
   51.3358   51.7716   24.9196 C   0  0  2  0  0  0  0  0  0  0  0  0
   52.3364   51.5494   16.4268 O   0  0  0  0  0  0  0  0  0  0  0  0
   55.0357   49.3617   22.0582 N   0  0  0  0  0  0  0  0  0  0  0  0
   53.8359   49.8944   21.6317 C   0  0  0  0  0  0  0  0  0  0  0  0
   52.9772   50.4960   22.5334 N   0  0  0  0  0  0  0  0  0  0  0  0
   53.2962   50.5637   23.8445 C   0  0  0  0  0  0  0  0  0  0  0  0
   54.4999   50.0414   24.2942 C   0  0  0  0  0  0  0  0  0  0  0  0
   55.3705   49.4329   23.3939 C   0  0  0  0  0  0  0  0  0  0  0  0
   56.5263   48.9204   23.8083 N   0  0  0  0  0  0  0  0  0  0  0  0
   54.5660   50.2537   25.6275 N   0  0  0  0  0  0  0  0  0  0  0  0
   53.4471   50.9057   26.0224 C   0  0  0  0  0  0  0  0  0  0  0  0
   52.6490   51.1050   24.9265 N   0  0  0  0  0  0  0  0  0  0  0  0
  2  1  1  6  0  0  0
  2  3  1  0  0  0  0
  2  5  1  0  0  0  0
  3  4  1  0  0  0  0
  3 17  1  0  0  0  0
  5  6  1  0  0  0  0
  7  6  1  6  0  0  0
  7  8  1  0  0  0  0
  7  9  1  0  0  0  0
 10  9  1  6  0  0  0
 10 11  1  0  0  0  0
 10 12  1  0  0  0  0
 11 16  1  0  0  0  0
 12 13  1  1  0  0  0
 12 14  1  0  0  0  0
 14 15  1  1  0  0  0
 14 16  1  0  0  0  0
 16 27  1  6  0  0  0
 18 19  2  0  0  0  0
 18 23  1  0  0  0  0
 19 20  1  0  0  0  0
 20 21  2  0  0  0  0
 21 22  1  0  0  0  0
 21 27  1  0  0  0  0
 22 23  2  0  0  0  0
 22 25  1  0  0  0  0
 23 24  1  0  0  0  0
 25 26  2  0  0  0  0
 26 27  1  0  0  0  0
M  END
>  <CHROM.1>
154.53224907,-162.44954084,-154.69386714,-65.07032917,-164.32540797,63.61282083
-23.79822652,52.11108452,52.25692096,22.10423932,-1.83581766,-0.73954864
1.64366539

>  <Name>
ligand

>  <RI>
0

>  <Rbt.Current_Directory>
/home/itssahil/PROJECTS/Mol_Feturizer/New_Systems/rnas/3GX7

>  <Rbt.Executable>
rbdock ($Id: //depot/dev/client3/rdock/2013.1/src/exe/rbdock.cxx#4 $)

>  <Rbt.Library>
libRbt.so (2013.1, Build901 2013/11/27)

>  <Rbt.Parameter_File>
/export/apps/rDock/src/rDock_2013.1_src/data/scripts/dock_solv.prm

>  <Rbt.Receptor>
prm/blind_docking_80.prm

>  <SCORE>
-16.8564

>  <SCORE.INTER>
-12.4388

>  <SCORE.INTER.CONST>
1

>  <SCORE.INTER.POLAR>
0

>  <SCORE.INTER.ROT>
7

>  <SCORE.INTER.SOLV>
17.5686

>  <SCORE.INTER.VDW>
-22.4154

>  <SCORE.INTER.norm>
-0.460696

>  <SCORE.INTRA>
-4.41759

>  <SCORE.INTRA.DIHEDRAL>
-3.35013

>  <SCORE.INTRA.DIHEDRAL.0>
11.2699

>  <SCORE.INTRA.POLAR>
0

>  <SCORE.INTRA.POLAR.0>
0

>  <SCORE.INTRA.REPUL>
0

>  <SCORE.INTRA.REPUL.0>
0

>  <SCORE.INTRA.SOLV>
-1.06578

>  <SCORE.INTRA.SOLV.lig_0>
-48.6447

>  <SCORE.INTRA.VDW>
-2.20963

>  <SCORE.INTRA.VDW.0>
-0.0211724

>  <SCORE.INTRA.norm>
-0.163614

>  <SCORE.RESTR>
0

>  <SCORE.RESTR.CAVITY>
0

>  <SCORE.RESTR.norm>
0

>  <SCORE.SYSTEM>
0

>  <SCORE.SYSTEM.CONST>
0

>  <SCORE.SYSTEM.DIHEDRAL>
0

>  <SCORE.SYSTEM.SOLV>
0

>  <SCORE.SYSTEM.norm>
0

>  <SCORE.heavy>
27

>  <SCORE.norm>
-0.62431

>  <RMSD>
12.316

$$$$
ligand
 OpenBabel11021811483D
libRbt.so/2013.1/901 2013/11/27
 27 29  0  0  0  0  0  0  0  0999 V2000
   49.5389   55.3739   21.4305 N   0  0  0  0  0  0  0  0  0  0  0  0
   48.8576   54.0979   21.6128 C   0  0  2  0  0  0  0  0  0  0  0  0
   48.1920   53.6568   20.3197 C   0  0  0  0  0  0  0  0  0  0  0  0
   48.5693   52.6401   19.7419 O   0  0  0  0  0  0  0  0  0  0  0  0
   47.8324   54.1568   22.7444 C   0  0  0  0  0  0  0  0  0  0  0  0
   48.4279   54.2950   24.1405 C   0  0  0  0  0  0  0  0  0  0  0  0
   49.2899   52.8158   24.7407 S   0  0  2  0  0  0  0  0  0  0  0  0
   49.2550   53.0908   26.5290 C   0  0  0  0  0  0  0  0  0  0  0  0
   51.0053   53.2669   24.3693 C   0  0  0  0  0  0  0  0  0  0  0  0
   51.6073   52.2515   23.4095 C   0  0  1  0  0  0  0  0  0  0  0  0
   51.2579   52.6249   22.0985 O   0  0  0  0  0  0  0  0  0  0  0  0
   53.1219   52.2026   23.4129 C   0  0  1  0  0  0  0  0  0  0  0  0
   53.5751   51.1540   24.2339 O   0  0  0  0  0  0  0  0  0  0  0  0
   53.4738   51.9397   21.9599 C   0  0  1  0  0  0  0  0  0  0  0  0
   53.8671   50.5957   21.8133 O   0  0  0  0  0  0  0  0  0  0  0  0
   52.2073   52.2006   21.1541 C   0  0  2  0  0  0  0  0  0  0  0  0
   47.2645   54.3055   19.8345 O   0  0  0  0  0  0  0  0  0  0  0  0
   51.2241   54.1919   16.3842 N   0  0  0  0  0  0  0  0  0  0  0  0
   50.7479   53.0204   16.9372 C   0  0  0  0  0  0  0  0  0  0  0  0
   51.1164   52.6502   18.2176 N   0  0  0  0  0  0  0  0  0  0  0  0
   51.9535   53.4250   18.9418 C   0  0  0  0  0  0  0  0  0  0  0  0
   52.4385   54.6101   18.4088 C   0  0  0  0  0  0  0  0  0  0  0  0
   52.0737   54.9907   17.1201 C   0  0  0  0  0  0  0  0  0  0  0  0
   52.5345   56.1207   16.5899 N   0  0  0  0  0  0  0  0  0  0  0  0
   53.2328   55.1833   19.3402 N   0  0  0  0  0  0  0  0  0  0  0  0
   53.2475   54.4001   20.4443 C   0  0  0  0  0  0  0  0  0  0  0  0
   52.4579   53.3045   20.2120 N   0  0  0  0  0  0  0  0  0  0  0  0
  2  1  1  6  0  0  0
  2  3  1  0  0  0  0
  2  5  1  0  0  0  0
  3  4  1  0  0  0  0
  3 17  1  0  0  0  0
  5  6  1  0  0  0  0
  7  6  1  6  0  0  0
  7  8  1  0  0  0  0
  7  9  1  0  0  0  0
 10  9  1  1  0  0  0
 10 11  1  0  0  0  0
 10 12  1  0  0  0  0
 11 16  1  0  0  0  0
 12 13  1  1  0  0  0
 12 14  1  0  0  0  0
 14 15  1  1  0  0  0
 14 16  1  0  0  0  0
 16 27  1  6  0  0  0
 18 19  2  0  0  0  0
 18 23  1  0  0  0  0
 19 20  1  0  0  0  0
 20 21  2  0  0  0  0
 21 22  1  0  0  0  0
 21 27  1  0  0  0  0
 22 23  2  0  0  0  0
 22 25  1  0  0  0  0
 23 24  1  0  0  0  0
 25 26  2  0  0  0  0
 26 27  1  0  0  0  0
M  END
>  <CHROM.1>
115.19291010,-68.86268859,-70.23577599,-158.59041118,-119.99718366,84.63802949
-101.94563084,50.93842578,53.36267785,21.22519373,1.80240260,-0.31811599
1.86484539

>  <Name>
ligand

>  <RI>
0

>  <Rbt.Current_Directory>
/home/itssahil/PROJECTS/Mol_Feturizer/New_Systems/rnas/3GX7

>  <Rbt.Executable>
rbdock ($Id: //depot/dev/client3/rdock/2013.1/src/exe/rbdock.cxx#4 $)

>  <Rbt.Library>
libRbt.so (2013.1, Build901 2013/11/27)

>  <Rbt.Parameter_File>
/export/apps/rDock/src/rDock_2013.1_src/data/scripts/dock_solv.prm

>  <Rbt.Receptor>
prm/blind_docking_80.prm

>  <SCORE>
-11.4466

>  <SCORE.INTER>
-8.37052

>  <SCORE.INTER.CONST>
1

>  <SCORE.INTER.POLAR>
0

>  <SCORE.INTER.ROT>
7

>  <SCORE.INTER.SOLV>
9.75943

>  <SCORE.INTER.VDW>
-17.1002

>  <SCORE.INTER.norm>
-0.310019

>  <SCORE.INTRA>
-3.07609

>  <SCORE.INTRA.DIHEDRAL>
0.833635

>  <SCORE.INTRA.DIHEDRAL.0>
11.2699

>  <SCORE.INTRA.POLAR>
0

>  <SCORE.INTRA.POLAR.0>
0

>  <SCORE.INTRA.REPUL>
0

>  <SCORE.INTRA.REPUL.0>
0

>  <SCORE.INTRA.SOLV>
1.98301

>  <SCORE.INTRA.SOLV.lig_0>
-48.6447

>  <SCORE.INTRA.VDW>
-4.48441

>  <SCORE.INTRA.VDW.0>
-0.0211724

>  <SCORE.INTRA.norm>
-0.113929

>  <SCORE.RESTR>
0

>  <SCORE.RESTR.CAVITY>
0

>  <SCORE.RESTR.norm>
0

>  <SCORE.SYSTEM>
0

>  <SCORE.SYSTEM.CONST>
0

>  <SCORE.SYSTEM.DIHEDRAL>
0

>  <SCORE.SYSTEM.SOLV>
0

>  <SCORE.SYSTEM.norm>
0

>  <SCORE.heavy>
27

>  <SCORE.norm>
-0.423949

>  <RMSD>
12.370

$$$$
ligand
 OpenBabel11021811483D
libRbt.so/2013.1/901 2013/11/27
 27 29  0  0  0  0  0  0  0  0999 V2000
   55.1144   49.7468   22.1951 N   0  0  0  0  0  0  0  0  0  0  0  0
   54.3364   50.5284   23.1487 C   0  0  2  0  0  0  0  0  0  0  0  0
   54.1490   49.7583   24.4454 C   0  0  0  0  0  0  0  0  0  0  0  0
   54.0425   48.5342   24.4315 O   0  0  0  0  0  0  0  0  0  0  0  0
   52.9814   50.9406   22.5754 C   0  0  0  0  0  0  0  0  0  0  0  0
   52.9682   52.2938   21.8744 C   0  0  0  0  0  0  0  0  0  0  0  0
   53.8927   52.3420   20.3141 S   0  0  2  0  0  0  0  0  0  0  0  0
   55.5928   52.4834   20.9180 C   0  0  0  0  0  0  0  0  0  0  0  0
   53.5789   54.0523   19.8038 C   0  0  0  0  0  0  0  0  0  0  0  0
   52.2975   54.1175   18.9863 C   0  0  1  0  0  0  0  0  0  0  0  0
   51.2311   53.7047   19.8066 O   0  0  0  0  0  0  0  0  0  0  0  0
   51.9180   55.5086   18.5202 C   0  0  1  0  0  0  0  0  0  0  0  0
   52.3448   55.7134   17.1954 O   0  0  0  0  0  0  0  0  0  0  0  0
   50.4023   55.5123   18.6045 C   0  0  1  0  0  0  0  0  0  0  0  0
   49.8650   55.4061   17.3074 O   0  0  0  0  0  0  0  0  0  0  0  0
   50.0121   54.2922   19.4294 C   0  0  2  0  0  0  0  0  0  0  0  0
   54.1058   50.3453   25.5271 O   0  0  0  0  0  0  0  0  0  0  0  0
   50.4072   55.3691   24.5643 N   0  0  0  0  0  0  0  0  0  0  0  0
   51.3939   54.9341   23.7029 C   0  0  0  0  0  0  0  0  0  0  0  0
   51.1064   54.6982   22.3710 N   0  0  0  0  0  0  0  0  0  0  0  0
   49.8549   54.8822   21.8961 C   0  0  0  0  0  0  0  0  0  0  0  0
   48.8494   55.3258   22.7423 C   0  0  0  0  0  0  0  0  0  0  0  0
   49.1292   55.5651   24.0851 C   0  0  0  0  0  0  0  0  0  0  0  0
   48.1758   55.9845   24.9129 N   0  0  0  0  0  0  0  0  0  0  0  0
   47.7171   55.4336   22.0118 N   0  0  0  0  0  0  0  0  0  0  0  0
   47.9877   55.0850   20.7320 C   0  0  0  0  0  0  0  0  0  0  0  0
   49.3110   54.7399   20.6446 N   0  0  0  0  0  0  0  0  0  0  0  0
  2  1  1  6  0  0  0
  2  3  1  0  0  0  0
  2  5  1  0  0  0  0
  3  4  1  0  0  0  0
  3 17  1  0  0  0  0
  5  6  1  0  0  0  0
  7  6  1  1  0  0  0
  7  8  1  0  0  0  0
  7  9  1  0  0  0  0
 10  9  1  1  0  0  0
 10 11  1  0  0  0  0
 10 12  1  0  0  0  0
 11 16  1  0  0  0  0
 12 13  1  6  0  0  0
 12 14  1  0  0  0  0
 14 15  1  6  0  0  0
 14 16  1  0  0  0  0
 16 27  1  1  0  0  0
 18 19  2  0  0  0  0
 18 23  1  0  0  0  0
 19 20  1  0  0  0  0
 20 21  2  0  0  0  0
 21 22  1  0  0  0  0
 21 27  1  0  0  0  0
 22 23  2  0  0  0  0
 22 25  1  0  0  0  0
 23 24  1  0  0  0  0
 25 26  2  0  0  0  0
 26 27  1  0  0  0  0
M  END
>  <CHROM.1>
-33.47999091,-91.58922537,68.98514556,-78.85071172,-88.36826476,62.32982570
15.04433082,51.75917713,53.49510794,21.48601654,-0.65728343,0.66864092,-1.20429944

>  <Name>
ligand

>  <RI>
0

>  <Rbt.Current_Directory>
/home/itssahil/PROJECTS/Mol_Feturizer/New_Systems/rnas/3GX7

>  <Rbt.Executable>
rbdock ($Id: //depot/dev/client3/rdock/2013.1/src/exe/rbdock.cxx#4 $)

>  <Rbt.Library>
libRbt.so (2013.1, Build901 2013/11/27)

>  <Rbt.Parameter_File>
/export/apps/rDock/src/rDock_2013.1_src/data/scripts/dock_solv.prm

>  <Rbt.Receptor>
prm/blind_docking_80.prm

>  <SCORE>
-16.9159

>  <SCORE.INTER>
-12.7766

>  <SCORE.INTER.CONST>
1

>  <SCORE.INTER.POLAR>
0

>  <SCORE.INTER.ROT>
7

>  <SCORE.INTER.SOLV>
14.6557

>  <SCORE.INTER.VDW>
-21.6696

>  <SCORE.INTER.norm>
-0.473206

>  <SCORE.INTRA>
-4.13934

>  <SCORE.INTRA.DIHEDRAL>
-3.18096

>  <SCORE.INTRA.DIHEDRAL.0>
11.2699

>  <SCORE.INTRA.POLAR>
0

>  <SCORE.INTRA.POLAR.0>
0

>  <SCORE.INTRA.REPUL>
0

>  <SCORE.INTRA.REPUL.0>
0

>  <SCORE.INTRA.SOLV>
1.60867

>  <SCORE.INTRA.SOLV.lig_0>
-48.6447

>  <SCORE.INTRA.VDW>
-3.3532

>  <SCORE.INTRA.VDW.0>
-0.0211724

>  <SCORE.INTRA.norm>
-0.153309

>  <SCORE.RESTR>
0

>  <SCORE.RESTR.CAVITY>
0

>  <SCORE.RESTR.norm>
0

>  <SCORE.SYSTEM>
0

>  <SCORE.SYSTEM.CONST>
0

>  <SCORE.SYSTEM.DIHEDRAL>
0

>  <SCORE.SYSTEM.SOLV>
0

>  <SCORE.SYSTEM.norm>
0

>  <SCORE.heavy>
27

>  <SCORE.norm>
-0.626515

>  <RMSD>
12.522

$$$$
ligand
 OpenBabel11021811483D
libRbt.so/2013.1/901 2013/11/27
 27 29  0  0  0  0  0  0  0  0999 V2000
   51.1141   52.7702   27.4893 N   0  0  0  0  0  0  0  0  0  0  0  0
   50.3441   52.1073   26.4436 C   0  0  2  0  0  0  0  0  0  0  0  0
   51.2678   51.4050   25.4622 C   0  0  0  0  0  0  0  0  0  0  0  0
   51.6502   51.9818   24.4469 O   0  0  0  0  0  0  0  0  0  0  0  0
   49.4285   53.0831   25.7058 C   0  0  0  0  0  0  0  0  0  0  0  0
   50.1277   54.3139   25.1410 C   0  0  0  0  0  0  0  0  0  0  0  0
   49.0157   55.5266   24.3767 S   0  0  2  0  0  0  0  0  0  0  0  0
   47.9134   55.9120   25.7591 C   0  0  0  0  0  0  0  0  0  0  0  0
   47.9548   54.4259   23.4036 C   0  0  0  0  0  0  0  0  0  0  0  0
   47.5218   55.1277   22.1251 C   0  0  1  0  0  0  0  0  0  0  0  0
   48.6712   55.3896   21.3565 O   0  0  0  0  0  0  0  0  0  0  0  0
   46.6277   54.2999   21.2242 C   0  0  1  0  0  0  0  0  0  0  0  0
   45.2776   54.6342   21.4351 O   0  0  0  0  0  0  0  0  0  0  0  0
   47.0679   54.6931   19.8256 C   0  0  1  0  0  0  0  0  0  0  0  0
   46.1050   55.5506   19.2598 O   0  0  0  0  0  0  0  0  0  0  0  0
   48.3923   55.4302   19.9802 C   0  0  2  0  0  0  0  0  0  0  0  0
   51.6505   50.2531   25.6699 O   0  0  0  0  0  0  0  0  0  0  0  0
   52.4160   55.6869   16.5997 N   0  0  0  0  0  0  0  0  0  0  0  0
   51.6127   56.7135   17.0533 C   0  0  0  0  0  0  0  0  0  0  0  0
   50.5906   56.4590   17.9493 N   0  0  0  0  0  0  0  0  0  0  0  0
   50.3588   55.2019   18.3869 C   0  0  0  0  0  0  0  0  0  0  0  0
   51.1582   54.1560   17.9499 C   0  0  0  0  0  0  0  0  0  0  0  0
   52.1891   54.4025   17.0470 C   0  0  0  0  0  0  0  0  0  0  0  0
   52.9618   53.4106   16.6117 N   0  0  0  0  0  0  0  0  0  0  0  0
   50.7178   53.0264   18.5474 N   0  0  0  0  0  0  0  0  0  0  0  0
   49.6769   53.3366   19.3557 C   0  0  0  0  0  0  0  0  0  0  0  0
   49.4421   54.6837   19.2664 N   0  0  0  0  0  0  0  0  0  0  0  0
  2  1  1  1  0  0  0
  2  3  1  0  0  0  0
  2  5  1  0  0  0  0
  3  4  1  0  0  0  0
  3 17  1  0  0  0  0
  5  6  1  0  0  0  0
  7  6  1  1  0  0  0
  7  8  1  0  0  0  0
  7  9  1  0  0  0  0
 10  9  1  1  0  0  0
 10 11  1  0  0  0  0
 10 12  1  0  0  0  0
 11 16  1  0  0  0  0
 12 13  1  6  0  0  0
 12 14  1  0  0  0  0
 14 15  1  1  0  0  0
 14 16  1  0  0  0  0
 16 27  1  6  0  0  0
 18 19  2  0  0  0  0
 18 23  1  0  0  0  0
 19 20  1  0  0  0  0
 20 21  2  0  0  0  0
 21 22  1  0  0  0  0
 21 27  1  0  0  0  0
 22 23  2  0  0  0  0
 22 25  1  0  0  0  0
 23 24  1  0  0  0  0
 25 26  2  0  0  0  0
 26 27  1  0  0  0  0
M  END
>  <CHROM.1>
-92.60066656,53.58633484,-175.61224722,58.15885617,-146.97041426,63.18413142
-114.56540136,49.59453249,54.26863875,21.63925255,-1.65376271,0.45239259
-1.29590540

>  <Name>
ligand

>  <RI>
0

>  <Rbt.Current_Directory>
/home/itssahil/PROJECTS/Mol_Feturizer/New_Systems/rnas/3GX7

>  <Rbt.Executable>
rbdock ($Id: //depot/dev/client3/rdock/2013.1/src/exe/rbdock.cxx#4 $)

>  <Rbt.Library>
libRbt.so (2013.1, Build901 2013/11/27)

>  <Rbt.Parameter_File>
/export/apps/rDock/src/rDock_2013.1_src/data/scripts/dock_solv.prm

>  <Rbt.Receptor>
prm/blind_docking_80.prm

>  <SCORE>
-15.5913

>  <SCORE.INTER>
-12.9579

>  <SCORE.INTER.CONST>
1

>  <SCORE.INTER.POLAR>
0

>  <SCORE.INTER.ROT>
7

>  <SCORE.INTER.SOLV>
12.4137

>  <SCORE.INTER.VDW>
-21.0432

>  <SCORE.INTER.norm>
-0.479922

>  <SCORE.INTRA>
-2.63338

>  <SCORE.INTRA.DIHEDRAL>
-4.31243

>  <SCORE.INTRA.DIHEDRAL.0>
11.2699

>  <SCORE.INTRA.POLAR>
0

>  <SCORE.INTRA.POLAR.0>
0

>  <SCORE.INTRA.REPUL>
0

>  <SCORE.INTRA.REPUL.0>
0

>  <SCORE.INTRA.SOLV>
-0.466296

>  <SCORE.INTRA.SOLV.lig_0>
-48.6447

>  <SCORE.INTRA.VDW>
-0.244017

>  <SCORE.INTRA.VDW.0>
-0.0211724

>  <SCORE.INTRA.norm>
-0.0975326

>  <SCORE.RESTR>
0

>  <SCORE.RESTR.CAVITY>
0

>  <SCORE.RESTR.norm>
0

>  <SCORE.SYSTEM>
0

>  <SCORE.SYSTEM.CONST>
0

>  <SCORE.SYSTEM.DIHEDRAL>
0

>  <SCORE.SYSTEM.SOLV>
0

>  <SCORE.SYSTEM.norm>
0

>  <SCORE.heavy>
27

>  <SCORE.norm>
-0.577455

>  <RMSD>
12.524

$$$$
ligand
 OpenBabel11021811483D
libRbt.so/2013.1/901 2013/11/27
 27 29  0  0  0  0  0  0  0  0999 V2000
   53.9743   45.4916   19.5249 N   0  0  0  0  0  0  0  0  0  0  0  0
   55.0051   46.4165   19.0692 C   0  0  2  0  0  0  0  0  0  0  0  0
   56.3638   46.0183   19.6216 C   0  0  0  0  0  0  0  0  0  0  0  0
   56.4649   45.5748   20.7631 O   0  0  0  0  0  0  0  0  0  0  0  0
   54.6809   47.8611   19.4471 C   0  0  0  0  0  0  0  0  0  0  0  0
   54.5028   48.1071   20.9406 C   0  0  0  0  0  0  0  0  0  0  0  0
   54.3471   49.8547   21.4021 S   0  0  2  0  0  0  0  0  0  0  0  0
   56.0534   50.2510   21.8561 C   0  0  0  0  0  0  0  0  0  0  0  0
   53.5967   49.6912   23.0434 C   0  0  0  0  0  0  0  0  0  0  0  0
   53.5045   51.0583   23.7047 C   0  0  1  0  0  0  0  0  0  0  0  0
   52.9471   51.9583   22.7776 O   0  0  0  0  0  0  0  0  0  0  0  0
   52.5850   51.1151   24.9079 C   0  0  1  0  0  0  0  0  0  0  0  0
   53.3275   50.9922   26.0964 O   0  0  0  0  0  0  0  0  0  0  0  0
   51.9514   52.4909   24.8083 C   0  0  1  0  0  0  0  0  0  0  0  0
   52.5370   53.3421   25.7649 O   0  0  0  0  0  0  0  0  0  0  0  0
   52.2499   53.0041   23.4051 C   0  0  2  0  0  0  0  0  0  0  0  0
   57.3805   46.1284   18.9356 O   0  0  0  0  0  0  0  0  0  0  0  0
   47.7977   55.7942   23.1284 N   0  0  0  0  0  0  0  0  0  0  0  0
   48.8328   55.9221   24.0323 C   0  0  0  0  0  0  0  0  0  0  0  0
   49.9368   55.0928   23.9543 N   0  0  0  0  0  0  0  0  0  0  0  0
   50.0141   54.1413   22.9982 C   0  0  0  0  0  0  0  0  0  0  0  0
   48.9887   53.9997   22.0750 C   0  0  0  0  0  0  0  0  0  0  0  0
   47.8729   54.8294   22.1461 C   0  0  0  0  0  0  0  0  0  0  0  0
   46.8767   54.7036   21.2732 N   0  0  0  0  0  0  0  0  0  0  0  0
   49.3277   52.9944   21.2373 N   0  0  0  0  0  0  0  0  0  0  0  0
   50.5401   52.5132   21.5998 C   0  0  0  0  0  0  0  0  0  0  0  0
   50.9789   53.2152   22.6918 N   0  0  0  0  0  0  0  0  0  0  0  0
  2  1  1  1  0  0  0
  2  3  1  0  0  0  0
  2  5  1  0  0  0  0
  3  4  1  0  0  0  0
  3 17  1  0  0  0  0
  5  6  1  0  0  0  0
  7  6  1  1  0  0  0
  7  8  1  0  0  0  0
  7  9  1  0  0  0  0
 10  9  1  6  0  0  0
 10 11  1  0  0  0  0
 10 12  1  0  0  0  0
 11 16  1  0  0  0  0
 12 13  1  1  0  0  0
 12 14  1  0  0  0  0
 14 15  1  1  0  0  0
 14 16  1  0  0  0  0
 16 27  1  6  0  0  0
 18 19  2  0  0  0  0
 18 23  1  0  0  0  0
 19 20  1  0  0  0  0
 20 21  2  0  0  0  0
 21 22  1  0  0  0  0
 21 27  1  0  0  0  0
 22 23  2  0  0  0  0
 22 25  1  0  0  0  0
 23 24  1  0  0  0  0
 25 26  2  0  0  0  0
 26 27  1  0  0  0  0
M  END
>  <CHROM.1>
-37.64327313,58.28205038,171.94649218,-95.82669510,173.94521271,48.20474474
179.72578634,52.52870918,51.05238415,22.23515859,0.69409421,0.64202002,-2.13842542

>  <Name>
ligand

>  <RI>
0

>  <Rbt.Current_Directory>
/home/itssahil/PROJECTS/Mol_Feturizer/New_Systems/rnas/3GX7

>  <Rbt.Executable>
rbdock ($Id: //depot/dev/client3/rdock/2013.1/src/exe/rbdock.cxx#4 $)

>  <Rbt.Library>
libRbt.so (2013.1, Build901 2013/11/27)

>  <Rbt.Parameter_File>
/export/apps/rDock/src/rDock_2013.1_src/data/scripts/dock_solv.prm

>  <Rbt.Receptor>
prm/blind_docking_80.prm

>  <SCORE>
-20.3824

>  <SCORE.INTER>
-15.3774

>  <SCORE.INTER.CONST>
1

>  <SCORE.INTER.POLAR>
0

>  <SCORE.INTER.ROT>
7

>  <SCORE.INTER.SOLV>
15.4039

>  <SCORE.INTER.VDW>
-23.6529

>  <SCORE.INTER.norm>
-0.569532

>  <SCORE.INTRA>
-5.00507

>  <SCORE.INTRA.DIHEDRAL>
-5.49693

>  <SCORE.INTRA.DIHEDRAL.0>
11.2699

>  <SCORE.INTRA.POLAR>
0

>  <SCORE.INTRA.POLAR.0>
0

>  <SCORE.INTRA.REPUL>
0

>  <SCORE.INTRA.REPUL.0>
0

>  <SCORE.INTRA.SOLV>
-0.375226

>  <SCORE.INTRA.SOLV.lig_0>
-48.6447

>  <SCORE.INTRA.VDW>
-2.069

>  <SCORE.INTRA.VDW.0>
-0.0211724

>  <SCORE.INTRA.norm>
-0.185373

>  <SCORE.RESTR>
0

>  <SCORE.RESTR.CAVITY>
0

>  <SCORE.RESTR.norm>
0

>  <SCORE.SYSTEM>
0

>  <SCORE.SYSTEM.CONST>
0

>  <SCORE.SYSTEM.DIHEDRAL>
0

>  <SCORE.SYSTEM.SOLV>
0

>  <SCORE.SYSTEM.norm>
0

>  <SCORE.heavy>
27

>  <SCORE.norm>
-0.754905

>  <RMSD>
12.561

$$$$
ligand
 OpenBabel11021811483D
libRbt.so/2013.1/901 2013/11/27
 27 29  0  0  0  0  0  0  0  0999 V2000
   55.3962   47.5110   20.2688 N   0  0  0  0  0  0  0  0  0  0  0  0
   55.3690   47.9830   21.6479 C   0  0  2  0  0  0  0  0  0  0  0  0
   55.6555   46.8421   22.6101 C   0  0  0  0  0  0  0  0  0  0  0  0
   55.4484   45.6786   22.2737 O   0  0  0  0  0  0  0  0  0  0  0  0
   54.0383   48.6490   21.9953 C   0  0  0  0  0  0  0  0  0  0  0  0
   54.0050   49.3425   23.3520 C   0  0  0  0  0  0  0  0  0  0  0  0
   54.9892   50.8638   23.4440 S   0  0  2  0  0  0  0  0  0  0  0  0
   56.6492   50.1923   23.7055 C   0  0  0  0  0  0  0  0  0  0  0  0
   54.5845   51.4109   25.1235 C   0  0  0  0  0  0  0  0  0  0  0  0
   53.2427   52.1280   25.1209 C   0  0  1  0  0  0  0  0  0  0  0  0
   53.2215   53.0171   24.0304 O   0  0  0  0  0  0  0  0  0  0  0  0
   52.0454   51.2228   24.9122 C   0  0  1  0  0  0  0  0  0  0  0  0
   51.4588   50.8959   26.1484 O   0  0  0  0  0  0  0  0  0  0  0  0
   51.1017   52.0666   24.0745 C   0  0  1  0  0  0  0  0  0  0  0  0
   50.0529   52.5364   24.8880 O   0  0  0  0  0  0  0  0  0  0  0  0
   51.9196   53.2413   23.5525 C   0  0  2  0  0  0  0  0  0  0  0  0
   56.1024   47.0636   23.7360 O   0  0  0  0  0  0  0  0  0  0  0  0
   49.6875   54.8807   19.0789 N   0  0  0  0  0  0  0  0  0  0  0  0
   49.3295   55.1872   20.3761 C   0  0  0  0  0  0  0  0  0  0  0  0
   50.0364   54.6589   21.4408 N   0  0  0  0  0  0  0  0  0  0  0  0
   51.0815   53.8296   21.2268 C   0  0  0  0  0  0  0  0  0  0  0  0
   51.4633   53.5137   19.9313 C   0  0  0  0  0  0  0  0  0  0  0  0
   50.7570   54.0401   18.8530 C   0  0  0  0  0  0  0  0  0  0  0  0
   51.1046   53.7428   17.6036 N   0  0  0  0  0  0  0  0  0  0  0  0
   52.5299   52.6871   20.0086 N   0  0  0  0  0  0  0  0  0  0  0  0
   52.8354   52.4883   21.3125 C   0  0  0  0  0  0  0  0  0  0  0  0
   51.9447   53.1911   22.0809 N   0  0  0  0  0  0  0  0  0  0  0  0
  2  1  1  6  0  0  0
  2  3  1  0  0  0  0
  2  5  1  0  0  0  0
  3  4  1  0  0  0  0
  3 17  1  0  0  0  0
  5  6  1  0  0  0  0
  7  6  1  1  0  0  0
  7  8  1  0  0  0  0
  7  9  1  0  0  0  0
 10  9  1  6  0  0  0
 10 11  1  0  0  0  0
 10 12  1  0  0  0  0
 11 16  1  0  0  0  0
 12 13  1  1  0  0  0
 12 14  1  0  0  0  0
 14 15  1  1  0  0  0
 14 16  1  0  0  0  0
 16 27  1  6  0  0  0
 18 19  2  0  0  0  0
 18 23  1  0  0  0  0
 19 20  1  0  0  0  0
 20 21  2  0  0  0  0
 21 22  1  0  0  0  0
 21 27  1  0  0  0  0
 22 23  2  0  0  0  0
 22 25  1  0  0  0  0
 23 24  1  0  0  0  0
 25 26  2  0  0  0  0
 26 27  1  0  0  0  0
M  END
>  <CHROM.1>
-23.45761681,-171.69033357,70.95181806,-80.93151739,-81.06591167,-45.24296099
-153.14104333,52.96925136,51.33265832,22.45942459,-0.28629554,0.90306502
-1.58911616

>  <Name>
ligand

>  <RI>
0

>  <Rbt.Current_Directory>
/home/itssahil/PROJECTS/Mol_Feturizer/New_Systems/rnas/3GX7

>  <Rbt.Executable>
rbdock ($Id: //depot/dev/client3/rdock/2013.1/src/exe/rbdock.cxx#4 $)

>  <Rbt.Library>
libRbt.so (2013.1, Build901 2013/11/27)

>  <Rbt.Parameter_File>
/export/apps/rDock/src/rDock_2013.1_src/data/scripts/dock_solv.prm

>  <Rbt.Receptor>
prm/blind_docking_80.prm

>  <SCORE>
-18.5893

>  <SCORE.INTER>
-12.3463

>  <SCORE.INTER.CONST>
1

>  <SCORE.INTER.POLAR>
0

>  <SCORE.INTER.ROT>
7

>  <SCORE.INTER.SOLV>
10.523

>  <SCORE.INTER.VDW>
-20.0052

>  <SCORE.INTER.norm>
-0.457272

>  <SCORE.INTRA>
-6.29219

>  <SCORE.INTRA.DIHEDRAL>
-5.74282

>  <SCORE.INTRA.DIHEDRAL.0>
11.2699

>  <SCORE.INTRA.POLAR>
0

>  <SCORE.INTRA.POLAR.0>
0

>  <SCORE.INTRA.REPUL>
0

>  <SCORE.INTRA.REPUL.0>
0

>  <SCORE.INTRA.SOLV>
-0.536787

>  <SCORE.INTRA.SOLV.lig_0>
-48.6447

>  <SCORE.INTRA.VDW>
-3.15239

>  <SCORE.INTRA.VDW.0>
-0.0211724

>  <SCORE.INTRA.norm>
-0.233044

>  <SCORE.RESTR>
0.049203

>  <SCORE.RESTR.CAVITY>
0.049203

>  <SCORE.RESTR.norm>
0.00182233

>  <SCORE.SYSTEM>
0

>  <SCORE.SYSTEM.CONST>
0

>  <SCORE.SYSTEM.DIHEDRAL>
0

>  <SCORE.SYSTEM.SOLV>
0

>  <SCORE.SYSTEM.norm>
0

>  <SCORE.heavy>
27

>  <SCORE.norm>
-0.688494

>  <RMSD>
12.672

$$$$
ligand
 OpenBabel11021811483D
libRbt.so/2013.1/901 2013/11/27
 27 29  0  0  0  0  0  0  0  0999 V2000
   43.4010   57.2176   17.5316 N   0  0  0  0  0  0  0  0  0  0  0  0
   43.4703   55.7655   17.6408 C   0  0  2  0  0  0  0  0  0  0  0  0
   42.3769   55.1133   16.8110 C   0  0  0  0  0  0  0  0  0  0  0  0
   41.3989   55.7638   16.4503 O   0  0  0  0  0  0  0  0  0  0  0  0
   43.3840   55.2993   19.0935 C   0  0  0  0  0  0  0  0  0  0  0  0
   44.5896   55.6590   19.9535 C   0  0  0  0  0  0  0  0  0  0  0  0
   45.8176   54.3340   20.1198 S   0  0  2  0  0  0  0  0  0  0  0  0
   45.1426   53.4036   21.5175 C   0  0  0  0  0  0  0  0  0  0  0  0
   47.1592   55.2358   20.9388 C   0  0  0  0  0  0  0  0  0  0  0  0
   48.0579   54.2576   21.6804 C   0  0  1  0  0  0  0  0  0  0  0  0
   48.8385   53.5717   20.7315 O   0  0  0  0  0  0  0  0  0  0  0  0
   49.0582   54.9065   22.6158 C   0  0  1  0  0  0  0  0  0  0  0  0
   48.5705   54.8970   23.9353 O   0  0  0  0  0  0  0  0  0  0  0  0
   50.2881   54.0257   22.4898 C   0  0  1  0  0  0  0  0  0  0  0  0
   50.3999   53.2175   23.6373 O   0  0  0  0  0  0  0  0  0  0  0  0
   50.0712   53.1533   21.2597 C   0  0  2  0  0  0  0  0  0  0  0  0
   42.4550   53.9287   16.4839 O   0  0  0  0  0  0  0  0  0  0  0  0
   51.6314   56.2472   17.3002 N   0  0  0  0  0  0  0  0  0  0  0  0
   50.4610   56.3146   18.0288 C   0  0  0  0  0  0  0  0  0  0  0  0
   50.2152   55.4083   19.0439 N   0  0  0  0  0  0  0  0  0  0  0  0
   51.1125   54.4399   19.3314 C   0  0  0  0  0  0  0  0  0  0  0  0
   52.2985   54.3578   18.6169 C   0  0  0  0  0  0  0  0  0  0  0  0
   52.5543   55.2654   17.5925 C   0  0  0  0  0  0  0  0  0  0  0  0
   53.6835   55.1977   16.8920 N   0  0  0  0  0  0  0  0  0  0  0  0
   53.0057   53.3191   19.1149 N   0  0  0  0  0  0  0  0  0  0  0  0
   52.3045   52.7586   20.1283 C   0  0  0  0  0  0  0  0  0  0  0  0
   51.1266   53.4434   20.2745 N   0  0  0  0  0  0  0  0  0  0  0  0
  2  1  1  1  0  0  0
  2  3  1  0  0  0  0
  2  5  1  0  0  0  0
  3  4  1  0  0  0  0
  3 17  1  0  0  0  0
  5  6  1  0  0  0  0
  7  6  1  1  0  0  0
  7  8  1  0  0  0  0
  7  9  1  0  0  0  0
 10  9  1  6  0  0  0
 10 11  1  0  0  0  0
 10 12  1  0  0  0  0
 11 16  1  0  0  0  0
 12 13  1  1  0  0  0
 12 14  1  0  0  0  0
 14 15  1  1  0  0  0
 14 16  1  0  0  0  0
 16 27  1  6  0  0  0
 18 19  2  0  0  0  0
 18 23  1  0  0  0  0
 19 20  1  0  0  0  0
 20 21  2  0  0  0  0
 21 22  1  0  0  0  0
 21 27  1  0  0  0  0
 22 23  2  0  0  0  0
 22 25  1  0  0  0  0
 23 24  1  0  0  0  0
 25 26  2  0  0  0  0
 26 27  1  0  0  0  0
M  END
>  <CHROM.1>
-18.54940394,-68.29764707,-96.78526747,-86.08472862,157.19752532,74.28562445
27.80223721,48.02570543,54.65792069,19.66298999,-2.89751037,-0.05623862,1.83844450

>  <Name>
ligand

>  <RI>
0

>  <Rbt.Current_Directory>
/home/itssahil/PROJECTS/Mol_Feturizer/New_Systems/rnas/3GX7

>  <Rbt.Executable>
rbdock ($Id: //depot/dev/client3/rdock/2013.1/src/exe/rbdock.cxx#4 $)

>  <Rbt.Library>
libRbt.so (2013.1, Build901 2013/11/27)

>  <Rbt.Parameter_File>
/export/apps/rDock/src/rDock_2013.1_src/data/scripts/dock_solv.prm

>  <Rbt.Receptor>
prm/blind_docking_80.prm

>  <SCORE>
-17.2888

>  <SCORE.INTER>
-13.7293

>  <SCORE.INTER.CONST>
1

>  <SCORE.INTER.POLAR>
0

>  <SCORE.INTER.ROT>
7

>  <SCORE.INTER.SOLV>
11.035

>  <SCORE.INTER.VDW>
-21.0979

>  <SCORE.INTER.norm>
-0.508494

>  <SCORE.INTRA>
-3.55943

>  <SCORE.INTRA.DIHEDRAL>
-1.9169

>  <SCORE.INTRA.DIHEDRAL.0>
11.2699

>  <SCORE.INTRA.POLAR>
0

>  <SCORE.INTRA.POLAR.0>
0

>  <SCORE.INTRA.REPUL>
0

>  <SCORE.INTRA.REPUL.0>
0

>  <SCORE.INTRA.SOLV>
-0.379904

>  <SCORE.INTRA.SOLV.lig_0>
-48.6447

>  <SCORE.INTRA.VDW>
-2.41103

>  <SCORE.INTRA.VDW.0>
-0.0211724

>  <SCORE.INTRA.norm>
-0.131831

>  <SCORE.RESTR>
0

>  <SCORE.RESTR.CAVITY>
0

>  <SCORE.RESTR.norm>
0

>  <SCORE.SYSTEM>
0

>  <SCORE.SYSTEM.CONST>
0

>  <SCORE.SYSTEM.DIHEDRAL>
0

>  <SCORE.SYSTEM.SOLV>
0

>  <SCORE.SYSTEM.norm>
0

>  <SCORE.heavy>
27

>  <SCORE.norm>
-0.640324

>  <RMSD>
12.965

$$$$
ligand
 OpenBabel11021811483D
libRbt.so/2013.1/901 2013/11/27
 27 29  0  0  0  0  0  0  0  0999 V2000
   48.7686   54.8950   28.5682 N   0  0  0  0  0  0  0  0  0  0  0  0
   49.2563   53.6888   27.9104 C   0  0  2  0  0  0  0  0  0  0  0  0
   48.1515   52.6502   27.8090 C   0  0  0  0  0  0  0  0  0  0  0  0
   47.8874   52.1273   26.7289 O   0  0  0  0  0  0  0  0  0  0  0  0
   50.4723   53.1023   28.6262 C   0  0  0  0  0  0  0  0  0  0  0  0
   51.1763   51.9785   27.8751 C   0  0  0  0  0  0  0  0  0  0  0  0
   51.9756   52.4916   26.3294 S   0  0  2  0  0  0  0  0  0  0  0  0
   50.6561   52.1780   25.1313 C   0  0  0  0  0  0  0  0  0  0  0  0
   53.0452   51.0605   26.0267 C   0  0  0  0  0  0  0  0  0  0  0  0
   53.9636   51.3458   24.8477 C   0  0  1  0  0  0  0  0  0  0  0  0
   54.9738   50.3662   24.8303 O   0  0  0  0  0  0  0  0  0  0  0  0
   53.2962   51.2452   23.4909 C   0  0  1  0  0  0  0  0  0  0  0  0
   52.9162   52.5215   23.0375 O   0  0  0  0  0  0  0  0  0  0  0  0
   54.3790   50.6585   22.6033 C   0  0  1  0  0  0  0  0  0  0  0  0
   54.9061   51.6733   21.7817 O   0  0  0  0  0  0  0  0  0  0  0  0
   55.4625   50.1297   23.5347 C   0  0  2  0  0  0  0  0  0  0  0  0
   47.5090   52.3136   28.8041 O   0  0  0  0  0  0  0  0  0  0  0  0
   54.6196   46.0502   20.3204 N   0  0  0  0  0  0  0  0  0  0  0  0
   54.3246   47.3818   20.1085 C   0  0  0  0  0  0  0  0  0  0  0  0
   54.6188   48.3264   21.0747 N   0  0  0  0  0  0  0  0  0  0  0  0
   55.1912   47.9587   22.2421 C   0  0  0  0  0  0  0  0  0  0  0  0
   55.5030   46.6271   22.4735 C   0  0  0  0  0  0  0  0  0  0  0  0
   55.2097   45.6688   21.5069 C   0  0  0  0  0  0  0  0  0  0  0  0
   55.4954   44.3860   21.7142 N   0  0  0  0  0  0  0  0  0  0  0  0
   56.0699   46.5459   23.6979 N   0  0  0  0  0  0  0  0  0  0  0  0
   56.1352   47.7879   24.2327 C   0  0  0  0  0  0  0  0  0  0  0  0
   55.5932   48.6757   23.3406 N   0  0  0  0  0  0  0  0  0  0  0  0
  2  1  1  1  0  0  0
  2  3  1  0  0  0  0
  2  5  1  0  0  0  0
  3  4  1  0  0  0  0
  3 17  1  0  0  0  0
  5  6  1  0  0  0  0
  7  6  1  1  0  0  0
  7  8  1  0  0  0  0
  7  9  1  0  0  0  0
 10  9  1  1  0  0  0
 10 11  1  0  0  0  0
 10 12  1  0  0  0  0
 11 16  1  0  0  0  0
 12 13  1  6  0  0  0
 12 14  1  0  0  0  0
 14 15  1  6  0  0  0
 14 16  1  0  0  0  0
 16 27  1  6  0  0  0
 18 19  2  0  0  0  0
 18 23  1  0  0  0  0
 19 20  1  0  0  0  0
 20 21  2  0  0  0  0
 21 22  1  0  0  0  0
 21 27  1  0  0  0  0
 22 23  2  0  0  0  0
 22 25  1  0  0  0  0
 23 24  1  0  0  0  0
 25 26  2  0  0  0  0
 26 27  1  0  0  0  0
M  END
>  <CHROM.1>
128.14065394,-170.44225720,66.35867214,-92.36614721,-172.79214396,166.66047481
134.60182695,52.89468253,50.34790843,24.54244261,-2.41332245,-0.66814429
-2.96764442

>  <Name>
ligand

>  <RI>
0

>  <Rbt.Current_Directory>
/home/itssahil/PROJECTS/Mol_Feturizer/New_Systems/rnas/3GX7

>  <Rbt.Executable>
rbdock ($Id: //depot/dev/client3/rdock/2013.1/src/exe/rbdock.cxx#4 $)

>  <Rbt.Library>
libRbt.so (2013.1, Build901 2013/11/27)

>  <Rbt.Parameter_File>
/export/apps/rDock/src/rDock_2013.1_src/data/scripts/dock_solv.prm

>  <Rbt.Receptor>
prm/blind_docking_80.prm

>  <SCORE>
-18.0685

>  <SCORE.INTER>
-13.1952

>  <SCORE.INTER.CONST>
1

>  <SCORE.INTER.POLAR>
0

>  <SCORE.INTER.ROT>
7

>  <SCORE.INTER.SOLV>
12.2107

>  <SCORE.INTER.VDW>
-21.1337

>  <SCORE.INTER.norm>
-0.488711

>  <SCORE.INTRA>
-4.87332

>  <SCORE.INTRA.DIHEDRAL>
-4.86087

>  <SCORE.INTRA.DIHEDRAL.0>
11.2699

>  <SCORE.INTRA.POLAR>
0

>  <SCORE.INTRA.POLAR.0>
0

>  <SCORE.INTRA.REPUL>
0

>  <SCORE.INTRA.REPUL.0>
0

>  <SCORE.INTRA.SOLV>
-0.666849

>  <SCORE.INTRA.SOLV.lig_0>
-48.6447

>  <SCORE.INTRA.VDW>
-2.10946

>  <SCORE.INTRA.VDW.0>
-0.0211724

>  <SCORE.INTRA.norm>
-0.180493

>  <SCORE.RESTR>
0

>  <SCORE.RESTR.CAVITY>
0

>  <SCORE.RESTR.norm>
0

>  <SCORE.SYSTEM>
0

>  <SCORE.SYSTEM.CONST>
0

>  <SCORE.SYSTEM.DIHEDRAL>
0

>  <SCORE.SYSTEM.SOLV>
0

>  <SCORE.SYSTEM.norm>
0

>  <SCORE.heavy>
27

>  <SCORE.norm>
-0.669204

>  <RMSD>
13.200

$$$$
ligand
 OpenBabel11021811483D
libRbt.so/2013.1/901 2013/11/27
 27 29  0  0  0  0  0  0  0  0999 V2000
   42.9997   57.5745   16.8393 N   0  0  0  0  0  0  0  0  0  0  0  0
   44.3274   57.7149   17.4251 C   0  0  2  0  0  0  0  0  0  0  0  0
   45.3356   58.1403   16.3705 C   0  0  0  0  0  0  0  0  0  0  0  0
   46.1678   59.0090   16.6209 O   0  0  0  0  0  0  0  0  0  0  0  0
   44.7862   56.4284   18.1099 C   0  0  0  0  0  0  0  0  0  0  0  0
   46.0338   56.5731   18.9732 C   0  0  0  0  0  0  0  0  0  0  0  0
   46.6123   55.0266   19.7249 S   0  0  2  0  0  0  0  0  0  0  0  0
   45.1957   54.5897   20.7629 C   0  0  0  0  0  0  0  0  0  0  0  0
   47.7504   55.6793   20.9750 C   0  0  0  0  0  0  0  0  0  0  0  0
   48.5809   54.5448   21.5560 C   0  0  1  0  0  0  0  0  0  0  0  0
   49.2319   53.8884   20.4949 O   0  0  0  0  0  0  0  0  0  0  0  0
   49.6937   54.9899   22.4834 C   0  0  1  0  0  0  0  0  0  0  0  0
   49.2811   54.8902   23.8246 O   0  0  0  0  0  0  0  0  0  0  0  0
   50.8156   54.0101   22.1908 C   0  0  1  0  0  0  0  0  0  0  0  0
   50.9049   53.0788   23.2431 O   0  0  0  0  0  0  0  0  0  0  0  0
   50.4410   53.2972   20.8974 C   0  0  2  0  0  0  0  0  0  0  0  0
   45.3384   57.6203   15.2543 O   0  0  0  0  0  0  0  0  0  0  0  0
   52.0139   56.5382   17.0626 N   0  0  0  0  0  0  0  0  0  0  0  0
   50.8868   56.6322   17.8537 C   0  0  0  0  0  0  0  0  0  0  0  0
   50.6296   55.6788   18.8218 N   0  0  0  0  0  0  0  0  0  0  0  0
   51.4728   54.6384   19.0015 C   0  0  0  0  0  0  0  0  0  0  0  0
   52.6152   54.5280   18.2227 C   0  0  0  0  0  0  0  0  0  0  0  0
   52.8820   55.4826   17.2448 C   0  0  0  0  0  0  0  0  0  0  0  0
   53.9695   55.3892   16.4839 N   0  0  0  0  0  0  0  0  0  0  0  0
   53.2743   53.4159   18.6177 N   0  0  0  0  0  0  0  0  0  0  0  0
   52.5864   52.8360   19.6293 C   0  0  0  0  0  0  0  0  0  0  0  0
   51.4653   53.5835   19.8787 N   0  0  0  0  0  0  0  0  0  0  0  0
  2  1  1  6  0  0  0
  2  3  1  0  0  0  0
  2  5  1  0  0  0  0
  3  4  1  0  0  0  0
  3 17  1  0  0  0  0
  5  6  1  0  0  0  0
  7  6  1  6  0  0  0
  7  8  1  0  0  0  0
  7  9  1  0  0  0  0
 10  9  1  6  0  0  0
 10 11  1  0  0  0  0
 10 12  1  0  0  0  0
 11 16  1  0  0  0  0
 12 13  1  1  0  0  0
 12 14  1  0  0  0  0
 14 15  1  1  0  0  0
 14 16  1  0  0  0  0
 16 27  1  6  0  0  0
 18 19  2  0  0  0  0
 18 23  1  0  0  0  0
 19 20  1  0  0  0  0
 20 21  2  0  0  0  0
 21 22  1  0  0  0  0
 21 27  1  0  0  0  0
 22 23  2  0  0  0  0
 22 25  1  0  0  0  0
 23 24  1  0  0  0  0
 25 26  2  0  0  0  0
 26 27  1  0  0  0  0
M  END
>  <CHROM.1>
136.80041698,-168.65316717,-177.50051281,-61.98886435,-168.52584068,55.75994121
24.69826074,48.88322509,55.39444784,19.26533421,2.65410223,0.24174785,-1.12053880

>  <Name>
ligand

>  <RI>
0

>  <Rbt.Current_Directory>
/home/itssahil/PROJECTS/Mol_Feturizer/New_Systems/rnas/3GX7

>  <Rbt.Executable>
rbdock ($Id: //depot/dev/client3/rdock/2013.1/src/exe/rbdock.cxx#4 $)

>  <Rbt.Library>
libRbt.so (2013.1, Build901 2013/11/27)

>  <Rbt.Parameter_File>
/export/apps/rDock/src/rDock_2013.1_src/data/scripts/dock_solv.prm

>  <Rbt.Receptor>
prm/blind_docking_80.prm

>  <SCORE>
-21.3722

>  <SCORE.INTER>
-14.9787

>  <SCORE.INTER.CONST>
1

>  <SCORE.INTER.POLAR>
0

>  <SCORE.INTER.ROT>
7

>  <SCORE.INTER.SOLV>
12.1537

>  <SCORE.INTER.VDW>
-22.3037

>  <SCORE.INTER.norm>
-0.554768

>  <SCORE.INTRA>
-6.39348

>  <SCORE.INTRA.DIHEDRAL>
-6.36389

>  <SCORE.INTRA.DIHEDRAL.0>
11.2699

>  <SCORE.INTRA.POLAR>
0

>  <SCORE.INTRA.POLAR.0>
0

>  <SCORE.INTRA.REPUL>
0

>  <SCORE.INTRA.REPUL.0>
0

>  <SCORE.INTRA.SOLV>
-1.05865

>  <SCORE.INTRA.SOLV.lig_0>
-48.6447

>  <SCORE.INTRA.VDW>
-2.6822

>  <SCORE.INTRA.VDW.0>
-0.0211724

>  <SCORE.INTRA.norm>
-0.236795

>  <SCORE.RESTR>
0

>  <SCORE.RESTR.CAVITY>
0

>  <SCORE.RESTR.norm>
0

>  <SCORE.SYSTEM>
0

>  <SCORE.SYSTEM.CONST>
0

>  <SCORE.SYSTEM.DIHEDRAL>
0

>  <SCORE.SYSTEM.SOLV>
0

>  <SCORE.SYSTEM.norm>
0

>  <SCORE.heavy>
27

>  <SCORE.norm>
-0.791563

>  <RMSD>
13.210

$$$$
ligand
 OpenBabel11021811483D
libRbt.so/2013.1/901 2013/11/27
 27 29  0  0  0  0  0  0  0  0999 V2000
   50.1746   54.0677   29.7840 N   0  0  0  0  0  0  0  0  0  0  0  0
   50.4805   53.7839   28.3871 C   0  0  2  0  0  0  0  0  0  0  0  0
   49.5270   54.5295   27.4680 C   0  0  0  0  0  0  0  0  0  0  0  0
   49.9608   55.3066   26.6208 O   0  0  0  0  0  0  0  0  0  0  0  0
   50.4424   52.2857   28.0893 C   0  0  0  0  0  0  0  0  0  0  0  0
   50.7118   51.9154   26.6357 C   0  0  0  0  0  0  0  0  0  0  0  0
   52.4541   52.0244   26.1418 S   0  0  2  0  0  0  0  0  0  0  0  0
   52.6341   53.8062   25.8814 C   0  0  0  0  0  0  0  0  0  0  0  0
   52.3420   51.4485   24.4273 C   0  0  0  0  0  0  0  0  0  0  0  0
   53.6811   51.6422   23.7316 C   0  0  1  0  0  0  0  0  0  0  0  0
   54.5557   50.6316   24.1722 O   0  0  0  0  0  0  0  0  0  0  0  0
   53.6353   51.4916   22.2244 C   0  0  1  0  0  0  0  0  0  0  0  0
   53.5439   52.7538   21.6099 O   0  0  0  0  0  0  0  0  0  0  0  0
   54.9581   50.8252   21.8920 C   0  0  1  0  0  0  0  0  0  0  0  0
   55.8302   51.7782   21.3319 O   0  0  0  0  0  0  0  0  0  0  0  0
   55.5269   50.3120   23.2089 C   0  0  2  0  0  0  0  0  0  0  0  0
   48.3098   54.3640   27.5536 O   0  0  0  0  0  0  0  0  0  0  0  0
   54.5054   45.9618   20.4312 N   0  0  0  0  0  0  0  0  0  0  0  0
   54.1907   47.2692   20.1202 C   0  0  0  0  0  0  0  0  0  0  0  0
   54.5400   48.2963   20.9778 N   0  0  0  0  0  0  0  0  0  0  0  0
   55.1864   48.0342   22.1350 C   0  0  0  0  0  0  0  0  0  0  0  0
   55.5189   46.7285   22.4643 C   0  0  0  0  0  0  0  0  0  0  0  0
   55.1706   45.6877   21.6076 C   0  0  0  0  0  0  0  0  0  0  0  0
   55.4754   44.4285   21.9103 N   0  0  0  0  0  0  0  0  0  0  0  0
   56.1618   46.7570   23.6530 N   0  0  0  0  0  0  0  0  0  0  0  0
   56.2541   48.0418   24.0696 C   0  0  0  0  0  0  0  0  0  0  0  0
   55.6527   48.8465   23.1376 N   0  0  0  0  0  0  0  0  0  0  0  0
  2  1  1  1  0  0  0
  2  3  1  0  0  0  0
  2  5  1  0  0  0  0
  3  4  1  0  0  0  0
  3 17  1  0  0  0  0
  5  6  1  0  0  0  0
  7  6  1  1  0  0  0
  7  8  1  0  0  0  0
  7  9  1  0  0  0  0
 10  9  1  1  0  0  0
 10 11  1  0  0  0  0
 10 12  1  0  0  0  0
 11 16  1  0  0  0  0
 12 13  1  6  0  0  0
 12 14  1  0  0  0  0
 14 15  1  1  0  0  0
 14 16  1  0  0  0  0
 16 27  1  6  0  0  0
 18 19  2  0  0  0  0
 18 23  1  0  0  0  0
 19 20  1  0  0  0  0
 20 21  2  0  0  0  0
 21 22  1  0  0  0  0
 21 27  1  0  0  0  0
 22 23  2  0  0  0  0
 22 25  1  0  0  0  0
 23 24  1  0  0  0  0
 25 26  2  0  0  0  0
 26 27  1  0  0  0  0
M  END
>  <CHROM.1>
122.46691997,178.24794637,75.70649887,-79.35921194,171.95942185,76.28844518
106.08499621,53.28481809,50.67601873,24.20351779,2.75928860,1.00104142,-0.40611643

>  <Name>
ligand

>  <RI>
0

>  <Rbt.Current_Directory>
/home/itssahil/PROJECTS/Mol_Feturizer/New_Systems/rnas/3GX7

>  <Rbt.Executable>
rbdock ($Id: //depot/dev/client3/rdock/2013.1/src/exe/rbdock.cxx#4 $)

>  <Rbt.Library>
libRbt.so (2013.1, Build901 2013/11/27)

>  <Rbt.Parameter_File>
/export/apps/rDock/src/rDock_2013.1_src/data/scripts/dock_solv.prm

>  <Rbt.Receptor>
prm/blind_docking_100.prm

>  <SCORE>
-16.5841

>  <SCORE.INTER>
-11.5906

>  <SCORE.INTER.CONST>
1

>  <SCORE.INTER.POLAR>
0

>  <SCORE.INTER.ROT>
7

>  <SCORE.INTER.SOLV>
14.5614

>  <SCORE.INTER.VDW>
-20.8476

>  <SCORE.INTER.norm>
-0.429283

>  <SCORE.INTRA>
-4.9935

>  <SCORE.INTRA.DIHEDRAL>
-5.97336

>  <SCORE.INTRA.DIHEDRAL.0>
11.2699

>  <SCORE.INTRA.POLAR>
0

>  <SCORE.INTRA.POLAR.0>
0

>  <SCORE.INTRA.REPUL>
0

>  <SCORE.INTRA.REPUL.0>
0

>  <SCORE.INTRA.SOLV>
-0.893241

>  <SCORE.INTRA.SOLV.lig_0>
-48.6447

>  <SCORE.INTRA.VDW>
-1.56021

>  <SCORE.INTRA.VDW.0>
-0.0211724

>  <SCORE.INTRA.norm>
-0.184945

>  <SCORE.RESTR>
0

>  <SCORE.RESTR.CAVITY>
0

>  <SCORE.RESTR.norm>
0

>  <SCORE.SYSTEM>
0

>  <SCORE.SYSTEM.CONST>
0

>  <SCORE.SYSTEM.DIHEDRAL>
0

>  <SCORE.SYSTEM.SOLV>
0

>  <SCORE.SYSTEM.norm>
0

>  <SCORE.heavy>
27

>  <SCORE.norm>
-0.614228

>  <RMSD>
13.390

$$$$
ligand
 OpenBabel11021811483D
libRbt.so/2013.1/901 2013/11/27
 27 29  0  0  0  0  0  0  0  0999 V2000
   55.2818   62.0189   19.8106 N   0  0  0  0  0  0  0  0  0  0  0  0
   54.1651   61.2896   19.2219 C   0  0  2  0  0  0  0  0  0  0  0  0
   52.9046   61.4817   20.0489 C   0  0  0  0  0  0  0  0  0  0  0  0
   52.9812   61.7377   21.2482 O   0  0  0  0  0  0  0  0  0  0  0  0
   54.4761   59.8017   19.0658 C   0  0  0  0  0  0  0  0  0  0  0  0
   53.3446   58.9703   18.4732 C   0  0  0  0  0  0  0  0  0  0  0  0
   53.6941   57.1935   18.3632 S   0  0  2  0  0  0  0  0  0  0  0  0
   54.6655   57.1208   16.8381 C   0  0  0  0  0  0  0  0  0  0  0  0
   52.0948   56.5846   17.7670 C   0  0  0  0  0  0  0  0  0  0  0  0
   52.1471   55.0722   17.6098 C   0  0  1  0  0  0  0  0  0  0  0  0
   52.5495   54.5162   18.8383 O   0  0  0  0  0  0  0  0  0  0  0  0
   50.8116   54.4243   17.3047 C   0  0  1  0  0  0  0  0  0  0  0  0
   50.6820   54.2001   15.9219 O   0  0  0  0  0  0  0  0  0  0  0  0
   50.8721   53.1091   18.0602 C   0  0  1  0  0  0  0  0  0  0  0  0
   51.0949   52.0596   17.1483 O   0  0  0  0  0  0  0  0  0  0  0  0
   52.0473   53.2174   19.0238 C   0  0  2  0  0  0  0  0  0  0  0  0
   51.7908   61.3893   19.5319 O   0  0  0  0  0  0  0  0  0  0  0  0
   48.6590   55.0265   22.6197 N   0  0  0  0  0  0  0  0  0  0  0  0
   48.8266   55.4448   21.3151 C   0  0  0  0  0  0  0  0  0  0  0  0
   49.7768   54.8496   20.5057 N   0  0  0  0  0  0  0  0  0  0  0  0
   50.5594   53.8566   20.9822 C   0  0  0  0  0  0  0  0  0  0  0  0
   50.4034   53.4154   22.2879 C   0  0  0  0  0  0  0  0  0  0  0  0
   49.4500   54.0093   23.1107 C   0  0  0  0  0  0  0  0  0  0  0  0
   49.2909   53.6037   24.3678 N   0  0  0  0  0  0  0  0  0  0  0  0
   51.2943   52.4198   22.4930 N   0  0  0  0  0  0  0  0  0  0  0  0
   51.9922   52.2154   21.3511 C   0  0  0  0  0  0  0  0  0  0  0  0
   51.5474   53.1002   20.4041 N   0  0  0  0  0  0  0  0  0  0  0  0
  2  1  1  1  0  0  0
  2  3  1  0  0  0  0
  2  5  1  0  0  0  0
  3  4  1  0  0  0  0
  3 17  1  0  0  0  0
  5  6  1  0  0  0  0
  7  6  1  6  0  0  0
  7  8  1  0  0  0  0
  7  9  1  0  0  0  0
 10  9  1  1  0  0  0
 10 11  1  0  0  0  0
 10 12  1  0  0  0  0
 11 16  1  0  0  0  0
 12 13  1  6  0  0  0
 12 14  1  0  0  0  0
 14 15  1  6  0  0  0
 14 16  1  0  0  0  0
 16 27  1  1  0  0  0
 18 19  2  0  0  0  0
 18 23  1  0  0  0  0
 19 20  1  0  0  0  0
 20 21  2  0  0  0  0
 21 22  1  0  0  0  0
 21 27  1  0  0  0  0
 22 23  2  0  0  0  0
 22 25  1  0  0  0  0
 23 24  1  0  0  0  0
 25 26  2  0  0  0  0
 26 27  1  0  0  0  0
M  END
>  <CHROM.1>
-26.21743383,179.19169764,-177.29510795,-81.67007372,-179.39155540,55.04641611
59.49822633,51.88435845,56.11886459,19.62855518,0.63471146,1.04985515,0.67694160

>  <Name>
ligand

>  <RI>
0

>  <Rbt.Current_Directory>
/home/itssahil/PROJECTS/Mol_Feturizer/New_Systems/rnas/3GX7

>  <Rbt.Executable>
rbdock ($Id: //depot/dev/client3/rdock/2013.1/src/exe/rbdock.cxx#4 $)

>  <Rbt.Library>
libRbt.so (2013.1, Build901 2013/11/27)

>  <Rbt.Parameter_File>
/export/apps/rDock/src/rDock_2013.1_src/data/scripts/dock_solv.prm

>  <Rbt.Receptor>
prm/blind_docking_100.prm

>  <SCORE>
-20.6982

>  <SCORE.INTER>
-14.1316

>  <SCORE.INTER.CONST>
1

>  <SCORE.INTER.POLAR>
0

>  <SCORE.INTER.ROT>
7

>  <SCORE.INTER.SOLV>
10.7305

>  <SCORE.INTER.VDW>
-21.2646

>  <SCORE.INTER.norm>
-0.523393

>  <SCORE.INTRA>
-6.56657

>  <SCORE.INTRA.DIHEDRAL>
-7.26475

>  <SCORE.INTRA.DIHEDRAL.0>
11.2699

>  <SCORE.INTRA.POLAR>
0

>  <SCORE.INTRA.POLAR.0>
0

>  <SCORE.INTRA.REPUL>
0

>  <SCORE.INTRA.REPUL.0>
0

>  <SCORE.INTRA.SOLV>
-1.05243

>  <SCORE.INTRA.SOLV.lig_0>
-48.6447

>  <SCORE.INTRA.VDW>
-2.40798

>  <SCORE.INTRA.VDW.0>
-0.0211724

>  <SCORE.INTRA.norm>
-0.243206

>  <SCORE.RESTR>
0

>  <SCORE.RESTR.CAVITY>
0

>  <SCORE.RESTR.norm>
0

>  <SCORE.SYSTEM>
0

>  <SCORE.SYSTEM.CONST>
0

>  <SCORE.SYSTEM.DIHEDRAL>
0

>  <SCORE.SYSTEM.SOLV>
0

>  <SCORE.SYSTEM.norm>
0

>  <SCORE.heavy>
27

>  <SCORE.norm>
-0.766599

>  <RMSD>
13.544

$$$$
ligand
 OpenBabel11021811483D
libRbt.so/2013.1/901 2013/11/27
 27 29  0  0  0  0  0  0  0  0999 V2000
   48.4242   52.9422   26.6029 N   0  0  0  0  0  0  0  0  0  0  0  0
   49.0059   52.6591   25.2964 C   0  0  2  0  0  0  0  0  0  0  0  0
   50.4844   52.3328   25.4279 C   0  0  0  0  0  0  0  0  0  0  0  0
   51.3034   53.2277   25.6231 O   0  0  0  0  0  0  0  0  0  0  0  0
   48.8026   53.8168   24.3200 C   0  0  0  0  0  0  0  0  0  0  0  0
   49.0253   53.4640   22.8542 C   0  0  0  0  0  0  0  0  0  0  0  0
   50.6822   53.8578   22.2288 S   0  0  2  0  0  0  0  0  0  0  0  0
   50.4278   53.7088   20.4433 C   0  0  0  0  0  0  0  0  0  0  0  0
   51.5380   52.2980   22.5730 C   0  0  0  0  0  0  0  0  0  0  0  0
   53.0021   52.4170   22.1769 C   0  0  1  0  0  0  0  0  0  0  0  0
   53.7416   51.4993   22.9459 O   0  0  0  0  0  0  0  0  0  0  0  0
   53.2968   52.0491   20.7367 C   0  0  1  0  0  0  0  0  0  0  0  0
   53.3625   53.2069   19.9403 O   0  0  0  0  0  0  0  0  0  0  0  0
   54.6520   51.3694   20.8120 C   0  0  1  0  0  0  0  0  0  0  0  0
   55.6401   52.2494   20.3305 O   0  0  0  0  0  0  0  0  0  0  0  0
   54.9016   51.0641   22.2837 C   0  0  2  0  0  0  0  0  0  0  0  0
   50.8835   51.1707   25.3463 O   0  0  0  0  0  0  0  0  0  0  0  0
   54.5447   46.3406   19.9935 N   0  0  0  0  0  0  0  0  0  0  0  0
   54.3342   47.5829   19.4300 C   0  0  0  0  0  0  0  0  0  0  0  0
   54.4731   48.7293   20.1908 N   0  0  0  0  0  0  0  0  0  0  0  0
   54.8085   48.6495   21.4972 C   0  0  0  0  0  0  0  0  0  0  0  0
   55.0317   47.4119   22.0824 C   0  0  0  0  0  0  0  0  0  0  0  0
   54.8934   46.2521   21.3246 C   0  0  0  0  0  0  0  0  0  0  0  0
   55.0970   45.0561   21.8708 N   0  0  0  0  0  0  0  0  0  0  0  0
   55.3597   47.6240   23.3765 N   0  0  0  0  0  0  0  0  0  0  0  0
   55.3626   48.9567   23.6141 C   0  0  0  0  0  0  0  0  0  0  0  0
   55.0220   49.6066   22.4568 N   0  0  0  0  0  0  0  0  0  0  0  0
  2  1  1  1  0  0  0
  2  3  1  0  0  0  0
  2  5  1  0  0  0  0
  3  4  1  0  0  0  0
  3 17  1  0  0  0  0
  5  6  1  0  0  0  0
  7  6  1  1  0  0  0
  7  8  1  0  0  0  0
  7  9  1  0  0  0  0
 10  9  1  1  0  0  0
 10 11  1  0  0  0  0
 10 12  1  0  0  0  0
 11 16  1  0  0  0  0
 12 13  1  6  0  0  0
 12 14  1  0  0  0  0
 14 15  1  1  0  0  0
 14 16  1  0  0  0  0
 16 27  1  6  0  0  0
 18 19  2  0  0  0  0
 18 23  1  0  0  0  0
 19 20  1  0  0  0  0
 20 21  2  0  0  0  0
 21 22  1  0  0  0  0
 21 27  1  0  0  0  0
 22 23  2  0  0  0  0
 22 25  1  0  0  0  0
 23 24  1  0  0  0  0
 25 26  2  0  0  0  0
 26 27  1  0  0  0  0
M  END
>  <CHROM.1>
-75.95108727,-163.79058452,-96.18858225,-166.24312875,-177.47358616,154.61221560
107.38425955,52.74618425,50.96870531,22.44031934,2.84205259,0.84328953,-0.71526669

>  <Name>
ligand

>  <RI>
0

>  <Rbt.Current_Directory>
/home/itssahil/PROJECTS/Mol_Feturizer/New_Systems/rnas/3GX7

>  <Rbt.Executable>
rbdock ($Id: //depot/dev/client3/rdock/2013.1/src/exe/rbdock.cxx#4 $)

>  <Rbt.Library>
libRbt.so (2013.1, Build901 2013/11/27)

>  <Rbt.Parameter_File>
/export/apps/rDock/src/rDock_2013.1_src/data/scripts/dock_solv.prm

>  <Rbt.Receptor>
prm/blind_docking_80.prm

>  <SCORE>
-13.7346

>  <SCORE.INTER>
-11.3366

>  <SCORE.INTER.CONST>
1

>  <SCORE.INTER.POLAR>
0

>  <SCORE.INTER.ROT>
7

>  <SCORE.INTER.SOLV>
11.4883

>  <SCORE.INTER.VDW>
-19.6539

>  <SCORE.INTER.norm>
-0.419875

>  <SCORE.INTRA>
-2.41429

>  <SCORE.INTRA.DIHEDRAL>
0.0849136

>  <SCORE.INTRA.DIHEDRAL.0>
11.2699

>  <SCORE.INTRA.POLAR>
0

>  <SCORE.INTRA.POLAR.0>
0

>  <SCORE.INTRA.REPUL>
0

>  <SCORE.INTRA.REPUL.0>
0

>  <SCORE.INTRA.SOLV>
-0.711035

>  <SCORE.INTRA.SOLV.lig_0>
-48.6447

>  <SCORE.INTRA.VDW>
-2.10123

>  <SCORE.INTRA.VDW.0>
-0.0211724

>  <SCORE.INTRA.norm>
-0.0894181

>  <SCORE.RESTR>
0.0163189

>  <SCORE.RESTR.CAVITY>
0.0163189

>  <SCORE.RESTR.norm>
0.000604403

>  <SCORE.SYSTEM>
0

>  <SCORE.SYSTEM.CONST>
0

>  <SCORE.SYSTEM.DIHEDRAL>
0

>  <SCORE.SYSTEM.SOLV>
0

>  <SCORE.SYSTEM.norm>
0

>  <SCORE.heavy>
27

>  <SCORE.norm>
-0.508689

>  <RMSD>
13.802

$$$$
ligand
 OpenBabel11021811483D
libRbt.so/2013.1/901 2013/11/27
 27 29  0  0  0  0  0  0  0  0999 V2000
   53.7371   45.8206   19.7143 N   0  0  0  0  0  0  0  0  0  0  0  0
   54.3390   47.0722   19.2706 C   0  0  2  0  0  0  0  0  0  0  0  0
   55.6727   46.8131   18.5897 C   0  0  0  0  0  0  0  0  0  0  0  0
   55.9085   47.2911   17.4825 O   0  0  0  0  0  0  0  0  0  0  0  0
   54.5144   48.0594   20.4236 C   0  0  0  0  0  0  0  0  0  0  0  0
   55.2766   47.5118   21.6243 C   0  0  0  0  0  0  0  0  0  0  0  0
   55.6274   48.7370   22.9155 S   0  0  2  0  0  0  0  0  0  0  0  0
   56.2724   47.6806   24.2357 C   0  0  0  0  0  0  0  0  0  0  0  0
   53.9515   49.0497   23.5300 C   0  0  0  0  0  0  0  0  0  0  0  0
   53.8496   50.4795   24.0396 C   0  0  1  0  0  0  0  0  0  0  0  0
   53.9836   51.3485   22.9408 O   0  0  0  0  0  0  0  0  0  0  0  0
   52.5126   50.8336   24.6588 C   0  0  1  0  0  0  0  0  0  0  0  0
   52.5784   50.7233   26.0597 O   0  0  0  0  0  0  0  0  0  0  0  0
   52.2971   52.2771   24.2416 C   0  0  1  0  0  0  0  0  0  0  0  0
   52.5365   53.1197   25.3440 O   0  0  0  0  0  0  0  0  0  0  0  0
   53.3090   52.5645   23.1395 C   0  0  2  0  0  0  0  0  0  0  0  0
   56.5371   46.1270   19.1360 O   0  0  0  0  0  0  0  0  0  0  0  0
   53.4563   52.7157   17.8821 N   0  0  0  0  0  0  0  0  0  0  0  0
   54.4350   52.2823   18.7535 C   0  0  0  0  0  0  0  0  0  0  0  0
   54.2211   52.3158   20.1193 N   0  0  0  0  0  0  0  0  0  0  0  0
   53.0554   52.7803   20.6201 C   0  0  0  0  0  0  0  0  0  0  0  0
   52.0552   53.2143   19.7628 C   0  0  0  0  0  0  0  0  0  0  0  0
   52.2617   53.1852   18.3862 C   0  0  0  0  0  0  0  0  0  0  0  0
   51.3162   53.6037   17.5489 N   0  0  0  0  0  0  0  0  0  0  0  0
   51.0082   53.6089   20.5213 N   0  0  0  0  0  0  0  0  0  0  0  0
   51.3181   53.4213   21.8258 C   0  0  0  0  0  0  0  0  0  0  0  0
   52.5861   52.9076   21.9031 N   0  0  0  0  0  0  0  0  0  0  0  0
  2  1  1  1  0  0  0
  2  3  1  0  0  0  0
  2  5  1  0  0  0  0
  3  4  1  0  0  0  0
  3 17  1  0  0  0  0
  5  6  1  0  0  0  0
  7  6  1  6  0  0  0
  7  8  1  0  0  0  0
  7  9  1  0  0  0  0
 10  9  1  6  0  0  0
 10 11  1  0  0  0  0
 10 12  1  0  0  0  0
 11 16  1  0  0  0  0
 12 13  1  1  0  0  0
 12 14  1  0  0  0  0
 14 15  1  1  0  0  0
 14 16  1  0  0  0  0
 16 27  1  6  0  0  0
 18 19  2  0  0  0  0
 18 23  1  0  0  0  0
 19 20  1  0  0  0  0
 20 21  2  0  0  0  0
 21 22  1  0  0  0  0
 21 27  1  0  0  0  0
 22 23  2  0  0  0  0
 22 25  1  0  0  0  0
 23 24  1  0  0  0  0
 25 26  2  0  0  0  0
 26 27  1  0  0  0  0
M  END
>  <CHROM.1>
129.09882210,53.75051377,174.07148061,171.29081053,-149.71738216,66.82926137
-41.92635860,53.78848839,50.41786143,21.41788726,0.28219021,1.07478876,-1.54396484

>  <Name>
ligand

>  <RI>
0

>  <Rbt.Current_Directory>
/home/itssahil/PROJECTS/Mol_Feturizer/New_Systems/rnas/3GX7

>  <Rbt.Executable>
rbdock ($Id: //depot/dev/client3/rdock/2013.1/src/exe/rbdock.cxx#4 $)

>  <Rbt.Library>
libRbt.so (2013.1, Build901 2013/11/27)

>  <Rbt.Parameter_File>
/export/apps/rDock/src/rDock_2013.1_src/data/scripts/dock_solv.prm

>  <Rbt.Receptor>
prm/blind_docking_80.prm

>  <SCORE>
-21.1858

>  <SCORE.INTER>
-16.5844

>  <SCORE.INTER.CONST>
1

>  <SCORE.INTER.POLAR>
0

>  <SCORE.INTER.ROT>
7

>  <SCORE.INTER.SOLV>
13.0831

>  <SCORE.INTER.VDW>
-23.6839

>  <SCORE.INTER.norm>
-0.614237

>  <SCORE.INTRA>
-4.60142

>  <SCORE.INTRA.DIHEDRAL>
-4.53746

>  <SCORE.INTRA.DIHEDRAL.0>
11.2699

>  <SCORE.INTRA.POLAR>
0

>  <SCORE.INTRA.POLAR.0>
0

>  <SCORE.INTRA.REPUL>
0

>  <SCORE.INTRA.REPUL.0>
0

>  <SCORE.INTRA.SOLV>
-0.382205

>  <SCORE.INTRA.SOLV.lig_0>
-48.6447

>  <SCORE.INTRA.VDW>
-2.14159

>  <SCORE.INTRA.VDW.0>
-0.0211724

>  <SCORE.INTRA.norm>
-0.170423

>  <SCORE.RESTR>
0

>  <SCORE.RESTR.CAVITY>
0

>  <SCORE.RESTR.norm>
0

>  <SCORE.SYSTEM>
0

>  <SCORE.SYSTEM.CONST>
0

>  <SCORE.SYSTEM.DIHEDRAL>
0

>  <SCORE.SYSTEM.SOLV>
0

>  <SCORE.SYSTEM.norm>
0

>  <SCORE.heavy>
27

>  <SCORE.norm>
-0.78466

>  <RMSD>
13.973

$$$$
ligand
 OpenBabel11021811483D
libRbt.so/2013.1/901 2013/11/27
 27 29  0  0  0  0  0  0  0  0999 V2000
   53.1602   41.5792   21.5919 N   0  0  0  0  0  0  0  0  0  0  0  0
   54.1558   42.6238   21.7995 C   0  0  2  0  0  0  0  0  0  0  0  0
   54.6064   42.6532   23.2506 C   0  0  0  0  0  0  0  0  0  0  0  0
   53.8246   42.9880   24.1374 O   0  0  0  0  0  0  0  0  0  0  0  0
   53.6361   43.9972   21.3769 C   0  0  0  0  0  0  0  0  0  0  0  0
   54.5999   45.1509   21.6281 C   0  0  0  0  0  0  0  0  0  0  0  0
   54.0438   46.7509   20.9785 S   0  0  2  0  0  0  0  0  0  0  0  0
   54.9088   46.8044   19.3899 C   0  0  0  0  0  0  0  0  0  0  0  0
   55.0763   47.8744   21.9561 C   0  0  0  0  0  0  0  0  0  0  0  0
   54.9942   49.2800   21.3797 C   0  0  1  0  0  0  0  0  0  0  0  0
   53.6640   49.7249   21.4937 O   0  0  0  0  0  0  0  0  0  0  0  0
   55.8183   50.3136   22.1207 C   0  0  1  0  0  0  0  0  0  0  0  0
   57.0514   50.5110   21.4732 O   0  0  0  0  0  0  0  0  0  0  0  0
   54.9657   51.5676   22.0497 C   0  0  1  0  0  0  0  0  0  0  0  0
   55.5156   52.4496   21.0998 O   0  0  0  0  0  0  0  0  0  0  0  0
   53.5786   51.1228   21.6031 C   0  0  2  0  0  0  0  0  0  0  0  0
   55.7559   42.3387   23.5606 O   0  0  0  0  0  0  0  0  0  0  0  0
   49.1083   53.6201   22.8128 N   0  0  0  0  0  0  0  0  0  0  0  0
   49.7434   53.5467   21.5896 C   0  0  0  0  0  0  0  0  0  0  0  0
   50.9239   52.8392   21.4551 N   0  0  0  0  0  0  0  0  0  0  0  0
   51.4762   52.2171   22.5198 C   0  0  0  0  0  0  0  0  0  0  0  0
   50.8515   52.2715   23.7569 C   0  0  0  0  0  0  0  0  0  0  0  0
   49.6630   52.9823   23.9022 C   0  0  0  0  0  0  0  0  0  0  0  0
   49.0532   53.0511   25.0828 N   0  0  0  0  0  0  0  0  0  0  0  0
   51.6041   51.5624   24.6275 N   0  0  0  0  0  0  0  0  0  0  0  0
   52.6723   51.0543   23.9690 C   0  0  0  0  0  0  0  0  0  0  0  0
   52.6068   51.4524   22.6594 N   0  0  0  0  0  0  0  0  0  0  0  0
  2  1  1  1  0  0  0
  2  3  1  0  0  0  0
  2  5  1  0  0  0  0
  3  4  1  0  0  0  0
  3 17  1  0  0  0  0
  5  6  1  0  0  0  0
  7  6  1  1  0  0  0
  7  8  1  0  0  0  0
  7  9  1  0  0  0  0
 10  9  1  1  0  0  0
 10 11  1  0  0  0  0
 10 12  1  0  0  0  0
 11 16  1  0  0  0  0
 12 13  1  6  0  0  0
 12 14  1  0  0  0  0
 14 15  1  6  0  0  0
 14 16  1  0  0  0  0
 16 27  1  1  0  0  0
 18 19  2  0  0  0  0
 18 23  1  0  0  0  0
 19 20  1  0  0  0  0
 20 21  2  0  0  0  0
 21 22  1  0  0  0  0
 21 27  1  0  0  0  0
 22 23  2  0  0  0  0
 22 25  1  0  0  0  0
 23 24  1  0  0  0  0
 25 26  2  0  0  0  0
 26 27  1  0  0  0  0
M  END
>  <CHROM.1>
-67.06064606,177.18482117,174.34980014,-96.40163314,168.22204022,63.11335034
-122.30882679,53.35049152,48.77528240,22.25418207,1.19076432,-0.46182788
3.04402151

>  <Name>
ligand

>  <RI>
0

>  <Rbt.Current_Directory>
/home/itssahil/PROJECTS/Mol_Feturizer/New_Systems/rnas/3GX7

>  <Rbt.Executable>
rbdock ($Id: //depot/dev/client3/rdock/2013.1/src/exe/rbdock.cxx#4 $)

>  <Rbt.Library>
libRbt.so (2013.1, Build901 2013/11/27)

>  <Rbt.Parameter_File>
/export/apps/rDock/src/rDock_2013.1_src/data/scripts/dock_solv.prm

>  <Rbt.Receptor>
prm/blind_docking_80.prm

>  <SCORE>
-21.8629

>  <SCORE.INTER>
-16.5086

>  <SCORE.INTER.CONST>
1

>  <SCORE.INTER.POLAR>
0

>  <SCORE.INTER.ROT>
7

>  <SCORE.INTER.SOLV>
12.824

>  <SCORE.INTER.VDW>
-23.5471

>  <SCORE.INTER.norm>
-0.611429

>  <SCORE.INTRA>
-5.36791

>  <SCORE.INTRA.DIHEDRAL>
-5.9561

>  <SCORE.INTRA.DIHEDRAL.0>
11.2699

>  <SCORE.INTRA.POLAR>
0

>  <SCORE.INTRA.POLAR.0>
0

>  <SCORE.INTRA.REPUL>
0

>  <SCORE.INTRA.REPUL.0>
0

>  <SCORE.INTRA.SOLV>
-1.14565

>  <SCORE.INTRA.SOLV.lig_0>
-48.6447

>  <SCORE.INTRA.VDW>
-1.81704

>  <SCORE.INTRA.VDW.0>
-0.0211724

>  <SCORE.INTRA.norm>
-0.198812

>  <SCORE.RESTR>
0.0135658

>  <SCORE.RESTR.CAVITY>
0.0135658

>  <SCORE.RESTR.norm>
0.000502436

>  <SCORE.SYSTEM>
0

>  <SCORE.SYSTEM.CONST>
0

>  <SCORE.SYSTEM.DIHEDRAL>
0

>  <SCORE.SYSTEM.SOLV>
0

>  <SCORE.SYSTEM.norm>
0

>  <SCORE.heavy>
27

>  <SCORE.norm>
-0.809738

>  <RMSD>
14.260

$$$$
ligand
 OpenBabel11021811483D
libRbt.so/2013.1/901 2013/11/27
 27 29  0  0  0  0  0  0  0  0999 V2000
   53.6524   60.9554   15.0716 N   0  0  0  0  0  0  0  0  0  0  0  0
   54.1359   60.6090   16.4027 C   0  0  2  0  0  0  0  0  0  0  0  0
   55.5881   61.0249   16.5699 C   0  0  0  0  0  0  0  0  0  0  0  0
   55.9822   62.0995   16.1229 O   0  0  0  0  0  0  0  0  0  0  0  0
   53.9732   59.1185   16.6972 C   0  0  0  0  0  0  0  0  0  0  0  0
   54.1170   58.7372   18.1658 C   0  0  0  0  0  0  0  0  0  0  0  0
   54.0692   56.9524   18.4880 S   0  0  2  0  0  0  0  0  0  0  0  0
   55.2244   56.3391   17.2373 C   0  0  0  0  0  0  0  0  0  0  0  0
   52.4866   56.5255   17.7152 C   0  0  0  0  0  0  0  0  0  0  0  0
   52.3850   55.0162   17.5524 C   0  0  1  0  0  0  0  0  0  0  0  0
   52.7192   54.4180   18.7815 O   0  0  0  0  0  0  0  0  0  0  0  0
   50.9926   54.5094   17.2353 C   0  0  1  0  0  0  0  0  0  0  0  0
   50.8509   54.3042   15.8508 O   0  0  0  0  0  0  0  0  0  0  0  0
   50.9125   53.1925   17.9860 C   0  0  1  0  0  0  0  0  0  0  0  0
   51.0334   52.1287   17.0715 O   0  0  0  0  0  0  0  0  0  0  0  0
   52.0855   53.1768   18.9582 C   0  0  2  0  0  0  0  0  0  0  0  0
   56.3889   60.2972   17.1577 O   0  0  0  0  0  0  0  0  0  0  0  0
   48.5612   55.0171   22.4045 N   0  0  0  0  0  0  0  0  0  0  0  0
   48.7350   55.3773   21.0835 C   0  0  0  0  0  0  0  0  0  0  0  0
   49.7233   54.7833   20.3201 N   0  0  0  0  0  0  0  0  0  0  0  0
   50.5374   53.8488   20.8582 C   0  0  0  0  0  0  0  0  0  0  0  0
   50.3762   53.4663   22.1816 C   0  0  0  0  0  0  0  0  0  0  0  0
   49.3844   54.0595   22.9583 C   0  0  0  0  0  0  0  0  0  0  0  0
   49.2194   53.7100   24.2315 N   0  0  0  0  0  0  0  0  0  0  0  0
   51.3034   52.5202   22.4505 N   0  0  0  0  0  0  0  0  0  0  0  0
   52.0296   52.2893   21.3316 C   0  0  0  0  0  0  0  0  0  0  0  0
   51.5659   53.1069   20.3344 N   0  0  0  0  0  0  0  0  0  0  0  0
  2  1  1  6  0  0  0
  2  3  1  0  0  0  0
  2  5  1  0  0  0  0
  3  4  1  0  0  0  0
  3 17  1  0  0  0  0
  5  6  1  0  0  0  0
  7  6  1  6  0  0  0
  7  8  1  0  0  0  0
  7  9  1  0  0  0  0
 10  9  1  1  0  0  0
 10 11  1  0  0  0  0
 10 12  1  0  0  0  0
 11 16  1  0  0  0  0
 12 13  1  6  0  0  0
 12 14  1  0  0  0  0
 14 15  1  6  0  0  0
 14 16  1  0  0  0  0
 16 27  1  1  0  0  0
 18 19  2  0  0  0  0
 18 23  1  0  0  0  0
 19 20  1  0  0  0  0
 20 21  2  0  0  0  0
 21 22  1  0  0  0  0
 21 27  1  0  0  0  0
 22 23  2  0  0  0  0
 22 25  1  0  0  0  0
 23 24  1  0  0  0  0
 25 26  2  0  0  0  0
 26 27  1  0  0  0  0
M  END
>  <CHROM.1>
40.74076381,-165.13268910,-174.84146428,47.64962292,165.90607320,49.12361573
68.31961319,52.31078505,55.94254985,18.81760528,-0.08337679,-1.04044382,-2.28884193

>  <Name>
ligand

>  <RI>
0

>  <Rbt.Current_Directory>
/home/itssahil/PROJECTS/Mol_Feturizer/New_Systems/rnas/3GX7

>  <Rbt.Executable>
rbdock ($Id: //depot/dev/client3/rdock/2013.1/src/exe/rbdock.cxx#4 $)

>  <Rbt.Library>
libRbt.so (2013.1, Build901 2013/11/27)

>  <Rbt.Parameter_File>
/export/apps/rDock/src/rDock_2013.1_src/data/scripts/dock_solv.prm

>  <Rbt.Receptor>
prm/blind_docking_100.prm

>  <SCORE>
-16.2256

>  <SCORE.INTER>
-12.2926

>  <SCORE.INTER.CONST>
1

>  <SCORE.INTER.POLAR>
0

>  <SCORE.INTER.ROT>
7

>  <SCORE.INTER.SOLV>
12.6277

>  <SCORE.INTER.VDW>
-20.6709

>  <SCORE.INTER.norm>
-0.45528

>  <SCORE.INTRA>
-3.93299

>  <SCORE.INTRA.DIHEDRAL>
-6.66744

>  <SCORE.INTRA.DIHEDRAL.0>
11.2699

>  <SCORE.INTRA.POLAR>
0

>  <SCORE.INTRA.POLAR.0>
0

>  <SCORE.INTRA.REPUL>
0

>  <SCORE.INTRA.REPUL.0>
0

>  <SCORE.INTRA.SOLV>
-1.00921

>  <SCORE.INTRA.SOLV.lig_0>
-48.6447

>  <SCORE.INTRA.VDW>
-0.0946629

>  <SCORE.INTRA.VDW.0>
-0.0211724

>  <SCORE.INTRA.norm>
-0.145666

>  <SCORE.RESTR>
0

>  <SCORE.RESTR.CAVITY>
0

>  <SCORE.RESTR.norm>
0

>  <SCORE.SYSTEM>
0

>  <SCORE.SYSTEM.CONST>
0

>  <SCORE.SYSTEM.DIHEDRAL>
0

>  <SCORE.SYSTEM.SOLV>
0

>  <SCORE.SYSTEM.norm>
0

>  <SCORE.heavy>
27

>  <SCORE.norm>
-0.600947

>  <RMSD>
14.305

$$$$
ligand
 OpenBabel11021811483D
libRbt.so/2013.1/901 2013/11/27
 27 29  0  0  0  0  0  0  0  0999 V2000
   48.0644   55.4428   26.3276 N   0  0  0  0  0  0  0  0  0  0  0  0
   48.9494   54.7575   25.3934 C   0  0  2  0  0  0  0  0  0  0  0  0
   50.3919   54.8384   25.8651 C   0  0  0  0  0  0  0  0  0  0  0  0
   50.6913   55.5342   26.8326 O   0  0  0  0  0  0  0  0  0  0  0  0
   48.8222   55.3144   23.9762 C   0  0  0  0  0  0  0  0  0  0  0  0
   49.5383   54.5029   22.9032 C   0  0  0  0  0  0  0  0  0  0  0  0
   49.2990   55.1144   21.2121 S   0  0  2  0  0  0  0  0  0  0  0  0
   47.6400   54.4914   20.8452 C   0  0  0  0  0  0  0  0  0  0  0  0
   50.3105   53.9259   20.2911 C   0  0  0  0  0  0  0  0  0  0  0  0
   50.2072   54.2100   18.8001 C   0  0  1  0  0  0  0  0  0  0  0  0
   50.6244   55.5350   18.5751 O   0  0  0  0  0  0  0  0  0  0  0  0
   51.1144   53.3606   17.9328 C   0  0  1  0  0  0  0  0  0  0  0  0
   50.4029   52.2677   17.4053 O   0  0  0  0  0  0  0  0  0  0  0  0
   51.5420   54.3092   16.8275 C   0  0  1  0  0  0  0  0  0  0  0  0
   50.8439   53.9910   15.6468 O   0  0  0  0  0  0  0  0  0  0  0  0
   51.1660   55.7110   17.2909 C   0  0  2  0  0  0  0  0  0  0  0  0
   51.2796   54.2069   25.2910 O   0  0  0  0  0  0  0  0  0  0  0  0
   55.9477   56.7164   15.3394 N   0  0  0  0  0  0  0  0  0  0  0  0
   55.0231   55.7891   14.9032 C   0  0  0  0  0  0  0  0  0  0  0  0
   53.8045   55.6606   15.5442 N   0  0  0  0  0  0  0  0  0  0  0  0
   53.5051   56.4344   16.6106 C   0  0  0  0  0  0  0  0  0  0  0  0
   54.4164   57.3778   17.0616 C   0  0  0  0  0  0  0  0  0  0  0  0
   55.6462   57.5138   16.4231 C   0  0  0  0  0  0  0  0  0  0  0  0
   56.5353   58.4087   16.8460 N   0  0  0  0  0  0  0  0  0  0  0  0
   53.8611   58.0109   18.1190 N   0  0  0  0  0  0  0  0  0  0  0  0
   52.6250   57.5021   18.3334 C   0  0  0  0  0  0  0  0  0  0  0  0
   52.3899   56.5222   17.4049 N   0  0  0  0  0  0  0  0  0  0  0  0
  2  1  1  1  0  0  0
  2  3  1  0  0  0  0
  2  5  1  0  0  0  0
  3  4  1  0  0  0  0
  3 17  1  0  0  0  0
  5  6  1  0  0  0  0
  7  6  1  1  0  0  0
  7  8  1  0  0  0  0
  7  9  1  0  0  0  0
 10  9  1  1  0  0  0
 10 11  1  0  0  0  0
 10 12  1  0  0  0  0
 11 16  1  0  0  0  0
 12 13  1  6  0  0  0
 12 14  1  0  0  0  0
 14 15  1  6  0  0  0
 14 16  1  0  0  0  0
 16 27  1  1  0  0  0
 18 19  2  0  0  0  0
 18 23  1  0  0  0  0
 19 20  1  0  0  0  0
 20 21  2  0  0  0  0
 21 22  1  0  0  0  0
 21 27  1  0  0  0  0
 22 23  2  0  0  0  0
 22 25  1  0  0  0  0
 23 24  1  0  0  0  0
 25 26  2  0  0  0  0
 26 27  1  0  0  0  0
M  END
>  <CHROM.1>
-7.23039118,-170.30077635,176.48343476,-78.03045507,177.33504511,57.81068146
147.87185259,51.46465821,55.39125025,19.71201961,-2.18892122,-0.60934257
-1.78421328

>  <Name>
ligand

>  <RI>
0

>  <Rbt.Current_Directory>
/home/itssahil/PROJECTS/Mol_Feturizer/New_Systems/rnas/3GX7

>  <Rbt.Executable>
rbdock ($Id: //depot/dev/client3/rdock/2013.1/src/exe/rbdock.cxx#4 $)

>  <Rbt.Library>
libRbt.so (2013.1, Build901 2013/11/27)

>  <Rbt.Parameter_File>
/export/apps/rDock/src/rDock_2013.1_src/data/scripts/dock_solv.prm

>  <Rbt.Receptor>
prm/blind_docking_100.prm

>  <SCORE>
-19.307

>  <SCORE.INTER>
-13.6643

>  <SCORE.INTER.CONST>
1

>  <SCORE.INTER.POLAR>
0

>  <SCORE.INTER.ROT>
7

>  <SCORE.INTER.SOLV>
11.0013

>  <SCORE.INTER.VDW>
-21.0433

>  <SCORE.INTER.norm>
-0.506086

>  <SCORE.INTRA>
-5.6427

>  <SCORE.INTRA.DIHEDRAL>
-7.33049

>  <SCORE.INTRA.DIHEDRAL.0>
11.2699

>  <SCORE.INTRA.POLAR>
0

>  <SCORE.INTRA.POLAR.0>
0

>  <SCORE.INTRA.REPUL>
0

>  <SCORE.INTRA.REPUL.0>
0

>  <SCORE.INTRA.SOLV>
-1.02311

>  <SCORE.INTRA.SOLV.lig_0>
-48.6447

>  <SCORE.INTRA.VDW>
-1.4659

>  <SCORE.INTRA.VDW.0>
-0.0211724

>  <SCORE.INTRA.norm>
-0.208989

>  <SCORE.RESTR>
0

>  <SCORE.RESTR.CAVITY>
0

>  <SCORE.RESTR.norm>
0

>  <SCORE.SYSTEM>
0

>  <SCORE.SYSTEM.CONST>
0

>  <SCORE.SYSTEM.DIHEDRAL>
0

>  <SCORE.SYSTEM.SOLV>
0

>  <SCORE.SYSTEM.norm>
0

>  <SCORE.heavy>
27

>  <SCORE.norm>
-0.715075

>  <RMSD>
14.321

$$$$
ligand
 OpenBabel11021811483D
libRbt.so/2013.1/901 2013/11/27
 27 29  0  0  0  0  0  0  0  0999 V2000
   52.1786   41.8990   21.0824 N   0  0  0  0  0  0  0  0  0  0  0  0
   53.1578   42.7609   21.7334 C   0  0  2  0  0  0  0  0  0  0  0  0
   52.7571   43.0338   23.1738 C   0  0  0  0  0  0  0  0  0  0  0  0
   53.6000   43.0138   24.0677 O   0  0  0  0  0  0  0  0  0  0  0  0
   53.3507   44.0750   20.9779 C   0  0  0  0  0  0  0  0  0  0  0  0
   54.3613   45.0296   21.6024 C   0  0  0  0  0  0  0  0  0  0  0  0
   54.4444   46.6604   20.8118 S   0  0  2  0  0  0  0  0  0  0  0  0
   56.0916   46.6044   20.0644 C   0  0  0  0  0  0  0  0  0  0  0  0
   54.7709   47.7049   22.2561 C   0  0  0  0  0  0  0  0  0  0  0  0
   55.4967   48.9696   21.8220 C   0  0  1  0  0  0  0  0  0  0  0  0
   54.6531   49.6836   20.9509 O   0  0  0  0  0  0  0  0  0  0  0  0
   55.8064   49.9358   22.9476 C   0  0  1  0  0  0  0  0  0  0  0  0
   57.1305   49.7623   23.3899 O   0  0  0  0  0  0  0  0  0  0  0  0
   55.6271   51.3000   22.3064 C   0  0  1  0  0  0  0  0  0  0  0  0
   56.8921   51.8666   22.0590 O   0  0  0  0  0  0  0  0  0  0  0  0
   54.8966   51.0665   20.9899 C   0  0  2  0  0  0  0  0  0  0  0  0
   51.5874   43.2832   23.4667 O   0  0  0  0  0  0  0  0  0  0  0  0
   50.6621   52.2863   23.8647 N   0  0  0  0  0  0  0  0  0  0  0  0
   51.7585   51.5332   24.2331 C   0  0  0  0  0  0  0  0  0  0  0  0
   52.7888   51.3121   23.3376 N   0  0  0  0  0  0  0  0  0  0  0  0
   52.7332   51.8226   22.0879 C   0  0  0  0  0  0  0  0  0  0  0  0
   51.6443   52.5884   21.6985 C   0  0  0  0  0  0  0  0  0  0  0  0
   50.6017   52.8157   22.5929 C   0  0  0  0  0  0  0  0  0  0  0  0
   49.5462   53.5422   22.2347 N   0  0  0  0  0  0  0  0  0  0  0  0
   51.8524   52.9764   20.4204 N   0  0  0  0  0  0  0  0  0  0  0  0
   53.0447   52.4886   20.0041 C   0  0  0  0  0  0  0  0  0  0  0  0
   53.6034   51.7699   21.0284 N   0  0  0  0  0  0  0  0  0  0  0  0
  2  1  1  6  0  0  0
  2  3  1  0  0  0  0
  2  5  1  0  0  0  0
  3  4  1  0  0  0  0
  3 17  1  0  0  0  0
  5  6  1  0  0  0  0
  7  6  1  1  0  0  0
  7  8  1  0  0  0  0
  7  9  1  0  0  0  0
 10  9  1  1  0  0  0
 10 11  1  0  0  0  0
 10 12  1  0  0  0  0
 11 16  1  0  0  0  0
 12 13  1  6  0  0  0
 12 14  1  0  0  0  0
 14 15  1  6  0  0  0
 14 16  1  0  0  0  0
 16 27  1  1  0  0  0
 18 19  2  0  0  0  0
 18 23  1  0  0  0  0
 19 20  1  0  0  0  0
 20 21  2  0  0  0  0
 21 22  1  0  0  0  0
 21 27  1  0  0  0  0
 22 23  2  0  0  0  0
 22 25  1  0  0  0  0
 23 24  1  0  0  0  0
 25 26  2  0  0  0  0
 26 27  1  0  0  0  0
M  END
>  <CHROM.1>
137.76124923,179.93888413,-173.26684446,-112.01492130,154.08584949,62.38825565
71.58859656,53.62669422,48.68176207,21.99455946,1.49432504,-0.20194019,3.12164645

>  <Name>
ligand

>  <RI>
0

>  <Rbt.Current_Directory>
/home/itssahil/PROJECTS/Mol_Feturizer/New_Systems/rnas/3GX7

>  <Rbt.Executable>
rbdock ($Id: //depot/dev/client3/rdock/2013.1/src/exe/rbdock.cxx#4 $)

>  <Rbt.Library>
libRbt.so (2013.1, Build901 2013/11/27)

>  <Rbt.Parameter_File>
/export/apps/rDock/src/rDock_2013.1_src/data/scripts/dock_solv.prm

>  <Rbt.Receptor>
prm/blind_docking_100.prm

>  <SCORE>
-20.3567

>  <SCORE.INTER>
-16.3171

>  <SCORE.INTER.CONST>
1

>  <SCORE.INTER.POLAR>
0

>  <SCORE.INTER.ROT>
7

>  <SCORE.INTER.SOLV>
13.6457

>  <SCORE.INTER.VDW>
-23.6933

>  <SCORE.INTER.norm>
-0.604336

>  <SCORE.INTRA>
-4.03966

>  <SCORE.INTRA.DIHEDRAL>
-3.48789

>  <SCORE.INTRA.DIHEDRAL.0>
11.2699

>  <SCORE.INTRA.POLAR>
0

>  <SCORE.INTRA.POLAR.0>
0

>  <SCORE.INTRA.REPUL>
0

>  <SCORE.INTRA.REPUL.0>
0

>  <SCORE.INTRA.SOLV>
-1.05117

>  <SCORE.INTRA.SOLV.lig_0>
-48.6447

>  <SCORE.INTRA.VDW>
-1.77013

>  <SCORE.INTRA.VDW.0>
-0.0211724

>  <SCORE.INTRA.norm>
-0.149617

>  <SCORE.RESTR>
0

>  <SCORE.RESTR.CAVITY>
0

>  <SCORE.RESTR.norm>
0

>  <SCORE.SYSTEM>
0

>  <SCORE.SYSTEM.CONST>
0

>  <SCORE.SYSTEM.DIHEDRAL>
0

>  <SCORE.SYSTEM.SOLV>
0

>  <SCORE.SYSTEM.norm>
0

>  <SCORE.heavy>
27

>  <SCORE.norm>
-0.753953

>  <RMSD>
14.508

$$$$
ligand
 OpenBabel11021811483D
libRbt.so/2013.1/901 2013/11/27
 27 29  0  0  0  0  0  0  0  0999 V2000
   53.7756   57.3352   12.5576 N   0  0  0  0  0  0  0  0  0  0  0  0
   55.0080   56.6087   12.8383 C   0  0  2  0  0  0  0  0  0  0  0  0
   55.6731   56.1633   11.5464 C   0  0  0  0  0  0  0  0  0  0  0  0
   55.1265   55.3379   10.8185 O   0  0  0  0  0  0  0  0  0  0  0  0
   54.7653   55.4081   13.7518 C   0  0  0  0  0  0  0  0  0  0  0  0
   54.2681   55.7578   15.1494 C   0  0  0  0  0  0  0  0  0  0  0  0
   54.1617   54.3472   16.2852 S   0  0  2  0  0  0  0  0  0  0  0  0
   52.6496   53.5412   15.7030 C   0  0  0  0  0  0  0  0  0  0  0  0
   53.5439   55.1752   17.7740 C   0  0  0  0  0  0  0  0  0  0  0  0
   53.8608   54.3319   18.9999 C   0  0  1  0  0  0  0  0  0  0  0  0
   53.1667   54.8737   20.0977 O   0  0  0  0  0  0  0  0  0  0  0  0
   53.3938   52.8929   18.9122 C   0  0  1  0  0  0  0  0  0  0  0  0
   54.4538   52.0588   18.5126 O   0  0  0  0  0  0  0  0  0  0  0  0
   52.9606   52.5711   20.3310 C   0  0  1  0  0  0  0  0  0  0  0  0
   53.9352   51.7584   20.9410 O   0  0  0  0  0  0  0  0  0  0  0  0
   52.8613   53.9023   21.0654 C   0  0  2  0  0  0  0  0  0  0  0  0
   56.7635   56.6239   11.2069 O   0  0  0  0  0  0  0  0  0  0  0  0
   48.0387   55.5391   19.7434 N   0  0  0  0  0  0  0  0  0  0  0  0
   49.1769   55.5118   18.9632 C   0  0  0  0  0  0  0  0  0  0  0  0
   50.3705   55.0449   19.4824 N   0  0  0  0  0  0  0  0  0  0  0  0
   50.4415   54.6168   20.7619 C   0  0  0  0  0  0  0  0  0  0  0  0
   49.3085   54.6285   21.5620 C   0  0  0  0  0  0  0  0  0  0  0  0
   48.1025   55.0977   21.0482 C   0  0  0  0  0  0  0  0  0  0  0  0
   47.0070   55.1227   21.8030 N   0  0  0  0  0  0  0  0  0  0  0  0
   49.6577   54.1421   22.7738 N   0  0  0  0  0  0  0  0  0  0  0  0
   50.9707   53.8131   22.7511 C   0  0  0  0  0  0  0  0  0  0  0  0
   51.4712   54.1023   21.5086 N   0  0  0  0  0  0  0  0  0  0  0  0
  2  1  1  6  0  0  0
  2  3  1  0  0  0  0
  2  5  1  0  0  0  0
  3  4  1  0  0  0  0
  3 17  1  0  0  0  0
  5  6  1  0  0  0  0
  7  6  1  6  0  0  0
  7  8  1  0  0  0  0
  7  9  1  0  0  0  0
 10  9  1  6  0  0  0
 10 11  1  0  0  0  0
 10 12  1  0  0  0  0
 11 16  1  0  0  0  0
 12 13  1  1  0  0  0
 12 14  1  0  0  0  0
 14 15  1  1  0  0  0
 14 16  1  0  0  0  0
 16 27  1  6  0  0  0
 18 19  2  0  0  0  0
 18 23  1  0  0  0  0
 19 20  1  0  0  0  0
 20 21  2  0  0  0  0
 21 22  1  0  0  0  0
 21 27  1  0  0  0  0
 22 23  2  0  0  0  0
 22 25  1  0  0  0  0
 23 24  1  0  0  0  0
 25 26  2  0  0  0  0
 26 27  1  0  0  0  0
M  END
>  <CHROM.1>
-65.60323578,-63.94650396,-173.42423751,-76.72336932,-158.70890706,-169.60308869
29.79679392,52.58431844,54.64466248,17.85357843,0.98407525,0.45056399,-1.11039277

>  <Name>
ligand

>  <RI>
0

>  <Rbt.Current_Directory>
/home/itssahil/PROJECTS/Mol_Feturizer/New_Systems/rnas/3GX7

>  <Rbt.Executable>
rbdock ($Id: //depot/dev/client3/rdock/2013.1/src/exe/rbdock.cxx#4 $)

>  <Rbt.Library>
libRbt.so (2013.1, Build901 2013/11/27)

>  <Rbt.Parameter_File>
/export/apps/rDock/src/rDock_2013.1_src/data/scripts/dock_solv.prm

>  <Rbt.Receptor>
prm/blind_docking_100.prm

>  <SCORE>
-17.7668

>  <SCORE.INTER>
-12.3729

>  <SCORE.INTER.CONST>
1

>  <SCORE.INTER.POLAR>
0

>  <SCORE.INTER.ROT>
7

>  <SCORE.INTER.SOLV>
15.9319

>  <SCORE.INTER.VDW>
-21.8259

>  <SCORE.INTER.norm>
-0.458255

>  <SCORE.INTRA>
-5.40291

>  <SCORE.INTRA.DIHEDRAL>
-5.1628

>  <SCORE.INTRA.DIHEDRAL.0>
11.2699

>  <SCORE.INTRA.POLAR>
0

>  <SCORE.INTRA.POLAR.0>
0

>  <SCORE.INTRA.REPUL>
0

>  <SCORE.INTRA.REPUL.0>
0

>  <SCORE.INTRA.SOLV>
-0.176704

>  <SCORE.INTRA.SOLV.lig_0>
-48.6447

>  <SCORE.INTRA.VDW>
-2.73316

>  <SCORE.INTRA.VDW.0>
-0.0211724

>  <SCORE.INTRA.norm>
-0.200108

>  <SCORE.RESTR>
0.00903164

>  <SCORE.RESTR.CAVITY>
0.00903164

>  <SCORE.RESTR.norm>
0.000334505

>  <SCORE.SYSTEM>
0

>  <SCORE.SYSTEM.CONST>
0

>  <SCORE.SYSTEM.DIHEDRAL>
0

>  <SCORE.SYSTEM.SOLV>
0

>  <SCORE.SYSTEM.norm>
0

>  <SCORE.heavy>
27

>  <SCORE.norm>
-0.658028

>  <RMSD>
14.853

$$$$
ligand
 OpenBabel11021811483D
libRbt.so/2013.1/901 2013/11/27
 27 29  0  0  0  0  0  0  0  0999 V2000
   50.6566   60.8714   12.6173 N   0  0  0  0  0  0  0  0  0  0  0  0
   51.6774   59.8377   12.4956 C   0  0  2  0  0  0  0  0  0  0  0  0
   51.1561   58.6632   11.6842 C   0  0  0  0  0  0  0  0  0  0  0  0
   49.9500   58.4358   11.6244 O   0  0  0  0  0  0  0  0  0  0  0  0
   52.1714   59.3621   13.8611 C   0  0  0  0  0  0  0  0  0  0  0  0
   53.4071   58.4711   13.8197 C   0  0  0  0  0  0  0  0  0  0  0  0
   53.7300   57.5602   15.3551 S   0  0  2  0  0  0  0  0  0  0  0  0
   54.9178   56.3201   14.7841 C   0  0  0  0  0  0  0  0  0  0  0  0
   52.2255   56.5554   15.4586 C   0  0  0  0  0  0  0  0  0  0  0  0
   52.4906   55.3191   16.3048 C   0  0  1  0  0  0  0  0  0  0  0  0
   52.0698   55.5883   17.6204 O   0  0  0  0  0  0  0  0  0  0  0  0
   51.7087   54.0902   15.8866 C   0  0  1  0  0  0  0  0  0  0  0  0
   52.5018   53.2596   15.0740 O   0  0  0  0  0  0  0  0  0  0  0  0
   51.3867   53.4069   17.2033 C   0  0  1  0  0  0  0  0  0  0  0  0
   52.2219   52.2843   17.3602 O   0  0  0  0  0  0  0  0  0  0  0  0
   51.6735   54.4246   18.3002 C   0  0  2  0  0  0  0  0  0  0  0  0
   51.9299   57.9263   11.0722 O   0  0  0  0  0  0  0  0  0  0  0  0
   48.7286   53.3448   22.5246 N   0  0  0  0  0  0  0  0  0  0  0  0
   49.9533   52.8120   22.1764 C   0  0  0  0  0  0  0  0  0  0  0  0
   50.5885   53.2165   21.0166 N   0  0  0  0  0  0  0  0  0  0  0  0
   50.0163   54.1322   20.2044 C   0  0  0  0  0  0  0  0  0  0  0  0
   48.7894   54.6862   20.5383 C   0  0  0  0  0  0  0  0  0  0  0  0
   48.1418   54.2844   21.7036 C   0  0  0  0  0  0  0  0  0  0  0  0
   46.9613   54.8000   22.0365 N   0  0  0  0  0  0  0  0  0  0  0  0
   48.4619   55.5703   19.5696 N   0  0  0  0  0  0  0  0  0  0  0  0
   49.4533   55.5964   18.6481 C   0  0  0  0  0  0  0  0  0  0  0  0
   50.4254   54.7086   19.0284 N   0  0  0  0  0  0  0  0  0  0  0  0
  2  1  1  1  0  0  0
  2  3  1  0  0  0  0
  2  5  1  0  0  0  0
  3  4  1  0  0  0  0
  3 17  1  0  0  0  0
  5  6  1  0  0  0  0
  7  6  1  6  0  0  0
  7  8  1  0  0  0  0
  7  9  1  0  0  0  0
 10  9  1  6  0  0  0
 10 11  1  0  0  0  0
 10 12  1  0  0  0  0
 11 16  1  0  0  0  0
 12 13  1  6  0  0  0
 12 14  1  0  0  0  0
 14 15  1  1  0  0  0
 14 16  1  0  0  0  0
 16 27  1  6  0  0  0
 18 19  2  0  0  0  0
 18 23  1  0  0  0  0
 19 20  1  0  0  0  0
 20 21  2  0  0  0  0
 21 22  1  0  0  0  0
 21 27  1  0  0  0  0
 22 23  2  0  0  0  0
 22 25  1  0  0  0  0
 23 24  1  0  0  0  0
 25 26  2  0  0  0  0
 26 27  1  0  0  0  0
M  END
>  <CHROM.1>
-25.25507513,-169.49898434,-164.54157089,164.70512676,156.49801820,95.78501444
-149.65378130,51.20316370,55.86547219,16.76407990,1.21134122,0.60485870,-0.83505761

>  <Name>
ligand

>  <RI>
0

>  <Rbt.Current_Directory>
/home/itssahil/PROJECTS/Mol_Feturizer/New_Systems/rnas/3GX7

>  <Rbt.Executable>
rbdock ($Id: //depot/dev/client3/rdock/2013.1/src/exe/rbdock.cxx#4 $)

>  <Rbt.Library>
libRbt.so (2013.1, Build901 2013/11/27)

>  <Rbt.Parameter_File>
/export/apps/rDock/src/rDock_2013.1_src/data/scripts/dock_solv.prm

>  <Rbt.Receptor>
prm/blind_docking_100.prm

>  <SCORE>
-16.4711

>  <SCORE.INTER>
-12.8664

>  <SCORE.INTER.CONST>
1

>  <SCORE.INTER.POLAR>
0

>  <SCORE.INTER.ROT>
7

>  <SCORE.INTER.SOLV>
14.1223

>  <SCORE.INTER.VDW>
-21.5517

>  <SCORE.INTER.norm>
-0.476534

>  <SCORE.INTRA>
-3.60471

>  <SCORE.INTRA.DIHEDRAL>
-2.63931

>  <SCORE.INTRA.DIHEDRAL.0>
11.2699

>  <SCORE.INTRA.POLAR>
0

>  <SCORE.INTRA.POLAR.0>
0

>  <SCORE.INTRA.REPUL>
0

>  <SCORE.INTRA.REPUL.0>
0

>  <SCORE.INTRA.SOLV>
-1.05895

>  <SCORE.INTRA.SOLV.lig_0>
-48.6447

>  <SCORE.INTRA.VDW>
-1.75558

>  <SCORE.INTRA.VDW.0>
-0.0211724

>  <SCORE.INTRA.norm>
-0.133508

>  <SCORE.RESTR>
0

>  <SCORE.RESTR.CAVITY>
0

>  <SCORE.RESTR.norm>
0

>  <SCORE.SYSTEM>
0

>  <SCORE.SYSTEM.CONST>
0

>  <SCORE.SYSTEM.DIHEDRAL>
0

>  <SCORE.SYSTEM.SOLV>
0

>  <SCORE.SYSTEM.norm>
0

>  <SCORE.heavy>
27

>  <SCORE.norm>
-0.610042

>  <RMSD>
15.591

$$$$
ligand
 OpenBabel11021811483D
libRbt.so/2013.1/901 2013/11/27
 27 29  0  0  0  0  0  0  0  0999 V2000
   55.8436   50.5911   23.4110 N   0  0  0  0  0  0  0  0  0  0  0  0
   54.5704   49.8817   23.4447 C   0  0  2  0  0  0  0  0  0  0  0  0
   53.8042   50.2167   24.7137 C   0  0  0  0  0  0  0  0  0  0  0  0
   54.3869   50.2769   25.7938 O   0  0  0  0  0  0  0  0  0  0  0  0
   54.7575   48.3703   23.3207 C   0  0  0  0  0  0  0  0  0  0  0  0
   55.4704   47.9158   22.0527 C   0  0  0  0  0  0  0  0  0  0  0  0
   55.5156   46.1173   21.8183 S   0  0  2  0  0  0  0  0  0  0  0  0
   56.3776   45.9919   20.2321 C   0  0  0  0  0  0  0  0  0  0  0  0
   53.8079   45.8157   21.2923 C   0  0  0  0  0  0  0  0  0  0  0  0
   53.5763   44.3207   21.1316 C   0  0  1  0  0  0  0  0  0  0  0  0
   53.2682   43.7851   22.3959 O   0  0  0  0  0  0  0  0  0  0  0  0
   52.3960   43.9571   20.2534 C   0  0  1  0  0  0  0  0  0  0  0  0
   52.8305   43.6625   18.9483 O   0  0  0  0  0  0  0  0  0  0  0  0
   51.8213   42.7212   20.9217 C   0  0  1  0  0  0  0  0  0  0  0  0
   52.1708   41.5825   20.1708 O   0  0  0  0  0  0  0  0  0  0  0  0
   52.4536   42.6442   22.3058 C   0  0  2  0  0  0  0  0  0  0  0  0
   52.5932   50.4371   24.6798 O   0  0  0  0  0  0  0  0  0  0  0  0
   47.6513   44.4585   23.4594 N   0  0  0  0  0  0  0  0  0  0  0  0
   48.3555   44.5910   22.2798 C   0  0  0  0  0  0  0  0  0  0  0  0
   49.6197   44.0447   22.1539 N   0  0  0  0  0  0  0  0  0  0  0  0
   50.1862   43.3811   23.1856 C   0  0  0  0  0  0  0  0  0  0  0  0
   49.4939   43.2296   24.3778 C   0  0  0  0  0  0  0  0  0  0  0  0
   48.2209   43.7771   24.5142 C   0  0  0  0  0  0  0  0  0  0  0  0
   47.5447   43.6475   25.6527 N   0  0  0  0  0  0  0  0  0  0  0  0
   50.2801   42.5243   25.2213 N   0  0  0  0  0  0  0  0  0  0  0  0
   51.4366   42.2177   24.5877 C   0  0  0  0  0  0  0  0  0  0  0  0
   51.3932   42.7432   23.3229 N   0  0  0  0  0  0  0  0  0  0  0  0
  2  1  1  1  0  0  0
  2  3  1  0  0  0  0
  2  5  1  0  0  0  0
  3  4  1  0  0  0  0
  3 17  1  0  0  0  0
  5  6  1  0  0  0  0
  7  6  1  6  0  0  0
  7  8  1  0  0  0  0
  7  9  1  0  0  0  0
 10  9  1  1  0  0  0
 10 11  1  0  0  0  0
 10 12  1  0  0  0  0
 11 16  1  0  0  0  0
 12 13  1  6  0  0  0
 12 14  1  0  0  0  0
 14 15  1  6  0  0  0
 14 16  1  0  0  0  0
 16 27  1  1  0  0  0
 18 19  2  0  0  0  0
 18 23  1  0  0  0  0
 19 20  1  0  0  0  0
 20 21  2  0  0  0  0
 21 22  1  0  0  0  0
 21 27  1  0  0  0  0
 22 23  2  0  0  0  0
 22 25  1  0  0  0  0
 23 24  1  0  0  0  0
 25 26  2  0  0  0  0
 26 27  1  0  0  0  0
M  END
>  <CHROM.1>
-42.43129572,-58.59156935,-173.14442398,178.54326145,-175.77847460,83.79722327
86.17576994,52.45187370,45.37937523,22.71895633,0.70724519,0.56711035,0.60241659

>  <Name>
ligand

>  <RI>
0

>  <Rbt.Current_Directory>
/home/itssahil/PROJECTS/Mol_Feturizer/New_Systems/rnas/3GX7

>  <Rbt.Executable>
rbdock ($Id: //depot/dev/client3/rdock/2013.1/src/exe/rbdock.cxx#4 $)

>  <Rbt.Library>
libRbt.so (2013.1, Build901 2013/11/27)

>  <Rbt.Parameter_File>
/export/apps/rDock/src/rDock_2013.1_src/data/scripts/dock_solv.prm

>  <Rbt.Receptor>
prm/blind_docking_80.prm

>  <SCORE>
-17.7368

>  <SCORE.INTER>
-12.5231

>  <SCORE.INTER.CONST>
1

>  <SCORE.INTER.POLAR>
0

>  <SCORE.INTER.ROT>
7

>  <SCORE.INTER.SOLV>
14.5279

>  <SCORE.INTER.VDW>
-21.458

>  <SCORE.INTER.norm>
-0.463818

>  <SCORE.INTRA>
-5.22681

>  <SCORE.INTRA.DIHEDRAL>
-5.54517

>  <SCORE.INTRA.DIHEDRAL.0>
11.2699

>  <SCORE.INTRA.POLAR>
0

>  <SCORE.INTRA.POLAR.0>
0

>  <SCORE.INTRA.REPUL>
0

>  <SCORE.INTRA.REPUL.0>
0

>  <SCORE.INTRA.SOLV>
-0.445505

>  <SCORE.INTRA.SOLV.lig_0>
-48.6447

>  <SCORE.INTRA.VDW>
-2.23148

>  <SCORE.INTRA.VDW.0>
-0.0211724

>  <SCORE.INTRA.norm>
-0.193586

>  <SCORE.RESTR>
0.0131341

>  <SCORE.RESTR.CAVITY>
0.0131341

>  <SCORE.RESTR.norm>
0.000486447

>  <SCORE.SYSTEM>
0

>  <SCORE.SYSTEM.CONST>
0

>  <SCORE.SYSTEM.DIHEDRAL>
0

>  <SCORE.SYSTEM.SOLV>
0

>  <SCORE.SYSTEM.norm>
0

>  <SCORE.heavy>
27

>  <SCORE.norm>
-0.656917

>  <RMSD>
16.115

$$$$
ligand
 OpenBabel11021811483D
libRbt.so/2013.1/901 2013/11/27
 27 29  0  0  0  0  0  0  0  0999 V2000
   50.9988   52.2953   24.6853 N   0  0  0  0  0  0  0  0  0  0  0  0
   52.3471   51.9644   24.2403 C   0  0  2  0  0  0  0  0  0  0  0  0
   52.4755   52.1502   22.7374 C   0  0  0  0  0  0  0  0  0  0  0  0
   51.5105   51.9548   22.0023 O   0  0  0  0  0  0  0  0  0  0  0  0
   52.7440   50.5427   24.6354 C   0  0  0  0  0  0  0  0  0  0  0  0
   54.2159   50.2078   24.4257 C   0  0  0  0  0  0  0  0  0  0  0  0
   54.5317   48.5004   23.8999 S   0  0  2  0  0  0  0  0  0  0  0  0
   56.3205   48.5419   23.6291 C   0  0  0  0  0  0  0  0  0  0  0  0
   53.9358   48.5721   22.1900 C   0  0  0  0  0  0  0  0  0  0  0  0
   54.7140   47.5849   21.3330 C   0  0  1  0  0  0  0  0  0  0  0  0
   54.5652   46.3030   21.8941 O   0  0  0  0  0  0  0  0  0  0  0  0
   54.2090   47.4513   19.9104 C   0  0  1  0  0  0  0  0  0  0  0  0
   54.9749   48.2514   19.0430 O   0  0  0  0  0  0  0  0  0  0  0  0
   54.4051   45.9786   19.5989 C   0  0  1  0  0  0  0  0  0  0  0  0
   55.5203   45.8276   18.7527 O   0  0  0  0  0  0  0  0  0  0  0  0
   54.6665   45.2859   20.9305 C   0  0  2  0  0  0  0  0  0  0  0  0
   53.5428   52.5028   22.2343 O   0  0  0  0  0  0  0  0  0  0  0  0
   52.6149   41.8021   24.2978 N   0  0  0  0  0  0  0  0  0  0  0  0
   53.7278   42.6012   24.4654 C   0  0  0  0  0  0  0  0  0  0  0  0
   54.1258   43.4665   23.4628 N   0  0  0  0  0  0  0  0  0  0  0  0
   53.4365   43.5361   22.3028 C   0  0  0  0  0  0  0  0  0  0  0  0
   52.3109   42.7476   22.1155 C   0  0  0  0  0  0  0  0  0  0  0  0
   51.9031   41.8727   23.1189 C   0  0  0  0  0  0  0  0  0  0  0  0
   50.8298   41.1038   22.9542 N   0  0  0  0  0  0  0  0  0  0  0  0
   51.8165   43.0244   20.8883 N   0  0  0  0  0  0  0  0  0  0  0  0
   52.5901   43.9723   20.3088 C   0  0  0  0  0  0  0  0  0  0  0  0
   53.6002   44.2999   21.1748 N   0  0  0  0  0  0  0  0  0  0  0  0
  2  1  1  6  0  0  0
  2  3  1  0  0  0  0
  2  5  1  0  0  0  0
  3  4  1  0  0  0  0
  3 17  1  0  0  0  0
  5  6  1  0  0  0  0
  7  6  1  1  0  0  0
  7  8  1  0  0  0  0
  7  9  1  0  0  0  0
 10  9  1  1  0  0  0
 10 11  1  0  0  0  0
 10 12  1  0  0  0  0
 11 16  1  0  0  0  0
 12 13  1  6  0  0  0
 12 14  1  0  0  0  0
 14 15  1  6  0  0  0
 14 16  1  0  0  0  0
 16 27  1  1  0  0  0
 18 19  2  0  0  0  0
 18 23  1  0  0  0  0
 19 20  1  0  0  0  0
 20 21  2  0  0  0  0
 21 22  1  0  0  0  0
 21 27  1  0  0  0  0
 22 23  2  0  0  0  0
 22 25  1  0  0  0  0
 23 24  1  0  0  0  0
 25 26  2  0  0  0  0
 26 27  1  0  0  0  0
M  END
>  <CHROM.1>
-31.84824225,-169.68738143,-144.43165938,175.42818490,150.06654019,57.30388267
-61.84660506,53.51760970,46.95424414,22.31539304,1.52491970,1.08565833,0.15898736

>  <Name>
ligand

>  <RI>
0

>  <Rbt.Current_Directory>
/home/itssahil/PROJECTS/Mol_Feturizer/New_Systems/rnas/3GX7

>  <Rbt.Executable>
rbdock ($Id: //depot/dev/client3/rdock/2013.1/src/exe/rbdock.cxx#4 $)

>  <Rbt.Library>
libRbt.so (2013.1, Build901 2013/11/27)

>  <Rbt.Parameter_File>
/export/apps/rDock/src/rDock_2013.1_src/data/scripts/dock_solv.prm

>  <Rbt.Receptor>
prm/blind_docking_80.prm

>  <SCORE>
-17.0375

>  <SCORE.INTER>
-14.1715

>  <SCORE.INTER.CONST>
1

>  <SCORE.INTER.POLAR>
0

>  <SCORE.INTER.ROT>
7

>  <SCORE.INTER.SOLV>
12.2398

>  <SCORE.INTER.VDW>
-21.7943

>  <SCORE.INTER.norm>
-0.52487

>  <SCORE.INTRA>
-2.86601

>  <SCORE.INTRA.DIHEDRAL>
-2.82246

>  <SCORE.INTRA.DIHEDRAL.0>
11.2699

>  <SCORE.INTRA.POLAR>
0

>  <SCORE.INTRA.POLAR.0>
0

>  <SCORE.INTRA.REPUL>
0

>  <SCORE.INTRA.REPUL.0>
0

>  <SCORE.INTRA.SOLV>
-1.01343

>  <SCORE.INTRA.SOLV.lig_0>
-48.6447

>  <SCORE.INTRA.VDW>
-0.948072

>  <SCORE.INTRA.VDW.0>
-0.0211724

>  <SCORE.INTRA.norm>
-0.106149

>  <SCORE.RESTR>
0

>  <SCORE.RESTR.CAVITY>
0

>  <SCORE.RESTR.norm>
0

>  <SCORE.SYSTEM>
0

>  <SCORE.SYSTEM.CONST>
0

>  <SCORE.SYSTEM.DIHEDRAL>
0

>  <SCORE.SYSTEM.SOLV>
0

>  <SCORE.SYSTEM.norm>
0

>  <SCORE.heavy>
27

>  <SCORE.norm>
-0.631019

>  <RMSD>
16.190

$$$$
ligand
 OpenBabel11021811483D
libRbt.so/2013.1/901 2013/11/27
 27 29  0  0  0  0  0  0  0  0999 V2000
   55.0287   69.3057   23.0917 N   0  0  0  0  0  0  0  0  0  0  0  0
   55.5958   68.1099   22.4804 C   0  0  2  0  0  0  0  0  0  0  0  0
   56.0248   68.3918   21.0499 C   0  0  0  0  0  0  0  0  0  0  0  0
   55.2007   68.7554   20.2142 O   0  0  0  0  0  0  0  0  0  0  0  0
   54.6214   66.9335   22.5203 C   0  0  0  0  0  0  0  0  0  0  0  0
   55.1638   65.6335   21.9387 C   0  0  0  0  0  0  0  0  0  0  0  0
   53.9668   64.2709   21.8962 S   0  0  2  0  0  0  0  0  0  0  0  0
   54.2000   63.5477   23.5386 C   0  0  0  0  0  0  0  0  0  0  0  0
   54.8710   63.0764   20.8765 C   0  0  0  0  0  0  0  0  0  0  0  0
   53.9676   61.8989   20.5418 C   0  0  1  0  0  0  0  0  0  0  0  0
   52.7353   62.4052   20.0884 O   0  0  0  0  0  0  0  0  0  0  0  0
   54.4698   61.0207   19.4136 C   0  0  1  0  0  0  0  0  0  0  0  0
   55.1370   59.8952   19.9304 O   0  0  0  0  0  0  0  0  0  0  0  0
   53.2007   60.6091   18.6896 C   0  0  1  0  0  0  0  0  0  0  0  0
   52.8966   59.2720   19.0093 O   0  0  0  0  0  0  0  0  0  0  0  0
   52.0961   61.5280   19.1965 C   0  0  2  0  0  0  0  0  0  0  0  0
   57.2010   68.2659   20.7077 O   0  0  0  0  0  0  0  0  0  0  0  0
   52.7987   63.0251   14.2016 N   0  0  0  0  0  0  0  0  0  0  0  0
   53.6006   62.2058   14.9702 C   0  0  0  0  0  0  0  0  0  0  0  0
   53.2575   61.9180   16.2786 N   0  0  0  0  0  0  0  0  0  0  0  0
   52.1379   62.4408   16.8253 C   0  0  0  0  0  0  0  0  0  0  0  0
   51.3136   63.2608   16.0691 C   0  0  0  0  0  0  0  0  0  0  0  0
   51.6513   63.5569   14.7512 C   0  0  0  0  0  0  0  0  0  0  0  0
   50.8761   64.3470   14.0129 N   0  0  0  0  0  0  0  0  0  0  0  0
   50.2731   63.6278   16.8500 N   0  0  0  0  0  0  0  0  0  0  0  0
   50.4144   63.0505   18.0664 C   0  0  0  0  0  0  0  0  0  0  0  0
   51.5677   62.3105   18.0664 N   0  0  0  0  0  0  0  0  0  0  0  0
  2  1  1  6  0  0  0
  2  3  1  0  0  0  0
  2  5  1  0  0  0  0
  3  4  1  0  0  0  0
  3 17  1  0  0  0  0
  5  6  1  0  0  0  0
  7  6  1  1  0  0  0
  7  8  1  0  0  0  0
  7  9  1  0  0  0  0
 10  9  1  6  0  0  0
 10 11  1  0  0  0  0
 10 12  1  0  0  0  0
 11 16  1  0  0  0  0
 12 13  1  1  0  0  0
 12 14  1  0  0  0  0
 14 15  1  1  0  0  0
 14 16  1  0  0  0  0
 16 27  1  6  0  0  0
 18 19  2  0  0  0  0
 18 23  1  0  0  0  0
 19 20  1  0  0  0  0
 20 21  2  0  0  0  0
 21 22  1  0  0  0  0
 21 27  1  0  0  0  0
 22 23  2  0  0  0  0
 22 25  1  0  0  0  0
 23 24  1  0  0  0  0
 25 26  2  0  0  0  0
 26 27  1  0  0  0  0
M  END
>  <CHROM.1>
-60.58103928,-178.09198047,-176.39219611,-87.43153348,-172.33770688,48.00761866
100.29935949,53.56960032,63.83573060,19.30248836,0.35676520,-1.13912832,-0.37144075

>  <Name>
ligand

>  <RI>
0

>  <Rbt.Current_Directory>
/home/itssahil/PROJECTS/Mol_Feturizer/New_Systems/rnas/3GX7

>  <Rbt.Executable>
rbdock ($Id: //depot/dev/client3/rdock/2013.1/src/exe/rbdock.cxx#4 $)

>  <Rbt.Library>
libRbt.so (2013.1, Build901 2013/11/27)

>  <Rbt.Parameter_File>
/export/apps/rDock/src/rDock_2013.1_src/data/scripts/dock_solv.prm

>  <Rbt.Receptor>
prm/blind_docking_100.prm

>  <SCORE>
-18.8329

>  <SCORE.INTER>
-13.9858

>  <SCORE.INTER.CONST>
1

>  <SCORE.INTER.POLAR>
0

>  <SCORE.INTER.ROT>
7

>  <SCORE.INTER.SOLV>
11.1011

>  <SCORE.INTER.VDW>
-21.2909

>  <SCORE.INTER.norm>
-0.517993

>  <SCORE.INTRA>
-4.84709

>  <SCORE.INTRA.DIHEDRAL>
-5.88382

>  <SCORE.INTRA.DIHEDRAL.0>
11.2699

>  <SCORE.INTRA.POLAR>
0

>  <SCORE.INTRA.POLAR.0>
0

>  <SCORE.INTRA.REPUL>
0

>  <SCORE.INTRA.REPUL.0>
0

>  <SCORE.INTRA.SOLV>
-1.07431

>  <SCORE.INTRA.SOLV.lig_0>
-48.6447

>  <SCORE.INTRA.VDW>
-1.36803

>  <SCORE.INTRA.VDW.0>
-0.0211724

>  <SCORE.INTRA.norm>
-0.179522

>  <SCORE.RESTR>
0

>  <SCORE.RESTR.CAVITY>
0

>  <SCORE.RESTR.norm>
0

>  <SCORE.SYSTEM>
0

>  <SCORE.SYSTEM.CONST>
0

>  <SCORE.SYSTEM.DIHEDRAL>
0

>  <SCORE.SYSTEM.SOLV>
0

>  <SCORE.SYSTEM.norm>
0

>  <SCORE.heavy>
27

>  <SCORE.norm>
-0.697514

>  <RMSD>
16.411

$$$$
ligand
 OpenBabel11021811483D
libRbt.so/2013.1/901 2013/11/27
 27 29  0  0  0  0  0  0  0  0999 V2000
   52.8496   52.6730   24.9033 N   0  0  0  0  0  0  0  0  0  0  0  0
   53.4763   51.6808   24.0383 C   0  0  2  0  0  0  0  0  0  0  0  0
   52.7170   51.5569   22.7277 C   0  0  0  0  0  0  0  0  0  0  0  0
   51.9117   52.4221   22.3919 O   0  0  0  0  0  0  0  0  0  0  0  0
   53.5838   50.3178   24.7206 C   0  0  0  0  0  0  0  0  0  0  0  0
   54.9968   49.9143   25.1247 C   0  0  0  0  0  0  0  0  0  0  0  0
   55.9810   49.1805   23.7889 S   0  0  2  0  0  0  0  0  0  0  0  0
   56.3293   50.6350   22.7701 C   0  0  0  0  0  0  0  0  0  0  0  0
   54.6703   48.3979   22.8124 C   0  0  0  0  0  0  0  0  0  0  0  0
   55.2867   47.5750   21.6911 C   0  0  1  0  0  0  0  0  0  0  0  0
   55.6591   46.3242   22.2173 O   0  0  0  0  0  0  0  0  0  0  0  0
   54.3405   47.2551   20.5514 C   0  0  1  0  0  0  0  0  0  0  0  0
   54.5236   48.1650   19.4943 O   0  0  0  0  0  0  0  0  0  0  0  0
   54.7472   45.8538   20.1326 C   0  0  1  0  0  0  0  0  0  0  0  0
   55.4752   45.9219   18.9292 O   0  0  0  0  0  0  0  0  0  0  0  0
   55.6342   45.3100   21.2456 C   0  0  2  0  0  0  0  0  0  0  0  0
   52.8990   50.5941   21.9818 O   0  0  0  0  0  0  0  0  0  0  0  0
   51.5473   42.0015   21.0555 N   0  0  0  0  0  0  0  0  0  0  0  0
   51.7986   43.0979   20.2556 C   0  0  0  0  0  0  0  0  0  0  0  0
   52.9345   43.8619   20.4517 N   0  0  0  0  0  0  0  0  0  0  0  0
   53.8095   43.5512   21.4332 C   0  0  0  0  0  0  0  0  0  0  0  0
   53.5807   42.4495   22.2443 C   0  0  0  0  0  0  0  0  0  0  0  0
   52.4393   41.6749   22.0550 C   0  0  0  0  0  0  0  0  0  0  0  0
   52.2000   40.6186   22.8277 N   0  0  0  0  0  0  0  0  0  0  0  0
   54.6064   42.3661   23.1208 N   0  0  0  0  0  0  0  0  0  0  0  0
   55.4764   43.3733   22.8728 C   0  0  0  0  0  0  0  0  0  0  0  0
   54.9951   44.1178   21.8279 N   0  0  0  0  0  0  0  0  0  0  0  0
  2  1  1  1  0  0  0
  2  3  1  0  0  0  0
  2  5  1  0  0  0  0
  3  4  1  0  0  0  0
  3 17  1  0  0  0  0
  5  6  1  0  0  0  0
  7  6  1  1  0  0  0
  7  8  1  0  0  0  0
  7  9  1  0  0  0  0
 10  9  1  1  0  0  0
 10 11  1  0  0  0  0
 10 12  1  0  0  0  0
 11 16  1  0  0  0  0
 12 13  1  6  0  0  0
 12 14  1  0  0  0  0
 14 15  1  6  0  0  0
 14 16  1  0  0  0  0
 16 27  1  1  0  0  0
 18 19  2  0  0  0  0
 18 23  1  0  0  0  0
 19 20  1  0  0  0  0
 20 21  2  0  0  0  0
 21 22  1  0  0  0  0
 21 27  1  0  0  0  0
 22 23  2  0  0  0  0
 22 25  1  0  0  0  0
 23 24  1  0  0  0  0
 25 26  2  0  0  0  0
 26 27  1  0  0  0  0
M  END
>  <CHROM.1>
15.76635058,-108.34519211,-82.77071295,72.79501454,-173.90200023,82.63859445
115.07518273,54.12957945,46.93938642,22.19919555,1.48522682,0.77871990,0.28372461

>  <Name>
ligand

>  <RI>
0

>  <Rbt.Current_Directory>
/home/itssahil/PROJECTS/Mol_Feturizer/New_Systems/rnas/3GX7

>  <Rbt.Executable>
rbdock ($Id: //depot/dev/client3/rdock/2013.1/src/exe/rbdock.cxx#4 $)

>  <Rbt.Library>
libRbt.so (2013.1, Build901 2013/11/27)

>  <Rbt.Parameter_File>
/export/apps/rDock/src/rDock_2013.1_src/data/scripts/dock_solv.prm

>  <Rbt.Receptor>
prm/blind_docking_80.prm

>  <SCORE>
-20.1975

>  <SCORE.INTER>
-20.815

>  <SCORE.INTER.CONST>
1

>  <SCORE.INTER.POLAR>
0

>  <SCORE.INTER.ROT>
7

>  <SCORE.INTER.SOLV>
10.6267

>  <SCORE.INTER.VDW>
-25.6856

>  <SCORE.INTER.norm>
-0.770927

>  <SCORE.INTRA>
0.617531

>  <SCORE.INTRA.DIHEDRAL>
2.36347

>  <SCORE.INTRA.DIHEDRAL.0>
11.2699

>  <SCORE.INTRA.POLAR>
0

>  <SCORE.INTRA.POLAR.0>
0

>  <SCORE.INTRA.REPUL>
0

>  <SCORE.INTRA.REPUL.0>
0

>  <SCORE.INTRA.SOLV>
-0.525254

>  <SCORE.INTRA.SOLV.lig_0>
-48.6447

>  <SCORE.INTRA.VDW>
-0.301577

>  <SCORE.INTRA.VDW.0>
-0.0211724

>  <SCORE.INTRA.norm>
0.0228715

>  <SCORE.RESTR>
0

>  <SCORE.RESTR.CAVITY>
0

>  <SCORE.RESTR.norm>
0

>  <SCORE.SYSTEM>
0

>  <SCORE.SYSTEM.CONST>
0

>  <SCORE.SYSTEM.DIHEDRAL>
0

>  <SCORE.SYSTEM.SOLV>
0

>  <SCORE.SYSTEM.norm>
0

>  <SCORE.heavy>
27

>  <SCORE.norm>
-0.748055

>  <RMSD>
16.458

$$$$
ligand
 OpenBabel11021811483D
libRbt.so/2013.1/901 2013/11/27
 27 29  0  0  0  0  0  0  0  0999 V2000
   54.3294   68.6281   12.9320 N   0  0  0  0  0  0  0  0  0  0  0  0
   53.2184   67.9623   13.6013 C   0  0  2  0  0  0  0  0  0  0  0  0
   52.0720   68.9332   13.8306 C   0  0  0  0  0  0  0  0  0  0  0  0
   51.0400   68.5573   14.3815 O   0  0  0  0  0  0  0  0  0  0  0  0
   53.6485   67.3269   14.9227 C   0  0  0  0  0  0  0  0  0  0  0  0
   54.5290   66.0910   14.7817 C   0  0  0  0  0  0  0  0  0  0  0  0
   54.8251   65.1970   16.3323 S   0  0  2  0  0  0  0  0  0  0  0  0
   55.4136   63.6025   15.7110 C   0  0  0  0  0  0  0  0  0  0  0  0
   53.1248   64.7677   16.7890 C   0  0  0  0  0  0  0  0  0  0  0  0
   53.1110   63.4358   17.5243 C   0  0  1  0  0  0  0  0  0  0  0  0
   54.0922   63.4800   18.5322 O   0  0  0  0  0  0  0  0  0  0  0  0
   51.8164   63.1307   18.2505 C   0  0  1  0  0  0  0  0  0  0  0  0
   51.0020   62.2936   17.4663 O   0  0  0  0  0  0  0  0  0  0  0  0
   52.2729   62.4137   19.5081 C   0  0  1  0  0  0  0  0  0  0  0  0
   52.0137   61.0360   19.3771 O   0  0  0  0  0  0  0  0  0  0  0  0
   53.7737   62.6510   19.6207 C   0  0  2  0  0  0  0  0  0  0  0  0
   52.1601   70.1086   13.4741 O   0  0  0  0  0  0  0  0  0  0  0  0
   54.4667   62.3331   24.8267 N   0  0  0  0  0  0  0  0  0  0  0  0
   54.2023   61.3135   23.9348 C   0  0  0  0  0  0  0  0  0  0  0  0
   54.0473   61.5844   22.5876 N   0  0  0  0  0  0  0  0  0  0  0  0
   54.1444   62.8508   22.1268 C   0  0  0  0  0  0  0  0  0  0  0  0
   54.4167   63.8901   23.0041 C   0  0  0  0  0  0  0  0  0  0  0  0
   54.5733   63.6271   24.3623 C   0  0  0  0  0  0  0  0  0  0  0  0
   54.8282   64.6122   25.2195 N   0  0  0  0  0  0  0  0  0  0  0  0
   54.4705   65.0318   22.2825 N   0  0  0  0  0  0  0  0  0  0  0  0
   54.2547   64.7359   20.9791 C   0  0  0  0  0  0  0  0  0  0  0  0
   54.0504   63.3855   20.8667 N   0  0  0  0  0  0  0  0  0  0  0  0
  2  1  1  1  0  0  0
  2  3  1  0  0  0  0
  2  5  1  0  0  0  0
  3  4  1  0  0  0  0
  3 17  1  0  0  0  0
  5  6  1  0  0  0  0
  7  6  1  6  0  0  0
  7  8  1  0  0  0  0
  7  9  1  0  0  0  0
 10  9  1  1  0  0  0
 10 11  1  0  0  0  0
 10 12  1  0  0  0  0
 11 16  1  0  0  0  0
 12 13  1  6  0  0  0
 12 14  1  0  0  0  0
 14 15  1  6  0  0  0
 14 16  1  0  0  0  0
 16 27  1  1  0  0  0
 18 19  2  0  0  0  0
 18 23  1  0  0  0  0
 19 20  1  0  0  0  0
 20 21  2  0  0  0  0
 21 22  1  0  0  0  0
 21 27  1  0  0  0  0
 22 23  2  0  0  0  0
 22 25  1  0  0  0  0
 23 24  1  0  0  0  0
 25 26  2  0  0  0  0
 26 27  1  0  0  0  0
M  END
>  <CHROM.1>
179.84118233,-71.39663652,-171.07882590,163.03584315,147.67622876,49.00194502
-165.22377837,53.57453346,64.61418770,18.54380659,-1.87617499,1.23052980
2.37339921

>  <Name>
ligand

>  <RI>
0

>  <Rbt.Current_Directory>
/home/itssahil/PROJECTS/Mol_Feturizer/New_Systems/rnas/3GX7

>  <Rbt.Executable>
rbdock ($Id: //depot/dev/client3/rdock/2013.1/src/exe/rbdock.cxx#4 $)

>  <Rbt.Library>
libRbt.so (2013.1, Build901 2013/11/27)

>  <Rbt.Parameter_File>
/export/apps/rDock/src/rDock_2013.1_src/data/scripts/dock_solv.prm

>  <Rbt.Receptor>
prm/blind_docking_100.prm

>  <SCORE>
-12.8379

>  <SCORE.INTER>
-9.61503

>  <SCORE.INTER.CONST>
1

>  <SCORE.INTER.POLAR>
0

>  <SCORE.INTER.ROT>
7

>  <SCORE.INTER.SOLV>
11.4458

>  <SCORE.INTER.VDW>
-18.4919

>  <SCORE.INTER.norm>
-0.356112

>  <SCORE.INTRA>
-3.22284

>  <SCORE.INTRA.DIHEDRAL>
-5.16812

>  <SCORE.INTRA.DIHEDRAL.0>
11.2699

>  <SCORE.INTRA.POLAR>
0

>  <SCORE.INTRA.POLAR.0>
0

>  <SCORE.INTRA.REPUL>
0

>  <SCORE.INTRA.REPUL.0>
0

>  <SCORE.INTRA.SOLV>
-0.445369

>  <SCORE.INTRA.SOLV.lig_0>
-48.6447

>  <SCORE.INTRA.VDW>
-0.416089

>  <SCORE.INTRA.VDW.0>
-0.0211724

>  <SCORE.INTRA.norm>
-0.119364

>  <SCORE.RESTR>
0

>  <SCORE.RESTR.CAVITY>
0

>  <SCORE.RESTR.norm>
0

>  <SCORE.SYSTEM>
0

>  <SCORE.SYSTEM.CONST>
0

>  <SCORE.SYSTEM.DIHEDRAL>
0

>  <SCORE.SYSTEM.SOLV>
0

>  <SCORE.SYSTEM.norm>
0

>  <SCORE.heavy>
27

>  <SCORE.norm>
-0.475477

>  <RMSD>
16.592

$$$$
ligand
 OpenBabel11021811483D
libRbt.so/2013.1/901 2013/11/27
 27 29  0  0  0  0  0  0  0  0999 V2000
   54.1516   65.8806   21.7718 N   0  0  0  0  0  0  0  0  0  0  0  0
   53.9828   65.7175   20.3329 C   0  0  2  0  0  0  0  0  0  0  0  0
   53.2664   66.9186   19.7383 C   0  0  0  0  0  0  0  0  0  0  0  0
   53.7942   67.5779   18.8457 O   0  0  0  0  0  0  0  0  0  0  0  0
   53.2348   64.4299   19.9900 C   0  0  0  0  0  0  0  0  0  0  0  0
   53.2962   64.0260   18.5217 C   0  0  0  0  0  0  0  0  0  0  0  0
   52.1992   62.6527   18.0725 S   0  0  2  0  0  0  0  0  0  0  0  0
   50.5743   63.3832   18.3903 C   0  0  0  0  0  0  0  0  0  0  0  0
   52.3814   61.5998   19.5361 C   0  0  0  0  0  0  0  0  0  0  0  0
   53.5077   60.6015   19.3138 C   0  0  1  0  0  0  0  0  0  0  0  0
   53.0658   59.6394   18.3868 O   0  0  0  0  0  0  0  0  0  0  0  0
   54.7605   61.1922   18.6990 C   0  0  1  0  0  0  0  0  0  0  0  0
   55.7049   61.4843   19.6999 O   0  0  0  0  0  0  0  0  0  0  0  0
   55.2655   60.0882   17.7877 C   0  0  1  0  0  0  0  0  0  0  0  0
   56.3790   59.4665   18.3845 O   0  0  0  0  0  0  0  0  0  0  0  0
   54.1254   59.0873   17.6479 C   0  0  2  0  0  0  0  0  0  0  0  0
   52.1480   67.2466   20.1360 O   0  0  0  0  0  0  0  0  0  0  0  0
   52.8059   61.7858   13.3280 N   0  0  0  0  0  0  0  0  0  0  0  0
   53.1477   62.2761   14.5721 C   0  0  0  0  0  0  0  0  0  0  0  0
   53.4678   61.4104   15.6020 N   0  0  0  0  0  0  0  0  0  0  0  0
   53.4426   60.0736   15.4077 C   0  0  0  0  0  0  0  0  0  0  0  0
   53.1089   59.5589   14.1636 C   0  0  0  0  0  0  0  0  0  0  0  0
   52.7844   60.4227   13.1209 C   0  0  0  0  0  0  0  0  0  0  0  0
   52.4554   59.9468   11.9227 N   0  0  0  0  0  0  0  0  0  0  0  0
   53.1744   58.2114   14.2468 N   0  0  0  0  0  0  0  0  0  0  0  0
   53.5529   57.8686   15.5006 C   0  0  0  0  0  0  0  0  0  0  0  0
   53.7230   59.0142   16.2332 N   0  0  0  0  0  0  0  0  0  0  0  0
  2  1  1  1  0  0  0
  2  3  1  0  0  0  0
  2  5  1  0  0  0  0
  3  4  1  0  0  0  0
  3 17  1  0  0  0  0
  5  6  1  0  0  0  0
  7  6  1  1  0  0  0
  7  8  1  0  0  0  0
  7  9  1  0  0  0  0
 10  9  1  6  0  0  0
 10 11  1  0  0  0  0
 10 12  1  0  0  0  0
 11 16  1  0  0  0  0
 12 13  1  1  0  0  0
 12 14  1  0  0  0  0
 14 15  1  1  0  0  0
 14 16  1  0  0  0  0
 16 27  1  6  0  0  0
 18 19  2  0  0  0  0
 18 23  1  0  0  0  0
 19 20  1  0  0  0  0
 20 21  2  0  0  0  0
 21 22  1  0  0  0  0
 21 27  1  0  0  0  0
 22 23  2  0  0  0  0
 22 25  1  0  0  0  0
 23 24  1  0  0  0  0
 25 26  2  0  0  0  0
 26 27  1  0  0  0  0
M  END
>  <CHROM.1>
122.09453500,-166.62276229,-170.82823688,63.89517615,-91.53353928,-72.29635364
64.23774737,53.41273546,62.00749346,17.50477722,-1.60811689,1.09955674,-2.41330950

>  <Name>
ligand

>  <RI>
0

>  <Rbt.Current_Directory>
/home/itssahil/PROJECTS/Mol_Feturizer/New_Systems/rnas/3GX7

>  <Rbt.Executable>
rbdock ($Id: //depot/dev/client3/rdock/2013.1/src/exe/rbdock.cxx#4 $)

>  <Rbt.Library>
libRbt.so (2013.1, Build901 2013/11/27)

>  <Rbt.Parameter_File>
/export/apps/rDock/src/rDock_2013.1_src/data/scripts/dock_solv.prm

>  <Rbt.Receptor>
prm/blind_docking_100.prm

>  <SCORE>
-17.8166

>  <SCORE.INTER>
-12.5995

>  <SCORE.INTER.CONST>
1

>  <SCORE.INTER.POLAR>
0

>  <SCORE.INTER.ROT>
7

>  <SCORE.INTER.SOLV>
9.08448

>  <SCORE.INTER.VDW>
-19.6945

>  <SCORE.INTER.norm>
-0.46665

>  <SCORE.INTRA>
-5.21702

>  <SCORE.INTRA.DIHEDRAL>
-4.76082

>  <SCORE.INTRA.DIHEDRAL.0>
11.2699

>  <SCORE.INTRA.POLAR>
0

>  <SCORE.INTRA.POLAR.0>
0

>  <SCORE.INTRA.REPUL>
0

>  <SCORE.INTRA.REPUL.0>
0

>  <SCORE.INTRA.SOLV>
-0.583139

>  <SCORE.INTRA.SOLV.lig_0>
-48.6447

>  <SCORE.INTRA.VDW>
-2.54504

>  <SCORE.INTRA.VDW.0>
-0.0211724

>  <SCORE.INTRA.norm>
-0.193223

>  <SCORE.RESTR>
0

>  <SCORE.RESTR.CAVITY>
0

>  <SCORE.RESTR.norm>
0

>  <SCORE.SYSTEM>
0

>  <SCORE.SYSTEM.CONST>
0

>  <SCORE.SYSTEM.DIHEDRAL>
0

>  <SCORE.SYSTEM.SOLV>
0

>  <SCORE.SYSTEM.norm>
0

>  <SCORE.heavy>
27

>  <SCORE.norm>
-0.659873

>  <RMSD>
17.018

$$$$
ligand
 OpenBabel11021811483D
libRbt.so/2013.1/901 2013/11/27
 27 29  0  0  0  0  0  0  0  0999 V2000
   55.5729   66.1512   17.5054 N   0  0  0  0  0  0  0  0  0  0  0  0
   55.6619   65.2804   18.6713 C   0  0  2  0  0  0  0  0  0  0  0  0
   57.1141   64.9918   19.0143 C   0  0  0  0  0  0  0  0  0  0  0  0
   57.3994   64.3621   20.0302 O   0  0  0  0  0  0  0  0  0  0  0  0
   54.8952   63.9747   18.4662 C   0  0  0  0  0  0  0  0  0  0  0  0
   53.3801   64.1261   18.4002 C   0  0  0  0  0  0  0  0  0  0  0  0
   52.4812   62.5779   18.1066 S   0  0  2  0  0  0  0  0  0  0  0  0
   50.7676   63.1234   18.3088 C   0  0  0  0  0  0  0  0  0  0  0  0
   52.7516   61.7402   19.6906 C   0  0  0  0  0  0  0  0  0  0  0  0
   53.7080   60.5729   19.4978 C   0  0  1  0  0  0  0  0  0  0  0  0
   53.1109   59.6571   18.6116 O   0  0  0  0  0  0  0  0  0  0  0  0
   55.0282   60.9406   18.8510 C   0  0  1  0  0  0  0  0  0  0  0  0
   56.0198   61.1201   19.8326 O   0  0  0  0  0  0  0  0  0  0  0  0
   55.3450   59.7395   17.9786 C   0  0  1  0  0  0  0  0  0  0  0  0
   56.3578   58.9758   18.5899 O   0  0  0  0  0  0  0  0  0  0  0  0
   54.0628   58.9217   17.8861 C   0  0  2  0  0  0  0  0  0  0  0  0
   58.0244   65.3782   18.2805 O   0  0  0  0  0  0  0  0  0  0  0  0
   53.3069   61.5987   13.4199 N   0  0  0  0  0  0  0  0  0  0  0  0
   53.7648   62.0707   14.6334 C   0  0  0  0  0  0  0  0  0  0  0  0
   53.9017   61.2148   15.7109 N   0  0  0  0  0  0  0  0  0  0  0  0
   53.5817   59.9073   15.5937 C   0  0  0  0  0  0  0  0  0  0  0  0
   53.1264   59.4098   14.3817 C   0  0  0  0  0  0  0  0  0  0  0  0
   52.9845   60.2642   13.2914 C   0  0  0  0  0  0  0  0  0  0  0  0
   52.5427   59.8060   12.1230 N   0  0  0  0  0  0  0  0  0  0  0  0
   52.8964   58.0875   14.5421 N   0  0  0  0  0  0  0  0  0  0  0  0
   53.2079   57.7405   15.8131 C   0  0  0  0  0  0  0  0  0  0  0  0
   53.6347   58.8599   16.4784 N   0  0  0  0  0  0  0  0  0  0  0  0
  2  1  1  6  0  0  0
  2  3  1  0  0  0  0
  2  5  1  0  0  0  0
  3  4  1  0  0  0  0
  3 17  1  0  0  0  0
  5  6  1  0  0  0  0
  7  6  1  1  0  0  0
  7  8  1  0  0  0  0
  7  9  1  0  0  0  0
 10  9  1  6  0  0  0
 10 11  1  0  0  0  0
 10 12  1  0  0  0  0
 11 16  1  0  0  0  0
 12 13  1  1  0  0  0
 12 14  1  0  0  0  0
 14 15  1  1  0  0  0
 14 16  1  0  0  0  0
 16 27  1  6  0  0  0
 18 19  2  0  0  0  0
 18 23  1  0  0  0  0
 19 20  1  0  0  0  0
 20 21  2  0  0  0  0
 21 22  1  0  0  0  0
 21 27  1  0  0  0  0
 22 23  2  0  0  0  0
 22 25  1  0  0  0  0
 23 24  1  0  0  0  0
 25 26  2  0  0  0  0
 26 27  1  0  0  0  0
M  END
>  <CHROM.1>
174.18871036,-68.32929950,178.24241731,173.01810454,-109.12421760,-62.09556277
68.21892722,54.20624350,61.59668161,17.30414371,0.39069566,-1.11457499,-0.44601544

>  <Name>
ligand

>  <RI>
0

>  <Rbt.Current_Directory>
/home/itssahil/PROJECTS/Mol_Feturizer/New_Systems/rnas/3GX7

>  <Rbt.Executable>
rbdock ($Id: //depot/dev/client3/rdock/2013.1/src/exe/rbdock.cxx#4 $)

>  <Rbt.Library>
libRbt.so (2013.1, Build901 2013/11/27)

>  <Rbt.Parameter_File>
/export/apps/rDock/src/rDock_2013.1_src/data/scripts/dock_solv.prm

>  <Rbt.Receptor>
prm/blind_docking_100.prm

>  <SCORE>
-19.4389

>  <SCORE.INTER>
-13.4294

>  <SCORE.INTER.CONST>
1

>  <SCORE.INTER.POLAR>
0

>  <SCORE.INTER.ROT>
7

>  <SCORE.INTER.SOLV>
7.50836

>  <SCORE.INTER.VDW>
-19.7224

>  <SCORE.INTER.norm>
-0.497384

>  <SCORE.INTRA>
-6.0095

>  <SCORE.INTRA.DIHEDRAL>
-4.44554

>  <SCORE.INTRA.DIHEDRAL.0>
11.2699

>  <SCORE.INTRA.POLAR>
0

>  <SCORE.INTRA.POLAR.0>
0

>  <SCORE.INTRA.REPUL>
0

>  <SCORE.INTRA.REPUL.0>
0

>  <SCORE.INTRA.SOLV>
0.0985596

>  <SCORE.INTRA.SOLV.lig_0>
-48.6447

>  <SCORE.INTRA.VDW>
-3.83601

>  <SCORE.INTRA.VDW.0>
-0.0211724

>  <SCORE.INTRA.norm>
-0.222574

>  <SCORE.RESTR>
0

>  <SCORE.RESTR.CAVITY>
0

>  <SCORE.RESTR.norm>
0

>  <SCORE.SYSTEM>
0

>  <SCORE.SYSTEM.CONST>
0

>  <SCORE.SYSTEM.DIHEDRAL>
0

>  <SCORE.SYSTEM.SOLV>
0

>  <SCORE.SYSTEM.norm>
0

>  <SCORE.heavy>
27

>  <SCORE.norm>
-0.719958

>  <RMSD>
17.269

$$$$
ligand
 OpenBabel11021811483D
libRbt.so/2013.1/901 2013/11/27
 27 29  0  0  0  0  0  0  0  0999 V2000
   52.1211   56.4524   16.6310 N   0  0  0  0  0  0  0  0  0  0  0  0
   52.9831   56.7499   15.4935 C   0  0  2  0  0  0  0  0  0  0  0  0
   54.1015   55.7265   15.3870 C   0  0  0  0  0  0  0  0  0  0  0  0
   54.5852   55.4461   14.2929 O   0  0  0  0  0  0  0  0  0  0  0  0
   53.5614   58.1621   15.5718 C   0  0  0  0  0  0  0  0  0  0  0  0
   54.3643   58.4556   16.8335 C   0  0  0  0  0  0  0  0  0  0  0  0
   55.3001   60.0091   16.7856 S   0  0  2  0  0  0  0  0  0  0  0  0
   56.2537   59.8915   18.3192 C   0  0  0  0  0  0  0  0  0  0  0  0
   54.0108   61.1801   17.2859 C   0  0  0  0  0  0  0  0  0  0  0  0
   54.2170   62.5073   16.5714 C   0  0  1  0  0  0  0  0  0  0  0  0
   53.3721   63.4627   17.1662 O   0  0  0  0  0  0  0  0  0  0  0  0
   55.6128   63.0827   16.7020 C   0  0  1  0  0  0  0  0  0  0  0  0
   56.3800   62.7661   15.5662 O   0  0  0  0  0  0  0  0  0  0  0  0
   55.3750   64.5793   16.7914 C   0  0  1  0  0  0  0  0  0  0  0  0
   55.7167   65.1778   15.5635 O   0  0  0  0  0  0  0  0  0  0  0  0
   53.8875   64.7655   17.0633 C   0  0  2  0  0  0  0  0  0  0  0  0
   54.5427   55.1675   16.3917 O   0  0  0  0  0  0  0  0  0  0  0  0
   55.7699   68.3758   20.3959 N   0  0  0  0  0  0  0  0  0  0  0  0
   56.2674   68.0084   19.1620 C   0  0  0  0  0  0  0  0  0  0  0  0
   55.6370   67.0291   18.4163 N   0  0  0  0  0  0  0  0  0  0  0  0
   54.5309   66.4129   18.8881 C   0  0  0  0  0  0  0  0  0  0  0  0
   54.0094   66.7713   20.1224 C   0  0  0  0  0  0  0  0  0  0  0  0
   54.6379   67.7555   20.8806 C   0  0  0  0  0  0  0  0  0  0  0  0
   54.1557   68.1075   22.0697 N   0  0  0  0  0  0  0  0  0  0  0  0
   52.9100   66.0150   20.3377 N   0  0  0  0  0  0  0  0  0  0  0  0
   52.7200   65.2054   19.2695 C   0  0  0  0  0  0  0  0  0  0  0  0
   53.7187   65.4407   18.3611 N   0  0  0  0  0  0  0  0  0  0  0  0
  2  1  1  1  0  0  0
  2  3  1  0  0  0  0
  2  5  1  0  0  0  0
  3  4  1  0  0  0  0
  3 17  1  0  0  0  0
  5  6  1  0  0  0  0
  7  6  1  1  0  0  0
  7  8  1  0  0  0  0
  7  9  1  0  0  0  0
 10  9  1  1  0  0  0
 10 11  1  0  0  0  0
 10 12  1  0  0  0  0
 11 16  1  0  0  0  0
 12 13  1  6  0  0  0
 12 14  1  0  0  0  0
 14 15  1  6  0  0  0
 14 16  1  0  0  0  0
 16 27  1  1  0  0  0
 18 19  2  0  0  0  0
 18 23  1  0  0  0  0
 19 20  1  0  0  0  0
 20 21  2  0  0  0  0
 21 22  1  0  0  0  0
 21 27  1  0  0  0  0
 22 23  2  0  0  0  0
 22 25  1  0  0  0  0
 23 24  1  0  0  0  0
 25 26  2  0  0  0  0
 26 27  1  0  0  0  0
M  END
>  <CHROM.1>
150.51316296,57.59011123,169.15933641,-173.13072666,-146.12189965,-168.77734905
149.54401388,54.52986117,62.43662690,17.53033104,1.65017424,-0.86547238,-2.72995677

>  <Name>
ligand

>  <RI>
0

>  <Rbt.Current_Directory>
/home/itssahil/PROJECTS/Mol_Feturizer/New_Systems/rnas/3GX7

>  <Rbt.Executable>
rbdock ($Id: //depot/dev/client3/rdock/2013.1/src/exe/rbdock.cxx#4 $)

>  <Rbt.Library>
libRbt.so (2013.1, Build901 2013/11/27)

>  <Rbt.Parameter_File>
/export/apps/rDock/src/rDock_2013.1_src/data/scripts/dock_solv.prm

>  <Rbt.Receptor>
prm/blind_docking_100.prm

>  <SCORE>
-9.49247

>  <SCORE.INTER>
-5.83012

>  <SCORE.INTER.CONST>
1

>  <SCORE.INTER.POLAR>
0

>  <SCORE.INTER.ROT>
7

>  <SCORE.INTER.SOLV>
11.1026

>  <SCORE.INTER.VDW>
-15.8543

>  <SCORE.INTER.norm>
-0.21593

>  <SCORE.INTRA>
-3.66235

>  <SCORE.INTRA.DIHEDRAL>
-3.06725

>  <SCORE.INTRA.DIHEDRAL.0>
11.2699

>  <SCORE.INTRA.POLAR>
0

>  <SCORE.INTRA.POLAR.0>
0

>  <SCORE.INTRA.REPUL>
0

>  <SCORE.INTRA.REPUL.0>
0

>  <SCORE.INTRA.SOLV>
-0.152401

>  <SCORE.INTRA.SOLV.lig_0>
-48.6447

>  <SCORE.INTRA.VDW>
-2.05252

>  <SCORE.INTRA.VDW.0>
-0.0211724

>  <SCORE.INTRA.norm>
-0.135643

>  <SCORE.RESTR>
0

>  <SCORE.RESTR.CAVITY>
0

>  <SCORE.RESTR.norm>
0

>  <SCORE.SYSTEM>
0

>  <SCORE.SYSTEM.CONST>
0

>  <SCORE.SYSTEM.DIHEDRAL>
0

>  <SCORE.SYSTEM.SOLV>
0

>  <SCORE.SYSTEM.norm>
0

>  <SCORE.heavy>
27

>  <SCORE.norm>
-0.351573

>  <RMSD>
17.273

$$$$
ligand
 OpenBabel11021811483D
libRbt.so/2013.1/901 2013/11/27
 27 29  0  0  0  0  0  0  0  0999 V2000
   52.1938   63.5056   18.4492 N   0  0  0  0  0  0  0  0  0  0  0  0
   52.1117   62.0936   18.0959 C   0  0  2  0  0  0  0  0  0  0  0  0
   52.5220   61.2227   19.2718 C   0  0  0  0  0  0  0  0  0  0  0  0
   52.6657   61.7141   20.3888 O   0  0  0  0  0  0  0  0  0  0  0  0
   52.9607   61.7636   16.8691 C   0  0  0  0  0  0  0  0  0  0  0  0
   52.5372   62.4729   15.5884 C   0  0  0  0  0  0  0  0  0  0  0  0
   53.4447   61.9543   14.1055 S   0  0  2  0  0  0  0  0  0  0  0  0
   52.7301   63.0507   12.8556 C   0  0  0  0  0  0  0  0  0  0  0  0
   52.5822   60.4075   13.7217 C   0  0  0  0  0  0  0  0  0  0  0  0
   53.5528   59.2400   13.8199 C   0  0  1  0  0  0  0  0  0  0  0  0
   53.6521   58.8634   15.1722 O   0  0  0  0  0  0  0  0  0  0  0  0
   53.1053   57.9864   13.0955 C   0  0  1  0  0  0  0  0  0  0  0  0
   53.7106   57.9124   11.8278 O   0  0  0  0  0  0  0  0  0  0  0  0
   53.5934   56.8628   13.9919 C   0  0  1  0  0  0  0  0  0  0  0  0
   54.7288   56.2657   13.4115 O   0  0  0  0  0  0  0  0  0  0  0  0
   53.9668   57.5027   15.3232 C   0  0  2  0  0  0  0  0  0  0  0  0
   52.7115   60.0147   19.1262 O   0  0  0  0  0  0  0  0  0  0  0  0
   51.1537   53.3577   16.9325 N   0  0  0  0  0  0  0  0  0  0  0  0
   51.8755   53.5007   15.7648 C   0  0  0  0  0  0  0  0  0  0  0  0
   52.5605   54.6734   15.5043 N   0  0  0  0  0  0  0  0  0  0  0  0
   52.5264   55.6980   16.3844 C   0  0  0  0  0  0  0  0  0  0  0  0
   51.8133   55.5736   17.5676 C   0  0  0  0  0  0  0  0  0  0  0  0
   51.1198   54.3970   17.8381 C   0  0  0  0  0  0  0  0  0  0  0  0
   50.4249   54.2624   18.9647 N   0  0  0  0  0  0  0  0  0  0  0  0
   51.9588   56.7274   18.2567 N   0  0  0  0  0  0  0  0  0  0  0  0
   52.7529   57.5633   17.5472 C   0  0  0  0  0  0  0  0  0  0  0  0
   53.1130   56.9383   16.3821 N   0  0  0  0  0  0  0  0  0  0  0  0
  2  1  1  1  0  0  0
  2  3  1  0  0  0  0
  2  5  1  0  0  0  0
  3  4  1  0  0  0  0
  3 17  1  0  0  0  0
  5  6  1  0  0  0  0
  7  6  1  1  0  0  0
  7  8  1  0  0  0  0
  7  9  1  0  0  0  0
 10  9  1  1  0  0  0
 10 11  1  0  0  0  0
 10 12  1  0  0  0  0
 11 16  1  0  0  0  0
 12 13  1  6  0  0  0
 12 14  1  0  0  0  0
 14 15  1  6  0  0  0
 14 16  1  0  0  0  0
 16 27  1  1  0  0  0
 18 19  2  0  0  0  0
 18 23  1  0  0  0  0
 19 20  1  0  0  0  0
 20 21  2  0  0  0  0
 21 22  1  0  0  0  0
 21 27  1  0  0  0  0
 22 23  2  0  0  0  0
 22 25  1  0  0  0  0
 23 24  1  0  0  0  0
 25 26  2  0  0  0  0
 26 27  1  0  0  0  0
M  END
>  <CHROM.1>
11.03028527,-62.58778569,-174.31133892,-177.34735721,-117.33795254,82.66403673
140.81957669,52.73612787,58.60485129,16.02791504,1.16641325,1.29497578,0.32464648

>  <Name>
ligand

>  <RI>
0

>  <Rbt.Current_Directory>
/home/itssahil/PROJECTS/Mol_Feturizer/New_Systems/rnas/3GX7

>  <Rbt.Executable>
rbdock ($Id: //depot/dev/client3/rdock/2013.1/src/exe/rbdock.cxx#4 $)

>  <Rbt.Library>
libRbt.so (2013.1, Build901 2013/11/27)

>  <Rbt.Parameter_File>
/export/apps/rDock/src/rDock_2013.1_src/data/scripts/dock_solv.prm

>  <Rbt.Receptor>
prm/blind_docking_100.prm

>  <SCORE>
-15.7763

>  <SCORE.INTER>
-12.3245

>  <SCORE.INTER.CONST>
1

>  <SCORE.INTER.POLAR>
0

>  <SCORE.INTER.ROT>
7

>  <SCORE.INTER.SOLV>
12.0205

>  <SCORE.INTER.VDW>
-20.4898

>  <SCORE.INTER.norm>
-0.456461

>  <SCORE.INTRA>
-3.45188

>  <SCORE.INTRA.DIHEDRAL>
-1.92824

>  <SCORE.INTRA.DIHEDRAL.0>
11.2699

>  <SCORE.INTRA.POLAR>
0

>  <SCORE.INTRA.POLAR.0>
0

>  <SCORE.INTRA.REPUL>
0

>  <SCORE.INTRA.REPUL.0>
0

>  <SCORE.INTRA.SOLV>
-0.349841

>  <SCORE.INTRA.SOLV.lig_0>
-48.6447

>  <SCORE.INTRA.VDW>
-2.31283

>  <SCORE.INTRA.VDW.0>
-0.0211724

>  <SCORE.INTRA.norm>
-0.127847

>  <SCORE.RESTR>
0

>  <SCORE.RESTR.CAVITY>
0

>  <SCORE.RESTR.norm>
0

>  <SCORE.SYSTEM>
0

>  <SCORE.SYSTEM.CONST>
0

>  <SCORE.SYSTEM.DIHEDRAL>
0

>  <SCORE.SYSTEM.SOLV>
0

>  <SCORE.SYSTEM.norm>
0

>  <SCORE.heavy>
27

>  <SCORE.norm>
-0.584309

>  <RMSD>
17.314

$$$$
ligand
 OpenBabel11021811483D
libRbt.so/2013.1/901 2013/11/27
 27 29  0  0  0  0  0  0  0  0999 V2000
   48.3008   55.0547   21.3691 N   0  0  0  0  0  0  0  0  0  0  0  0
   49.0430   53.8451   21.0351 C   0  0  2  0  0  0  0  0  0  0  0  0
   50.2296   53.6701   21.9684 C   0  0  0  0  0  0  0  0  0  0  0  0
   50.6625   54.6250   22.6091 O   0  0  0  0  0  0  0  0  0  0  0  0
   49.5080   53.8465   19.5795 C   0  0  0  0  0  0  0  0  0  0  0  0
   50.3838   55.0310   19.1889 C   0  0  0  0  0  0  0  0  0  0  0  0
   50.9620   55.0048   17.4695 S   0  0  2  0  0  0  0  0  0  0  0  0
   51.9246   53.4726   17.4464 C   0  0  0  0  0  0  0  0  0  0  0  0
   52.2931   56.2314   17.5560 C   0  0  0  0  0  0  0  0  0  0  0  0
   53.2675   56.0139   16.4080 C   0  0  1  0  0  0  0  0  0  0  0  0
   52.6718   56.4971   15.2282 O   0  0  0  0  0  0  0  0  0  0  0  0
   54.5688   56.7805   16.5327 C   0  0  1  0  0  0  0  0  0  0  0  0
   55.5743   55.9528   17.0644 O   0  0  0  0  0  0  0  0  0  0  0  0
   54.8923   57.1697   15.1016 C   0  0  1  0  0  0  0  0  0  0  0  0
   55.9299   56.3486   14.6204 O   0  0  0  0  0  0  0  0  0  0  0  0
   53.6241   56.9318   14.2914 C   0  0  2  0  0  0  0  0  0  0  0  0
   50.7712   52.5721   22.1010 O   0  0  0  0  0  0  0  0  0  0  0  0
   54.0985   60.3770   10.3431 N   0  0  0  0  0  0  0  0  0  0  0  0
   54.7658   59.1820   10.5208 C   0  0  0  0  0  0  0  0  0  0  0  0
   54.5125   58.3971   11.6308 N   0  0  0  0  0  0  0  0  0  0  0  0
   53.6151   58.7921   12.5603 C   0  0  0  0  0  0  0  0  0  0  0  0
   52.9275   59.9858   12.3984 C   0  0  0  0  0  0  0  0  0  0  0  0
   53.1765   60.7833   11.2845 C   0  0  0  0  0  0  0  0  0  0  0  0
   52.5315   61.9347   11.1161 N   0  0  0  0  0  0  0  0  0  0  0  0
   52.0959   60.1260   13.4548 N   0  0  0  0  0  0  0  0  0  0  0  0
   52.2320   59.0495   14.2643 C   0  0  0  0  0  0  0  0  0  0  0  0
   53.1719   58.2126   13.7223 N   0  0  0  0  0  0  0  0  0  0  0  0
  2  1  1  1  0  0  0
  2  3  1  0  0  0  0
  2  5  1  0  0  0  0
  3  4  1  0  0  0  0
  3 17  1  0  0  0  0
  5  6  1  0  0  0  0
  7  6  1  1  0  0  0
  7  8  1  0  0  0  0
  7  9  1  0  0  0  0
 10  9  1  1  0  0  0
 10 11  1  0  0  0  0
 10 12  1  0  0  0  0
 11 16  1  0  0  0  0
 12 13  1  6  0  0  0
 12 14  1  0  0  0  0
 14 15  1  6  0  0  0
 14 16  1  0  0  0  0
 16 27  1  1  0  0  0
 18 19  2  0  0  0  0
 18 23  1  0  0  0  0
 19 20  1  0  0  0  0
 20 21  2  0  0  0  0
 21 22  1  0  0  0  0
 21 27  1  0  0  0  0
 22 23  2  0  0  0  0
 22 25  1  0  0  0  0
 23 24  1  0  0  0  0
 25 26  2  0  0  0  0
 26 27  1  0  0  0  0
M  END
>  <CHROM.1>
-19.05574537,57.71711882,178.68509903,-61.24057369,158.36846233,75.48874769
-162.10852027,52.43409602,56.70290651,16.14876365,1.92327483,-0.37362517
2.26707868

>  <Name>
ligand

>  <RI>
0

>  <Rbt.Current_Directory>
/home/itssahil/PROJECTS/Mol_Feturizer/New_Systems/rnas/3GX7

>  <Rbt.Executable>
rbdock ($Id: //depot/dev/client3/rdock/2013.1/src/exe/rbdock.cxx#4 $)

>  <Rbt.Library>
libRbt.so (2013.1, Build901 2013/11/27)

>  <Rbt.Parameter_File>
/export/apps/rDock/src/rDock_2013.1_src/data/scripts/dock_solv.prm

>  <Rbt.Receptor>
prm/blind_docking_100.prm

>  <SCORE>
-19.2127

>  <SCORE.INTER>
-14.3675

>  <SCORE.INTER.CONST>
1

>  <SCORE.INTER.POLAR>
0

>  <SCORE.INTER.ROT>
7

>  <SCORE.INTER.SOLV>
8.48149

>  <SCORE.INTER.VDW>
-20.6722

>  <SCORE.INTER.norm>
-0.53213

>  <SCORE.INTRA>
-4.84517

>  <SCORE.INTRA.DIHEDRAL>
-6.58555

>  <SCORE.INTRA.DIHEDRAL.0>
11.2699

>  <SCORE.INTRA.POLAR>
0

>  <SCORE.INTRA.POLAR.0>
0

>  <SCORE.INTRA.REPUL>
0

>  <SCORE.INTRA.REPUL.0>
0

>  <SCORE.INTRA.SOLV>
-0.426612

>  <SCORE.INTRA.SOLV.lig_0>
-48.6447

>  <SCORE.INTRA.VDW>
-1.33909

>  <SCORE.INTRA.VDW.0>
-0.0211724

>  <SCORE.INTRA.norm>
-0.179451

>  <SCORE.RESTR>
0

>  <SCORE.RESTR.CAVITY>
0

>  <SCORE.RESTR.norm>
0

>  <SCORE.SYSTEM>
0

>  <SCORE.SYSTEM.CONST>
0

>  <SCORE.SYSTEM.DIHEDRAL>
0

>  <SCORE.SYSTEM.SOLV>
0

>  <SCORE.SYSTEM.norm>
0

>  <SCORE.heavy>
27

>  <SCORE.norm>
-0.711581

>  <RMSD>
17.463

$$$$
ligand
 OpenBabel11021811483D
libRbt.so/2013.1/901 2013/11/27
 27 29  0  0  0  0  0  0  0  0999 V2000
   53.2456   53.1618   21.6651 N   0  0  0  0  0  0  0  0  0  0  0  0
   52.2578   52.2331   22.2011 C   0  0  2  0  0  0  0  0  0  0  0  0
   51.2364   52.9698   23.0517 C   0  0  0  0  0  0  0  0  0  0  0  0
   50.0338   52.8078   22.8583 O   0  0  0  0  0  0  0  0  0  0  0  0
   52.9102   51.1112   23.0076 C   0  0  0  0  0  0  0  0  0  0  0  0
   53.8629   50.2241   22.2150 C   0  0  0  0  0  0  0  0  0  0  0  0
   54.4755   48.7779   23.1230 S   0  0  2  0  0  0  0  0  0  0  0  0
   55.6352   49.5529   24.2760 C   0  0  0  0  0  0  0  0  0  0  0  0
   55.6281   48.0935   21.9035 C   0  0  0  0  0  0  0  0  0  0  0  0
   54.8521   47.5354   20.7199 C   0  0  1  0  0  0  0  0  0  0  0  0
   55.5622   47.8427   19.5444 O   0  0  0  0  0  0  0  0  0  0  0  0
   54.7148   46.0263   20.7120 C   0  0  1  0  0  0  0  0  0  0  0  0
   53.4690   45.6463   21.2436 O   0  0  0  0  0  0  0  0  0  0  0  0
   54.8043   45.6674   19.2397 C   0  0  1  0  0  0  0  0  0  0  0  0
   53.5192   45.3490   18.7606 O   0  0  0  0  0  0  0  0  0  0  0  0
   55.3331   46.9043   18.5244 C   0  0  2  0  0  0  0  0  0  0  0  0
   51.5956   53.7341   23.9480 O   0  0  0  0  0  0  0  0  0  0  0  0
   58.8702   48.2299   14.8616 N   0  0  0  0  0  0  0  0  0  0  0  0
   57.6800   48.8578   15.1687 C   0  0  0  0  0  0  0  0  0  0  0  0
   56.8666   48.3640   16.1721 N   0  0  0  0  0  0  0  0  0  0  0  0
   57.2209   47.2564   16.8600 C   0  0  0  0  0  0  0  0  0  0  0  0
   58.4159   46.6134   16.5731 C   0  0  0  0  0  0  0  0  0  0  0  0
   59.2410   47.1027   15.5639 C   0  0  0  0  0  0  0  0  0  0  0  0
   60.3877   46.4952   15.2704 N   0  0  0  0  0  0  0  0  0  0  0  0
   58.5233   45.5565   17.4088 N   0  0  0  0  0  0  0  0  0  0  0  0
   57.4390   45.5277   18.2190 C   0  0  0  0  0  0  0  0  0  0  0  0
   56.6211   46.5768   17.8900 N   0  0  0  0  0  0  0  0  0  0  0  0
  2  1  1  1  0  0  0
  2  3  1  0  0  0  0
  2  5  1  0  0  0  0
  3  4  1  0  0  0  0
  3 17  1  0  0  0  0
  5  6  1  0  0  0  0
  7  6  1  6  0  0  0
  7  8  1  0  0  0  0
  7  9  1  0  0  0  0
 10  9  1  1  0  0  0
 10 11  1  0  0  0  0
 10 12  1  0  0  0  0
 11 16  1  0  0  0  0
 12 13  1  6  0  0  0
 12 14  1  0  0  0  0
 14 15  1  6  0  0  0
 14 16  1  0  0  0  0
 16 27  1  1  0  0  0
 18 19  2  0  0  0  0
 18 23  1  0  0  0  0
 19 20  1  0  0  0  0
 20 21  2  0  0  0  0
 21 22  1  0  0  0  0
 21 27  1  0  0  0  0
 22 23  2  0  0  0  0
 22 25  1  0  0  0  0
 23 24  1  0  0  0  0
 25 26  2  0  0  0  0
 26 27  1  0  0  0  0
M  END
>  <CHROM.1>
129.27270121,-61.62862673,-172.90227350,-73.03299895,-69.14521847,141.02244166
-86.47777871,55.20963116,48.50864302,19.93583578,-2.82657996,-0.93647820
2.87950269

>  <Name>
ligand

>  <RI>
0

>  <Rbt.Current_Directory>
/home/itssahil/PROJECTS/Mol_Feturizer/New_Systems/rnas/3GX7

>  <Rbt.Executable>
rbdock ($Id: //depot/dev/client3/rdock/2013.1/src/exe/rbdock.cxx#4 $)

>  <Rbt.Library>
libRbt.so (2013.1, Build901 2013/11/27)

>  <Rbt.Parameter_File>
/export/apps/rDock/src/rDock_2013.1_src/data/scripts/dock_solv.prm

>  <Rbt.Receptor>
prm/blind_docking_80.prm

>  <SCORE>
-20.8284

>  <SCORE.INTER>
-16.7311

>  <SCORE.INTER.CONST>
1

>  <SCORE.INTER.POLAR>
0

>  <SCORE.INTER.ROT>
7

>  <SCORE.INTER.SOLV>
12.8166

>  <SCORE.INTER.VDW>
-23.693

>  <SCORE.INTER.norm>
-0.619671

>  <SCORE.INTRA>
-4.09728

>  <SCORE.INTRA.DIHEDRAL>
-4.06241

>  <SCORE.INTRA.DIHEDRAL.0>
11.2699

>  <SCORE.INTRA.POLAR>
0

>  <SCORE.INTRA.POLAR.0>
0

>  <SCORE.INTRA.REPUL>
0

>  <SCORE.INTRA.REPUL.0>
0

>  <SCORE.INTRA.SOLV>
-0.446881

>  <SCORE.INTRA.SOLV.lig_0>
-48.6447

>  <SCORE.INTRA.VDW>
-1.84263

>  <SCORE.INTRA.VDW.0>
-0.0211724

>  <SCORE.INTRA.norm>
-0.151751

>  <SCORE.RESTR>
0

>  <SCORE.RESTR.CAVITY>
0

>  <SCORE.RESTR.norm>
0

>  <SCORE.SYSTEM>
0

>  <SCORE.SYSTEM.CONST>
0

>  <SCORE.SYSTEM.DIHEDRAL>
0

>  <SCORE.SYSTEM.SOLV>
0

>  <SCORE.SYSTEM.norm>
0

>  <SCORE.heavy>
27

>  <SCORE.norm>
-0.771422

>  <RMSD>
17.644

$$$$
ligand
 OpenBabel11021811483D
libRbt.so/2013.1/901 2013/11/27
 27 29  0  0  0  0  0  0  0  0999 V2000
   55.8206   65.6115   20.3534 N   0  0  0  0  0  0  0  0  0  0  0  0
   56.3770   64.9079   19.2041 C   0  0  2  0  0  0  0  0  0  0  0  0
   57.0771   65.8797   18.2688 C   0  0  0  0  0  0  0  0  0  0  0  0
   58.2640   65.7277   17.9895 O   0  0  0  0  0  0  0  0  0  0  0  0
   55.3087   64.1194   18.4478 C   0  0  0  0  0  0  0  0  0  0  0  0
   54.8591   62.8334   19.1310 C   0  0  0  0  0  0  0  0  0  0  0  0
   53.5852   61.9081   18.2297 S   0  0  2  0  0  0  0  0  0  0  0  0
   52.0812   62.7416   18.7935 C   0  0  0  0  0  0  0  0  0  0  0  0
   53.5185   60.3949   19.2245 C   0  0  0  0  0  0  0  0  0  0  0  0
   54.4270   59.3382   18.6141 C   0  0  1  0  0  0  0  0  0  0  0  0
   53.6813   58.6104   17.6683 O   0  0  0  0  0  0  0  0  0  0  0  0
   55.6067   59.8925   17.8410 C   0  0  1  0  0  0  0  0  0  0  0  0
   56.7597   59.8983   18.6470 O   0  0  0  0  0  0  0  0  0  0  0  0
   55.7630   58.9222   16.6842 C   0  0  1  0  0  0  0  0  0  0  0  0
   56.8721   58.0885   16.9241 O   0  0  0  0  0  0  0  0  0  0  0  0
   54.4876   58.0898   16.6424 C   0  0  2  0  0  0  0  0  0  0  0  0
   56.4680   66.8286   17.7738 O   0  0  0  0  0  0  0  0  0  0  0  0
   52.0295   61.5523   13.5354 N   0  0  0  0  0  0  0  0  0  0  0  0
   52.5686   61.7596   14.7890 C   0  0  0  0  0  0  0  0  0  0  0  0
   53.1830   60.7227   15.4670 N   0  0  0  0  0  0  0  0  0  0  0  0
   53.2572   59.4912   14.9161 C   0  0  0  0  0  0  0  0  0  0  0  0
   52.7286   59.2620   13.6544 C   0  0  0  0  0  0  0  0  0  0  0  0
   52.1073   60.2996   12.9645 C   0  0  0  0  0  0  0  0  0  0  0  0
   51.5888   60.0965   11.7562 N   0  0  0  0  0  0  0  0  0  0  0  0
   52.9496   57.9643   13.3473 N   0  0  0  0  0  0  0  0  0  0  0  0
   53.6129   57.3792   14.3723 C   0  0  0  0  0  0  0  0  0  0  0  0
   53.8109   58.3147   15.3539 N   0  0  0  0  0  0  0  0  0  0  0  0
  2  1  1  1  0  0  0
  2  3  1  0  0  0  0
  2  5  1  0  0  0  0
  3  4  1  0  0  0  0
  3 17  1  0  0  0  0
  5  6  1  0  0  0  0
  7  6  1  1  0  0  0
  7  8  1  0  0  0  0
  7  9  1  0  0  0  0
 10  9  1  6  0  0  0
 10 11  1  0  0  0  0
 10 12  1  0  0  0  0
 11 16  1  0  0  0  0
 12 13  1  1  0  0  0
 12 14  1  0  0  0  0
 14 15  1  1  0  0  0
 14 16  1  0  0  0  0
 16 27  1  6  0  0  0
 18 19  2  0  0  0  0
 18 23  1  0  0  0  0
 19 20  1  0  0  0  0
 20 21  2  0  0  0  0
 21 22  1  0  0  0  0
 21 27  1  0  0  0  0
 22 23  2  0  0  0  0
 22 25  1  0  0  0  0
 23 24  1  0  0  0  0
 25 26  2  0  0  0  0
 26 27  1  0  0  0  0
M  END
>  <CHROM.1>
122.12513929,-75.21228714,179.73209167,-84.58423096,-94.57007334,-88.52051799
48.33517675,54.42129766,61.21802687,16.83724234,0.82587019,-0.96856337,-0.00944124

>  <Name>
ligand

>  <RI>
0

>  <Rbt.Current_Directory>
/home/itssahil/PROJECTS/Mol_Feturizer/New_Systems/rnas/3GX7

>  <Rbt.Executable>
rbdock ($Id: //depot/dev/client3/rdock/2013.1/src/exe/rbdock.cxx#4 $)

>  <Rbt.Library>
libRbt.so (2013.1, Build901 2013/11/27)

>  <Rbt.Parameter_File>
/export/apps/rDock/src/rDock_2013.1_src/data/scripts/dock_solv.prm

>  <Rbt.Receptor>
prm/blind_docking_100.prm

>  <SCORE>
-16.6883

>  <SCORE.INTER>
-12.4622

>  <SCORE.INTER.CONST>
1

>  <SCORE.INTER.POLAR>
0

>  <SCORE.INTER.ROT>
7

>  <SCORE.INTER.SOLV>
5.94338

>  <SCORE.INTER.VDW>
-18.5559

>  <SCORE.INTER.norm>
-0.461563

>  <SCORE.INTRA>
-4.2261

>  <SCORE.INTRA.DIHEDRAL>
-2.32832

>  <SCORE.INTRA.DIHEDRAL.0>
11.2699

>  <SCORE.INTRA.POLAR>
0

>  <SCORE.INTRA.POLAR.0>
0

>  <SCORE.INTRA.REPUL>
0

>  <SCORE.INTRA.REPUL.0>
0

>  <SCORE.INTRA.SOLV>
-0.130829

>  <SCORE.INTRA.SOLV.lig_0>
-48.6447

>  <SCORE.INTRA.VDW>
-2.99652

>  <SCORE.INTRA.VDW.0>
-0.0211724

>  <SCORE.INTRA.norm>
-0.156522

>  <SCORE.RESTR>
0

>  <SCORE.RESTR.CAVITY>
0

>  <SCORE.RESTR.norm>
0

>  <SCORE.SYSTEM>
0

>  <SCORE.SYSTEM.CONST>
0

>  <SCORE.SYSTEM.DIHEDRAL>
0

>  <SCORE.SYSTEM.SOLV>
0

>  <SCORE.SYSTEM.norm>
0

>  <SCORE.heavy>
27

>  <SCORE.norm>
-0.618085

>  <RMSD>
17.685

$$$$
ligand
 OpenBabel11021811483D
libRbt.so/2013.1/901 2013/11/27
 27 29  0  0  0  0  0  0  0  0999 V2000
   59.8546   49.6220   14.6566 N   0  0  0  0  0  0  0  0  0  0  0  0
   59.9334   48.1712   14.5372 C   0  0  2  0  0  0  0  0  0  0  0  0
   59.0457   47.6780   13.4065 C   0  0  0  0  0  0  0  0  0  0  0  0
   57.8410   47.9196   13.4115 O   0  0  0  0  0  0  0  0  0  0  0  0
   59.5652   47.4717   15.8449 C   0  0  0  0  0  0  0  0  0  0  0  0
   58.1566   47.7601   16.3501 C   0  0  0  0  0  0  0  0  0  0  0  0
   57.7940   47.0850   17.9945 S   0  0  2  0  0  0  0  0  0  0  0  0
   58.0135   45.3126   17.7022 C   0  0  0  0  0  0  0  0  0  0  0  0
   55.9854   47.1985   18.0003 C   0  0  0  0  0  0  0  0  0  0  0  0
   55.4100   46.1836   18.9767 C   0  0  1  0  0  0  0  0  0  0  0  0
   56.0594   46.3472   20.2144 O   0  0  0  0  0  0  0  0  0  0  0  0
   53.9365   46.3665   19.2797 C   0  0  1  0  0  0  0  0  0  0  0  0
   53.1633   45.4997   18.4860 O   0  0  0  0  0  0  0  0  0  0  0  0
   53.8253   45.9958   20.7475 C   0  0  1  0  0  0  0  0  0  0  0  0
   53.2417   44.7195   20.8611 O   0  0  0  0  0  0  0  0  0  0  0  0
   55.2466   45.9672   21.2954 C   0  0  2  0  0  0  0  0  0  0  0  0
   59.5180   47.0353   12.4683 O   0  0  0  0  0  0  0  0  0  0  0  0
   53.9777   50.8212   22.8806 N   0  0  0  0  0  0  0  0  0  0  0  0
   53.6261   50.1849   21.7073 C   0  0  0  0  0  0  0  0  0  0  0  0
   54.0554   48.8948   21.4548 N   0  0  0  0  0  0  0  0  0  0  0  0
   54.8310   48.2424   22.3483 C   0  0  0  0  0  0  0  0  0  0  0  0
   55.1905   48.8599   23.5371 C   0  0  0  0  0  0  0  0  0  0  0  0
   54.7638   50.1589   23.7998 C   0  0  0  0  0  0  0  0  0  0  0  0
   55.1044   50.7695   24.9318 N   0  0  0  0  0  0  0  0  0  0  0  0
   55.9470   47.9872   24.2395 N   0  0  0  0  0  0  0  0  0  0  0  0
   56.0592   46.8382   23.5325 C   0  0  0  0  0  0  0  0  0  0  0  0
   55.3717   46.9814   22.3558 N   0  0  0  0  0  0  0  0  0  0  0  0
  2  1  1  1  0  0  0
  2  3  1  0  0  0  0
  2  5  1  0  0  0  0
  3  4  1  0  0  0  0
  3 17  1  0  0  0  0
  5  6  1  0  0  0  0
  7  6  1  6  0  0  0
  7  8  1  0  0  0  0
  7  9  1  0  0  0  0
 10  9  1  6  0  0  0
 10 11  1  0  0  0  0
 10 12  1  0  0  0  0
 11 16  1  0  0  0  0
 12 13  1  6  0  0  0
 12 14  1  0  0  0  0
 14 15  1  6  0  0  0
 14 16  1  0  0  0  0
 16 27  1  1  0  0  0
 18 19  2  0  0  0  0
 18 23  1  0  0  0  0
 19 20  1  0  0  0  0
 20 21  2  0  0  0  0
 21 22  1  0  0  0  0
 21 27  1  0  0  0  0
 22 23  2  0  0  0  0
 22 25  1  0  0  0  0
 23 24  1  0  0  0  0
 25 26  2  0  0  0  0
 26 27  1  0  0  0  0
M  END
>  <CHROM.1>
-58.05117458,59.94789193,-173.22213585,-61.09584638,155.87203887,51.55580878
73.63165293,56.23072503,47.54927233,19.25936816,-0.80570889,0.85252814,0.84703965

>  <Name>
ligand

>  <RI>
0

>  <Rbt.Current_Directory>
/home/itssahil/PROJECTS/Mol_Feturizer/New_Systems/rnas/3GX7

>  <Rbt.Executable>
rbdock ($Id: //depot/dev/client3/rdock/2013.1/src/exe/rbdock.cxx#4 $)

>  <Rbt.Library>
libRbt.so (2013.1, Build901 2013/11/27)

>  <Rbt.Parameter_File>
/export/apps/rDock/src/rDock_2013.1_src/data/scripts/dock_solv.prm

>  <Rbt.Receptor>
prm/blind_docking_100.prm

>  <SCORE>
-12.9109

>  <SCORE.INTER>
-8.26192

>  <SCORE.INTER.CONST>
1

>  <SCORE.INTER.POLAR>
0

>  <SCORE.INTER.ROT>
7

>  <SCORE.INTER.SOLV>
25.3481

>  <SCORE.INTER.VDW>
-22.224

>  <SCORE.INTER.norm>
-0.305997

>  <SCORE.INTRA>
-4.74781

>  <SCORE.INTRA.DIHEDRAL>
-6.83285

>  <SCORE.INTRA.DIHEDRAL.0>
11.2699

>  <SCORE.INTRA.POLAR>
0

>  <SCORE.INTRA.POLAR.0>
0

>  <SCORE.INTRA.REPUL>
0

>  <SCORE.INTRA.REPUL.0>
0

>  <SCORE.INTRA.SOLV>
-0.37466

>  <SCORE.INTRA.SOLV.lig_0>
-48.6447

>  <SCORE.INTRA.VDW>
-1.14406

>  <SCORE.INTRA.VDW.0>
-0.0211724

>  <SCORE.INTRA.norm>
-0.175845

>  <SCORE.RESTR>
0.0988133

>  <SCORE.RESTR.CAVITY>
0.0988133

>  <SCORE.RESTR.norm>
0.00365975

>  <SCORE.SYSTEM>
0

>  <SCORE.SYSTEM.CONST>
0

>  <SCORE.SYSTEM.DIHEDRAL>
0

>  <SCORE.SYSTEM.SOLV>
0

>  <SCORE.SYSTEM.norm>
0

>  <SCORE.heavy>
27

>  <SCORE.norm>
-0.478182

>  <RMSD>
17.698

$$$$
ligand
 OpenBabel11021811483D
libRbt.so/2013.1/901 2013/11/27
 27 29  0  0  0  0  0  0  0  0999 V2000
   53.1374   63.0074   16.6516 N   0  0  0  0  0  0  0  0  0  0  0  0
   54.2097   62.5843   15.7590 C   0  0  2  0  0  0  0  0  0  0  0  0
   55.3233   63.6182   15.7322 C   0  0  0  0  0  0  0  0  0  0  0  0
   55.0574   64.8178   15.7221 O   0  0  0  0  0  0  0  0  0  0  0  0
   53.6997   62.3164   14.3438 C   0  0  0  0  0  0  0  0  0  0  0  0
   52.9721   60.9891   14.1665 C   0  0  0  0  0  0  0  0  0  0  0  0
   52.7554   60.4743   12.4404 S   0  0  2  0  0  0  0  0  0  0  0  0
   51.0240   60.9177   12.1568 C   0  0  0  0  0  0  0  0  0  0  0  0
   52.6078   58.6807   12.6529 C   0  0  0  0  0  0  0  0  0  0  0  0
   53.7926   58.1587   13.4519 C   0  0  1  0  0  0  0  0  0  0  0  0
   53.4800   58.2619   14.8201 O   0  0  0  0  0  0  0  0  0  0  0  0
   54.1046   56.6924   13.2304 C   0  0  1  0  0  0  0  0  0  0  0  0
   55.1404   56.5501   12.2892 O   0  0  0  0  0  0  0  0  0  0  0  0
   54.5509   56.2118   14.5993 C   0  0  1  0  0  0  0  0  0  0  0  0
   55.9505   56.0582   14.6039 O   0  0  0  0  0  0  0  0  0  0  0  0
   54.1444   57.2941   15.5916 C   0  0  2  0  0  0  0  0  0  0  0  0
   56.5051   63.2723   15.7250 O   0  0  0  0  0  0  0  0  0  0  0  0
   51.1959   53.1364   16.8967 N   0  0  0  0  0  0  0  0  0  0  0  0
   52.0340   53.2837   15.8101 C   0  0  0  0  0  0  0  0  0  0  0  0
   52.7378   54.4594   15.6232 N   0  0  0  0  0  0  0  0  0  0  0  0
   52.6089   55.4825   16.4961 C   0  0  0  0  0  0  0  0  0  0  0  0
   51.7777   55.3538   17.5990 C   0  0  0  0  0  0  0  0  0  0  0  0
   51.0644   54.1742   17.7951 C   0  0  0  0  0  0  0  0  0  0  0  0
   50.2573   54.0353   18.8437 N   0  0  0  0  0  0  0  0  0  0  0  0
   51.8467   56.5070   18.3008 N   0  0  0  0  0  0  0  0  0  0  0  0
   52.7066   57.3469   17.6781 C   0  0  0  0  0  0  0  0  0  0  0  0
   53.1878   56.7250   16.5559 N   0  0  0  0  0  0  0  0  0  0  0  0
  2  1  1  1  0  0  0
  2  3  1  0  0  0  0
  2  5  1  0  0  0  0
  3  4  1  0  0  0  0
  3 17  1  0  0  0  0
  5  6  1  0  0  0  0
  7  6  1  1  0  0  0
  7  8  1  0  0  0  0
  7  9  1  0  0  0  0
 10  9  1  6  0  0  0
 10 11  1  0  0  0  0
 10 12  1  0  0  0  0
 11 16  1  0  0  0  0
 12 13  1  6  0  0  0
 12 14  1  0  0  0  0
 14 15  1  6  0  0  0
 14 16  1  0  0  0  0
 16 27  1  1  0  0  0
 18 19  2  0  0  0  0
 18 23  1  0  0  0  0
 19 20  1  0  0  0  0
 20 21  2  0  0  0  0
 21 22  1  0  0  0  0
 21 27  1  0  0  0  0
 22 23  2  0  0  0  0
 22 25  1  0  0  0  0
 23 24  1  0  0  0  0
 25 26  2  0  0  0  0
 26 27  1  0  0  0  0
M  END
>  <CHROM.1>
-40.31113446,-77.41449325,-164.72930369,-101.71171531,-53.12145578,87.05303769
106.05792246,53.28493653,58.36878876,15.19175241,0.57309431,1.27202036,0.72655885

>  <Name>
ligand

>  <RI>
0

>  <Rbt.Current_Directory>
/home/itssahil/PROJECTS/Mol_Feturizer/New_Systems/rnas/3GX7

>  <Rbt.Executable>
rbdock ($Id: //depot/dev/client3/rdock/2013.1/src/exe/rbdock.cxx#4 $)

>  <Rbt.Library>
libRbt.so (2013.1, Build901 2013/11/27)

>  <Rbt.Parameter_File>
/export/apps/rDock/src/rDock_2013.1_src/data/scripts/dock_solv.prm

>  <Rbt.Receptor>
prm/blind_docking_100.prm

>  <SCORE>
-12.2275

>  <SCORE.INTER>
-10.3952

>  <SCORE.INTER.CONST>
1

>  <SCORE.INTER.POLAR>
0

>  <SCORE.INTER.ROT>
7

>  <SCORE.INTER.SOLV>
9.72791

>  <SCORE.INTER.VDW>
-18.4394

>  <SCORE.INTER.norm>
-0.385008

>  <SCORE.INTRA>
-1.83227

>  <SCORE.INTRA.DIHEDRAL>
-0.714007

>  <SCORE.INTRA.DIHEDRAL.0>
11.2699

>  <SCORE.INTRA.POLAR>
0

>  <SCORE.INTRA.POLAR.0>
0

>  <SCORE.INTRA.REPUL>
0

>  <SCORE.INTRA.REPUL.0>
0

>  <SCORE.INTRA.SOLV>
-0.467413

>  <SCORE.INTRA.SOLV.lig_0>
-48.6447

>  <SCORE.INTRA.VDW>
-1.24156

>  <SCORE.INTRA.VDW.0>
-0.0211724

>  <SCORE.INTRA.norm>
-0.0678618

>  <SCORE.RESTR>
0

>  <SCORE.RESTR.CAVITY>
0

>  <SCORE.RESTR.norm>
0

>  <SCORE.SYSTEM>
0

>  <SCORE.SYSTEM.CONST>
0

>  <SCORE.SYSTEM.DIHEDRAL>
0

>  <SCORE.SYSTEM.SOLV>
0

>  <SCORE.SYSTEM.norm>
0

>  <SCORE.heavy>
27

>  <SCORE.norm>
-0.452869

>  <RMSD>
17.981

$$$$
ligand
 OpenBabel11021811483D
libRbt.so/2013.1/901 2013/11/27
 27 29  0  0  0  0  0  0  0  0999 V2000
   54.7685   55.2960   12.8709 N   0  0  0  0  0  0  0  0  0  0  0  0
   55.3242   56.5995   13.2139 C   0  0  2  0  0  0  0  0  0  0  0  0
   55.7082   56.6479   14.6836 C   0  0  0  0  0  0  0  0  0  0  0  0
   55.2002   55.8669   15.4847 O   0  0  0  0  0  0  0  0  0  0  0  0
   54.3586   57.7356   12.8798 C   0  0  0  0  0  0  0  0  0  0  0  0
   53.0835   57.7578   13.7143 C   0  0  0  0  0  0  0  0  0  0  0  0
   51.9741   59.1480   13.3567 S   0  0  2  0  0  0  0  0  0  0  0  0
   51.6142   58.8681   11.6054 C   0  0  0  0  0  0  0  0  0  0  0  0
   53.1756   60.4992   13.2364 C   0  0  0  0  0  0  0  0  0  0  0  0
   52.4609   61.8356   13.3707 C   0  0  1  0  0  0  0  0  0  0  0  0
   51.6545   61.7891   14.5230 O   0  0  0  0  0  0  0  0  0  0  0  0
   53.3793   63.0223   13.5823 C   0  0  1  0  0  0  0  0  0  0  0  0
   53.6144   63.6818   12.3622 O   0  0  0  0  0  0  0  0  0  0  0  0
   52.5996   63.9117   14.5339 C   0  0  1  0  0  0  0  0  0  0  0  0
   52.0714   65.0045   13.8203 O   0  0  0  0  0  0  0  0  0  0  0  0
   51.4665   63.0597   15.0918 C   0  0  2  0  0  0  0  0  0  0  0  0
   56.5348   57.4637   15.0929 O   0  0  0  0  0  0  0  0  0  0  0  0
   53.7541   60.4725   19.0613 N   0  0  0  0  0  0  0  0  0  0  0  0
   53.8786   60.2432   17.7059 C   0  0  0  0  0  0  0  0  0  0  0  0
   53.1950   61.0301   16.7972 N   0  0  0  0  0  0  0  0  0  0  0  0
   52.3899   62.0282   17.2228 C   0  0  0  0  0  0  0  0  0  0  0  0
   52.2555   62.2811   18.5799 C   0  0  0  0  0  0  0  0  0  0  0  0
   52.9392   61.4935   19.5025 C   0  0  0  0  0  0  0  0  0  0  0  0
   52.8171   61.7171   20.8083 N   0  0  0  0  0  0  0  0  0  0  0  0
   51.4114   63.3275   18.7200 N   0  0  0  0  0  0  0  0  0  0  0  0
   51.0258   63.7457   17.4915 C   0  0  0  0  0  0  0  0  0  0  0  0
   51.6249   62.9485   16.5517 N   0  0  0  0  0  0  0  0  0  0  0  0
  2  1  1  1  0  0  0
  2  3  1  0  0  0  0
  2  5  1  0  0  0  0
  3  4  1  0  0  0  0
  3 17  1  0  0  0  0
  5  6  1  0  0  0  0
  7  6  1  6  0  0  0
  7  8  1  0  0  0  0
  7  9  1  0  0  0  0
 10  9  1  1  0  0  0
 10 11  1  0  0  0  0
 10 12  1  0  0  0  0
 11 16  1  0  0  0  0
 12 13  1  6  0  0  0
 12 14  1  0  0  0  0
 14 15  1  6  0  0  0
 14 16  1  0  0  0  0
 16 27  1  1  0  0  0
 18 19  2  0  0  0  0
 18 23  1  0  0  0  0
 19 20  1  0  0  0  0
 20 21  2  0  0  0  0
 21 22  1  0  0  0  0
 21 27  1  0  0  0  0
 22 23  2  0  0  0  0
 22 25  1  0  0  0  0
 23 24  1  0  0  0  0
 25 26  2  0  0  0  0
 26 27  1  0  0  0  0
M  END
>  <CHROM.1>
-21.60205714,66.68535759,177.66495462,60.00651330,-162.35653843,50.85752915
27.88461709,53.08589675,60.54958962,15.22116681,-0.66117583,-1.15078631,1.39352243

>  <Name>
ligand

>  <RI>
0

>  <Rbt.Current_Directory>
/home/itssahil/PROJECTS/Mol_Feturizer/New_Systems/rnas/3GX7

>  <Rbt.Executable>
rbdock ($Id: //depot/dev/client3/rdock/2013.1/src/exe/rbdock.cxx#4 $)

>  <Rbt.Library>
libRbt.so (2013.1, Build901 2013/11/27)

>  <Rbt.Parameter_File>
/export/apps/rDock/src/rDock_2013.1_src/data/scripts/dock_solv.prm

>  <Rbt.Receptor>
prm/blind_docking_100.prm

>  <SCORE>
-14.4952

>  <SCORE.INTER>
-9.73846

>  <SCORE.INTER.CONST>
1

>  <SCORE.INTER.POLAR>
0

>  <SCORE.INTER.ROT>
7

>  <SCORE.INTER.SOLV>
17.6609

>  <SCORE.INTER.VDW>
-20.6459

>  <SCORE.INTER.norm>
-0.360684

>  <SCORE.INTRA>
-4.75671

>  <SCORE.INTRA.DIHEDRAL>
-5.70087

>  <SCORE.INTRA.DIHEDRAL.0>
11.2699

>  <SCORE.INTRA.POLAR>
0

>  <SCORE.INTRA.POLAR.0>
0

>  <SCORE.INTRA.REPUL>
0

>  <SCORE.INTRA.REPUL.0>
0

>  <SCORE.INTRA.SOLV>
-0.433618

>  <SCORE.INTRA.SOLV.lig_0>
-48.6447

>  <SCORE.INTRA.VDW>
-1.68947

>  <SCORE.INTRA.VDW.0>
-0.0211724

>  <SCORE.INTRA.norm>
-0.176175

>  <SCORE.RESTR>
0

>  <SCORE.RESTR.CAVITY>
0

>  <SCORE.RESTR.norm>
0

>  <SCORE.SYSTEM>
0

>  <SCORE.SYSTEM.CONST>
0

>  <SCORE.SYSTEM.DIHEDRAL>
0

>  <SCORE.SYSTEM.SOLV>
0

>  <SCORE.SYSTEM.norm>
0

>  <SCORE.heavy>
27

>  <SCORE.norm>
-0.536858

>  <RMSD>
18.101

$$$$
ligand
 OpenBabel11021811483D
libRbt.so/2013.1/901 2013/11/27
 27 29  0  0  0  0  0  0  0  0999 V2000
   55.7281   55.6476   12.5383 N   0  0  0  0  0  0  0  0  0  0  0  0
   54.8420   56.5748   11.8451 C   0  0  2  0  0  0  0  0  0  0  0  0
   55.6378   57.4999   10.9392 C   0  0  0  0  0  0  0  0  0  0  0  0
   55.1120   58.0043    9.9498 O   0  0  0  0  0  0  0  0  0  0  0  0
   53.9934   57.3884   12.8212 C   0  0  0  0  0  0  0  0  0  0  0  0
   52.7871   58.0801   12.1973 C   0  0  0  0  0  0  0  0  0  0  0  0
   51.9261   59.2330   13.3022 S   0  0  2  0  0  0  0  0  0  0  0  0
   50.6226   59.8559   12.2124 C   0  0  0  0  0  0  0  0  0  0  0  0
   53.0783   60.6314   13.2737 C   0  0  0  0  0  0  0  0  0  0  0  0
   52.4985   61.7912   14.0695 C   0  0  1  0  0  0  0  0  0  0  0  0
   52.1855   61.3257   15.3602 O   0  0  0  0  0  0  0  0  0  0  0  0
   53.4562   62.9447   14.2901 C   0  0  1  0  0  0  0  0  0  0  0  0
   53.2290   63.9569   13.3400 O   0  0  0  0  0  0  0  0  0  0  0  0
   53.1141   63.4305   15.6870 C   0  0  1  0  0  0  0  0  0  0  0  0
   52.3813   64.6293   15.5951 O   0  0  0  0  0  0  0  0  0  0  0  0
   52.2555   62.3451   16.3243 C   0  0  2  0  0  0  0  0  0  0  0  0
   56.8160   57.7618   11.1835 O   0  0  0  0  0  0  0  0  0  0  0  0
   56.5636   59.9593   18.1770 N   0  0  0  0  0  0  0  0  0  0  0  0
   56.2718   60.3072   16.8736 C   0  0  0  0  0  0  0  0  0  0  0  0
   55.0780   60.9343   16.5670 N   0  0  0  0  0  0  0  0  0  0  0  0
   54.1776   61.2077   17.5366 C   0  0  0  0  0  0  0  0  0  0  0  0
   54.4531   60.8735   18.8543 C   0  0  0  0  0  0  0  0  0  0  0  0
   55.6521   60.2411   19.1725 C   0  0  0  0  0  0  0  0  0  0  0  0
   55.9304   59.9070   20.4300 N   0  0  0  0  0  0  0  0  0  0  0  0
   53.4005   61.2671   19.6054 N   0  0  0  0  0  0  0  0  0  0  0  0
   52.4821   61.8502   18.7996 C   0  0  0  0  0  0  0  0  0  0  0  0
   52.9503   61.8206   17.5121 N   0  0  0  0  0  0  0  0  0  0  0  0
  2  1  1  1  0  0  0
  2  3  1  0  0  0  0
  2  5  1  0  0  0  0
  3  4  1  0  0  0  0
  3 17  1  0  0  0  0
  5  6  1  0  0  0  0
  7  6  1  6  0  0  0
  7  8  1  0  0  0  0
  7  9  1  0  0  0  0
 10  9  1  6  0  0  0
 10 11  1  0  0  0  0
 10 12  1  0  0  0  0
 11 16  1  0  0  0  0
 12 13  1  6  0  0  0
 12 14  1  0  0  0  0
 14 15  1  6  0  0  0
 14 16  1  0  0  0  0
 16 27  1  1  0  0  0
 18 19  2  0  0  0  0
 18 23  1  0  0  0  0
 19 20  1  0  0  0  0
 20 21  2  0  0  0  0
 21 22  1  0  0  0  0
 21 27  1  0  0  0  0
 22 23  2  0  0  0  0
 22 25  1  0  0  0  0
 23 24  1  0  0  0  0
 25 26  2  0  0  0  0
 26 27  1  0  0  0  0
M  END
>  <CHROM.1>
154.03748741,-163.58715406,-171.53313418,178.74815564,175.69648956,54.71217626
53.11596761,53.83007046,60.30462222,14.93377348,-1.47424848,-0.84722755,1.09081108

>  <Name>
ligand

>  <RI>
0

>  <Rbt.Current_Directory>
/home/itssahil/PROJECTS/Mol_Feturizer/New_Systems/rnas/3GX7

>  <Rbt.Executable>
rbdock ($Id: //depot/dev/client3/rdock/2013.1/src/exe/rbdock.cxx#4 $)

>  <Rbt.Library>
libRbt.so (2013.1, Build901 2013/11/27)

>  <Rbt.Parameter_File>
/export/apps/rDock/src/rDock_2013.1_src/data/scripts/dock_solv.prm

>  <Rbt.Receptor>
prm/blind_docking_100.prm

>  <SCORE>
-19.1043

>  <SCORE.INTER>
-12.3658

>  <SCORE.INTER.CONST>
1

>  <SCORE.INTER.POLAR>
0

>  <SCORE.INTER.ROT>
7

>  <SCORE.INTER.SOLV>
12.4965

>  <SCORE.INTER.VDW>
-20.676

>  <SCORE.INTER.norm>
-0.457994

>  <SCORE.INTRA>
-6.7385

>  <SCORE.INTRA.DIHEDRAL>
-6.57805

>  <SCORE.INTRA.DIHEDRAL.0>
11.2699

>  <SCORE.INTRA.POLAR>
0

>  <SCORE.INTRA.POLAR.0>
0

>  <SCORE.INTRA.REPUL>
0

>  <SCORE.INTRA.REPUL.0>
0

>  <SCORE.INTRA.SOLV>
-1.02252

>  <SCORE.INTRA.SOLV.lig_0>
-48.6447

>  <SCORE.INTRA.VDW>
-2.93821

>  <SCORE.INTRA.VDW.0>
-0.0211724

>  <SCORE.INTRA.norm>
-0.249574

>  <SCORE.RESTR>
0

>  <SCORE.RESTR.CAVITY>
0

>  <SCORE.RESTR.norm>
0

>  <SCORE.SYSTEM>
0

>  <SCORE.SYSTEM.CONST>
0

>  <SCORE.SYSTEM.DIHEDRAL>
0

>  <SCORE.SYSTEM.SOLV>
0

>  <SCORE.SYSTEM.norm>
0

>  <SCORE.heavy>
27

>  <SCORE.norm>
-0.707568

>  <RMSD>
18.488

$$$$
ligand
 OpenBabel11021811483D
libRbt.so/2013.1/901 2013/11/27
 27 29  0  0  0  0  0  0  0  0999 V2000
   55.7577   62.5285   22.4411 N   0  0  0  0  0  0  0  0  0  0  0  0
   56.2975   62.6814   21.0955 C   0  0  2  0  0  0  0  0  0  0  0  0
   55.7856   63.9613   20.4555 C   0  0  0  0  0  0  0  0  0  0  0  0
   54.8539   64.5807   20.9636 O   0  0  0  0  0  0  0  0  0  0  0  0
   55.9713   61.4785   20.2114 C   0  0  0  0  0  0  0  0  0  0  0  0
   54.4886   61.1405   20.1126 C   0  0  0  0  0  0  0  0  0  0  0  0
   53.5016   62.3479   19.1856 S   0  0  2  0  0  0  0  0  0  0  0  0
   51.9051   61.5006   19.0952 C   0  0  0  0  0  0  0  0  0  0  0  0
   54.1258   62.0586   17.5092 C   0  0  0  0  0  0  0  0  0  0  0  0
   53.5572   63.1042   16.5616 C   0  0  1  0  0  0  0  0  0  0  0  0
   54.1897   62.9566   15.3133 O   0  0  0  0  0  0  0  0  0  0  0  0
   52.0774   62.9531   16.2718 C   0  0  1  0  0  0  0  0  0  0  0  0
   51.3282   63.8153   17.0930 O   0  0  0  0  0  0  0  0  0  0  0  0
   51.9562   63.3575   14.8137 C   0  0  1  0  0  0  0  0  0  0  0  0
   51.3935   64.6458   14.7345 O   0  0  0  0  0  0  0  0  0  0  0  0
   53.3716   63.3739   14.2502 C   0  0  2  0  0  0  0  0  0  0  0  0
   56.2972   64.3994   19.4246 O   0  0  0  0  0  0  0  0  0  0  0  0
   52.9365   58.3051   12.9077 N   0  0  0  0  0  0  0  0  0  0  0  0
   52.7453   58.8815   14.1472 C   0  0  0  0  0  0  0  0  0  0  0  0
   52.9057   60.2444   14.3177 N   0  0  0  0  0  0  0  0  0  0  0  0
   53.2595   61.0293   13.2764 C   0  0  0  0  0  0  0  0  0  0  0  0
   53.4498   60.4725   12.0204 C   0  0  0  0  0  0  0  0  0  0  0  0
   53.2915   59.1011   11.8392 C   0  0  0  0  0  0  0  0  0  0  0  0
   53.4765   58.5486   10.6431 N   0  0  0  0  0  0  0  0  0  0  0  0
   53.7808   61.4736   11.1745 N   0  0  0  0  0  0  0  0  0  0  0  0
   53.7889   62.6408   11.8602 C   0  0  0  0  0  0  0  0  0  0  0  0
   53.4673   62.3811   13.1667 N   0  0  0  0  0  0  0  0  0  0  0  0
  2  1  1  1  0  0  0
  2  3  1  0  0  0  0
  2  5  1  0  0  0  0
  3  4  1  0  0  0  0
  3 17  1  0  0  0  0
  5  6  1  0  0  0  0
  7  6  1  1  0  0  0
  7  8  1  0  0  0  0
  7  9  1  0  0  0  0
 10  9  1  1  0  0  0
 10 11  1  0  0  0  0
 10 12  1  0  0  0  0
 11 16  1  0  0  0  0
 12 13  1  1  0  0  0
 12 14  1  0  0  0  0
 14 15  1  1  0  0  0
 14 16  1  0  0  0  0
 16 27  1  6  0  0  0
 18 19  2  0  0  0  0
 18 23  1  0  0  0  0
 19 20  1  0  0  0  0
 20 21  2  0  0  0  0
 21 22  1  0  0  0  0
 21 27  1  0  0  0  0
 22 23  2  0  0  0  0
 22 25  1  0  0  0  0
 23 24  1  0  0  0  0
 25 26  2  0  0  0  0
 26 27  1  0  0  0  0
M  END
>  <CHROM.1>
-12.67495342,55.26250388,69.71723503,172.49358005,-172.70666592,172.63609326
53.33445645,53.68871220,62.08281408,16.35378290,-1.06090504,1.11873130,-2.33027308

>  <Name>
ligand

>  <RI>
0

>  <Rbt.Current_Directory>
/home/itssahil/PROJECTS/Mol_Feturizer/New_Systems/rnas/3GX7

>  <Rbt.Executable>
rbdock ($Id: //depot/dev/client3/rdock/2013.1/src/exe/rbdock.cxx#4 $)

>  <Rbt.Library>
libRbt.so (2013.1, Build901 2013/11/27)

>  <Rbt.Parameter_File>
/export/apps/rDock/src/rDock_2013.1_src/data/scripts/dock_solv.prm

>  <Rbt.Receptor>
prm/blind_docking_100.prm

>  <SCORE>
-15.2817

>  <SCORE.INTER>
-8.93157

>  <SCORE.INTER.CONST>
1

>  <SCORE.INTER.POLAR>
0

>  <SCORE.INTER.ROT>
7

>  <SCORE.INTER.SOLV>
7.5533

>  <SCORE.INTER.VDW>
-16.7388

>  <SCORE.INTER.norm>
-0.330799

>  <SCORE.INTRA>
-6.35011

>  <SCORE.INTRA.DIHEDRAL>
-6.78886

>  <SCORE.INTRA.DIHEDRAL.0>
11.2699

>  <SCORE.INTRA.POLAR>
0

>  <SCORE.INTRA.POLAR.0>
0

>  <SCORE.INTRA.REPUL>
0

>  <SCORE.INTRA.REPUL.0>
0

>  <SCORE.INTRA.SOLV>
0.536491

>  <SCORE.INTRA.SOLV.lig_0>
-48.6447

>  <SCORE.INTRA.VDW>
-3.22392

>  <SCORE.INTRA.VDW.0>
-0.0211724

>  <SCORE.INTRA.norm>
-0.235189

>  <SCORE.RESTR>
0

>  <SCORE.RESTR.CAVITY>
0

>  <SCORE.RESTR.norm>
0

>  <SCORE.SYSTEM>
0

>  <SCORE.SYSTEM.CONST>
0

>  <SCORE.SYSTEM.DIHEDRAL>
0

>  <SCORE.SYSTEM.SOLV>
0

>  <SCORE.SYSTEM.norm>
0

>  <SCORE.heavy>
27

>  <SCORE.norm>
-0.565988

>  <RMSD>
18.503

$$$$
ligand
 OpenBabel11021811483D
libRbt.so/2013.1/901 2013/11/27
 27 29  0  0  0  0  0  0  0  0999 V2000
   54.1091   66.6447   14.4247 N   0  0  0  0  0  0  0  0  0  0  0  0
   53.6548   66.2173   15.7424 C   0  0  2  0  0  0  0  0  0  0  0  0
   54.6164   66.6906   16.8199 C   0  0  0  0  0  0  0  0  0  0  0  0
   54.1992   66.9963   17.9345 O   0  0  0  0  0  0  0  0  0  0  0  0
   53.4760   64.7017   15.8188 C   0  0  0  0  0  0  0  0  0  0  0  0
   52.8535   64.1954   17.1145 C   0  0  0  0  0  0  0  0  0  0  0  0
   52.6645   62.3934   17.2047 S   0  0  2  0  0  0  0  0  0  0  0  0
   52.1963   62.1761   18.9392 C   0  0  0  0  0  0  0  0  0  0  0  0
   54.4035   61.8873   17.2649 C   0  0  0  0  0  0  0  0  0  0  0  0
   54.4938   60.3770   17.4245 C   0  0  1  0  0  0  0  0  0  0  0  0
   53.6964   59.7814   16.4296 O   0  0  0  0  0  0  0  0  0  0  0  0
   55.8801   59.8031   17.2117 C   0  0  1  0  0  0  0  0  0  0  0  0
   56.5232   59.6083   18.4476 O   0  0  0  0  0  0  0  0  0  0  0  0
   55.6151   58.4745   16.5270 C   0  0  1  0  0  0  0  0  0  0  0  0
   55.8015   57.4299   17.4526 O   0  0  0  0  0  0  0  0  0  0  0  0
   54.1631   58.5071   16.0666 C   0  0  2  0  0  0  0  0  0  0  0  0
   55.8247   66.7704   16.5962 O   0  0  0  0  0  0  0  0  0  0  0  0
   55.7898   55.8306   11.8388 N   0  0  0  0  0  0  0  0  0  0  0  0
   56.0788   55.5905   13.1669 C   0  0  0  0  0  0  0  0  0  0  0  0
   55.5592   56.4065   14.1551 N   0  0  0  0  0  0  0  0  0  0  0  0
   54.7685   57.4542   13.8344 C   0  0  0  0  0  0  0  0  0  0  0  0
   54.4591   57.7098   12.5068 C   0  0  0  0  0  0  0  0  0  0  0  0
   54.9784   56.8943   11.5049 C   0  0  0  0  0  0  0  0  0  0  0  0
   54.6978   57.1283   10.2255 N   0  0  0  0  0  0  0  0  0  0  0  0
   53.6526   58.7942   12.4756 N   0  0  0  0  0  0  0  0  0  0  0  0
   53.4368   59.2152   13.7440 C   0  0  0  0  0  0  0  0  0  0  0  0
   54.1233   58.3932   14.5989 N   0  0  0  0  0  0  0  0  0  0  0  0
  2  1  1  6  0  0  0
  2  3  1  0  0  0  0
  2  5  1  0  0  0  0
  3  4  1  0  0  0  0
  3 17  1  0  0  0  0
  5  6  1  0  0  0  0
  7  6  1  1  0  0  0
  7  8  1  0  0  0  0
  7  9  1  0  0  0  0
 10  9  1  6  0  0  0
 10 11  1  0  0  0  0
 10 12  1  0  0  0  0
 11 16  1  0  0  0  0
 12 13  1  1  0  0  0
 12 14  1  0  0  0  0
 14 15  1  1  0  0  0
 14 16  1  0  0  0  0
 16 27  1  6  0  0  0
 18 19  2  0  0  0  0
 18 23  1  0  0  0  0
 19 20  1  0  0  0  0
 20 21  2  0  0  0  0
 21 22  1  0  0  0  0
 21 27  1  0  0  0  0
 22 23  2  0  0  0  0
 22 25  1  0  0  0  0
 23 24  1  0  0  0  0
 25 26  2  0  0  0  0
 26 27  1  0  0  0  0
M  END
>  <CHROM.1>
146.66582483,-173.41592839,-179.26589039,170.34835112,176.83755387,51.67014452
163.80932141,54.42460208,60.77205822,15.57171501,2.45813221,-1.41180797,1.29099086

>  <Name>
ligand

>  <RI>
0

>  <Rbt.Current_Directory>
/home/itssahil/PROJECTS/Mol_Feturizer/New_Systems/rnas/3GX7

>  <Rbt.Executable>
rbdock ($Id: //depot/dev/client3/rdock/2013.1/src/exe/rbdock.cxx#4 $)

>  <Rbt.Library>
libRbt.so (2013.1, Build901 2013/11/27)

>  <Rbt.Parameter_File>
/export/apps/rDock/src/rDock_2013.1_src/data/scripts/dock_solv.prm

>  <Rbt.Receptor>
prm/blind_docking_100.prm

>  <SCORE>
-12.9813

>  <SCORE.INTER>
-6.64232

>  <SCORE.INTER.CONST>
1

>  <SCORE.INTER.POLAR>
0

>  <SCORE.INTER.ROT>
7

>  <SCORE.INTER.SOLV>
12.9739

>  <SCORE.INTER.VDW>
-17.0195

>  <SCORE.INTER.norm>
-0.246012

>  <SCORE.INTRA>
-6.33903

>  <SCORE.INTRA.DIHEDRAL>
-7.63771

>  <SCORE.INTRA.DIHEDRAL.0>
11.2699

>  <SCORE.INTRA.POLAR>
0

>  <SCORE.INTRA.POLAR.0>
0

>  <SCORE.INTRA.REPUL>
0

>  <SCORE.INTRA.REPUL.0>
0

>  <SCORE.INTRA.SOLV>
-1.02395

>  <SCORE.INTRA.SOLV.lig_0>
-48.6447

>  <SCORE.INTRA.VDW>
-2.0082

>  <SCORE.INTRA.VDW.0>
-0.0211724

>  <SCORE.INTRA.norm>
-0.234779

>  <SCORE.RESTR>
0

>  <SCORE.RESTR.CAVITY>
0

>  <SCORE.RESTR.norm>
0

>  <SCORE.SYSTEM>
0

>  <SCORE.SYSTEM.CONST>
0

>  <SCORE.SYSTEM.DIHEDRAL>
0

>  <SCORE.SYSTEM.SOLV>
0

>  <SCORE.SYSTEM.norm>
0

>  <SCORE.heavy>
27

>  <SCORE.norm>
-0.480791

>  <RMSD>
18.903

$$$$
ligand
 OpenBabel11021811483D
libRbt.so/2013.1/901 2013/11/27
 27 29  0  0  0  0  0  0  0  0999 V2000
   55.2319   62.9133   20.8256 N   0  0  0  0  0  0  0  0  0  0  0  0
   56.3613   63.6697   20.2985 C   0  0  2  0  0  0  0  0  0  0  0  0
   57.3988   63.9085   21.3831 C   0  0  0  0  0  0  0  0  0  0  0  0
   58.5286   63.4373   21.2769 O   0  0  0  0  0  0  0  0  0  0  0  0
   55.9200   64.9974   19.6843 C   0  0  0  0  0  0  0  0  0  0  0  0
   55.1248   64.8708   18.3904 C   0  0  0  0  0  0  0  0  0  0  0  0
   56.1274   64.5022   16.9240 S   0  0  2  0  0  0  0  0  0  0  0  0
   56.4042   66.1634   16.2617 C   0  0  0  0  0  0  0  0  0  0  0  0
   54.8425   63.9048   15.7943 C   0  0  0  0  0  0  0  0  0  0  0  0
   54.1889   62.6587   16.3726 C   0  0  1  0  0  0  0  0  0  0  0  0
   53.2111   62.2131   15.4639 O   0  0  0  0  0  0  0  0  0  0  0  0
   55.1256   61.4807   16.5497 C   0  0  1  0  0  0  0  0  0  0  0  0
   55.5835   61.4160   17.8783 O   0  0  0  0  0  0  0  0  0  0  0  0
   54.2561   60.2807   16.2206 C   0  0  1  0  0  0  0  0  0  0  0  0
   53.9055   59.6203   17.4137 O   0  0  0  0  0  0  0  0  0  0  0  0
   53.0054   60.8257   15.5424 C   0  0  2  0  0  0  0  0  0  0  0  0
   57.1268   64.5792   22.3794 O   0  0  0  0  0  0  0  0  0  0  0  0
   53.6922   61.7778   10.4134 N   0  0  0  0  0  0  0  0  0  0  0  0
   53.8962   62.6331   11.4773 C   0  0  0  0  0  0  0  0  0  0  0  0
   53.6609   62.2083   12.7722 N   0  0  0  0  0  0  0  0  0  0  0  0
   53.2206   60.9539   13.0135 C   0  0  0  0  0  0  0  0  0  0  0  0
   53.0156   60.0752   11.9601 C   0  0  0  0  0  0  0  0  0  0  0  0
   53.2490   60.4943   10.6529 C   0  0  0  0  0  0  0  0  0  0  0  0
   53.0513   59.6673    9.6295 N   0  0  0  0  0  0  0  0  0  0  0  0
   52.5926   58.9021   12.4816 N   0  0  0  0  0  0  0  0  0  0  0  0
   52.5409   59.0162   13.8296 C   0  0  0  0  0  0  0  0  0  0  0  0
   52.9278   60.2846   14.1749 N   0  0  0  0  0  0  0  0  0  0  0  0
  2  1  1  1  0  0  0
  2  3  1  0  0  0  0
  2  5  1  0  0  0  0
  3  4  1  0  0  0  0
  3 17  1  0  0  0  0
  5  6  1  0  0  0  0
  7  6  1  1  0  0  0
  7  8  1  0  0  0  0
  7  9  1  0  0  0  0
 10  9  1  6  0  0  0
 10 11  1  0  0  0  0
 10 12  1  0  0  0  0
 11 16  1  0  0  0  0
 12 13  1  1  0  0  0
 12 14  1  0  0  0  0
 14 15  1  1  0  0  0
 14 16  1  0  0  0  0
 16 27  1  6  0  0  0
 18 19  2  0  0  0  0
 18 23  1  0  0  0  0
 19 20  1  0  0  0  0
 20 21  2  0  0  0  0
 21 22  1  0  0  0  0
 21 27  1  0  0  0  0
 22 23  2  0  0  0  0
 22 25  1  0  0  0  0
 23 24  1  0  0  0  0
 25 26  2  0  0  0  0
 26 27  1  0  0  0  0
M  END
>  <CHROM.1>
116.99243855,-69.37860397,-77.03084750,-94.76831527,-61.72084210,-179.23883639
9.89539516,54.72449729,62.28538052,16.06931452,0.58305699,1.11994239,2.09778046

>  <Name>
ligand

>  <RI>
0

>  <Rbt.Current_Directory>
/home/itssahil/PROJECTS/Mol_Feturizer/New_Systems/rnas/3GX7

>  <Rbt.Executable>
rbdock ($Id: //depot/dev/client3/rdock/2013.1/src/exe/rbdock.cxx#4 $)

>  <Rbt.Library>
libRbt.so (2013.1, Build901 2013/11/27)

>  <Rbt.Parameter_File>
/export/apps/rDock/src/rDock_2013.1_src/data/scripts/dock_solv.prm

>  <Rbt.Receptor>
prm/blind_docking_100.prm

>  <SCORE>
-14.1115

>  <SCORE.INTER>
-8.98698

>  <SCORE.INTER.CONST>
1

>  <SCORE.INTER.POLAR>
0

>  <SCORE.INTER.ROT>
7

>  <SCORE.INTER.SOLV>
9.25602

>  <SCORE.INTER.VDW>
-17.3433

>  <SCORE.INTER.norm>
-0.332851

>  <SCORE.INTRA>
-5.12452

>  <SCORE.INTRA.DIHEDRAL>
-4.84461

>  <SCORE.INTRA.DIHEDRAL.0>
11.2699

>  <SCORE.INTRA.POLAR>
0

>  <SCORE.INTRA.POLAR.0>
0

>  <SCORE.INTRA.REPUL>
0

>  <SCORE.INTRA.REPUL.0>
0

>  <SCORE.INTRA.SOLV>
1.09708

>  <SCORE.INTRA.SOLV.lig_0>
-48.6447

>  <SCORE.INTRA.VDW>
-3.25076

>  <SCORE.INTRA.VDW.0>
-0.0211724

>  <SCORE.INTRA.norm>
-0.189797

>  <SCORE.RESTR>
0

>  <SCORE.RESTR.CAVITY>
0

>  <SCORE.RESTR.norm>
0

>  <SCORE.SYSTEM>
0

>  <SCORE.SYSTEM.CONST>
0

>  <SCORE.SYSTEM.DIHEDRAL>
0

>  <SCORE.SYSTEM.SOLV>
0

>  <SCORE.SYSTEM.norm>
0

>  <SCORE.heavy>
27

>  <SCORE.norm>
-0.522648

>  <RMSD>
19.068

$$$$
ligand
 OpenBabel11021811483D
libRbt.so/2013.1/901 2013/11/27
 27 29  0  0  0  0  0  0  0  0999 V2000
   54.5271   64.3124   20.4561 N   0  0  0  0  0  0  0  0  0  0  0  0
   54.2070   65.4455   19.5964 C   0  0  2  0  0  0  0  0  0  0  0  0
   52.7661   65.8830   19.8014 C   0  0  0  0  0  0  0  0  0  0  0  0
   51.8408   65.1206   19.5323 O   0  0  0  0  0  0  0  0  0  0  0  0
   54.4620   65.1316   18.1228 C   0  0  0  0  0  0  0  0  0  0  0  0
   54.2342   66.3000   17.1712 C   0  0  0  0  0  0  0  0  0  0  0  0
   54.3400   65.8694   15.4120 S   0  0  2  0  0  0  0  0  0  0  0  0
   56.1204   65.6069   15.2215 C   0  0  0  0  0  0  0  0  0  0  0  0
   54.1652   67.5111   14.6650 C   0  0  0  0  0  0  0  0  0  0  0  0
   52.6943   67.8956   14.6078 C   0  0  1  0  0  0  0  0  0  0  0  0
   52.6013   69.2037   14.0973 O   0  0  0  0  0  0  0  0  0  0  0  0
   51.8579   67.0483   13.6702 C   0  0  1  0  0  0  0  0  0  0  0  0
   51.1923   66.0377   14.3876 O   0  0  0  0  0  0  0  0  0  0  0  0
   50.8654   68.0368   13.0855 C   0  0  1  0  0  0  0  0  0  0  0  0
   49.6060   67.8387   13.6831 O   0  0  0  0  0  0  0  0  0  0  0  0
   51.3881   69.4270   13.4253 C   0  0  2  0  0  0  0  0  0  0  0  0
   52.5035   67.0020   20.2434 O   0  0  0  0  0  0  0  0  0  0  0  0
   54.8165   70.2399    9.5177 N   0  0  0  0  0  0  0  0  0  0  0  0
   54.9414   69.3981   10.6043 C   0  0  0  0  0  0  0  0  0  0  0  0
   53.9296   69.3119   11.5430 N   0  0  0  0  0  0  0  0  0  0  0  0
   52.8090   70.0557   11.4144 C   0  0  0  0  0  0  0  0  0  0  0  0
   52.6590   70.9031   10.3266 C   0  0  0  0  0  0  0  0  0  0  0  0
   53.6728   70.9972    9.3768 C   0  0  0  0  0  0  0  0  0  0  0  0
   53.5493   71.8097    8.3304 N   0  0  0  0  0  0  0  0  0  0  0  0
   51.4556   71.5078   10.4412 N   0  0  0  0  0  0  0  0  0  0  0  0
   50.8427   71.0533   11.5595 C   0  0  0  0  0  0  0  0  0  0  0  0
   51.6708   70.1513   12.1746 N   0  0  0  0  0  0  0  0  0  0  0  0
  2  1  1  1  0  0  0
  2  3  1  0  0  0  0
  2  5  1  0  0  0  0
  3  4  1  0  0  0  0
  3 17  1  0  0  0  0
  5  6  1  0  0  0  0
  7  6  1  1  0  0  0
  7  8  1  0  0  0  0
  7  9  1  0  0  0  0
 10  9  1  6  0  0  0
 10 11  1  0  0  0  0
 10 12  1  0  0  0  0
 11 16  1  0  0  0  0
 12 13  1  1  0  0  0
 12 14  1  0  0  0  0
 14 15  1  1  0  0  0
 14 16  1  0  0  0  0
 16 27  1  6  0  0  0
 18 19  2  0  0  0  0
 18 23  1  0  0  0  0
 19 20  1  0  0  0  0
 20 21  2  0  0  0  0
 21 22  1  0  0  0  0
 21 27  1  0  0  0  0
 22 23  2  0  0  0  0
 22 25  1  0  0  0  0
 23 24  1  0  0  0  0
 25 26  2  0  0  0  0
 26 27  1  0  0  0  0
M  END
>  <CHROM.1>
-63.04815525,-176.26963287,-172.86415784,-72.19429588,-81.27945935,176.56924445
31.06452253,52.99901852,67.93439756,14.33490876,-1.49208091,0.27477175,-1.04774468

>  <Name>
ligand

>  <RI>
0

>  <Rbt.Current_Directory>
/home/itssahil/PROJECTS/Mol_Feturizer/New_Systems/rnas/3GX7

>  <Rbt.Executable>
rbdock ($Id: //depot/dev/client3/rdock/2013.1/src/exe/rbdock.cxx#4 $)

>  <Rbt.Library>
libRbt.so (2013.1, Build901 2013/11/27)

>  <Rbt.Parameter_File>
/export/apps/rDock/src/rDock_2013.1_src/data/scripts/dock_solv.prm

>  <Rbt.Receptor>
prm/blind_docking_100.prm

>  <SCORE>
-22.0217

>  <SCORE.INTER>
-15.0713

>  <SCORE.INTER.CONST>
1

>  <SCORE.INTER.POLAR>
0

>  <SCORE.INTER.ROT>
7

>  <SCORE.INTER.SOLV>
10.0913

>  <SCORE.INTER.VDW>
-21.678

>  <SCORE.INTER.norm>
-0.558196

>  <SCORE.INTRA>
-6.9504

>  <SCORE.INTRA.DIHEDRAL>
-7.29671

>  <SCORE.INTRA.DIHEDRAL.0>
11.2699

>  <SCORE.INTRA.POLAR>
0

>  <SCORE.INTRA.POLAR.0>
0

>  <SCORE.INTRA.REPUL>
0

>  <SCORE.INTRA.REPUL.0>
0

>  <SCORE.INTRA.SOLV>
-0.912857

>  <SCORE.INTRA.SOLV.lig_0>
-48.6447

>  <SCORE.INTRA.VDW>
-2.84562

>  <SCORE.INTRA.VDW.0>
-0.0211724

>  <SCORE.INTRA.norm>
-0.257422

>  <SCORE.RESTR>
0

>  <SCORE.RESTR.CAVITY>
0

>  <SCORE.RESTR.norm>
0

>  <SCORE.SYSTEM>
0

>  <SCORE.SYSTEM.CONST>
0

>  <SCORE.SYSTEM.DIHEDRAL>
0

>  <SCORE.SYSTEM.SOLV>
0

>  <SCORE.SYSTEM.norm>
0

>  <SCORE.heavy>
27

>  <SCORE.norm>
-0.815618

>  <RMSD>
22.184

$$$$
ligand
 OpenBabel11021811483D
libRbt.so/2013.1/901 2013/11/27
 27 29  0  0  0  0  0  0  0  0999 V2000
   56.6197   66.3910   19.9131 N   0  0  0  0  0  0  0  0  0  0  0  0
   55.8651   67.4959   19.3340 C   0  0  2  0  0  0  0  0  0  0  0  0
   54.9924   68.1584   20.3871 C   0  0  0  0  0  0  0  0  0  0  0  0
   54.0183   67.5680   20.8481 O   0  0  0  0  0  0  0  0  0  0  0  0
   55.0149   67.0442   18.1474 C   0  0  0  0  0  0  0  0  0  0  0  0
   55.8082   66.5917   16.9274 C   0  0  0  0  0  0  0  0  0  0  0  0
   54.7946   66.1876   15.4780 S   0  0  2  0  0  0  0  0  0  0  0  0
   56.0659   65.7022   14.2851 C   0  0  0  0  0  0  0  0  0  0  0  0
   54.4005   67.8534   14.8831 C   0  0  0  0  0  0  0  0  0  0  0  0
   52.8947   67.9981   14.7209 C   0  0  1  0  0  0  0  0  0  0  0  0
   52.6309   69.2712   14.1824 O   0  0  0  0  0  0  0  0  0  0  0  0
   52.2699   67.0221   13.7444 C   0  0  1  0  0  0  0  0  0  0  0  0
   51.7251   65.9231   14.4332 O   0  0  0  0  0  0  0  0  0  0  0  0
   51.1758   67.8359   13.0772 C   0  0  1  0  0  0  0  0  0  0  0  0
   49.9256   67.4435   13.5926 O   0  0  0  0  0  0  0  0  0  0  0  0
   51.4468   69.2938   13.4269 C   0  0  2  0  0  0  0  0  0  0  0  0
   55.2488   69.2907   20.7976 O   0  0  0  0  0  0  0  0  0  0  0  0
   54.8015   70.2467    9.4871 N   0  0  0  0  0  0  0  0  0  0  0  0
   54.9594   69.3888   10.5567 C   0  0  0  0  0  0  0  0  0  0  0  0
   53.9631   69.2650   11.5078 N   0  0  0  0  0  0  0  0  0  0  0  0
   52.8256   69.9873   11.4080 C   0  0  0  0  0  0  0  0  0  0  0  0
   52.6426   70.8502   10.3375 C   0  0  0  0  0  0  0  0  0  0  0  0
   53.6405   70.9821    9.3756 C   0  0  0  0  0  0  0  0  0  0  0  0
   53.4853   71.8100    8.3456 N   0  0  0  0  0  0  0  0  0  0  0  0
   51.4286   71.4273   10.4796 N   0  0  0  0  0  0  0  0  0  0  0  0
   50.8412   70.9407   11.5981 C   0  0  0  0  0  0  0  0  0  0  0  0
   51.6966   70.0456   12.1854 N   0  0  0  0  0  0  0  0  0  0  0  0
  2  1  1  1  0  0  0
  2  3  1  0  0  0  0
  2  5  1  0  0  0  0
  3  4  1  0  0  0  0
  3 17  1  0  0  0  0
  5  6  1  0  0  0  0
  7  6  1  1  0  0  0
  7  8  1  0  0  0  0
  7  9  1  0  0  0  0
 10  9  1  6  0  0  0
 10 11  1  0  0  0  0
 10 12  1  0  0  0  0
 11 16  1  0  0  0  0
 12 13  1  1  0  0  0
 12 14  1  0  0  0  0
 14 15  1  1  0  0  0
 14 16  1  0  0  0  0
 16 27  1  6  0  0  0
 18 19  2  0  0  0  0
 18 23  1  0  0  0  0
 19 20  1  0  0  0  0
 20 21  2  0  0  0  0
 21 22  1  0  0  0  0
 21 27  1  0  0  0  0
 22 23  2  0  0  0  0
 22 25  1  0  0  0  0
 23 24  1  0  0  0  0
 25 26  2  0  0  0  0
 26 27  1  0  0  0  0
M  END
>  <CHROM.1>
-69.63089119,-66.72929612,-175.20486109,-179.71769768,-126.94035404,-176.49406485
40.47073834,53.58649284,68.42001754,14.37810432,-1.30210766,0.07524877,-1.24493821

>  <Name>
ligand

>  <RI>
0

>  <Rbt.Current_Directory>
/home/itssahil/PROJECTS/Mol_Feturizer/New_Systems/rnas/3GX7

>  <Rbt.Executable>
rbdock ($Id: //depot/dev/client3/rdock/2013.1/src/exe/rbdock.cxx#4 $)

>  <Rbt.Library>
libRbt.so (2013.1, Build901 2013/11/27)

>  <Rbt.Parameter_File>
/export/apps/rDock/src/rDock_2013.1_src/data/scripts/dock_solv.prm

>  <Rbt.Receptor>
prm/blind_docking_100.prm

>  <SCORE>
-21.6553

>  <SCORE.INTER>
-16.7993

>  <SCORE.INTER.CONST>
1

>  <SCORE.INTER.POLAR>
0

>  <SCORE.INTER.ROT>
7

>  <SCORE.INTER.SOLV>
11.4145

>  <SCORE.INTER.VDW>
-23.271

>  <SCORE.INTER.norm>
-0.622196

>  <SCORE.INTRA>
-4.85606

>  <SCORE.INTRA.DIHEDRAL>
-3.20446

>  <SCORE.INTRA.DIHEDRAL.0>
11.2699

>  <SCORE.INTRA.POLAR>
0

>  <SCORE.INTRA.POLAR.0>
0

>  <SCORE.INTRA.REPUL>
0

>  <SCORE.INTRA.REPUL.0>
0

>  <SCORE.INTRA.SOLV>
-0.301618

>  <SCORE.INTRA.SOLV.lig_0>
-48.6447

>  <SCORE.INTRA.VDW>
-3.10302

>  <SCORE.INTRA.VDW.0>
-0.0211724

>  <SCORE.INTRA.norm>
-0.179854

>  <SCORE.RESTR>
0

>  <SCORE.RESTR.CAVITY>
0

>  <SCORE.RESTR.norm>
0

>  <SCORE.SYSTEM>
0

>  <SCORE.SYSTEM.CONST>
0

>  <SCORE.SYSTEM.DIHEDRAL>
0

>  <SCORE.SYSTEM.SOLV>
0

>  <SCORE.SYSTEM.norm>
0

>  <SCORE.heavy>
27

>  <SCORE.norm>
-0.80205

>  <RMSD>
22.541

$$$$
ligand
 OpenBabel11021811483D
libRbt.so/2013.1/901 2013/11/27
 27 29  0  0  0  0  0  0  0  0999 V2000
   56.2975   64.0966   16.3700 N   0  0  0  0  0  0  0  0  0  0  0  0
   56.8784   65.4051   16.6451 C   0  0  2  0  0  0  0  0  0  0  0  0
   57.4181   65.4636   18.0646 C   0  0  0  0  0  0  0  0  0  0  0  0
   56.7147   65.1195   19.0116 O   0  0  0  0  0  0  0  0  0  0  0  0
   55.8751   66.5337   16.4117 C   0  0  0  0  0  0  0  0  0  0  0  0
   55.5660   66.8222   14.9475 C   0  0  0  0  0  0  0  0  0  0  0  0
   54.2203   68.0097   14.6822 S   0  0  2  0  0  0  0  0  0  0  0  0
   52.7891   66.9053   14.5995 C   0  0  0  0  0  0  0  0  0  0  0  0
   54.4558   68.3794   12.9239 C   0  0  0  0  0  0  0  0  0  0  0  0
   53.5764   69.5546   12.5238 C   0  0  1  0  0  0  0  0  0  0  0  0
   54.1037   70.1176   11.3468 O   0  0  0  0  0  0  0  0  0  0  0  0
   52.1490   69.1833   12.1755 C   0  0  1  0  0  0  0  0  0  0  0  0
   51.3053   69.3959   13.2810 O   0  0  0  0  0  0  0  0  0  0  0  0
   51.8003   70.1304   11.0417 C   0  0  1  0  0  0  0  0  0  0  0  0
   50.9545   71.1455   11.5282 O   0  0  0  0  0  0  0  0  0  0  0  0
   53.1145   70.7349   10.5633 C   0  0  2  0  0  0  0  0  0  0  0  0
   58.5657   65.8504   18.2877 O   0  0  0  0  0  0  0  0  0  0  0  0
   51.2897   71.0030    5.6356 N   0  0  0  0  0  0  0  0  0  0  0  0
   50.7394   71.5391    6.7822 C   0  0  0  0  0  0  0  0  0  0  0  0
   51.3625   71.3666    8.0046 N   0  0  0  0  0  0  0  0  0  0  0  0
   52.5134   70.6645    8.0952 C   0  0  0  0  0  0  0  0  0  0  0  0
   53.0880   70.1230    6.9548 C   0  0  0  0  0  0  0  0  0  0  0  0
   52.4674   70.2908    5.7198 C   0  0  0  0  0  0  0  0  0  0  0  0
   53.0005   69.7727    4.6163 N   0  0  0  0  0  0  0  0  0  0  0  0
   54.2234   69.4918    7.3285 N   0  0  0  0  0  0  0  0  0  0  0  0
   54.3835   69.6347    8.6652 C   0  0  0  0  0  0  0  0  0  0  0  0
   53.3295   70.3604    9.1553 N   0  0  0  0  0  0  0  0  0  0  0  0
  2  1  1  1  0  0  0
  2  3  1  0  0  0  0
  2  5  1  0  0  0  0
  3  4  1  0  0  0  0
  3 17  1  0  0  0  0
  5  6  1  0  0  0  0
  7  6  1  6  0  0  0
  7  8  1  0  0  0  0
  7  9  1  0  0  0  0
 10  9  1  6  0  0  0
 10 11  1  0  0  0  0
 10 12  1  0  0  0  0
 11 16  1  0  0  0  0
 12 13  1  1  0  0  0
 12 14  1  0  0  0  0
 14 15  1  1  0  0  0
 14 16  1  0  0  0  0
 16 27  1  6  0  0  0
 18 19  2  0  0  0  0
 18 23  1  0  0  0  0
 19 20  1  0  0  0  0
 20 21  2  0  0  0  0
 21 22  1  0  0  0  0
 21 27  1  0  0  0  0
 22 23  2  0  0  0  0
 22 25  1  0  0  0  0
 23 24  1  0  0  0  0
 25 26  2  0  0  0  0
 26 27  1  0  0  0  0
M  END
>  <CHROM.1>
-50.62317703,-72.83183210,172.44837475,-90.54067246,-170.13755714,159.28876228
174.11111687,53.83044283,68.70028155,11.97317128,-1.13423936,0.56752329,-1.36565502

>  <Name>
ligand

>  <RI>
0

>  <Rbt.Current_Directory>
/home/itssahil/PROJECTS/Mol_Feturizer/New_Systems/rnas/3GX7

>  <Rbt.Executable>
rbdock ($Id: //depot/dev/client3/rdock/2013.1/src/exe/rbdock.cxx#4 $)

>  <Rbt.Library>
libRbt.so (2013.1, Build901 2013/11/27)

>  <Rbt.Parameter_File>
/export/apps/rDock/src/rDock_2013.1_src/data/scripts/dock_solv.prm

>  <Rbt.Receptor>
prm/blind_docking_100.prm

>  <SCORE>
-17.765

>  <SCORE.INTER>
-13.2746

>  <SCORE.INTER.CONST>
1

>  <SCORE.INTER.POLAR>
0

>  <SCORE.INTER.ROT>
7

>  <SCORE.INTER.SOLV>
12.6449

>  <SCORE.INTER.VDW>
-21.3313

>  <SCORE.INTER.norm>
-0.49165

>  <SCORE.INTRA>
-4.49048

>  <SCORE.INTRA.DIHEDRAL>
-3.66903

>  <SCORE.INTRA.DIHEDRAL.0>
11.2699

>  <SCORE.INTRA.POLAR>
0

>  <SCORE.INTRA.POLAR.0>
0

>  <SCORE.INTRA.REPUL>
0

>  <SCORE.INTRA.REPUL.0>
0

>  <SCORE.INTRA.SOLV>
-0.280341

>  <SCORE.INTRA.SOLV.lig_0>
-48.6447

>  <SCORE.INTRA.VDW>
-2.51579

>  <SCORE.INTRA.VDW.0>
-0.0211724

>  <SCORE.INTRA.norm>
-0.166314

>  <SCORE.RESTR>
0

>  <SCORE.RESTR.CAVITY>
0

>  <SCORE.RESTR.norm>
0

>  <SCORE.SYSTEM>
0

>  <SCORE.SYSTEM.CONST>
0

>  <SCORE.SYSTEM.DIHEDRAL>
0

>  <SCORE.SYSTEM.SOLV>
0

>  <SCORE.SYSTEM.norm>
0

>  <SCORE.heavy>
27

>  <SCORE.norm>
-0.657964

>  <RMSD>
24.882

$$$$
