@<TRIPOS>MOLECULE
3GX7_rdock.pdb
 2031 2277 0 0 0
SMALL
GASTEIGER

@<TRIPOS>ATOM
      1  P         66.4890   54.1320   32.9570 P.3     1  G1          0.1280
      2  C5'       67.9980   51.9580   33.1450 C.3     1  G1          0.1795
      3  O5'       67.0990   52.8860   33.7630 O.3     1  G1         -0.3259
      4  C4'       68.8230   51.1780   34.1670 C.3     1  G1          0.1772
      5  O4'       69.5370   52.0990   35.0360 O.3     1  G1         -0.3307
      6  C3'       68.0470   50.2710   35.1180 C.3     1  G1          0.1860
      7  O3'       67.9070   48.9620   34.5800 O.3     1  G1         -0.3112
      8  C2'       68.9310   50.2410   36.3640 C.3     1  G1          0.2309
      9  O2'       69.9810   49.2980   36.2620 O.3     1  G1         -0.2156
     10  C1'       69.4900   51.6590   36.3860 C.3     1  G1          0.2408
     11  N1        67.3690   52.7230   40.9120 N.ar    1  G1         -0.1709
     12  C2        68.1230   51.6330   40.5420 C.ar    1  G1          0.2606
     13  N2        68.3440   50.7060   41.4860 N.pl3   1  G1         -0.0859
     14  N3        68.6280   51.4620   39.3250 N.ar    1  G1         -0.1918
     15  C4        68.3150   52.4850   38.4920 C.ar    1  G1          0.1723
     16  C5        67.5700   53.6140   38.7710 C.ar    1  G1          0.1748
     17  C6        67.0360   53.7860   40.0720 C.ar    1  G1          0.3023
     18  O6        66.3510   54.7260   40.5020 O.2     1  G1         -0.2633
     19  N7        67.4710   54.4300   37.6510 N.ar    1  G1         -0.2173
     20  C8        68.1450   53.7870   36.7380 C.ar    1  G1          0.1817
     21  N9        68.6870   52.5990   37.1700 N.ar    1  G1         -0.2693
     22  OP1       65.7630   53.5980   31.7860 O.3     1  G1         -0.1955
     23  OP2       67.5830   55.1010   32.7340 O.co2   1  G1         -0.7863
     24  P         66.5640   48.1450   34.8800 P.3     2  G2          0.2141
     25  C5'       67.4110   46.5590   36.8070 C.3     2  G2          0.1812
     26  O5'       66.6820   47.7170   36.4200 O.3     2  G2         -0.3114
     27  C4'       67.2110   46.2320   38.2680 C.3     2  G2          0.1773
     28  O4'       67.7050   47.3270   39.0800 O.3     2  G2         -0.3307
     29  C3'       65.7720   46.0520   38.7270 C.3     2  G2          0.1860
     30  O3'       65.2530   44.7600   38.4720 O.3     2  G2         -0.3112
     31  C2'       65.8590   46.3770   40.2090 C.3     2  G2          0.2309
     32  O2'       66.4340   45.2890   40.9180 O.3     2  G2         -0.2156
     33  C1'       66.8560   47.5330   40.1890 C.3     2  G2          0.2408
     34  N1        63.9130   51.2800   42.0930 N.ar    2  G2         -0.1709
     35  C2        64.3850   50.1540   42.7290 C.ar    2  G2          0.2606
     36  N2        64.0310   50.0050   44.0120 N.pl3   2  G2         -0.0859
     37  N3        65.1490   49.2360   42.1490 N.ar    2  G2         -0.1918
     38  C4        65.4040   49.5470   40.8540 C.ar    2  G2          0.1723
     39  C5        64.9780   50.6450   40.1420 C.ar    2  G2          0.1748
     40  C6        64.1680   51.6130   40.7630 C.ar    2  G2          0.3023
     41  O6        63.7110   52.6500   40.2610 O.2     2  G2         -0.2633
     42  N7        65.4490   50.6120   38.8470 N.ar    2  G2         -0.2173
     43  C8        66.1390   49.5110   38.7910 C.ar    2  G2          0.1817
     44  N9        66.1640   48.8140   39.9690 N.ar    2  G2         -0.2693
     45  OP1       66.6180   46.8560   34.1540 O.2     2  G2         -0.5172
     46  OP2       65.4190   49.0700   34.7070 O.co2   2  G2         -0.4373
     47  P         63.6700   44.5920   38.3230 P.3     3  C3          0.2141
     48  C5'       63.4680   43.9510   40.8630 C.3     3  C3          0.1812
     49  O5'       63.1460   44.8420   39.8100 O.3     3  C3         -0.3114
     50  C4'       62.9090   44.4600   42.1650 C.3     3  C3          0.1773
     51  O4'       63.2930   45.8480   42.3370 O.3     3  C3         -0.3307
     52  C3'       61.3930   44.5100   42.2810 C.3     3  C3          0.1860
     53  O3'       60.7850   43.2560   42.5420 O.3     3  C3         -0.3112
     54  C2'       61.2060   45.5060   43.4160 C.3     3  C3          0.2309
     55  O2'       61.4750   44.8820   44.6640 O.3     3  C3         -0.2156
     56  C1'       62.3220   46.5070   43.1230 C.3     3  C3          0.2420
     57  N1        61.8380   47.7420   42.4560 N.ar    3  C3         -0.2535
     58  C2        61.0700   48.6550   43.1880 C.ar    3  C3          0.3532
     59  O2        60.8090   48.4200   44.3730 O.2     3  C3         -0.2443
     60  N3        60.6260   49.7790   42.5790 N.ar    3  C3         -0.1739
     61  C4        60.9230   50.0010   41.3010 C.ar    3  C3          0.1759
     62  N4        60.4650   51.1230   40.7470 N.pl3   3  C3         -0.1070
     63  C5        61.7060   49.0880   40.5360 C.ar    3  C3          0.0566
     64  C6        62.1370   47.9800   41.1500 C.ar    3  C3          0.0850
     65  OP1       63.3450   43.1730   38.0560 O.3     3  C3         -0.4373
     66  OP2       63.1340   45.6790   37.4730 O.co2   3  C3         -0.5172
     67  P         59.2830   43.0050   42.0420 P.3     4  U4          0.2141
     68  C5'       58.2090   43.9720   44.2270 C.3     4  U4          0.1812
     69  O5'       58.3880   44.0840   42.8210 O.3     4  U4         -0.3114
     70  C4'       57.0880   44.8410   44.7460 C.3     4  U4          0.1773
     71  O4'       57.4860   46.2350   44.7310 O.3     4  U4         -0.3307
     72  C3'       55.7970   44.8040   43.9480 C.3     4  U4          0.1860
     73  O3'       54.9800   43.6970   44.2900 O.3     4  U4         -0.3112
     74  C2'       55.1570   46.1560   44.2490 C.3     4  U4          0.2309
     75  O2'       54.4120   46.1190   45.4560 O.3     4  U4         -0.2156
     76  C1'       56.3750   47.0570   44.4470 C.3     4  U4          0.2420
     77  N1        56.6980   47.8770   43.2580 N.ar    4  U4         -0.2534
     78  C2        56.0270   49.0610   43.0450 C.ar    4  U4          0.3546
     79  O2        55.1630   49.4870   43.7830 O.2     4  U4         -0.2443
     80  N3        56.4000   49.7390   41.9150 N.ar    4  U4         -0.1530
     81  C4        57.3600   49.3610   40.9960 C.ar    4  U4          0.2846
     82  O4        57.5870   50.0770   40.0310 O.2     4  U4         -0.2650
     83  C5        58.0170   48.1140   41.2870 C.ar    4  U4          0.0814
     84  C6        57.6660   47.4320   42.3830 C.ar    4  U4          0.0870
     85  OP1       58.8290   41.6950   42.5630 O.3     4  U4         -0.4373
     86  OP2       59.2280   43.2870   40.5910 O.co2   4  U4         -0.5172
     87  P         54.0320   43.0300   43.1890 P.3     5  U5          0.2141
     88  C5'       52.0980   44.5520   44.0130 C.3     5  U5          0.1812
     89  O5'       52.9320   44.1630   42.9350 O.3     5  U5         -0.3114
     90  C4'       51.3020   45.7890   43.6850 C.3     5  U5          0.1773
     91  O4'       52.1910   46.9150   43.4840 O.3     5  U5         -0.3307
     92  C3'       50.4950   45.7360   42.4030 C.3     5  U5          0.1860
     93  O3'       49.2880   45.0180   42.5510 O.3     5  U5         -0.3112
     94  C2'       50.2930   47.2100   42.0830 C.3     5  U5          0.2309
     95  O2'       49.2870   47.7660   42.9140 O.3     5  U5         -0.2156
     96  C1'       51.6270   47.7990   42.5360 C.3     5  U5          0.2420
     97  N1        52.6170   48.1180   41.4590 N.ar    5  U5         -0.2534
     98  C2        52.4880   49.3190   40.8030 C.ar    5  U5          0.3546
     99  O2        51.5980   50.1100   41.0530 O.2     5  U5         -0.2443
    100  N3        53.4370   49.5560   39.8450 N.ar    5  U5         -0.1530
    101  C4        54.4830   48.7260   39.4920 C.ar    5  U5          0.2846
    102  O4        55.2570   49.0780   38.6060 O.2     5  U5         -0.2650
    103  C5        54.5570   47.4890   40.2250 C.ar    5  U5          0.0814
    104  C6        53.6380   47.2390   41.1620 C.ar    5  U5          0.0870
    105  OP1       53.2710   41.9260   43.8160 O.3     5  U5         -0.4373
    106  OP2       54.8130   42.8020   41.9510 O.co2   5  U5         -0.5172
    107  P         48.6250   44.4110   41.2330 P.3     6  C6          0.2141
    108  C5'       46.9490   46.3450   40.8050 C.3     6  C6          0.1812
    109  O5'       48.1780   45.7290   40.4410 O.3     6  C6         -0.3114
    110  C4'       46.7060   47.6500   40.0840 C.3     6  C6          0.1773
    111  O4'       47.8800   48.4890   40.1960 O.3     6  C6         -0.3307
    112  C3'       46.4580   47.5860   38.5830 C.3     6  C6          0.1860
    113  O3'       45.1300   47.2350   38.2370 O.3     6  C6         -0.3112
    114  C2'       46.8320   48.9880   38.1280 C.3     6  C6          0.2309
    115  O2'       45.8080   49.9180   38.4450 O.3     6  C6         -0.2156
    116  C1'       48.0130   49.2820   39.0370 C.3     6  C6          0.2420
    117  N1        49.3020   48.9820   38.4220 N.ar    6  C6         -0.2535
    118  C2        49.9610   50.0260   37.7870 C.ar    6  C6          0.3532
    119  O2        49.3990   51.1340   37.7770 O.2     6  C6         -0.2443
    120  N3        51.1680   49.7730   37.2180 N.ar    6  C6         -0.1739
    121  C4        51.6860   48.5420   37.2870 C.ar    6  C6          0.1759
    122  N4        52.8710   48.3240   36.7200 N.pl3   6  C6         -0.1070
    123  C5        51.0210   47.4650   37.9370 C.ar    6  C6          0.0566
    124  C6        49.8360   47.7290   38.4910 C.ar    6  C6          0.0850
    125  OP1       47.3440   43.7730   41.6050 O.3     6  C6         -0.4373
    126  OP2       49.6300   43.6270   40.4760 O.co2   6  C6         -0.5172
    127  P         44.9120   46.4180   36.8860 P.3     7  G7          0.2141
    128  C5'       44.5990   48.7010   35.6870 C.3     7  G7          0.1812
    129  O5'       45.3340   47.4880   35.7710 O.3     7  G7         -0.3114
    130  C4'       45.1100   49.6140   34.5990 C.3     7  G7          0.1773
    131  O4'       46.3840   50.1910   34.9830 O.3     7  G7         -0.3307
    132  C3'       45.4030   48.9740   33.2510 C.3     7  G7          0.1860
    133  O3'       44.2380   48.7130   32.4840 O.3     7  G7         -0.3112
    134  C2'       46.3290   50.0130   32.6350 C.3     7  G7          0.2309
    135  O2'       45.5970   51.1770   32.2820 O.3     7  G7         -0.2156
    136  C1'       47.1930   50.3630   33.8410 C.3     7  G7          0.2408
    137  N1        51.8590   49.2260   32.1490 N.ar    7  G7         -0.1709
    138  C2        51.0190   50.2550   31.7920 C.ar    7  G7          0.2606
    139  N2        51.4820   51.0960   30.8620 N.pl3   7  G7         -0.0859
    140  N3        49.8130   50.4560   32.3050 N.ar    7  G7         -0.1918
    141  C4        49.5130   49.5190   33.2340 C.ar    7  G7          0.1723
    142  C5        50.2790   48.4550   33.6640 C.ar    7  G7          0.1748
    143  C6        51.5630   48.2550   33.1020 C.ar    7  G7          0.3023
    144  O6        52.3880   47.3650   33.3570 O.2     7  G7         -0.2633
    145  N7        49.6010   47.7240   34.6300 N.ar    7  G7         -0.2173
    146  C8        48.4620   48.3480   34.7610 C.ar    7  G7          0.1817
    147  N9        48.3420   49.4490   33.9470 N.ar    7  G7         -0.2693
    148  OP1       43.4630   46.2050   36.6660 O.2     7  G7         -0.5172
    149  OP2       45.8490   45.2710   36.8840 O.co2   7  G7         -0.4373
    150  P         44.0510   47.3240   31.7030 P.3     8  C8          0.2141
    151  C5'       44.3690   48.9380   29.7330 C.3     8  C8          0.1812
    152  O5'       44.6670   47.6600   30.2670 O.3     8  C8         -0.3114
    153  C4'       45.2750   49.2850   28.5830 C.3     8  C8          0.1773
    154  O4'       46.5840   49.6660   29.0680 O.3     8  C8         -0.3307
    155  C3'       45.5470   48.1770   27.5790 C.3     8  C8          0.1860
    156  O3'       44.4980   48.0410   26.6400 O.3     8  C8         -0.3112
    157  C2'       46.8420   48.6490   26.9390 C.3     8  C8          0.2309
    158  O2'       46.5630   49.6700   25.9890 O.3     8  C8         -0.2156
    159  C1'       47.5630   49.2750   28.1340 C.3     8  C8          0.2420
    160  N1        48.4720   48.3760   28.8620 N.ar    8  C8         -0.2535
    161  C2        49.8260   48.3360   28.5260 C.ar    8  C8          0.3532
    162  O2        50.2340   49.0600   27.6080 O.2     8  C8         -0.2443
    163  N3        50.6440   47.5030   29.2210 N.ar    8  C8         -0.1739
    164  C4        50.1470   46.7520   30.2110 C.ar    8  C8          0.1759
    165  N4        50.9750   45.9430   30.8780 N.pl3   8  C8         -0.1070
    166  C5        48.7680   46.7900   30.5660 C.ar    8  C8          0.0566
    167  C6        47.9750   47.6100   29.8720 C.ar    8  C8          0.0850
    168  OP1       42.6060   47.1260   31.4560 O.2     8  C8         -0.5172
    169  OP2       44.8600   46.2540   32.3290 O.co2   8  C8         -0.4373
    170  P         44.2530   46.6680   25.8740 P.3     9  A9          0.2141
    171  C5'       43.5560   48.4220   24.1160 C.3     9  A9          0.1812
    172  O5'       44.1900   47.1800   24.3640 O.3     9  A9         -0.3114
    173  C4'       42.6420   48.3200   22.9250 C.3     9  A9          0.1773
    174  O4'       42.1850   46.9500   22.8180 O.3     9  A9         -0.3307
    175  C3'       41.3710   49.1460   23.0160 C.3     9  A9          0.1860
    176  O3'       41.5370   50.5050   22.6350 O.3     9  A9         -0.3112
    177  C2'       40.3770   48.3420   22.1840 C.3     9  A9          0.2309
    178  O2'       40.5770   48.5400   20.7940 O.3     9  A9         -0.2156
    179  C1'       40.8080   46.9190   22.5210 C.3     9  A9          0.2408
    180  N1        37.5300   43.4550   24.4860 N.ar    9  A9         -0.2040
    181  C2        37.9710   43.6580   23.2380 C.ar    9  A9          0.2016
    182  N3        38.8240   44.5810   22.7950 N.ar    9  A9         -0.2048
    183  C4        39.2470   45.3640   23.8010 C.ar    9  A9          0.1692
    184  C5        38.8860   45.2790   25.1330 C.ar    9  A9          0.1518
    185  C6        37.9730   44.2600   25.4780 C.ar    9  A9          0.1919
    186  N6        37.5330   44.0580   26.7260 N.pl3   9  A9         -0.1054
    187  N7        39.5260   46.2590   25.8780 N.ar    9  A9         -0.2193
    188  C8        40.2500   46.9050   24.9960 C.ar    9  A9          0.1816
    189  N9        40.1250   46.4180   23.7250 N.ar    9  A9         -0.2693
    190  OP1       42.9370   46.1450   26.3020 O.3     9  A9         -0.4373
    191  OP2       45.4590   45.8100   25.9110 O.co2   9  A9         -0.5172
    192  P         41.7560   51.0390   21.1370 P.3    10  A10         0.2141
    193  C5'       39.2510   51.2430   21.6650 C.3    10  A10         0.1812
    194  O5'       40.2440   51.2090   20.6460 O.3    10  A10        -0.3114
    195  C4'       38.3250   52.4330   21.6120 C.3    10  A10         0.1773
    196  O4'       37.8740   52.6210   22.9790 O.3    10  A10        -0.3307
    197  C3'       38.9270   53.7630   21.1520 C.3    10  A10         0.1860
    198  O3'       38.2630   54.3100   20.0160 O.3    10  A10        -0.3112
    199  C2'       38.7420   54.7260   22.3200 C.3    10  A10         0.2309
    200  O2'       37.7890   55.7320   22.0610 O.3    10  A10        -0.2156
    201  C1'       38.2550   53.8820   23.4840 C.3    10  A10         0.2408
    202  N1        41.6460   56.1520   26.6040 N.ar   10  A10        -0.2040
    203  C2        40.6080   56.6250   25.9120 C.ar   10  A10         0.2016
    204  N3        39.7640   55.9690   25.1180 N.ar   10  A10        -0.2048
    205  C4        40.0670   54.6630   25.0650 C.ar   10  A10         0.1692
    206  C5        41.0990   54.0270   25.7200 C.ar   10  A10         0.1518
    207  C6        41.9220   54.8330   26.5320 C.ar   10  A10         0.1919
    208  N6        42.9550   54.3480   27.2260 N.pl3  10  A10        -0.1054
    209  N7        41.1040   52.6710   25.4290 N.ar   10  A10        -0.2193
    210  C8        40.0860   52.5210   24.6160 C.ar   10  A10         0.1816
    211  N9        39.4000   53.6780   24.3720 N.ar   10  A10        -0.2693
    212  OP1       42.3250   49.9660   20.2920 O.2    10  A10        -0.5172
    213  OP2       42.3740   52.3840   21.1800 O.co2  10  A10        -0.4373
    214  P         39.1730   55.0800   18.9310 P.3    11  G11         0.2141
    215  C5'       38.3820   57.2540   20.0270 C.3    11  G11         0.1812
    216  O5'       39.5040   56.5180   19.5520 O.3    11  G11        -0.3114
    217  C4'       38.7300   58.4940   20.8160 C.3    11  G11         0.1773
    218  O4'       39.1410   58.1310   22.1640 O.3    11  G11        -0.3307
    219  C3'       39.8550   59.3310   20.2250 C.3    11  G11         0.1860
    220  O3'       39.3590   60.4910   19.5690 O.3    11  G11        -0.3112
    221  C2'       40.7670   59.6970   21.3960 C.3    11  G11         0.2309
    222  O2'       40.6580   61.0480   21.7980 O.3    11  G11        -0.2156
    223  C1'       40.3460   58.7740   22.5340 C.3    11  G11         0.2408
    224  N1        44.6250   57.2390   24.8550 N.ar   11  G11        -0.1709
    225  C2        43.8880   58.3810   25.0600 C.ar   11  G11         0.2606
    226  N2        44.3430   59.2290   25.9910 N.pl3  11  G11        -0.0859
    227  N3        42.7830   58.6820   24.4010 N.ar   11  G11        -0.1918
    228  C4        42.4670   57.7280   23.4990 C.ar   11  G11         0.1723
    229  C5        43.1350   56.5530   23.2230 C.ar   11  G11         0.1748
    230  C6        44.3160   56.2430   23.9350 C.ar   11  G11         0.3023
    231  O6        45.0460   55.2460   23.8230 O.2    11  G11        -0.2633
    232  N7        42.4870   55.8350   22.2290 N.ar   11  G11        -0.2173
    233  C8        41.4600   56.5830   21.9360 C.ar   11  G11         0.1817
    234  N9        41.3670   57.7340   22.6770 N.ar   11  G11        -0.2693
    235  OP1       38.3180   55.3820   17.7620 O.2    11  G11        -0.5172
    236  OP2       40.4430   54.3390   18.7670 O.co2  11  G11        -0.4373
    237  P         39.7080   60.4040   18.0130 P.3    12  A12         0.2141
    238  C5'       40.2490   62.9450   18.3520 C.3    12  A12         0.1812
    239  O5'       40.5930   61.7070   17.7510 O.3    12  A12        -0.3114
    240  C4'       41.4780   63.6230   18.8990 C.3    12  A12         0.1773
    241  O4'       41.8900   62.9520   20.1160 O.3    12  A12        -0.3307
    242  C3'       42.7120   63.5710   18.0110 C.3    12  A12         0.1860
    243  O3'       42.7160   64.5520   16.9830 O.3    12  A12        -0.3112
    244  C2'       43.8460   63.7260   19.0190 C.3    12  A12         0.2309
    245  O2'       43.9850   65.0830   19.4110 O.3    12  A12        -0.2156
    246  C1'       43.2980   62.9560   20.2170 C.3    12  A12         0.2408
    247  N1        46.0830   59.5280   22.8700 N.ar   12  A12        -0.2040
    248  C2        45.8130   60.8230   23.0750 C.ar   12  A12         0.2016
    249  N3        45.0780   61.6540   22.3380 N.ar   12  A12        -0.2048
    250  C4        44.5790   61.0220   21.2630 C.ar   12  A12         0.1692
    251  C5        44.7660   59.6970   20.9200 C.ar   12  A12         0.1518
    252  C6        45.5670   58.9200   21.7850 C.ar   12  A12         0.1919
    253  N6        45.8410   57.6260   21.5920 N.pl3  12  A12        -0.1054
    254  N7        44.0920   59.4030   19.7480 N.ar   12  A12        -0.2193
    255  C8        43.5220   60.5390   19.4140 C.ar   12  A12         0.1816
    256  N9        43.7810   61.5620   20.2810 N.ar   12  A12        -0.2693
    257  OP1       38.4820   60.6050   17.2060 O.2    12  A12        -0.5172
    258  OP2       40.5560   59.2040   17.8250 O.co2  12  A12        -0.4373
    259  P         41.9490   64.3770   15.5790 P.3    13  G13         0.2141
    260  C5'       44.3940   64.6060   14.8090 C.3    13  G13         0.1812
    261  O5'       43.1240   64.0370   14.5520 O.3    13  G13        -0.3114
    262  C4'       44.3570   66.1060   14.6700 C.3    13  G13         0.1773
    263  O4'       44.8720   66.6910   15.8890 O.3    13  G13        -0.3307
    264  C3'       45.2180   66.6950   13.5620 C.3    13  G13         0.1860
    265  O3'       44.6010   66.6860   12.2840 O.3    13  G13        -0.3112
    266  C2'       45.5690   68.0780   14.1020 C.3    13  G13         0.2309
    267  O2'       44.4820   68.9840   13.9860 O.3    13  G13        -0.2156
    268  C1'       45.7380   67.7580   15.5830 C.3    13  G13         0.2408
    269  N1        50.1210   68.9590   17.7330 N.ar   13  G13        -0.1709
    270  C2        48.9660   69.6950   17.6010 C.ar   13  G13         0.2606
    271  N2        48.9700   70.9310   18.1120 N.pl3  13  G13        -0.0859
    272  N3        47.8740   69.2590   17.0040 N.ar   13  G13        -0.1918
    273  C4        48.0480   68.0030   16.5470 C.ar   13  G13         0.1723
    274  C5        49.1460   67.1810   16.6190 C.ar   13  G13         0.1748
    275  C6        50.3070   67.6620   17.2570 C.ar   13  G13         0.3023
    276  O6        51.3880   67.0800   17.4220 O.2    13  G13        -0.2633
    277  N7        48.8910   65.9570   16.0130 N.ar   13  G13        -0.2173
    278  C8        47.6600   66.0660   15.5970 C.ar   13  G13         0.1817
    279  N9        47.0970   67.2870   15.8860 N.ar   13  G13        -0.2693
    280  OP1       41.4570   65.7080   15.1510 O.2    13  G13        -0.5172
    281  OP2       41.0370   63.2140   15.6190 O.co2  13  G13        -0.4373
    282  P         43.2600   67.4930   11.9500 P.3    14  A14         0.2141
    283  C5'       43.3040   69.5590   10.4060 C.3    14  A14         0.1812
    284  O5'       43.8030   68.9500   11.5860 O.3    14  A14        -0.3114
    285  C4'       44.2460   69.3400    9.2510 C.3    14  A14         0.1773
    286  O4'       43.4590   69.2000    8.0430 O.3    14  A14        -0.3307
    287  C3'       45.2250   70.4810    9.0040 C.3    14  A14         0.1860
    288  O3'       46.4770   69.9910    8.5320 O.3    14  A14        -0.3112
    289  C2'       44.5470   71.2920    7.9070 C.3    14  A14         0.2309
    290  O2'       45.4320   72.0000    7.0650 O.3    14  A14        -0.2156
    291  C1'       43.7560   70.2400    7.1340 C.3    14  A14         0.2408
    292  N1        40.0540   73.7670    7.7840 N.ar   14  A14        -0.2040
    293  C2        41.2070   73.5580    8.4310 C.ar   14  A14         0.2016
    294  N3        42.1250   72.6200    8.2100 N.ar   14  A14        -0.2048
    295  C4        41.7720   71.8220    7.1850 C.ar   14  A14         0.1692
    296  C5        40.6200   71.9150    6.4280 C.ar   14  A14         0.1518
    297  C6        39.7240   72.9510    6.7600 C.ar   14  A14         0.1919
    298  N6        38.5730   73.1570    6.1120 N.pl3  14  A14        -0.1054
    299  N7        40.5890   70.9250    5.4580 N.ar   14  A14        -0.2193
    300  C8        41.7050   70.2610    5.6430 C.ar   14  A14         0.1816
    301  N9        42.4680   70.7500    6.6650 N.ar   14  A14        -0.2693
    302  OP1       42.4640   67.7010   13.1810 O.3    14  A14        -0.4373
    303  OP2       42.6370   66.8960   10.7470 O.co2  14  A14        -0.5172
    304  P         47.7660   70.9100    8.7630 P.3    15  G15         0.2141
    305  C5'       46.6150   73.0700    9.7530 C.3    15  G15         0.1812
    306  O5'       47.3550   71.8720    9.9770 O.3    15  G15        -0.3114
    307  C4'       47.3860   74.2840   10.1930 C.3    15  G15         0.1773
    308  O4'       47.4890   74.2440   11.6420 O.3    15  G15        -0.3307
    309  C3'       48.8060   74.3460    9.6370 C.3    15  G15         0.1860
    310  O3'       49.1220   75.6060    9.0560 O.3    15  G15        -0.3112
    311  C2'       49.7190   74.0910   10.8320 C.3    15  G15         0.2309
    312  O2'       50.8460   74.9390   10.8830 O.3    15  G15        -0.2156
    313  C1'       48.8380   74.2990   12.0590 C.3    15  G15         0.2408
    314  N1        51.8360   72.6260   15.7640 N.ar   15  G15        -0.1709
    315  C2        51.8730   73.8120   15.0790 C.ar   15  G15         0.2606
    316  N2        52.8490   74.6640   15.4210 N.pl3  15  G15        -0.0859
    317  N3        51.0170   74.1340   14.1210 N.ar   15  G15        -0.1918
    318  C4        50.1060   73.1560   13.9090 C.ar   15  G15         0.1723
    319  C5        49.9800   71.9440   14.5380 C.ar   15  G15         0.1748
    320  C6        50.9030   71.6170   15.5530 C.ar   15  G15         0.3023
    321  O6        50.9630   70.5880   16.2260 O.2    15  G15        -0.2633
    322  N7        48.9070   71.2270   14.0260 N.ar   15  G15        -0.2173
    323  C8        48.4120   72.0100   13.1080 C.ar   15  G15         0.1817
    324  N9        49.0800   73.2070   13.0020 N.ar   15  G15        -0.2693
    325  OP1       47.9950   71.7290    7.5520 O.2    15  G15        -0.5172
    326  OP2       48.8530   70.0720    9.3150 O.co2  15  G15        -0.4373
    327  P         50.3680   75.5410    8.0500 P.3    16  G16         0.2141
    328  C5'       52.8540   76.0040    8.7210 C.3    16  G16         0.1812
    329  O5'       51.4910   76.4050    8.7890 O.3    16  G16        -0.3114
    330  C4'       53.7050   76.8520    9.6270 C.3    16  G16         0.1773
    331  O4'       53.2980   76.5860   10.9980 O.3    16  G16        -0.3307
    332  C3'       55.1990   76.5640    9.5370 C.3    16  G16         0.1860
    333  O3'       55.9570   77.7030    9.1460 O.3    16  G16        -0.3112
    334  C2'       55.6260   76.0870   10.9240 C.3    16  G16         0.2309
    335  O2'       56.7080   76.8020   11.4850 O.3    16  G16        -0.2156
    336  C1'       54.3940   76.2110   11.8110 C.3    16  G16         0.2408
    337  N1        55.9180   72.6470   15.0950 N.ar   16  G16        -0.1709
    338  C2        56.4610   73.8830   14.8370 C.ar   16  G16         0.2606
    339  N2        57.5550   74.2120   15.5380 N.pl3  16  G16        -0.0859
    340  N3        55.9660   74.7360   13.9500 N.ar   16  G16        -0.1918
    341  C4        54.8640   74.2420   13.3350 C.ar   16  G16         0.1723
    342  C5        54.2510   73.0240   13.5230 C.ar   16  G16         0.1748
    343  C6        54.7860   72.1260   14.4720 C.ar   16  G16         0.3023
    344  O6        54.3700   71.0000   14.7720 O.2    16  G16        -0.2633
    345  N7        53.1410   72.8930   12.6980 N.ar   16  G16        -0.2173
    346  C8        53.1100   74.0170   12.0360 C.ar   16  G16         0.1817
    347  N9        54.1090   74.8930   12.3840 N.ar   16  G16        -0.2693
    348  OP1       50.0520   76.3100    6.8250 O.2    16  G16        -0.5172
    349  OP2       50.8380   74.1390    7.9650 O.co2  16  G16        -0.4373
    350  P         57.0390   77.3160    8.0380 P.3    17  U17         0.2141
    351  C5'       58.7230   77.8110    9.9440 C.3    17  U17         0.1812
    352  O5'       58.3280   76.9380    8.8950 O.3    17  U17        -0.3114
    353  C4'       59.8830   77.2270   10.7010 C.3    17  U17         0.1773
    354  O4'       59.3840   76.4850   11.8530 O.3    17  U17        -0.3307
    355  C3'       60.7280   76.2580    9.8700 C.3    17  U17         0.1860
    356  O3'       62.0950   76.6410    9.7390 O.3    17  U17        -0.3112
    357  C2'       60.6550   74.9240   10.5970 C.3    17  U17         0.2309
    358  O2'       61.9150   74.3380   10.8140 O.3    17  U17        -0.2156
    359  C1'       60.0100   75.2220   11.9430 C.3    17  U17         0.2420
    360  N1        59.0600   74.1000   12.0270 N.ar   17  U17        -0.2534
    361  C2        59.4510   72.9530   12.6790 C.ar   17  U17         0.3546
    362  O2        60.5240   72.8490   13.2450 O.2    17  U17        -0.2443
    363  N3        58.5260   71.9390   12.6660 N.ar   17  U17        -0.1530
    364  C4        57.2830   71.9500   12.0580 C.ar   17  U17         0.2846
    365  O4        56.5460   70.9700   12.1230 O.2    17  U17        -0.2650
    366  C5        56.9680   73.1730   11.3730 C.ar   17  U17         0.0814
    367  C6        57.8560   74.1720   11.3720 C.ar   17  U17         0.0870
    368  OP1       57.4510   78.5150    7.2790 O.2    17  U17        -0.5172
    369  OP2       56.5600   76.0910    7.3580 O.co2  17  U17        -0.4373
    370  P         62.7380   76.1250    8.3610 P.3    18  G18         0.2141
    371  C5'       64.2990   74.2940    9.4320 C.3    18  G18         0.1812
    372  O5'       63.1560   74.6060    8.6460 O.3    18  G18        -0.3114
    373  C4'       64.3140   72.8420    9.8380 C.3    18  G18         0.1773
    374  O4'       63.0740   72.5330   10.5240 O.3    18  G18        -0.3307
    375  C3'       64.3640   71.8300    8.7030 C.3    18  G18         0.1860
    376  O3'       65.6780   71.5820    8.2290 O.3    18  G18        -0.3112
    377  C2'       63.7050   70.6000    9.3160 C.3    18  G18         0.2309
    378  O2'       64.6090   69.9220   10.1770 O.3    18  G18        -0.2156
    379  C1'       62.6240   71.2440   10.1820 C.3    18  G18         0.2408
    380  N1        58.1050   69.1050    9.1060 N.ar   18  G18        -0.1709
    381  C2        59.1390   68.6160    9.8700 C.ar   18  G18         0.2606
    382  N2        58.9500   67.4060   10.4170 N.pl3  18  G18        -0.0859
    383  N3        60.2780   69.2640   10.0800 N.ar   18  G18        -0.1918
    384  C4        60.3000   70.4660    9.4510 C.ar   18  G18         0.1723
    385  C5        59.3200   71.0390    8.6690 C.ar   18  G18         0.1748
    386  C6        58.1100   70.3350    8.4530 C.ar   18  G18         0.3023
    387  O6        57.1230   70.6820    7.7880 O.2    18  G18        -0.2633
    388  N7        59.7270   72.2840    8.2080 N.ar   18  G18        -0.2173
    389  C8        60.9220   72.4370    8.7080 C.ar   18  G18         0.1817
    390  N9        61.3360   71.3750    9.4730 N.ar   18  G18        -0.2693
    391  OP1       64.0190   76.8240    8.1150 O.3    18  G18        -0.4373
    392  OP2       61.6740   76.1220    7.3300 O.co2  18  G18        -0.5172
    393  P         66.4040   72.5010    7.1310 P.3    19  G19         0.2141
    394  C5'       67.5470   70.2940    6.2790 C.3    19  G19         0.1812
    395  O5'       67.5160   71.3490    7.2300 O.3    19  G19        -0.3114
    396  C4'       66.7480   69.1040    6.7430 C.3    19  G19         0.1773
    397  O4'       65.3900   69.4980    7.0460 O.3    19  G19        -0.3307
    398  C3'       66.6440   67.9570    5.7410 C.3    19  G19         0.1860
    399  O3'       67.6760   67.0160    5.9980 O.3    19  G19        -0.3112
    400  C2'       65.2390   67.3940    5.9140 C.3    19  G19         0.2309
    401  O2'       65.2830   66.2200    6.7110 O.3    19  G19        -0.2156
    402  C1'       64.4790   68.4840    6.6810 C.3    19  G19         0.2408
    403  N1        59.3930   68.6090    5.9370 N.ar   19  G19        -0.1709
    404  C2        60.1350   67.7520    6.7080 C.ar   19  G19         0.2606
    405  N2        59.4390   66.8180    7.3650 N.pl3  19  G19        -0.0859
    406  N3        61.4570   67.8030    6.8310 N.ar   19  G19        -0.1918
    407  C4        61.9990   68.8070    6.0960 C.ar   19  G19         0.1723
    408  C5        61.3430   69.7160    5.2950 C.ar   19  G19         0.1748
    409  C6        59.9320   69.6440    5.1830 C.ar   19  G19         0.3023
    410  O6        59.1790   70.3670    4.5200 O.2    19  G19        -0.2633
    411  N7        62.2470   70.5940    4.7070 N.ar   19  G19        -0.2173
    412  C8        63.4090   70.2090    5.1510 C.ar   19  G19         0.1817
    413  N9        63.3440   69.1180    5.9840 N.ar   19  G19        -0.2693
    414  OP1       66.6630   73.4920    8.2050 O.3    19  G19        -0.4373
    415  OP2       65.1610   72.2790    6.3450 O.co2  19  G19        -0.5172
    416  P         67.7730   65.5520    5.3620 P.3    20  A20         0.2141
    417  C5'       68.2940   63.2210    6.4120 C.3    20  A20         0.1812
    418  O5'       67.7020   64.5070    6.5790 O.3    20  A20        -0.3114
    419  C4'       67.3740   62.0830    6.8000 C.3    20  A20         0.1773
    420  O4'       66.0700   62.5990    7.1570 O.3    20  A20        -0.3307
    421  C3'       67.1260   61.0410    5.7120 C.3    20  A20         0.1860
    422  O3'       68.0250   59.9420    5.7610 O.3    20  A20        -0.3112
    423  C2'       65.6680   60.6130    5.8690 C.3    20  A20         0.2309
    424  O2'       65.5810   59.3580    6.5270 O.3    20  A20        -0.2156
    425  C1'       65.0540   61.7070    6.7470 C.3    20  A20         0.2408
    426  N1        60.0640   61.9390    5.3950 N.ar   20  A20        -0.2040
    427  C2        60.7760   60.9980    6.0270 C.ar   20  A20         0.2016
    428  N3        62.0700   60.9940    6.3500 N.ar   20  A20        -0.2048
    429  C4        62.6610   62.1270    5.9460 C.ar   20  A20         0.1692
    430  C5        62.0610   63.1810    5.2870 C.ar   20  A20         0.1518
    431  C6        60.6900   63.0680    5.0040 C.ar   20  A20         0.1919
    432  N6        59.9970   64.0200    4.3720 N.pl3  20  A20        -0.1054
    433  N7        62.9740   64.1840    5.0270 N.ar   20  A20        -0.2193
    434  C8        64.0940   63.7210    5.5280 C.ar   20  A20         0.1816
    435  N9        63.9810   62.4820    6.0900 N.ar   20  A20        -0.2693
    436  OP1       69.1520   65.3930    4.8530 O.3    20  A20        -0.4373
    437  OP2       66.6170   65.3640    4.4580 O.co2  20  A20        -0.5172
    438  P         68.7540   59.4080    7.0920 P.3    21  G21         0.2141
    439  C5'       67.1090   58.6980    9.0430 C.3    21  G21         0.1812
    440  O5'       67.8060   59.7280    8.3440 O.3    21  G21        -0.3114
    441  C4'       65.9290   59.2640    9.7920 C.3    21  G21         0.1773
    442  O4'       64.9240   59.5830    8.7930 O.3    21  G21        -0.3307
    443  C3'       65.2470   58.3190   10.7810 C.3    21  G21         0.1860
    444  O3'       65.4840   58.6020   12.1550 O.3    21  G21        -0.3112
    445  C2'       63.7530   58.4760   10.5250 C.3    21  G21         0.2309
    446  O2'       63.1080   59.3150   11.4550 O.3    21  G21        -0.2156
    447  C1'       63.6530   59.0610    9.1280 C.3    21  G21         0.2408
    448  N1        60.0920   55.7860    7.7380 N.ar   21  G21        -0.1709
    449  C2        59.9870   56.9290    8.4940 C.ar   21  G21         0.2606
    450  N2        58.7660   57.2300    8.9540 N.pl3  21  G21        -0.0859
    451  N3        61.0080   57.7230    8.7810 N.ar   21  G21        -0.1918
    452  C4        62.1610   57.2630    8.2340 C.ar   21  G21         0.1723
    453  C5        62.3700   56.1430    7.4670 C.ar   21  G21         0.1748
    454  C6        61.2710   55.3070    7.1680 C.ar   21  G21         0.3023
    455  O6        61.2680   54.2660    6.4970 O.2    21  G21        -0.2633
    456  N7        63.7070   56.0370    7.1050 N.ar   21  G21        -0.2173
    457  C8        64.2730   57.0760    7.6560 C.ar   21  G21         0.1817
    458  N9        63.3820   57.8840    8.3130 N.ar   21  G21        -0.2693
    459  OP1       69.9430   60.2590    7.3200 O.3    21  G21        -0.4373
    460  OP2       68.9090   57.9410    6.9650 O.co2  21  G21        -0.5172
    461  P         65.3840   57.2470   13.0040 P.3    22  G22         0.2141
    462  C5'       62.9400   57.7220   13.7680 C.3    22  G22         0.1812
    463  O5'       63.8210   56.8990   13.0180 O.3    22  G22        -0.3114
    464  C4'       61.4860   57.4270   13.4920 C.3    22  G22         0.1773
    465  O4'       61.2490   57.2800   12.0680 O.3    22  G22        -0.3307
    466  C3'       60.9450   56.1270   14.0590 C.3    22  G22         0.1860
    467  O3'       60.7110   56.1710   15.4530 O.3    22  G22        -0.3112
    468  C2'       59.6870   55.9230   13.2280 C.3    22  G22         0.2309
    469  O2'       58.6630   56.8190   13.6290 O.3    22  G22        -0.2156
    470  C1'       60.1830   56.3750   11.8600 C.3    22  G22         0.2408
    471  N1        58.7520   52.1550    9.4500 N.ar   22  G22        -0.1709
    472  C2        58.0030   53.0590   10.1570 C.ar   22  G22         0.2606
    473  N2        56.6910   52.8070   10.2380 N.pl3  22  G22        -0.0859
    474  N3        58.5030   54.1330   10.7450 N.ar   22  G22        -0.1918
    475  C4        59.8400   54.2280   10.5640 C.ar   22  G22         0.1723
    476  C5        60.6760   53.3830    9.8770 C.ar   22  G22         0.1748
    477  C6        60.1260   52.2390    9.2510 C.ar   22  G22         0.3023
    478  O6        60.7050   51.3650    8.5900 O.2    22  G22        -0.2633
    479  N7        61.9880   53.8420    9.9290 N.ar   22  G22        -0.2173
    480  C8        61.9180   54.9370   10.6360 C.ar   22  G22         0.1817
    481  N9        60.6430   55.2310   11.0530 N.ar   22  G22        -0.2693
    482  OP1       65.7170   57.5130   14.4200 O.3    22  G22        -0.4373
    483  OP2       66.0840   56.1840   12.2470 O.co2  22  G22        -0.5172
    484  P         61.0290   54.8280   16.2480 P.3    23  G23         0.2141
    485  C5'       58.4480   54.5740   16.3120 C.3    23  G23         0.1812
    486  O5'       59.6980   53.9780   16.0130 O.3    23  G23        -0.3114
    487  C4'       57.3210   53.6070   16.0680 C.3    23  G23         0.1773
    488  O4'       57.0770   53.5070   14.6450 O.3    23  G23        -0.3307
    489  C3'       57.5680   52.1650   16.4830 C.3    23  G23         0.1860
    490  O3'       57.4100   51.9260   17.8710 O.3    23  G23        -0.3112
    491  C2'       56.5580   51.4150   15.6290 C.3    23  G23         0.2309
    492  O2'       55.2470   51.5850   16.1460 O.3    23  G23        -0.2156
    493  C1'       56.6660   52.1960   14.3230 C.3    23  G23         0.2408
    494  N1        57.3890   48.6660   10.7920 N.ar   23  G23        -0.1709
    495  C2        56.2470   49.0120   11.4760 C.ar   23  G23         0.2606
    496  N2        55.1300   48.3260   11.1930 N.pl3  23  G23        -0.0859
    497  N3        56.1990   49.9700   12.3820 N.ar   23  G23        -0.1918
    498  C4        57.4030   50.5570   12.5490 C.ar   23  G23         0.1723
    499  C5        58.5940   50.2920   11.9220 C.ar   23  G23         0.1748
    500  C6        58.6380   49.2670   10.9540 C.ar   23  G23         0.3023
    501  O6        59.6140   48.8850   10.2900 O.2    23  G23        -0.2633
    502  N7        59.5940   51.1320   12.3890 N.ar   23  G23        -0.2173
    503  C8        58.9940   51.8770   13.2800 C.ar   23  G23         0.1817
    504  N9        57.6590   51.5810   13.4220 N.ar   23  G23        -0.2693
    505  OP1       61.0300   55.0980   17.7020 O.3    23  G23        -0.4373
    506  OP2       62.1790   54.1570   15.5960 O.co2  23  G23        -0.5172
    507  P         57.9460   50.5500   18.4820 P.3    24  A24         0.2141
    508  C5'       59.9640   51.8540   19.4550 C.3    24  A24         0.1812
    509  O5'       58.8220   51.0520   19.7180 O.3    24  A24        -0.3114
    510  C4'       61.1820   51.2810   20.1300 C.3    24  A24         0.1773
    511  O4'       60.8080   50.7940   21.4430 O.3    24  A24        -0.3307
    512  C3'       61.8090   50.0820   19.4400 C.3    24  A24         0.1860
    513  O3'       62.7440   50.4800   18.4540 O.3    24  A24        -0.3112
    514  C2'       62.4390   49.2960   20.5860 C.3    24  A24         0.2309
    515  O2'       63.7130   49.8270   20.9210 O.3    24  A24        -0.2156
    516  C1'       61.4910   49.5980   21.7440 C.3    24  A24         0.2408
    517  N1        60.3900   44.8440   23.5170 N.ar   24  A24        -0.2040
    518  C2        61.5390   45.5290   23.4540 C.ar   24  A24         0.2016
    519  N3        61.7720   46.7560   22.9820 N.ar   24  A24        -0.2048
    520  C4        60.6420   47.3110   22.5280 C.ar   24  A24         0.1692
    521  C5        59.3860   46.7360   22.5250 C.ar   24  A24         0.1518
    522  C6        59.2700   45.4350   23.0500 C.ar   24  A24         0.1919
    523  N6        58.1090   44.7730   23.0980 N.pl3  24  A24        -0.1054
    524  N7        58.4510   47.5980   21.9810 N.ar   24  A24        -0.2193
    525  C8        59.1520   48.6600   21.6700 C.ar   24  A24         0.1816
    526  N9        60.4800   48.5520   21.9650 N.ar   24  A24        -0.2693
    527  OP1       58.9620   49.9720   17.5800 O.2    24  A24        -0.5172
    528  OP2       56.7960   49.7240   18.9080 O.co2  24  A24        -0.4373
    529  P         63.0340   49.5770   17.1700 P.3    25  C25         0.2141
    530  C5'       64.9050   48.1610   18.3050 C.3    25  C25         0.1812
    531  O5'       63.5850   48.2110   17.7900 O.3    25  C25        -0.3114
    532  C4'       65.1910   46.8390   18.9710 C.3    25  C25         0.1773
    533  O4'       64.2280   46.5970   20.0250 O.3    25  C25        -0.3307
    534  C3'       65.0750   45.6030   18.0930 C.3    25  C25         0.1860
    535  O3'       66.2170   45.4040   17.2810 O.3    25  C25        -0.3112
    536  C2'       64.8460   44.4870   19.1070 C.3    25  C25         0.2309
    537  O2'       66.0650   44.0680   19.7070 O.3    25  C25        -0.2156
    538  C1'       64.0230   45.2090   20.1700 C.3    25  C25         0.2420
    539  N1        62.5900   44.9300   20.1240 N.ar   25  C25        -0.2535
    540  C2        62.1640   43.7000   20.6110 C.ar   25  C25         0.3532
    541  O2        63.0180   42.9160   21.0380 O.2    25  C25        -0.2443
    542  N3        60.8400   43.4130   20.5940 N.ar   25  C25        -0.1739
    543  C4        59.9770   44.3110   20.1190 C.ar   25  C25         0.1759
    544  N4        58.6800   43.9860   20.1230 N.pl3  25  C25        -0.1070
    545  C5        60.4030   45.5800   19.6200 C.ar   25  C25         0.0566
    546  C6        61.7120   45.8500   19.6400 C.ar   25  C25         0.0850
    547  OP1       64.1900   50.1520   16.4460 O.2    25  C25        -0.5172
    548  OP2       61.7650   49.3110   16.4590 O.co2  25  C25        -0.4373
    549  P         66.0750   44.8120   15.8040 P.3    26  U26         0.2141
    550  C5'       66.4760   42.2800   16.1370 C.3    26  U26         0.1812
    551  O5'       65.5280   43.3300   16.0540 O.3    26  U26        -0.3114
    552  C4'       65.8050   40.9370   16.0250 C.3    26  U26         0.1773
    553  O4'       64.8500   40.8000   17.1070 O.3    26  U26        -0.3307
    554  C3'       64.9870   40.6970   14.7620 C.3    26  U26         0.1860
    555  O3'       65.7760   40.2980   13.6450 O.3    26  U26        -0.3112
    556  C2'       63.9980   39.6310   15.2230 C.3    26  U26         0.2309
    557  O2'       64.6040   38.3460   15.2240 O.3    26  U26        -0.2156
    558  C1'       63.7430   40.0430   16.6720 C.3    26  U26         0.2420
    559  N1        62.5200   40.8540   16.8620 N.ar   26  U26        -0.2534
    560  C2        61.3180   40.1990   17.0180 C.ar   26  U26         0.3546
    561  O2        61.2190   38.9840   17.0030 O.2    26  U26        -0.2443
    562  N3        60.2310   41.0170   17.1910 N.ar   26  U26        -0.1530
    563  C4        60.2360   42.3980   17.2220 C.ar   26  U26         0.2846
    564  O4        59.1790   42.9970   17.3850 O.2    26  U26        -0.2650
    565  C5        61.5310   43.0090   17.0540 C.ar   26  U26         0.0814
    566  C6        62.6060   42.2300   16.8830 C.ar   26  U26         0.0870
    567  OP1       67.4470   44.6110   15.2850 O.3    26  U26        -0.4373
    568  OP2       65.0820   45.5960   15.0330 O.co2  26  U26        -0.5172
    569  P         65.5620   40.8490   12.1430 P.3    27  G27         0.2141
    570  C5'       64.4380   38.4640   12.0250 C.3    27  G27         0.1812
    571  O5'       64.2910   39.8730   12.1240 O.3    27  G27        -0.3114
    572  C4'       63.0920   37.8050   11.8670 C.3    27  G27         0.1773
    573  O4'       62.3040   38.0330   13.0640 O.3    27  G27        -0.3307
    574  C3'       62.2240   38.3630   10.7510 C.3    27  G27         0.1860
    575  O3'       62.5650   37.8650    9.4670 O.3    27  G27        -0.3112
    576  C2'       60.8190   38.0110   11.2250 C.3    27  G27         0.2309
    577  O2'       60.5430   36.6310   11.0370 O.3    27  G27        -0.2156
    578  C1'       60.9560   38.2780   12.7220 C.3    27  G27         0.2408
    579  N1        57.3650   41.6590   13.9950 N.ar   27  G27        -0.1709
    580  C2        57.2640   40.3000   13.7870 C.ar   27  G27         0.2606
    581  N2        56.0500   39.7560   13.9340 N.pl3  27  G27        -0.0859
    582  N3        58.2780   39.5130   13.4580 N.ar   27  G27        -0.1918
    583  C4        59.4260   40.2150   13.3530 C.ar   27  G27         0.1723
    584  C5        59.6340   41.5630   13.5410 C.ar   27  G27         0.1748
    585  C6        58.5470   42.3910   13.8890 C.ar   27  G27         0.3023
    586  O6        58.5580   43.6130   14.0920 O.2    27  G27        -0.2633
    587  N7        60.9640   41.8890   13.3410 N.ar   27  G27        -0.2173
    588  C8        61.5220   40.7490   13.0370 C.ar   27  G27         0.1817
    589  N9        60.6500   39.6870   13.0310 N.ar   27  G27        -0.2693
    590  OP1       66.7730   40.0550   11.8140 O.2    27  G27        -0.5172
    591  OP2       65.4400   42.1890   12.7710 O.co2  27  G27        -0.4373
    592  P         61.9620   38.5350    8.1420 P.3    28  G28         0.2141
    593  C5'       59.6930   39.8020    7.7810 C.3    28  G28         0.1812
    594  O5'       60.6220   39.2220    8.6810 O.3    28  G28        -0.3114
    595  C4'       58.2740   39.5490    8.2180 C.3    28  G28         0.1773
    596  O4'       58.1430   39.8130    9.6370 O.3    28  G28        -0.3307
    597  C3'       57.2360   40.4440    7.5670 C.3    28  G28         0.1860
    598  O3'       56.8340   39.9480    6.3030 O.3    28  G28        -0.3112
    599  C2'       56.1200   40.4710    8.6030 C.3    28  G28         0.2309
    600  O2'       55.3590   39.2770    8.5440 O.3    28  G28        -0.2156
    601  C1'       56.9130   40.4480    9.9090 C.3    28  G28         0.2408
    602  N1        55.1660   44.7510   12.1230 N.ar   28  G28        -0.1709
    603  C2        54.4680   43.6200   11.7790 C.ar   28  G28         0.2606
    604  N2        53.1590   43.6430   12.0570 N.pl3  28  G28        -0.0859
    605  N3        55.0110   42.5510   11.2070 N.ar   28  G28        -0.1918
    606  C4        56.3410   42.7140   11.0010 C.ar   28  G28         0.1723
    607  C5        57.1200   43.8090   11.3110 C.ar   28  G28         0.1748
    608  C6        56.5300   44.9350   11.9210 C.ar   28  G28         0.3023
    609  O6        57.0780   45.9900   12.2660 O.2    28  G28        -0.2633
    610  N7        58.4400   43.6010   10.9490 N.ar   28  G28        -0.2173
    611  C8        58.4380   42.4040   10.4360 C.ar   28  G28         0.1817
    612  N9        57.2030   41.8000   10.4280 N.ar   28  G28        -0.2693
    613  OP1       61.4940   37.4360    7.2640 O.2    28  G28        -0.5172
    614  OP2       62.8710   39.5910    7.6330 O.co2  28  G28        -0.4373
    615  P         56.8550   40.8780    5.0060 P.3    29  C29         0.2141
    616  C5'       54.3800   41.2710    5.5700 C.3    29  C29         0.1812
    617  O5'       55.6340   41.8670    5.2870 O.3    29  C29        -0.3114
    618  C4'       53.5170   42.1930    6.3880 C.3    29  C29         0.1773
    619  O4'       54.1260   42.4020    7.6860 O.3    29  C29        -0.3307
    620  C3'       53.3660   43.6010    5.8430 C.3    29  C29         0.1860
    621  O3'       52.4560   43.6930    4.7580 O.3    29  C29        -0.3112
    622  C2'       52.9670   44.3780    7.0950 C.3    29  C29         0.2309
    623  O2'       51.6320   44.0960    7.4840 O.3    29  C29        -0.2156
    624  C1'       53.8810   43.7230    8.1200 C.3    29  C29         0.2420
    625  N1        55.1670   44.4240    8.2350 N.ar   29  C29        -0.2535
    626  C2        55.2140   45.6310    8.9330 C.ar   29  C29         0.3532
    627  O2        54.1740   46.0810    9.4330 O.2    29  C29        -0.2443
    628  N3        56.4000   46.2700    9.0400 N.ar   29  C29        -0.1739
    629  C4        57.4890   45.7430    8.4840 C.ar   29  C29         0.1759
    630  N4        58.6350   46.4120    8.6180 N.pl3  29  C29        -0.1070
    631  C5        57.4590   44.5110    7.7690 C.ar   29  C29         0.0566
    632  C6        56.2830   43.8880    7.6700 C.ar   29  C29         0.0850
    633  OP1       56.4040   40.0640    3.8540 O.2    29  C29        -0.5172
    634  OP2       58.1160   41.6510    4.9490 O.co2  29  C29        -0.4373
    635  P         52.3600   45.0420    3.8980 P.3    30  C30         0.2141
    636  C5'       52.2820   47.5460    4.6650 C.3    30  C30         0.1812
    637  O5'       52.5570   46.1950    4.9850 O.3    30  C30        -0.3114
    638  C4'       52.0580   48.3340    5.9260 C.3    30  C30         0.1773
    639  O4'       52.9990   47.9040    6.9420 O.3    30  C30        -0.3307
    640  C3'       52.2920   49.8270    5.8150 C.3    30  C30         0.1860
    641  O3'       51.1860   50.5020    5.2480 O.3    30  C30        -0.3112
    642  C2'       52.6030   50.2210    7.2570 C.3    30  C30         0.2309
    643  O2'       51.4180   50.2960    8.0350 O.3    30  C30        -0.2156
    644  C1'       53.3990   49.0050    7.7300 C.3    30  C30         0.2420
    645  N1        54.8580   49.1330    7.5540 N.ar   30  C30        -0.2535
    646  C2        55.5310   50.2490    8.0420 C.ar   30  C30         0.3532
    647  O2        54.8950   51.1310    8.6230 O.2    30  C30        -0.2443
    648  N3        56.8690   50.3390    7.8630 N.ar   30  C30        -0.1739
    649  C4        57.5240   49.3690    7.2270 C.ar   30  C30         0.1759
    650  N4        58.8450   49.5040    7.0730 N.pl3  30  C30        -0.1070
    651  C5        56.8550   48.2180    6.7240 C.ar   30  C30         0.0566
    652  C6        55.5340   48.1430    6.9090 C.ar   30  C30         0.0850
    653  OP1       50.9530   45.1950    3.4630 O.3    30  C30        -0.4373
    654  OP2       53.4980   45.1220    2.9510 O.co2  30  C30        -0.5172
    655  P         51.4770   51.7600    4.3130 P.3    31  C31         0.2141
    656  C5'       51.2810   53.1840    6.4940 C.3    31  C31         0.1812
    657  O5'       52.0220   52.8610    5.3320 O.3    31  C31        -0.3114
    658  C4'       51.9660   54.2970    7.2280 C.3    31  C31         0.1773
    659  O4'       53.1540   53.7870    7.8760 O.3    31  C31        -0.3307
    660  C3'       52.5100   55.3980    6.3420 C.3    31  C31         0.1860
    661  O3'       51.5190   56.3050    5.9050 O.3    31  C31        -0.3112
    662  C2'       53.5830   56.0310    7.2160 C.3    31  C31         0.2309
    663  O2'       53.0070   56.9150    8.1650 O.3    31  C31        -0.2156
    664  C1'       54.1220   54.8100    7.9560 C.3    31  C31         0.2420
    665  N1        55.3900   54.3230    7.4170 N.ar   31  C31        -0.2535
    666  C2        56.5570   55.0280    7.7170 C.ar   31  C31         0.3532
    667  O2        56.4830   56.0410    8.4280 O.2    31  C31        -0.2443
    668  N3        57.7320   54.5760    7.2140 N.ar   31  C31        -0.1739
    669  C4        57.7530   53.4790    6.4520 C.ar   31  C31         0.1759
    670  N4        58.9330   53.0690    5.9810 N.pl3  31  C31        -0.1070
    671  C5        56.5670   52.7520    6.1420 C.ar   31  C31         0.0566
    672  C6        55.4130   53.2060    6.6410 C.ar   31  C31         0.0850
    673  OP1       50.1870   52.3150    3.8380 O.3    31  C31        -0.4373
    674  OP2       52.6060   51.4190    3.4190 O.co2  31  C31        -0.5172
    675  P         51.7870   56.9750    4.4920 P.3    32  G32         0.2141
    676  C5'       53.2310   58.9510    5.3680 C.3    32  G32         0.1812
    677  O5'       53.2010   57.6860    4.7300 O.3    32  G32        -0.3114
    678  C4'       54.6290   59.5130    5.4180 C.3    32  G32         0.1773
    679  O4'       55.5100   58.5780    6.0890 O.3    32  G32        -0.3307
    680  C3'       55.3170   59.7280    4.0820 C.3    32  G32         0.1860
    681  O3'       54.8820   60.8880    3.3980 O.3    32  G32        -0.3112
    682  C2'       56.7890   59.7520    4.4760 C.3    32  G32         0.2309
    683  O2'       57.1420   60.9870    5.0840 O.3    32  G32        -0.2156
    684  C1'       56.8090   58.6590    5.5410 C.3    32  G32         0.2408
    685  N1        60.5210   55.5820    3.8800 N.ar   32  G32        -0.1709
    686  C2        60.6150   56.8450    4.4230 C.ar   32  G32         0.2606
    687  N2        61.8510   57.3560    4.5400 N.pl3  32  G32        -0.0859
    688  N3        59.5670   57.5570    4.8240 N.ar   32  G32        -0.1918
    689  C4        58.3990   56.8910    4.6360 C.ar   32  G32         0.1723
    690  C5        58.2030   55.6370    4.1050 C.ar   32  G32         0.1748
    691  C6        59.3270   54.8860    3.6770 C.ar   32  G32         0.3023
    692  O6        59.3440   53.7480    3.1760 O.2    32  G32        -0.2633
    693  N7        56.8470   55.3250    4.0830 N.ar   32  G32        -0.2173
    694  C8        56.2580   56.3710    4.5910 C.ar   32  G32         0.1817
    695  N9        57.1420   57.3540    4.9500 N.ar   32  G32        -0.2693
    696  OP1       50.8390   58.0930    4.2860 O.3    32  G32        -0.4373
    697  OP2       51.9340   55.8910    3.4940 O.co2  32  G32        -0.5172
    698  P         54.6100   60.7280    1.8370 P.3    33  A33         0.2141
    699  C5'       56.5000   62.5580    1.5850 C.3    33  A33         0.1812
    700  O5'       55.2210   62.0670    1.2000 O.3    33  A33        -0.3114
    701  C4'       57.0080   63.6640    0.6840 C.3    33  A33         0.1773
    702  O4'       58.1440   64.3020    1.3170 O.3    33  A33        -0.3307
    703  C3'       57.4980   63.2370   -0.6980 C.3    33  A33         0.1860
    704  O3'       56.4740   63.2660   -1.6830 O.3    33  A33        -0.3112
    705  C2'       58.6860   64.1490   -1.0120 C.3    33  A33         0.2309
    706  O2'       58.3150   65.2570   -1.8210 O.3    33  A33        -0.2156
    707  C1'       59.1220   64.6570    0.3630 C.3    33  A33         0.2408
    708  N1        61.7080   60.6870    2.4160 N.ar   33  A33        -0.2040
    709  C2        60.4160   60.8580    2.1100 C.ar   33  A33         0.2016
    710  N3        59.8030   61.9120    1.5770 N.ar   33  A33        -0.2048
    711  C4        60.6840   62.8930    1.3480 C.ar   33  A33         0.1692
    712  C5        62.0430   62.8720    1.6070 C.ar   33  A33         0.1518
    713  C6        62.5690   61.6930    2.1760 C.ar   33  A33         0.1919
    714  N6        63.8580   61.5210    2.4850 N.pl3  33  A33        -0.1054
    715  N7        62.6280   64.0710    1.2370 N.ar   33  A33        -0.2193
    716  C8        61.6270   64.7780    0.7700 C.ar   33  A33         0.1816
    717  N9        60.4260   64.1260    0.8020 N.ar   33  A33        -0.2693
    718  OP1       53.1570   60.8300    1.5780 O.3    33  A33        -0.4373
    719  OP2       55.3490   59.5290    1.3800 O.co2  33  A33        -0.5172
    720  P         55.6730   64.5990   -2.0970 P.3    34  C34         0.2141
    721  C5'       53.8990   64.2580   -0.2210 C.3    34  C34         0.1812
    722  O5'       54.1680   64.3510   -1.6150 O.3    34  C34        -0.3114
    723  C4'       52.6070   64.9350    0.1580 C.3    34  C34         0.1773
    724  O4'       51.6890   64.8610   -0.9640 O.3    34  C34        -0.3307
    725  C3'       51.8910   64.3070    1.3480 C.3    34  C34         0.1860
    726  O3'       51.2670   65.3290    2.1240 O.3    34  C34        -0.3112
    727  C2'       50.8410   63.4110    0.6930 C.3    34  C34         0.2309
    728  O2'       49.6760   63.1990    1.4640 O.3    34  C34        -0.2156
    729  C1'       50.5230   64.1510   -0.6020 C.3    34  C34         0.2420
    730  N1        50.2750   63.2010   -1.7150 N.ar   34  C34        -0.2535
    731  C2        48.9830   62.7450   -1.9970 C.ar   34  C34         0.3532
    732  O2        48.0320   63.1390   -1.3130 O.2    34  C34        -0.2443
    733  N3        48.8060   61.8780   -3.0210 N.ar   34  C34        -0.1739
    734  C4        49.8510   61.4690   -3.7410 C.ar   34  C34         0.1759
    735  N4        49.6220   60.6140   -4.7420 N.pl3  34  C34        -0.1070
    736  C5        51.1750   61.9190   -3.4700 C.ar   34  C34         0.0566
    737  C6        51.3370   62.7750   -2.4580 C.ar   34  C34         0.0850
    738  OP1       55.6870   64.7070   -3.5720 O.2    34  C34        -0.5172
    739  OP2       56.1080   65.7320   -1.2500 O.co2  34  C34        -0.4373
    740  P         52.0560   66.0690    3.3060 P.3    35  G35         0.2141
    741  C5'       53.7700   64.3140    4.1660 C.3    35  G35         0.1812
    742  O5'       53.5330   65.4540    3.3480 O.3    35  G35        -0.3114
    743  C4'       55.1310   64.3340    4.8240 C.3    35  G35         0.1773
    744  O4'       56.1410   64.6860    3.8430 O.3    35  G35        -0.3307
    745  C3'       55.3060   65.3120    5.9860 C.3    35  G35         0.1860
    746  O3'       56.1650   64.7320    6.9610 O.3    35  G35        -0.3112
    747  C2'       56.0480   66.4840    5.3590 C.3    35  G35         0.2309
    748  O2'       56.8520   67.2270    6.2530 O.3    35  G35        -0.2156
    749  C1'       56.9040   65.7800    4.3150 C.3    35  G35         0.2408
    750  N1        60.5630   68.1970    1.7420 N.ar   35  G35        -0.1709
    751  C2        60.6740   67.3570    2.8230 C.ar   35  G35         0.2606
    752  N2        61.9140   67.1400    3.2780 N.pl3  35  G35        -0.0859
    753  N3        59.6440   66.7750    3.4190 N.ar   35  G35        -0.1918
    754  C4        58.4710   67.1060    2.8280 C.ar   35  G35         0.1723
    755  C5        58.2550   67.9280    1.7510 C.ar   35  G35         0.1748
    756  C6        59.3620   68.5440    1.1270 C.ar   35  G35         0.3023
    757  O6        59.3560   69.3070    0.1490 O.2    35  G35        -0.2633
    758  N7        56.9020   68.0110    1.4540 N.ar   35  G35        -0.2173
    759  C8        56.3290   67.2510    2.3400 C.ar   35  G35         0.1817
    760  N9        57.2240   66.6650    3.1970 N.ar   35  G35        -0.2693
    761  OP1       51.4500   65.6180    4.5770 O.3    35  G35        -0.4373
    762  OP2       52.1570   67.5100    2.9890 O.co2  35  G35        -0.5172
    763  P         55.6060   64.3460    8.4000 P.3    36  A36         0.2141
    764  C5'       56.3920   61.8430    8.5020 C.3    36  A36         0.1812
    765  O5'       56.6340   63.2030    8.8380 O.3    36  A36        -0.3114
    766  C4'       57.3340   60.9380    9.2500 C.3    36  A36         0.1773
    767  O4'       58.6180   60.9830    8.5700 O.3    36  A36        -0.3307
    768  C3'       57.5770   61.3660   10.6980 C.3    36  A36         0.1860
    769  O3'       57.2630   60.3770   11.6700 O.3    36  A36        -0.3112
    770  C2'       59.0630   61.6770   10.7970 C.3    36  A36         0.2309
    771  O2'       59.7170   61.0130   11.8550 O.3    36  A36        -0.2156
    772  C1'       59.6730   61.2620    9.4670 C.3    36  A36         0.2408
    773  N1        64.0210   63.8560   10.0050 N.ar   36  A36        -0.2040
    774  C2        63.5830   62.7040   10.5240 C.ar   36  A36         0.2016
    775  N3        62.4230   62.0840   10.3210 N.ar   36  A36        -0.2048
    776  C4        61.6570   62.7820    9.4700 C.ar   36  A36         0.1692
    777  C5        61.9610   63.9780    8.8550 C.ar   36  A36         0.1518
    778  C6        63.2230   64.5310    9.1540 C.ar   36  A36         0.1919
    779  N6        63.6660   65.6800    8.6400 N.pl3  36  A36        -0.1054
    780  N7        60.9130   64.3870    8.0420 N.ar   36  A36        -0.2193
    781  C8        60.0090   63.4430    8.1830 C.ar   36  A36         0.1816
    782  N9        60.4170   62.4280    9.0030 N.ar   36  A36        -0.2693
    783  OP1       54.3170   63.6340    8.2360 O.2    36  A36        -0.5172
    784  OP2       55.7280   65.5150    9.3020 O.co2  36  A36        -0.4373
    785  P         56.9040   61.0240   13.0960 P.3    37  A37         0.2141
    786  C5'       59.0080   59.9860   14.2790 C.3    37  A37         0.1812
    787  O5'       58.3020   61.1500   13.8720 O.3    37  A37        -0.3114
    788  C4'       60.3330   60.3330   14.9110 C.3    37  A37         0.1773
    789  O4'       61.2790   60.7560   13.8970 O.3    37  A37        -0.3307
    790  C3'       60.3150   61.4760   15.9150 C.3    37  A37         0.1860
    791  O3'       59.8790   61.0630   17.2010 O.3    37  A37        -0.3112
    792  C2'       61.7570   61.9710   15.8820 C.3    37  A37         0.2309
    793  O2'       62.5950   61.1540   16.6900 O.3    37  A37        -0.2156
    794  C1'       62.1240   61.7620   14.4110 C.3    37  A37         0.2408
    795  N1        64.0890   66.2330   12.7030 N.ar   37  A37        -0.2040
    796  C2        64.5990   65.2660   13.4800 C.ar   37  A37         0.2016
    797  N3        64.0370   64.1270   13.8870 N.ar   37  A37        -0.2048
    798  C4        62.7900   64.0160   13.4090 C.ar   37  A37         0.1692
    799  C5        62.1260   64.9240   12.6010 C.ar   37  A37         0.1518
    800  C6        62.8290   66.0940   12.2350 C.ar   37  A37         0.1919
    801  N6        62.3130   67.0560   11.4580 N.pl3  37  A37        -0.1054
    802  N7        60.8510   64.4700   12.3040 N.ar   37  A37        -0.2193
    803  C8        60.7750   63.3220   12.9340 C.ar   37  A37         0.1816
    804  N9        61.9080   62.9840   13.6160 N.ar   37  A37        -0.2693
    805  OP1       56.1290   60.0260   13.8690 O.3    37  A37        -0.4373
    806  OP2       56.3740   62.3890   12.8630 O.co2  37  A37        -0.5172
    807  P         59.3580   62.1010   18.3030 P.3    38  A38         0.2141
    808  C5'       61.5720   63.4050   18.7810 C.3    38  A38         0.1812
    809  O5'       60.2930   63.3920   18.1640 O.3    38  A38        -0.3114
    810  C4'       62.2710   64.7140   18.5320 C.3    38  A38         0.1773
    811  O4'       62.4100   64.9170   17.1030 O.3    38  A38        -0.3307
    812  C3'       61.5360   65.9520   19.0230 C.3    38  A38         0.1860
    813  O3'       61.7640   66.2050   20.4010 O.3    38  A38        -0.3112
    814  C2'       62.0710   67.0440   18.1040 C.3    38  A38         0.2309
    815  O2'       63.3380   67.5060   18.5490 O.3    38  A38        -0.2156
    816  C1'       62.2650   66.2850   16.7890 C.3    38  A38         0.2408
    817  N1        59.8010   69.3500   13.4230 N.ar   38  A38        -0.2040
    818  C2        60.9250   69.5150   14.1280 C.ar   38  A38         0.2016
    819  N3        61.5110   68.6790   14.9840 N.ar   38  A38        -0.2048
    820  C4        60.8150   67.5390   15.0950 C.ar   38  A38         0.1692
    821  C5        59.6430   67.2240   14.4370 C.ar   38  A38         0.1518
    822  C6        59.1210   68.1930   13.5550 C.ar   38  A38         0.1919
    823  N6        57.9940   68.0210   12.8530 N.pl3  38  A38        -0.1054
    824  N7        59.2100   65.9600   14.7960 N.ar   38  A38        -0.2193
    825  C8        60.1130   65.5430   15.6530 C.ar   38  A38         0.1816
    826  N9        61.1120   66.4460   15.8810 N.ar   38  A38        -0.2693
    827  OP1       59.7270   61.5280   19.6140 O.3    38  A38        -0.4373
    828  OP2       57.9570   62.4850   18.0190 O.co2  38  A38        -0.5172
    829  P         60.5970   66.6130   21.4240 P.3    39  C39         0.2141
    830  C5'       61.5710   69.0080   21.8470 C.3    39  C39         0.1812
    831  O5'       60.5270   68.2080   21.3110 O.3    39  C39        -0.3114
    832  C4'       61.4880   70.4290   21.3480 C.3    39  C39         0.1773
    833  O4'       61.7850   70.4680   19.9280 O.3    39  C39        -0.3307
    834  C3'       60.1210   71.0890   21.4480 C.3    39  C39         0.1860
    835  O3'       59.8190   71.5820   22.7400 O.3    39  C39        -0.3112
    836  C2'       60.2040   72.1760   20.3850 C.3    39  C39         0.2309
    837  O2'       60.9690   73.2790   20.8460 O.3    39  C39        -0.2156
    838  C1'       60.9970   71.4550   19.2970 C.3    39  C39         0.2420
    839  N1        60.0840   70.7920   18.3430 N.ar   39  C39        -0.2535
    840  C2        59.5980   71.5180   17.2530 C.ar   39  C39         0.3532
    841  O2        59.9540   72.6950   17.1080 O.2    39  C39        -0.2443
    842  N3        58.7540   70.9080   16.3850 N.ar   39  C39        -0.1739
    843  C4        58.3980   69.6380   16.5820 C.ar   39  C39         0.1759
    844  N4        57.5620   69.0840   15.7000 N.pl3  39  C39        -0.1070
    845  C5        58.8800   68.8820   17.6920 C.ar   39  C39         0.0566
    846  C6        59.7120   69.4950   18.5410 C.ar   39  C39         0.0850
    847  OP1       61.1130   66.3710   22.7880 O.3    39  C39        -0.4373
    848  OP2       59.3010   66.0230   21.0170 O.co2  39  C39        -0.5172
    849  P         58.2910   71.6140   23.2090 P.3    40  C40         0.2141
    850  C5'       58.0800   74.0570   22.3610 C.3    40  C40         0.1812
    851  O5'       57.6220   72.7170   22.2640 O.3    40  C40        -0.3114
    852  C4'       57.2830   74.9890   21.4830 C.3    40  C40         0.1773
    853  O4'       57.5120   74.6690   20.0860 O.3    40  C40        -0.3307
    854  C3'       55.7710   74.9230   21.6350 C.3    40  C40         0.1860
    855  O3'       55.2830   75.6430   22.7530 O.3    40  C40        -0.3112
    856  C2'       55.3020   75.4910   20.3060 C.3    40  C40         0.2309
    857  O2'       55.4800   76.8980   20.2740 O.3    40  C40        -0.2156
    858  C1'       56.3180   74.8590   19.3580 C.3    40  C40         0.2420
    859  N1        55.8620   73.5280   18.8750 N.ar   40  C40        -0.2535
    860  C2        54.6560   73.4140   18.1690 C.ar   40  C40         0.3532
    861  O2        53.9770   74.4250   17.9480 O.2    40  C40        -0.2443
    862  N3        54.2570   72.1920   17.7390 N.ar   40  C40        -0.1739
    863  C4        55.0070   71.1200   17.9910 C.ar   40  C40         0.1759
    864  N4        54.5690   69.9380   17.5450 N.pl3  40  C40        -0.1070
    865  C5        56.2370   71.2150   18.7100 C.ar   40  C40         0.0566
    866  C6        56.6230   72.4250   19.1300 C.ar   40  C40         0.0850
    867  OP1       58.2410   72.2230   24.5570 O.3    40  C40        -0.4373
    868  OP2       57.6670   70.2930   22.9690 O.co2  40  C40        -0.5172
    869  P         54.1280   75.0060   23.6570 P.3    41  C41         0.2141
    870  C5'       52.4990   76.7160   22.4940 C.3    41  C41         0.1812
    871  O5'       52.7690   75.3840   22.9020 O.3    41  C41        -0.3114
    872  C4'       51.5240   76.7470   21.3450 C.3    41  C41         0.1773
    873  O4'       52.1320   76.1330   20.1790 O.3    41  C41        -0.3307
    874  C3'       50.2320   75.9670   21.5410 C.3    41  C41         0.1860
    875  O3'       49.2480   76.6790   22.2680 O.3    41  C41        -0.3112
    876  C2'       49.8110   75.6700   20.1100 C.3    41  C41         0.2309
    877  O2'       49.2490   76.8280   19.5120 O.3    41  C41        -0.2156
    878  C1'       51.1670   75.3940   19.4630 C.3    41  C41         0.2420
    879  N1        51.5350   73.9650   19.5850 N.ar   41  C41        -0.2535
    880  C2        50.9620   73.0350   18.7200 C.ar   41  C41         0.3532
    881  O2        50.1650   73.4380   17.8660 O.2    41  C41        -0.2443
    882  N3        51.3010   71.7270   18.8460 N.ar   41  C41        -0.1739
    883  C4        52.1650   71.3450   19.7890 C.ar   41  C41         0.1759
    884  N4        52.4700   70.0440   19.8790 N.pl3  41  C41        -0.1070
    885  C5        52.7590   72.2820   20.6850 C.ar   41  C41         0.0566
    886  C6        52.4170   73.5680   20.5470 C.ar   41  C41         0.0850
    887  OP1       54.0630   75.7530   24.9340 O.3    41  C41        -0.4373
    888  OP2       54.2870   73.5350   23.6520 O.co2  41  C41        -0.5172
    889  P         48.2310   75.8910   23.2170 P.3    42  G42         0.2141
    890  C5'       46.3600   75.4780   21.4060 C.3    42  G42         0.1812
    891  O5'       47.3950   74.9540   22.2240 O.3    42  G42        -0.3114
    892  C4'       45.7540   74.3900   20.5560 C.3    42  G42         0.1773
    893  O4'       46.8070   73.7310   19.8080 O.3    42  G42        -0.3307
    894  C3'       45.0730   73.2630   21.3170 C.3    42  G42         0.1860
    895  O3'       43.7330   73.5600   21.6590 O.3    42  G42        -0.3112
    896  C2'       45.1950   72.0750   20.3720 C.3    42  G42         0.2309
    897  O2'       44.1860   72.1070   19.3730 O.3    42  G42        -0.2156
    898  C1'       46.5420   72.3490   19.7070 C.3    42  G42         0.2408
    899  N1        48.4710   67.7980   20.9950 N.ar   42  G42        -0.1709
    900  C2        47.3050   68.0900   20.3290 C.ar   42  G42         0.2606
    901  N2        46.5630   67.0380   19.9610 N.pl3  42  G42        -0.0859
    902  N3        46.8950   69.3210   20.0460 N.ar   42  G42        -0.1918
    903  C4        47.7680   70.2530   20.4950 C.ar   42  G42         0.1723
    904  C5        48.9550   70.0620   21.1660 C.ar   42  G42         0.1748
    905  C6        49.3770   68.7460   21.4610 C.ar   42  G42         0.3023
    906  O6        50.4030   68.3870   22.0520 O.2    42  G42        -0.2633
    907  N7        49.5630   71.2770   21.4520 N.ar   42  G42        -0.2173
    908  C8        48.7480   72.1660   20.9580 C.ar   42  G42         0.1817
    909  N9        47.6400   71.6170   20.3620 N.ar   42  G42        -0.2693
    910  OP1       47.2290   76.8480   23.7380 O.2    42  G42        -0.5172
    911  OP2       49.0240   75.0510   24.1430 O.co2  42  G42        -0.4373
    912  P         43.1600   73.0580   23.0610 P.3    43  G43         0.2141
    913  C5'       42.0300   71.0770   21.7030 C.3    43  G43         0.1812
    914  O5'       42.7630   71.5220   22.8360 O.3    43  G43        -0.3114
    915  C4'       42.2790   69.6130   21.4320 C.3    43  G43         0.1773
    916  O4'       43.6870   69.4000   21.1450 O.3    43  G43        -0.3307
    917  C3'       41.9880   68.6630   22.5850 C.3    43  G43         0.1860
    918  O3'       40.6190   68.3200   22.7030 O.3    43  G43        -0.3112
    919  C2'       42.8820   67.4670   22.2830 C.3    43  G43         0.2309
    920  O2'       42.2730   66.6020   21.3350 O.3    43  G43        -0.2156
    921  C1'       44.0920   68.1340   21.6280 C.3    43  G43         0.2408
    922  N1        47.6940   65.7960   24.4190 N.ar   43  G43        -0.1709
    923  C2        46.7310   65.2510   23.6010 C.ar   43  G43         0.2606
    924  N2        46.7120   63.9150   23.5070 N.pl3  43  G43        -0.0859
    925  N3        45.8410   65.9600   22.9170 N.ar   43  G43        -0.1918
    926  C4        45.9920   67.2910   23.1240 C.ar   43  G43         0.1723
    927  C5        46.9210   67.9270   23.9180 C.ar   43  G43         0.1748
    928  C6        47.8630   67.1610   24.6360 C.ar   43  G43         0.3023
    929  O6        48.7590   67.5680   25.3830 O.2    43  G43        -0.2633
    930  N7        46.7560   69.3010   23.8660 N.ar   43  G43        -0.2173
    931  C8        45.7460   69.4670   23.0560 C.ar   43  G43         0.1817
    932  N9        45.2270   68.2930   22.5640 N.ar   43  G43        -0.2693
    933  OP1       41.9450   73.8440   23.3770 O.2    43  G43        -0.5172
    934  OP2       44.2970   72.9890   24.0080 O.co2  43  G43        -0.4373
    935  P         40.0910   67.7130   24.0880 P.3    44  C44         0.2141
    936  C5'       40.2950   65.2960   23.0910 C.3    44  C44         0.1812
    937  O5'       40.6370   66.2110   24.1190 O.3    44  C44        -0.3114
    938  C4'       41.0340   63.9970   23.2670 C.3    44  C44         0.1773
    939  O4'       42.4640   64.2410   23.2330 O.3    44  C44        -0.3307
    940  C3'       40.8100   63.3050   24.5990 C.3    44  C44         0.1860
    941  O3'       39.6210   62.5390   24.6210 O.3    44  C44        -0.3112
    942  C2'       42.0690   62.4660   24.7460 C.3    44  C44         0.2309
    943  O2'       41.9900   61.3180   23.9190 O.3    44  C44        -0.2156
    944  C1'       43.1230   63.3910   24.1460 C.3    44  C44         0.2420
    945  N1        43.8820   64.2410   25.1220 N.ar   44  C44        -0.2535
    946  C2        44.6700   63.6640   26.1280 C.ar   44  C44         0.3532
    947  O2        44.7350   62.4370   26.2350 O.2    44  C44        -0.2443
    948  N3        45.3500   64.4710   26.9740 N.ar   44  C44        -0.1739
    949  C4        45.2700   65.7940   26.8470 C.ar   44  C44         0.1759
    950  N4        45.9570   66.5450   27.7110 N.pl3  44  C44        -0.1070
    951  C5        44.4810   66.4060   25.8320 C.ar   44  C44         0.0566
    952  C6        43.8130   65.5990   25.0030 C.ar   44  C44         0.0850
    953  OP1       38.6210   67.5550   24.0090 O.2    44  C44        -0.5172
    954  OP2       40.7240   68.4560   25.2010 O.co2  44  C44        -0.4373
    955  P         38.5990   62.7180   25.8330 P.3    45  A45         0.2141
    956  C5'       39.6900   60.5790   26.8500 C.3    45  A45         0.1812
    957  O5'       39.3410   61.9450   27.0200 O.3    45  A45        -0.3114
    958  C4'       40.8760   60.2170   27.7080 C.3    45  A45         0.1773
    959  O4'       41.9680   61.1220   27.4260 O.3    45  A45        -0.3307
    960  C3'       40.6520   60.3210   29.2060 C.3    45  A45         0.1860
    961  O3'       40.1700   59.0960   29.7160 O.3    45  A45        -0.3112
    962  C2'       42.0170   60.6870   29.7690 C.3    45  A45         0.2309
    963  O2'       42.7780   59.5140   30.0200 O.3    45  A45        -0.2156
    964  C1'       42.6610   61.4410   28.6080 C.3    45  A45         0.2408
    965  N1        44.9910   65.6320   30.4660 N.ar   45  A45        -0.2040
    966  C2        45.3030   64.3310   30.5450 C.ar   45  A45         0.2016
    967  N3        44.6470   63.2880   30.0430 N.ar   45  A45        -0.2048
    968  C4        43.5450   63.6940   29.3860 C.ar   45  A45         0.1692
    969  C5        43.0960   64.9910   29.2210 C.ar   45  A45         0.1518
    970  C6        43.8770   66.0050   29.8020 C.ar   45  A45         0.1919
    971  N6        43.5740   67.3020   29.7270 N.pl3  45  A45        -0.1054
    972  N7        41.9210   65.0150   28.4860 N.ar   45  A45        -0.2193
    973  C8        41.6860   63.7520   28.2220 C.ar   45  A45         0.1816
    974  N9        42.6210   62.9050   28.7450 N.ar   45  A45        -0.2693
    975  OP1       37.3850   61.9040   25.5990 O.2    45  A45        -0.5172
    976  OP2       38.4900   64.1640   26.1300 O.co2  45  A45        -0.4373
    977  P         39.3400   59.0420   31.0630 P.3    46  A46         0.2141
    978  C5'       40.1330   58.5060   33.4880 C.3    46  A46         0.1812
    979  O5'       40.3990   58.4390   32.0960 O.3    46  A46        -0.3114
    980  C4'       41.2750   59.1630   34.2130 C.3    46  A46         0.1773
    981  O4'       41.8790   60.1440   33.3410 O.3    46  A46        -0.3307
    982  C3'       40.9020   59.9040   35.4870 C.3    46  A46         0.1860
    983  O3'       41.0070   59.0910   36.6490 O.3    46  A46        -0.3112
    984  C2'       41.8470   61.0950   35.5320 C.3    46  A46         0.2309
    985  O2'       43.0050   60.7620   36.2780 O.3    46  A46        -0.2156
    986  C1'       42.2450   61.2900   34.0650 C.3    46  A46         0.2408
    987  N1        42.6670   66.2180   32.5800 N.ar   46  A46        -0.2040
    988  C2        43.5080   65.4120   33.2370 C.ar   46  A46         0.2016
    989  N3        43.3350   64.1380   33.5960 N.ar   46  A46        -0.2048
    990  C4        42.1320   63.6850   33.2060 C.ar   46  A46         0.1692
    991  C5        41.1630   64.3920   32.5250 C.ar   46  A46         0.1518
    992  C6        41.4650   65.7290   32.2020 C.ar   46  A46         0.1919
    993  N6        40.6140   66.5270   31.5500 N.pl3  46  A46        -0.1054
    994  N7        40.0480   63.6040   32.2960 N.ar   46  A46        -0.2193
    995  C8        40.3600   62.4500   32.8340 C.ar   46  A46         0.1816
    996  N9        41.5960   62.4360   33.4110 N.ar   46  A46        -0.2693
    997  OP1       38.3220   57.9760   30.9220 O.2    46  A46        -0.5172
    998  OP2       38.9680   60.4170   31.4700 O.co2  46  A46        -0.4373
    999  P         41.6950   57.6340   36.7220 P.3    47  C47         0.2141
   1000  C5'       43.8060   56.5160   37.4900 C.3    47  C47         0.1812
   1001  O5'       43.2200   57.7820   37.1910 O.3    47  C47        -0.3114
   1002  C4'       45.2620   56.5300   37.9000 C.3    47  C47         0.1773
   1003  O4'       46.0850   56.8480   36.7470 O.3    47  C47        -0.3307
   1004  C3'       45.6500   57.5160   38.9930 C.3    47  C47         0.1860
   1005  O3'       45.8630   56.8820   40.2490 O.3    47  C47        -0.3112
   1006  C2'       46.9520   58.1660   38.5280 C.3    47  C47         0.2309
   1007  O2'       48.0900   57.7120   39.2250 O.3    47  C47        -0.2156
   1008  C1'       47.1020   57.7720   37.0720 C.3    47  C47         0.2420
   1009  N1        46.8460   59.0560   36.3940 N.ar   47  C47        -0.2535
   1010  C2        47.8520   60.0300   36.3690 C.ar   47  C47         0.3532
   1011  O2        48.9520   59.7790   36.8740 O.2    47  C47        -0.2443
   1012  N3        47.5990   61.2190   35.7710 N.ar   47  C47        -0.1739
   1013  C4        46.3980   61.4480   35.2330 C.ar   47  C47         0.1759
   1014  N4        46.1820   62.6330   34.6510 N.pl3  47  C47        -0.1070
   1015  C5        45.3600   60.4730   35.2680 C.ar   47  C47         0.0566
   1016  C6        45.6160   59.3060   35.8640 C.ar   47  C47         0.0850
   1017  OP1       41.6930   56.9590   35.4080 O.2    47  C47        -0.5172
   1018  OP2       41.0530   56.9520   37.8660 O.co2  47  C47        -0.4373
   1019  P         45.2200   57.7080   41.4610 P.3    48  C48         0.2141
   1020  C5'       47.6080   58.2810   42.3240 C.3    48  C48         0.1812
   1021  O5'       46.3580   58.7610   41.8550 O.3    48  C48        -0.3114
   1022  C4'       48.5820   59.4110   42.5480 C.3    48  C48         0.1773
   1023  O4'       49.0750   59.9120   41.2760 O.3    48  C48        -0.3307
   1024  C3'       48.0290   60.6580   43.2230 C.3    48  C48         0.1860
   1025  O3'       47.8390   60.5320   44.6220 O.3    48  C48        -0.3112
   1026  C2'       49.0650   61.7030   42.8310 C.3    48  C48         0.2309
   1027  O2'       50.2680   61.5220   43.5620 O.3    48  C48        -0.2156
   1028  C1'       49.3220   61.2990   41.3820 C.3    48  C48         0.2420
   1029  N1        48.3800   61.9990   40.5050 N.ar   48  C48        -0.2535
   1030  C2        48.6730   63.3150   40.1360 C.ar   48  C48         0.3532
   1031  O2        49.7230   63.8310   40.5550 O.2    48  C48        -0.2443
   1032  N3        47.7970   63.9680   39.3290 N.ar   48  C48        -0.1739
   1033  C4        46.6880   63.3410   38.9200 C.ar   48  C48         0.1759
   1034  N4        45.8470   64.0160   38.1300 N.pl3  48  C48        -0.1070
   1035  C5        46.3750   61.9990   39.2970 C.ar   48  C48         0.0566
   1036  C6        47.2430   61.3680   40.0910 C.ar   48  C48         0.0850
   1037  OP1       45.1160   56.8140   42.6350 O.3    48  C48        -0.4373
   1038  OP2       44.0430   58.4560   40.9570 O.co2  48  C48        -0.5172
   1039  P         46.7660   61.4590   45.3670 P.3    49  A49         0.2141
   1040  C5'       48.4170   63.3780   45.8600 C.3    49  A49         0.1812
   1041  O5'       47.2920   62.9470   45.1110 O.3    49  A49        -0.3114
   1042  C4'       48.7820   64.8000   45.5330 C.3    49  A49         0.1773
   1043  O4'       48.7970   64.9790   44.0930 O.3    49  A49        -0.3307
   1044  C3'       47.8110   65.8700   46.0100 C.3    49  A49         0.1860
   1045  O3'       47.9180   66.1480   47.4000 O.3    49  A49        -0.3112
   1046  C2'       48.1760   67.0390   45.0990 C.3    49  A49         0.2309
   1047  O2'       49.3800   67.6710   45.5070 O.3    49  A49        -0.2156
   1048  C1'       48.4560   66.3140   43.7810 C.3    49  A49         0.2408
   1049  N1        45.8030   69.1800   40.4840 N.ar   49  A49        -0.2040
   1050  C2        46.9240   69.4010   41.1810 C.ar   49  A49         0.2016
   1051  N3        47.5590   68.5930   42.0240 N.ar   49  A49        -0.2048
   1052  C4        46.9130   67.4220   42.1230 C.ar   49  A49         0.1692
   1053  C5        45.7550   67.0420   41.4760 C.ar   49  A49         0.1518
   1054  C6        45.1790   67.9920   40.6100 C.ar   49  A49         0.1919
   1055  N6        44.0620   67.7740   39.9100 N.pl3  49  A49        -0.1054
   1056  N7        45.3920   65.7530   41.8340 N.ar   49  A49        -0.2193
   1057  C8        46.3290   65.3880   42.6820 C.ar   49  A49         0.1816
   1058  N9        47.2790   66.3490   42.8950 N.ar   49  A49        -0.2693
   1059  OP1       46.9600   61.2630   46.8190 O.3    49  A49        -0.4373
   1060  OP2       45.4220   61.2900   44.7720 O.co2  49  A49        -0.5172
   1061  P         46.6670   66.0630   48.4110 P.3    50  G50         0.2141
   1062  C5'       46.5470   68.6450   48.0980 C.3    50  G50         0.1812
   1063  O5'       45.8620   67.4030   48.0860 O.3    50  G50        -0.3114
   1064  C4'       45.7040   69.7200   47.4670 C.3    50  G50         0.1773
   1065  O4'       45.8460   69.6690   46.0240 O.3    50  G50        -0.3307
   1066  C3'       44.2040   69.5900   47.6860 C.3    50  G50         0.1860
   1067  O3'       43.7620   70.0160   48.9640 O.3    50  G50        -0.3112
   1068  C2'       43.6470   70.4050   46.5290 C.3    50  G50         0.2309
   1069  O2'       43.7880   71.7960   46.7760 O.3    50  G50        -0.2156
   1070  C1'       44.6150   70.0010   45.4170 C.3    50  G50         0.2408
   1071  N1        41.7500   68.3740   41.5710 N.ar   50  G50        -0.1709
   1072  C2        42.0560   69.6570   41.9570 C.ar   50  G50         0.2606
   1073  N2        41.5270   70.6540   41.2350 N.pl3  50  G50        -0.0859
   1074  N3        42.8300   69.9490   42.9880 N.ar   50  G50        -0.1918
   1075  C4        43.2750   68.8350   43.6110 C.ar   50  G50         0.1723
   1076  C5        43.0290   67.5180   43.3080 C.ar   50  G50         0.1748
   1077  C6        42.2040   67.2170   42.2020 C.ar   50  G50         0.3023
   1078  O6        41.8750   66.1020   41.7770 O.2    50  G50        -0.2633
   1079  N7        43.6790   66.6770   44.2020 N.ar   50  G50        -0.2173
   1080  C8        44.2960   67.4910   45.0140 C.ar   50  G50         0.1817
   1081  N9        44.0980   68.8170   44.7070 N.ar   50  G50        -0.2693
   1082  OP1       47.1740   66.2650   49.7860 O.3    50  G50        -0.4373
   1083  OP2       45.8110   64.8940   48.1120 O.co2  50  G50        -0.5172
   1084  P         42.7870   69.0470   49.7840 P.3    51  A51         0.2141
   1085  C5'       40.3920   68.1470   49.1700 C.3    51  A51         0.1812
   1086  O5'       41.4320   69.0860   48.9340 O.3    51  A51        -0.3114
   1087  C4'       39.0560   68.7110   48.7560 C.3    51  A51         0.1773
   1088  O4'       38.7660   69.8780   49.5680 O.3    51  A51        -0.3307
   1089  C3'       38.9740   69.2230   47.3260 C.3    51  A51         0.1860
   1090  O3'       38.7010   68.2100   46.3750 O.3    51  A51        -0.3112
   1091  C2'       37.8920   70.2930   47.4040 C.3    51  A51         0.2309
   1092  O2'       36.6020   69.7010   47.4200 O.3    51  A51        -0.2156
   1093  C1'       38.1740   70.8900   48.7820 C.3    51  A51         0.2408
   1094  N1        38.9750   75.8500   47.5450 N.ar   51  A51        -0.2040
   1095  C2        37.8850   75.0790   47.4690 C.ar   51  A51         0.2016
   1096  N3        37.7400   73.7990   47.8050 N.ar   51  A51        -0.2048
   1097  C4        38.8920   73.2940   48.2740 C.ar   51  A51         0.1692
   1098  C5        40.0950   73.9610   48.4110 C.ar   51  A51         0.1518
   1099  C6        40.1190   75.3140   48.0210 C.ar   51  A51         0.1919
   1100  N6        41.2110   76.0810   48.1000 N.pl3  51  A51        -0.1054
   1101  N7        41.0700   73.1210   48.9270 N.ar   51  A51        -0.2193
   1102  C8        40.4440   71.9800   49.0900 C.ar   51  A51         0.1816
   1103  N9        39.1290   72.0130   48.7150 N.ar   51  A51        -0.2693
   1104  OP1       42.4320   69.6920   51.0680 O.3    51  A51        -0.4373
   1105  OP2       43.3380   67.6740   49.7600 O.co2  51  A51        -0.5172
   1106  P         39.0320   68.5170   44.8420 P.3    52  A52         0.2141
   1107  C5'       37.6770   69.7650   43.0020 C.3    52  A52         0.1812
   1108  O5'       37.6760   69.1650   44.2890 O.3    52  A52        -0.3114
   1109  C4'       37.2690   71.2150   43.0640 C.3    52  A52         0.1773
   1110  O4'       37.6370   71.7640   44.3540 O.3    52  A52        -0.3307
   1111  C3'       37.9470   72.1410   42.0640 C.3    52  A52         0.1860
   1112  O3'       37.3730   72.1100   40.7680 O.3    52  A52        -0.3112
   1113  C2'       37.8310   73.4980   42.7410 C.3    52  A52         0.2309
   1114  O2'       36.5210   74.0220   42.5830 O.3    52  A52        -0.2156
   1115  C1'       38.0210   73.1130   44.2070 C.3    52  A52         0.2408
   1116  N1        41.8760   76.3760   45.2230 N.ar   52  A52        -0.2040
   1117  C2        40.6190   76.5710   44.8070 C.ar   52  A52         0.2016
   1118  N3        39.6700   75.6700   44.5600 N.ar   52  A52        -0.2048
   1119  C4        40.1200   74.4270   44.7860 C.ar   52  A52         0.1692
   1120  C5        41.3810   74.0640   45.2150 C.ar   52  A52         0.1518
   1121  C6        42.2990   75.1140   45.4420 C.ar   52  A52         0.1919
   1122  N6        43.5550   74.9290   45.8590 N.pl3  52  A52        -0.1054
   1123  N7        41.4730   72.6860   45.3370 N.ar   52  A52        -0.2193
   1124  C8        40.2860   72.2530   44.9830 C.ar   52  A52         0.1816
   1125  N9        39.4230   73.2520   44.6390 N.ar   52  A52        -0.2693
   1126  OP1       39.1630   67.2400   44.1040 O.2    52  A52        -0.5172
   1127  OP2       40.1120   69.5280   44.7970 O.co2  52  A52        -0.4373
   1128  P         38.3430   72.1090   39.4960 P.3    53  A53         0.2141
   1129  C5'       38.0760   74.6450   38.9150 C.3    53  A53         0.1812
   1130  O5'       38.9010   73.6070   39.4200 O.3    53  A53        -0.3114
   1131  C4'       38.8000   75.9680   38.9340 C.3    53  A53         0.1773
   1132  O4'       39.2110   76.2680   40.2900 O.3    53  A53        -0.3307
   1133  C3'       40.0820   76.0340   38.1180 C.3    53  A53         0.1860
   1134  O3'       39.8280   76.3450   36.7620 O.3    53  A53        -0.3112
   1135  C2'       40.8960   77.1030   38.8340 C.3    53  A53         0.2309
   1136  O2'       40.4860   78.4030   38.4370 O.3    53  A53        -0.2156
   1137  C1'       40.4800   76.8820   40.2880 C.3    53  A53         0.2408
   1138  N1        44.7890   76.4640   43.0790 N.ar   53  A53        -0.2040
   1139  C2        44.1730   77.5250   42.5440 C.ar   53  A53         0.2016
   1140  N3        43.0510   77.5650   41.8270 N.ar   53  A53        -0.2048
   1141  C4        42.5430   76.3320   41.6700 C.ar   53  A53         0.1692
   1142  C5        43.0590   75.1480   42.1560 C.ar   53  A53         0.1518
   1143  C6        44.2520   75.2370   42.9010 C.ar   53  A53         0.1919
   1144  N6        44.8640   74.1720   43.4310 N.pl3  53  A53        -0.1054
   1145  N7        42.2610   74.0740   41.7930 N.ar   53  A53        -0.2193
   1146  C8        41.2920   74.6230   41.1030 C.ar   53  A53         0.1816
   1147  N9        41.4040   75.9800   40.9920 N.ar   53  A53        -0.2693
   1148  OP1       37.5240   71.9670   38.2710 O.2    53  A53        -0.5172
   1149  OP2       39.4560   71.1730   39.7670 O.co2  53  A53        -0.4373
   1150  P         40.6260   75.6310   35.5790 P.3    54  U54         0.2141
   1151  C5'       43.0910   76.4150   36.1050 C.3    54  U54         0.1812
   1152  O5'       42.1080   75.3900   36.1320 O.3    54  U54        -0.3114
   1153  C4'       44.2790   76.0360   36.9530 C.3    54  U54         0.1773
   1154  O4'       43.7990   75.3750   38.1540 O.3    54  U54        -0.3307
   1155  C3'       45.2580   75.0440   36.3410 C.3    54  U54         0.1860
   1156  O3'       46.2250   75.6640   35.5090 O.3    54  U54        -0.3112
   1157  C2'       45.8740   74.3840   37.5670 C.3    54  U54         0.2309
   1158  O2'       46.8700   75.2260   38.1260 O.3    54  U54        -0.2156
   1159  C1'       44.6870   74.3440   38.5300 C.3    54  U54         0.2420
   1160  N1        43.9490   73.0330   38.5740 N.ar   54  U54        -0.2534
   1161  C2        44.5560   71.9250   39.1320 C.ar   54  U54         0.3546
   1162  O2        45.6800   71.9470   39.5920 O.2    54  U54        -0.2443
   1163  N3        43.8010   70.7770   39.1320 N.ar   54  U54        -0.1530
   1164  C4        42.5190   70.6280   38.6380 C.ar   54  U54         0.2846
   1165  O4        41.9630   69.5370   38.7070 O.2    54  U54        -0.2650
   1166  C5        41.9470   71.8250   38.0770 C.ar   54  U54         0.0814
   1167  C6        42.6670   72.9550   38.0680 C.ar   54  U54         0.0870
   1168  OP1       40.7950   76.6200   34.4900 O.2    54  U54        -0.5172
   1169  OP2       39.9970   74.3140   35.3310 O.co2  54  U54        -0.4373
   1170  P         47.2710   74.7980   34.6500 P.3    55  G55         0.2141
   1171  C5'       49.2350   74.6740   36.3490 C.3    55  G55         0.1812
   1172  O5'       48.1560   73.9970   35.7150 O.3    55  G55        -0.3114
   1173  C4'       50.1230   73.7590   37.1560 C.3    55  G55         0.1773
   1174  O4'       49.3060   72.9930   38.0890 O.3    55  G55        -0.3307
   1175  C3'       50.9200   72.7490   36.3310 C.3    55  G55         0.1860
   1176  O3'       52.3330   72.8860   36.4370 O.3    55  G55        -0.3112
   1177  C2'       50.5280   71.3800   36.8670 C.3    55  G55         0.2309
   1178  O2'       51.6150   70.5390   37.1790 O.3    55  G55        -0.2156
   1179  C1'       49.7210   71.6440   38.1290 C.3    55  G55         0.2408
   1180  N1        48.1850   66.8850   38.8410 N.ar   55  G55        -0.1709
   1181  C2        49.4050   67.4620   39.1080 C.ar   55  G55         0.2606
   1182  N2        50.3420   66.6500   39.6240 N.pl3  55  G55        -0.0859
   1183  N3        49.6850   68.7430   38.8830 N.ar   55  G55        -0.1918
   1184  C4        48.6240   69.4070   38.3600 C.ar   55  G55         0.1723
   1185  C5        47.3750   68.9220   38.0600 C.ar   55  G55         0.1748
   1186  C6        47.0900   67.5580   38.3040 C.ar   55  G55         0.3023
   1187  O6        46.0300   66.9510   38.0990 O.2    55  G55        -0.2633
   1188  N7        46.5700   69.9280   37.5420 N.ar   55  G55        -0.2173
   1189  C8        47.3330   70.9860   37.5320 C.ar   55  G55         0.1817
   1190  N9        48.5780   70.7460   38.0530 N.ar   55  G55        -0.2693
   1191  OP1       48.2410   75.7360   34.0460 O.3    55  G55        -0.4373
   1192  OP2       46.5270   73.8380   33.8010 O.co2  55  G55        -0.5172
   1193  P         53.0540   72.1820   35.1850 P.3    56  G56         0.2141
   1194  C5'       54.3780   70.4310   36.6450 C.3    56  G56         0.1812
   1195  O5'       53.4210   70.6820   35.6240 O.3    56  G56        -0.3114
   1196  C4'       54.3940   68.9940   37.1220 C.3    56  G56         0.1773
   1197  O4'       53.1320   68.6260   37.7410 O.3    56  G56        -0.3307
   1198  C3'       54.6040   67.9170   36.0670 C.3    56  G56         0.1860
   1199  O3'       55.9550   67.7960   35.6640 O.3    56  G56        -0.3112
   1200  C2'       54.0700   66.6670   36.7600 C.3    56  G56         0.2309
   1201  O2'       55.0370   66.0930   37.6270 O.3    56  G56        -0.2156
   1202  C1'       52.9270   67.2350   37.6020 C.3    56  G56         0.2408
   1203  N1        49.4640   63.6890   36.6030 N.ar   56  G56        -0.1709
   1204  C2        50.6480   63.5980   37.3010 C.ar   56  G56         0.2606
   1205  N2        50.9570   62.3900   37.8010 N.pl3  56  G56        -0.0859
   1206  N3        51.4760   64.6170   37.4980 N.ar   56  G56        -0.1918
   1207  C4        51.0080   65.7500   36.9260 C.ar   56  G56         0.1723
   1208  C5        49.8480   65.9460   36.2130 C.ar   56  G56         0.1748
   1209  C6        48.9760   64.8530   36.0120 C.ar   56  G56         0.3023
   1210  O6        47.8990   64.8450   35.4020 O.2    56  G56        -0.2633
   1211  N7        49.7390   67.2660   35.7930 N.ar   56  G56        -0.2173
   1212  C8        50.8240   67.8320   36.2550 C.ar   56  G56         0.1817
   1213  N9        51.6310   66.9710   36.9580 N.ar   56  G56        -0.2693
   1214  OP1       54.3590   72.8320   34.9300 O.3    56  G56        -0.4373
   1215  OP2       52.0390   72.1070   34.1110 O.co2  56  G56        -0.5172
   1216  P         56.3520   68.1440   34.1570 P.3    57  U57         0.2141
   1217  C5'       55.3040   66.0330   32.9970 C.3    57  U57         0.1812
   1218  O5'       56.4610   66.7020   33.4760 O.3    57  U57        -0.3114
   1219  C4'       55.1020   64.7160   33.6990 C.3    57  U57         0.1773
   1220  O4'       53.8600   64.7540   34.4460 O.3    57  U57        -0.3307
   1221  C3'       54.9040   63.5080   32.8030 C.3    57  U57         0.1860
   1222  O3'       56.0950   63.0340   32.1980 O.3    57  U57        -0.3112
   1223  C2'       54.2310   62.5200   33.7470 C.3    57  U57         0.2309
   1224  O2'       55.1480   61.9910   34.6910 O.3    57  U57        -0.2156
   1225  C1'       53.2880   63.4620   34.4900 C.3    57  U57         0.2420
   1226  N1        51.9440   63.4840   33.8750 N.ar   57  U57        -0.2534
   1227  C2        51.2510   62.2970   33.7770 C.ar   57  U57         0.3546
   1228  O2        51.6940   61.2380   34.1750 O.2    57  U57        -0.2443
   1229  N3        50.0130   62.3870   33.1950 N.ar   57  U57        -0.1530
   1230  C4        49.4160   63.5320   32.7080 C.ar   57  U57         0.2846
   1231  O4        48.2980   63.4630   32.2110 O.2    57  U57        -0.2650
   1232  C5        50.2030   64.7340   32.8420 C.ar   57  U57         0.0814
   1233  C6        51.4150   64.6680   33.4080 C.ar   57  U57         0.0870
   1234  OP1       57.7350   68.6700   34.1060 O.3    57  U57        -0.4373
   1235  OP2       55.2370   68.9120   33.5610 O.co2  57  U57        -0.5172
   1236  P         56.0920   62.9720   30.6010 P.3    58  G58         0.2141
   1237  C5'       54.9330   60.6420   30.5550 C.3    58  G58         0.1812
   1238  O5'       54.8340   62.0340   30.2980 O.3    58  G58        -0.3114
   1239  C4'       53.6030   59.9620   30.3620 C.3    58  G58         0.1773
   1240  O4'       52.5800   60.6990   31.0750 O.3    58  G58        -0.3307
   1241  C3'       53.0830   59.9060   28.9330 C.3    58  G58         0.1860
   1242  O3'       53.6260   58.8300   28.1980 O.3    58  G58        -0.3112
   1243  C2'       51.5850   59.7640   29.1310 C.3    58  G58         0.2309
   1244  O2'       51.2700   58.4230   29.4680 O.3    58  G58        -0.2156
   1245  C1'       51.3690   60.6490   30.3560 C.3    58  G58         0.2408
   1246  N1        47.8490   63.5030   28.1760 N.ar   58  G58        -0.1709
   1247  C2        47.8560   62.1510   28.4390 C.ar   58  G58         0.2606
   1248  N2        46.7710   61.4600   28.0660 N.pl3  58  G58        -0.0859
   1249  N3        48.8580   61.5130   29.0260 N.ar   58  G58        -0.1918
   1250  C4        49.8620   62.3660   29.3270 C.ar   58  G58         0.1723
   1251  C5        49.9620   63.7180   29.1100 C.ar   58  G58         0.1748
   1252  C6        48.8860   64.3810   28.4840 C.ar   58  G58         0.3023
   1253  O6        48.7890   65.5830   28.2070 O.2    58  G58        -0.2633
   1254  N7        51.1760   64.2080   29.5810 N.ar   58  G58        -0.2173
   1255  C8        51.7790   63.1570   30.0660 C.ar   58  G58         0.1817
   1256  N9        51.0260   62.0150   29.9450 N.ar   58  G58        -0.2693
   1257  OP1       57.2450   62.1820   30.1210 O.3    58  G58        -0.4373
   1258  OP2       55.8340   64.3310   30.0770 O.co2  58  G58        -0.5172
   1259  P         54.3850   59.0910   26.8260 P.3    59  C59         0.2141
   1260  C5'       52.3360   57.8940   25.8380 C.3    59  C59         0.1812
   1261  O5'       53.1960   59.0170   25.7600 O.3    59  C59        -0.3114
   1262  C4'       50.9450   58.2540   25.3980 C.3    59  C59         0.1773
   1263  O4'       50.3880   59.2690   26.2690 O.3    59  C59        -0.3307
   1264  C3'       50.8530   58.8890   24.0260 C.3    59  C59         0.1860
   1265  O3'       50.9360   57.9330   22.9920 O.3    59  C59        -0.3112
   1266  C2'       49.5100   59.5960   24.0910 C.3    59  C59         0.2309
   1267  O2'       48.4530   58.6580   23.9630 O.3    59  C59        -0.2156
   1268  C1'       49.5310   60.1090   25.5290 C.3    59  C59         0.2420
   1269  N1        50.0420   61.4830   25.6250 N.ar   59  C59        -0.2535
   1270  C2        49.1480   62.5390   25.4660 C.ar   59  C59         0.3532
   1271  O2        47.9610   62.2800   25.2520 O.2    59  C59        -0.2443
   1272  N3        49.6050   63.8100   25.5540 N.ar   59  C59        -0.1739
   1273  C4        50.8990   64.0300   25.7920 C.ar   59  C59         0.1759
   1274  N4        51.3120   65.2990   25.8710 N.pl3  59  C59        -0.1070
   1275  C5        51.8290   62.9600   25.9580 C.ar   59  C59         0.0566
   1276  C6        51.3630   61.7090   25.8660 C.ar   59  C59         0.0850
   1277  OP1       55.2060   57.8880   26.5470 O.2    59  C59        -0.5172
   1278  OP2       54.9770   60.4480   26.8540 O.co2  59  C59        -0.4373
   1279  P         51.7470   58.2660   21.6690 P.3    60  C60         0.2141
   1280  C5'       49.5420   58.4320   20.3350 C.3    60  C60         0.1812
   1281  O5'       50.6940   59.1080   20.8130 O.3    60  C60        -0.3114
   1282  C4'       48.4490   59.3910   19.9420 C.3    60  C60         0.1773
   1283  O4'       48.1880   60.3050   21.0350 O.3    60  C60        -0.3307
   1284  C3'       48.7530   60.3080   18.7710 C.3    60  C60         0.1860
   1285  O3'       48.5930   59.6670   17.5180 O.3    60  C60        -0.3112
   1286  C2'       47.7640   61.4390   19.0010 C.3    60  C60         0.2309
   1287  O2'       46.4550   61.0060   18.6790 O.3    60  C60        -0.2156
   1288  C1'       47.8130   61.5650   20.5180 C.3    60  C60         0.2420
   1289  N1        48.7180   62.6340   21.0260 N.ar   60  C60        -0.2535
   1290  C2        48.3380   63.9650   20.8540 C.ar   60  C60         0.3532
   1291  O2        47.2730   64.2070   20.2750 O.2    60  C60        -0.2443
   1292  N3        49.1460   64.9460   21.3220 N.ar   60  C60        -0.1739
   1293  C4        50.2810   64.6270   21.9370 C.ar   60  C60         0.1759
   1294  N4        51.0490   65.6240   22.3800 N.pl3  60  C60        -0.1070
   1295  C5        50.6860   63.2740   22.1250 C.ar   60  C60         0.0566
   1296  C6        49.8810   62.3170   21.6600 C.ar   60  C60         0.0850
   1297  OP1       51.8780   56.9750   20.9610 O.2    60  C60        -0.5172
   1298  OP2       52.9270   59.1160   21.9390 O.co2  60  C60        -0.4373
   1299  P         49.6840   59.8320   16.3580 P.3    61  A61         0.2141
   1300  C5'       48.7700   57.4710   15.7160 C.3    61  A61         0.1812
   1301  O5'       49.2120   58.7480   15.2820 O.3    61  A61        -0.3114
   1302  C4'       48.0010   56.7390   14.6450 C.3    61  A61         0.1773
   1303  O4'       48.7610   56.7490   13.4140 O.3    61  A61        -0.3307
   1304  C3'       47.7440   55.2650   14.9140 C.3    61  A61         0.1860
   1305  O3'       46.5970   55.0450   15.7140 O.3    61  A61        -0.3112
   1306  C2'       47.6080   54.6680   13.5210 C.3    61  A61         0.2309
   1307  O2'       46.2840   54.8520   13.0500 O.3    61  A61        -0.2156
   1308  C1'       48.5380   55.5570   12.6980 C.3    61  A61         0.2408
   1309  N1        51.1190   51.9010   10.1250 N.ar   61  A61        -0.2040
   1310  C2        49.8170   52.2110   10.1620 C.ar   61  A61         0.2016
   1311  N3        49.2020   53.1720   10.8520 N.ar   61  A61        -0.2048
   1312  C4        50.0890   53.8720   11.5760 C.ar   61  A61         0.1692
   1313  C5        51.4540   53.6710   11.6370 C.ar   61  A61         0.1518
   1314  C6        51.9840   52.6260   10.8680 C.ar   61  A61         0.1919
   1315  N6        53.2910   52.3370   10.8520 N.pl3  61  A61        -0.1054
   1316  N7        52.0550   54.5800   12.4810 N.ar   61  A61        -0.2193
   1317  C8        51.0510   55.3060   12.9140 C.ar   61  A61         0.1816
   1318  N9        49.8390   54.9300   12.4140 N.ar   61  A61        -0.2693
   1319  OP1       51.0210   59.4480   16.8610 O.3    61  A61        -0.4373
   1320  OP2       49.4760   61.1380   15.6910 O.co2  61  A61        -0.5172
   1321  P         46.5930   53.7340   16.6130 P.3    62  A62         0.2141
   1322  C5'       45.1680   52.1760   15.0380 C.3    62  A62         0.1812
   1323  O5'       46.4250   52.5010   15.6100 O.3    62  A62        -0.3114
   1324  C4'       45.3260   51.0470   14.0570 C.3    62  A62         0.1773
   1325  O4'       46.3740   51.4030   13.1250 O.3    62  A62        -0.3307
   1326  C3'       45.7770   49.7320   14.6700 C.3    62  A62         0.1860
   1327  O3'       44.6830   48.9340   15.0850 O.3    62  A62        -0.3112
   1328  C2'       46.6230   49.0810   13.5800 C.3    62  A62         0.2309
   1329  O2'       45.8110   48.3350   12.6890 O.3    62  A62        -0.2156
   1330  C1'       47.1840   50.2880   12.8330 C.3    62  A62         0.2408
   1331  N1        52.2260   49.3080   12.2040 N.ar   62  A62        -0.2040
   1332  C2        51.1310   48.7700   11.6570 C.ar   62  A62         0.2016
   1333  N3        49.8490   49.0680   11.8640 N.ar   62  A62        -0.2048
   1334  C4        49.7290   50.0550   12.7590 C.ar   62  A62         0.1692
   1335  C5        50.7580   50.7060   13.4110 C.ar   62  A62         0.1518
   1336  C6        52.0730   50.2980   13.1030 C.ar   62  A62         0.1919
   1337  N6        53.1680   50.8350   13.6500 N.pl3  62  A62        -0.1054
   1338  N7        50.2520   51.6690   14.2670 N.ar   62  A62        -0.2193
   1339  C8        48.9500   51.5810   14.1160 C.ar   62  A62         0.1816
   1340  N9        48.5660   50.6210   13.2240 N.ar   62  A62        -0.2693
   1341  OP1       45.3460   53.7160   17.4100 O.3    62  A62        -0.4373
   1342  OP2       47.9370   53.6330   17.2250 O.co2  62  A62        -0.5172
   1343  P         44.9690   47.6330   15.9620 P.3    63  U63         0.2141
   1344  C5'       44.4850   48.7850   18.3060 C.3    63  U63         0.1812
   1345  O5'       45.4160   48.3050   17.3450 O.3    63  U63        -0.3114
   1346  C4'       44.8460   48.2410   19.6610 C.3    63  U63         0.1773
   1347  O4'       44.2540   46.9330   19.8140 O.3    63  U63        -0.3307
   1348  C3'       46.3360   48.0310   19.8500 C.3    63  U63         0.1860
   1349  O3'       46.9650   49.1850   20.3880 O.3    63  U63        -0.3112
   1350  C2'       46.4680   46.7780   20.7070 C.3    63  U63         0.2309
   1351  O2'       46.5530   47.1120   22.0840 O.3    63  U63        -0.2156
   1352  C1'       45.1440   46.0540   20.4590 C.3    63  U63         0.2420
   1353  N1        45.1820   44.7800   19.6920 N.ar   63  U63        -0.2534
   1354  C2        44.9100   43.6100   20.3650 C.ar   63  U63         0.3546
   1355  O2        44.6590   43.5730   21.5540 O.2    63  U63        -0.2443
   1356  N3        44.9450   42.4710   19.6100 N.ar   63  U63        -0.1530
   1357  C4        45.2190   42.3920   18.2640 C.ar   63  U63         0.2846
   1358  O4        45.2180   41.2950   17.7190 O.2    63  U63        -0.2650
   1359  C5        45.4840   43.6550   17.6230 C.ar   63  U63         0.0814
   1360  C6        45.4520   44.7810   18.3440 C.ar   63  U63         0.0870
   1361  OP1       46.1950   46.9380   15.4990 O.2    63  U63        -0.5172
   1362  OP2       43.7020   46.8870   16.1290 O.co2  63  U63        -0.4373
   1363  P         46.6690   49.8250   21.8350 P.3    64  U64         0.2141
   1364  C5'       48.9620   49.8950   22.9840 C.3    64  U64         0.1812
   1365  O5'       47.8030   49.1120   22.7150 O.3    64  U64        -0.3114
   1366  C4'       50.2820   49.2830   22.5590 C.3    64  U64         0.1773
   1367  O4'       50.9110   48.6210   23.6880 O.3    64  U64        -0.3307
   1368  C3'       50.2950   48.2800   21.4020 C.3    64  U64         0.1860
   1369  O3'       51.4390   48.5300   20.5890 O.3    64  U64        -0.3112
   1370  C2'       50.5090   46.9380   22.0940 C.3    64  U64         0.2309
   1371  O2'       51.1880   45.9840   21.3040 O.3    64  U64        -0.2156
   1372  C1'       51.3690   47.3480   23.2830 C.3    64  U64         0.2420
   1373  N1        51.3050   46.4580   24.4570 N.ar   64  U64        -0.2534
   1374  C2        52.4430   45.7780   24.7990 C.ar   64  U64         0.3546
   1375  O2        53.4730   45.8830   24.1640 O.2    64  U64        -0.2443
   1376  N3        52.3270   44.9770   25.9040 N.ar   64  U64        -0.1530
   1377  C4        51.1970   44.8020   26.6840 C.ar   64  U64         0.2846
   1378  O4        51.2340   44.0470   27.6530 O.2    64  U64        -0.2650
   1379  C5        50.0450   45.5550   26.2570 C.ar   64  U64         0.0814
   1380  C6        50.1400   46.3430   25.1800 C.ar   64  U64         0.0870
   1381  OP1       45.3140   49.4990   22.3150 O.3    64  U64        -0.4373
   1382  OP2       47.0770   51.2480   21.7960 O.co2  64  U64        -0.5172
   1383  P         51.3450   49.5730   19.3850 P.3    65  C65         0.2141
   1384  C5'       49.4220   48.8880   17.7920 C.3    65  C65         0.1812
   1385  O5'       50.7650   48.6740   18.2010 O.3    65  C65        -0.3114
   1386  C4'       48.9450   47.8290   16.8320 C.3    65  C65         0.1773
   1387  O4'       49.4560   48.1460   15.5090 O.3    65  C65        -0.3307
   1388  C3'       49.4270   46.4170   17.1490 C.3    65  C65         0.1860
   1389  O3'       48.4110   45.5720   17.6680 O.3    65  C65        -0.3112
   1390  C2'       49.9400   45.8400   15.8340 C.3    65  C65         0.2309
   1391  O2'       49.0970   44.8480   15.2850 O.3    65  C65        -0.2156
   1392  C1'       49.9990   47.0110   14.8710 C.3    65  C65         0.2420
   1393  N1        51.4610   47.1540   14.7070 N.ar   65  C65        -0.2535
   1394  C2        52.1260   46.2960   13.8210 C.ar   65  C65         0.3532
   1395  O2        51.4690   45.4740   13.1650 O.2    65  C65        -0.2443
   1396  N3        53.4730   46.4000   13.6910 N.ar   65  C65        -0.1739
   1397  C4        54.1440   47.2930   14.4170 C.ar   65  C65         0.1759
   1398  N4        55.4680   47.3590   14.2530 N.pl3  65  C65        -0.1070
   1399  C5        53.4860   48.1590   15.3370 C.ar   65  C65         0.0566
   1400  C6        52.1580   48.0500   15.4560 C.ar   65  C65         0.0850
   1401  OP1       52.6990   49.9410   18.9150 O.2    65  C65        -0.5172
   1402  OP2       50.3470   50.6130   19.7270 O.co2  65  C65        -0.4373
   1403  P         49.0630   44.5790   18.7330 P.3    66  C66         0.2141
   1404  C5'       48.6260   42.6020   17.0280 C.3    66  C66         0.1812
   1405  O5'       49.5180   43.2820   17.9050 O.3    66  C66        -0.3114
   1406  C4'       49.3440   41.7040   16.0480 C.3    66  C66         0.1773
   1407  O4'       50.1920   42.4790   15.1620 O.3    66  C66        -0.3307
   1408  C3'       50.3000   40.6890   16.6470 C.3    66  C66         0.1860
   1409  O3'       49.6320   39.5570   17.1650 O.3    66  C66        -0.3112
   1410  C2'       51.2370   40.3720   15.4860 C.3    66  C66         0.2309
   1411  O2'       50.6420   39.4660   14.5700 O.3    66  C66        -0.2156
   1412  C1'       51.3320   41.7290   14.7960 C.3    66  C66         0.2420
   1413  N1        52.5720   42.4820   15.1200 N.ar   66  C66        -0.2535
   1414  C2        53.8090   41.9060   14.8310 C.ar   66  C66         0.3532
   1415  O2        53.8310   40.7830   14.3210 O.2    66  C66        -0.2443
   1416  N3        54.9430   42.5910   15.1200 N.ar   66  C66        -0.1739
   1417  C4        54.8610   43.8020   15.6760 C.ar   66  C66         0.1759
   1418  N4        55.9990   44.4440   15.9480 N.pl3  66  C66        -0.1070
   1419  C5        53.6090   44.4110   15.9820 C.ar   66  C66         0.0566
   1420  C6        52.5010   43.7220   15.6880 C.ar   66  C66         0.0850
   1421  OP1       48.0350   44.1090   19.6920 O.3    66  C66        -0.4373
   1422  OP2       50.2960   45.2520   19.1890 O.co2  66  C66        -0.5172
   1423  P         50.1030   38.9940   18.5780 P.3    67  U67         0.2141
   1424  C5'       51.6730   37.1210   17.5910 C.3    67  U67         0.1812
   1425  O5'       51.5440   38.3740   18.2490 O.3    67  U67        -0.3114
   1426  C4'       53.0880   36.8940   17.1190 C.3    67  U67         0.1773
   1427  O4'       53.6080   38.1410   16.5940 O.3    67  U67        -0.3307
   1428  C3'       54.0920   36.4760   18.1790 C.3    67  U67         0.1860
   1429  O3'       54.0990   35.0700   18.3970 O.3    67  U67        -0.3112
   1430  C2'       55.4190   37.0380   17.6730 C.3    67  U67         0.2309
   1431  O2'       56.0690   36.1310   16.8000 O.3    67  U67        -0.2156
   1432  C1'       54.9840   38.2650   16.8690 C.3    67  U67         0.2420
   1433  N1        55.1920   39.6140   17.4920 N.ar   67  U67        -0.2534
   1434  C2        56.4390   40.2140   17.4440 C.ar   67  U67         0.3546
   1435  O2        57.4150   39.6940   16.9320 O.2    67  U67        -0.2443
   1436  N3        56.5090   41.4550   18.0330 N.ar   67  U67        -0.1530
   1437  C4        55.4770   42.1450   18.6430 C.ar   67  U67         0.2846
   1438  O4        55.6890   43.2530   19.1260 O.2    67  U67        -0.2650
   1439  C5        54.2090   41.4600   18.6490 C.ar   67  U67         0.0814
   1440  C6        54.1160   40.2490   18.0830 C.ar   67  U67         0.0870
   1441  OP1       49.2520   37.8280   18.9190 O.2    67  U67        -0.5172
   1442  OP2       50.2520   40.1360   19.5100 O.co2  67  U67        -0.4373
   1443  P         54.5120   34.4100   19.8110 P.3    68  G68         0.2141
   1444  C5'       56.8220   33.2670   19.6830 C.3    68  G68         0.1812
   1445  O5'       55.8260   34.0030   18.9930 O.3    68  G68        -0.3114
   1446  C4'       58.1560   33.9540   19.6270 C.3    68  G68         0.1773
   1447  O4'       58.0320   35.2760   19.0420 O.3    68  G68        -0.3307
   1448  C3'       58.7940   34.2160   20.9820 C.3    68  G68         0.1860
   1449  O3'       59.4100   33.0650   21.5430 O.3    68  G68        -0.3112
   1450  C2'       59.7310   35.3840   20.7240 C.3    68  G68         0.2309
   1451  O2'       60.9610   34.9420   20.1650 O.3    68  G68        -0.2156
   1452  C1'       58.9710   36.1470   19.6370 C.3    68  G68         0.2408
   1453  N1        59.6050   41.0320   20.7480 N.ar   68  G68        -0.1709
   1454  C2        60.5080   40.0930   20.3050 C.ar   68  G68         0.2606
   1455  N2        61.7700   40.5020   20.1200 N.pl3  68  G68        -0.0859
   1456  N3        60.2020   38.8310   20.0590 N.ar   68  G68        -0.1918
   1457  C4        58.8950   38.5840   20.2910 C.ar   68  G68         0.1723
   1458  C5        57.9110   39.4410   20.7260 C.ar   68  G68         0.1748
   1459  C6        58.2530   40.7910   20.9900 C.ar   68  G68         0.3023
   1460  O6        57.5220   41.7130   21.3890 O.2    68  G68        -0.2633
   1461  N7        56.6950   38.7720   20.8310 N.ar   68  G68        -0.2173
   1462  C8        56.9720   37.5480   20.4650 C.ar   68  G68         0.1817
   1463  N9        58.2930   37.3640   20.1280 N.ar   68  G68        -0.2693
   1464  OP1       53.4540   33.3990   19.5570 O.2    68  G68        -0.5172
   1465  OP2       54.3910   35.7790   20.3760 O.co2  68  G68        -0.4373
   1466  P         59.8550   31.7660   20.7100 P.3    69  C69         0.2141
   1467  C5'       60.8520   31.4420   23.0850 C.3    69  C69         0.1812
   1468  O5'       60.3110   30.8270   21.9200 O.3    69  C69        -0.3114
   1469  C4'       60.2710   30.8510   24.3450 C.3    69  C69         0.1773
   1470  O4'       59.4800   31.8660   25.0230 O.3    69  C69        -0.3307
   1471  C3'       59.3630   29.6440   24.1130 C.3    69  C69         0.1860
   1472  O3'       59.7900   28.4770   24.8110 O.3    69  C69        -0.3112
   1473  C2'       57.9820   30.0730   24.6050 C.3    69  C69         0.2309
   1474  O2'       57.3330   29.1380   25.4390 O.3    69  C69        -0.2156
   1475  C1'       58.2070   31.3680   25.3720 C.3    69  C69         0.2420
   1476  N1        57.1490   32.2290   24.8180 N.ar   69  C69        -0.2535
   1477  C2        55.9620   32.4210   25.5300 C.ar   69  C69         0.3532
   1478  O2        55.8380   31.8980   26.6400 O.2    69  C69        -0.2443
   1479  N3        54.9840   33.1850   24.9830 N.ar   69  C69        -0.1739
   1480  C4        55.1580   33.7270   23.7760 C.ar   69  C69         0.1759
   1481  N4        54.1680   34.4760   23.2860 N.pl3  69  C69        -0.1070
   1482  C5        56.3530   33.5270   23.0240 C.ar   69  C69         0.0566
   1483  C6        57.3060   32.7690   23.5730 C.ar   69  C69         0.0850
   1484  OP1       61.1140   32.0520   19.9860 O.2    69  C69        -0.5172
   1485  OP2       58.7060   31.1240   20.0300 O.co2  69  C69        -0.4373
   1486  P         59.1490   27.1190   24.2510 P.3    70  A70         0.2141
   1487  C5'       56.6610   26.4690   24.9650 C.3    70  A70         0.1812
   1488  O5'       57.9910   26.8350   25.3160 O.3    70  A70        -0.3114
   1489  C4'       55.8150   26.4010   26.2110 C.3    70  A70         0.1773
   1490  O4'       55.6070   27.7610   26.6840 O.3    70  A70        -0.3307
   1491  C3'       54.4400   25.7700   26.0270 C.3    70  A70         0.1860
   1492  O3'       54.2800   24.5630   26.7640 O.3    70  A70        -0.3112
   1493  C2'       53.4310   26.8110   26.5110 C.3    70  A70         0.2309
   1494  O2'       52.6440   26.3860   27.6030 O.3    70  A70        -0.2156
   1495  C1'       54.2390   28.0400   26.9110 C.3    70  A70         0.2408
   1496  N1        50.3220   30.8570   25.1130 N.ar   70  A70        -0.2040
   1497  C2        50.3800   29.9020   26.0430 C.ar   70  A70         0.2016
   1498  N3        51.4420   29.2170   26.4640 N.ar   70  A70        -0.2048
   1499  C4        52.5600   29.5950   25.8250 C.ar   70  A70         0.1692
   1500  C5        52.6550   30.5640   24.8490 C.ar   70  A70         0.1518
   1501  C6        51.4640   31.2160   24.4880 C.ar   70  A70         0.1919
   1502  N6        51.4260   32.1720   23.5610 N.pl3  70  A70        -0.1054
   1503  N7        53.9600   30.6940   24.4100 N.ar   70  A70        -0.2193
   1504  C8        54.6200   29.8090   25.1220 C.ar   70  A70         0.1816
   1505  N9        53.8450   29.1280   26.0150 N.ar   70  A70        -0.2693
   1506  OP1       60.1070   26.0070   24.4410 O.3    70  A70        -0.4373
   1507  OP2       58.5390   27.3730   22.9260 O.co2  70  A70        -0.5172
   1508  P         53.3220   23.5230   26.0160 P.3    71  G71         0.2141
   1509  C5'       51.6370   24.0120   27.9400 C.3    71  G71         0.1812
   1510  O5'       51.8630   23.9120   26.5420 O.3    71  G71        -0.3114
   1511  C4'       50.2090   24.3780   28.2400 C.3    71  G71         0.1773
   1512  O4'       50.0050   25.8060   28.1040 O.3    71  G71        -0.3307
   1513  C3'       49.1960   23.7760   27.2900 C.3    71  G71         0.1860
   1514  O3'       48.9040   22.4280   27.5880 O.3    71  G71        -0.3112
   1515  C2'       48.0060   24.7120   27.4270 C.3    71  G71         0.2309
   1516  O2'       47.3020   24.4530   28.6340 O.3    71  G71        -0.2156
   1517  C1'       48.7230   26.0560   27.5590 C.3    71  G71         0.2408
   1518  N1        46.4770   28.7100   23.7740 N.ar   71  G71        -0.1709
   1519  C2        45.9130   28.1740   24.9080 C.ar   71  G71         0.2606
   1520  N2        44.5940   28.3690   25.0600 N.pl3  71  G71        -0.0859
   1521  N3        46.5960   27.4960   25.8270 N.ar   71  G71        -0.1918
   1522  C4        47.9130   27.3970   25.5180 C.ar   71  G71         0.1723
   1523  C5        48.5640   27.8980   24.4100 C.ar   71  G71         0.1748
   1524  C6        47.8260   28.6180   23.4360 C.ar   71  G71         0.3023
   1525  O6        48.2370   29.1340   22.3860 O.2    71  G71        -0.2633
   1526  N7        49.9150   27.5860   24.4490 N.ar   71  G71        -0.2173
   1527  C8        50.0510   26.9110   25.5560 C.ar   71  G71         0.1817
   1528  N9        48.8820   26.7530   26.2620 N.ar   71  G71        -0.2693
   1529  OP1       53.5430   22.1460   26.5100 O.3    71  G71        -0.4373
   1530  OP2       53.4110   23.8160   24.5710 O.co2  71  G71        -0.5172
   1531  P         48.7590   21.4740   26.3290 P.3    72  C72         0.2141
   1532  C5'       46.1820   21.6070   26.7420 C.3    72  C72         0.1812
   1533  O5'       47.2690   21.8180   25.8540 O.3    72  C72        -0.3114
   1534  C4'       44.9130   22.2650   26.2580 C.3    72  C72         0.1773
   1535  O4'       45.0830   23.7050   26.1980 O.3    72  C72        -0.3307
   1536  C3'       44.4740   21.9200   24.8460 C.3    72  C72         0.1860
   1537  O3'       43.8720   20.6490   24.7240 O.3    72  C72        -0.3112
   1538  C2'       43.5400   23.0730   24.5140 C.3    72  C72         0.2309
   1539  O2'       42.3200   22.9410   25.2270 O.3    72  C72        -0.2156
   1540  C1'       44.3280   24.2300   25.1220 C.3    72  C72         0.2420
   1541  N1        45.2500   24.8200   24.1190 N.ar   72  C72        -0.2535
   1542  C2        44.7320   25.5940   23.0750 C.ar   72  C72         0.3532
   1543  O2        43.5100   25.7780   23.0200 O.2    72  C72        -0.2443
   1544  N3        45.5850   26.1200   22.1580 N.ar   72  C72        -0.1739
   1545  C4        46.8950   25.8900   22.2620 C.ar   72  C72         0.1759
   1546  N4        47.7070   26.4220   21.3450 N.pl3  72  C72        -0.1070
   1547  C5        47.4370   25.1000   23.3160 C.ar   72  C72         0.0566
   1548  C6        46.5890   24.5890   24.2130 C.ar   72  C72         0.0850
   1549  OP1       48.6990   20.0580   26.7570 O.3    72  C72        -0.4373
   1550  OP2       49.7530   21.9180   25.3250 O.co2  72  C72        -0.5172
   1551  P         44.3010   19.8180   23.4380 P.3    73  G73         0.2141
   1552  C5'       41.9790   20.3460   22.3840 C.3    73  G73         0.1812
   1553  O5'       43.3920   20.4580   22.2860 O.3    73  G73        -0.3114
   1554  C4'       41.2760   21.0220   21.2330 C.3    73  G73         0.1773
   1555  O4'       41.5630   22.4430   21.2480 O.3    73  G73        -0.3307
   1556  C3'       41.6930   20.5920   19.8350 C.3    73  G73         0.1860
   1557  O3'       41.1200   19.3690   19.4170 O.3    73  G73        -0.3112
   1558  C2'       41.2580   21.7830   18.9930 C.3    73  G73         0.2309
   1559  O2'       39.8510   21.7870   18.8040 O.3    73  G73        -0.2156
   1560  C1'       41.6380   22.9310   19.9260 C.3    73  G73         0.2408
   1561  N1        44.6400   25.7480   17.0100 N.ar   73  G73        -0.1709
   1562  C2        43.2720   25.6070   16.9930 C.ar   73  G73         0.2606
   1563  N2        42.6040   26.3110   16.0650 N.pl3  73  G73        -0.0859
   1564  N3        42.6000   24.8270   17.8240 N.ar   73  G73        -0.1918
   1565  C4        43.4270   24.1960   18.6820 C.ar   73  G73         0.1723
   1566  C5        44.7960   24.2670   18.7870 C.ar   73  G73         0.1748
   1567  C6        45.5020   25.1020   17.8890 C.ar   73  G73         0.3023
   1568  O6        46.7240   25.3020   17.8200 O.2    73  G73        -0.2633
   1569  N7        45.2530   23.4510   19.8220 N.ar   73  G73        -0.2173
   1570  C8        44.1670   22.9140   20.3070 C.ar   73  G73         0.1817
   1571  N9        43.0260   23.3360   19.6660 N.ar   73  G73        -0.2693
   1572  OP1       43.8110   18.4270   23.5680 O.3    73  G73        -0.4373
   1573  OP2       45.7350   20.0950   23.1870 O.co2  73  G73        -0.5172
   1574  P         42.0520   18.3420   18.6310 P.3    74  G74         0.2141
   1575  C5'       41.4160   19.2860   16.3220 C.3    74  G74         0.1812
   1576  O5'       42.4230   19.1610   17.3130 O.3    74  G74        -0.3114
   1577  C4'       41.9580   19.9380   15.0810 C.3    74  G74         0.1773
   1578  O4'       42.3670   21.2910   15.4060 O.3    74  G74        -0.3307
   1579  C3'       43.2120   19.3130   14.4890 C.3    74  G74         0.1860
   1580  O3'       42.9550   18.1660   13.6980 O.3    74  G74        -0.3112
   1581  C2'       43.7560   20.4790   13.6810 C.3    74  G74         0.2309
   1582  O2'       42.9570   20.6780   12.5250 O.3    74  G74        -0.2156
   1583  C1'       43.5050   21.6350   14.6470 C.3    74  G74         0.2408
   1584  N1        48.0820   23.7140   15.3230 N.ar   74  G74        -0.1709
   1585  C2        47.2080   23.8400   14.2690 C.ar   74  G74         0.2606
   1586  N2        47.6010   24.6180   13.2520 N.pl3  74  G74        -0.0859
   1587  N3        46.0280   23.2480   14.2120 N.ar   74  G74        -0.1918
   1588  C4        45.7920   22.5070   15.3160 C.ar   74  G74         0.1723
   1589  C5        46.5930   22.3150   16.4090 C.ar   74  G74         0.1748
   1590  C6        47.8520   22.9530   16.4630 C.ar   74  G74         0.3023
   1591  O6        48.7030   22.9080   17.3640 O.2    74  G74        -0.2633
   1592  N7        45.9730   21.4730   17.3170 N.ar   74  G74        -0.2173
   1593  C8        44.8310   21.1750   16.7720 C.ar   74  G74         0.1817
   1594  N9        44.6550   21.7780   15.5570 N.ar   74  G74        -0.2693
   1595  OP1       41.2000   17.2380   18.1320 O.2    74  G74        -0.5172
   1596  OP2       43.2840   18.0800   19.4120 O.co2  74  G74        -0.4373
   1597  P         43.5790   16.7200   14.0110 P.3    75  A75         0.2141
   1598  C5'       46.1130   16.4590   13.4890 C.3    75  A75         0.1812
   1599  O5'       44.9810   17.3200   13.5100 O.3    75  A75        -0.3114
   1600  C4'       47.0030   16.7350   12.3040 C.3    75  A75         0.1773
   1601  O4'       46.3240   16.3340   11.0850 O.3    75  A75        -0.3307
   1602  C3'       47.3710   18.1970   12.0930 C.3    75  A75         0.1860
   1603  O3'       48.5140   18.5800   12.8410 O.3    75  A75        -0.3112
   1604  C2'       47.5600   18.3100   10.5830 C.3    75  A75         0.2309
   1605  O2'       48.8780   17.9360   10.2080 O.3    75  A75        -0.2156
   1606  C1'       46.5830   17.2590   10.0490 C.3    75  A75         0.2408
   1607  N1        44.0210   20.4450    6.8430 N.ar   75  A75        -0.2040
   1608  C2        45.3240   20.1580    6.9600 C.ar   75  A75         0.2016
   1609  N3        45.9340   19.3280    7.8090 N.ar   75  A75        -0.2048
   1610  C4        45.0430   18.7370    8.6180 C.ar   75  A75         0.1692
   1611  C5        43.6730   18.9260    8.6140 C.ar   75  A75         0.1518
   1612  C6        43.1490   19.8320    7.6700 C.ar   75  A75         0.1919
   1613  N6        41.8450   20.1080    7.5620 N.pl3  75  A75        -0.1054
   1614  N7        43.0700   18.1510    9.5880 N.ar   75  A75        -0.2193
   1615  C8        44.0700   17.5200   10.1510 C.ar   75  A75         0.1816
   1616  N9        45.2910   17.8270    9.6200 N.ar   75  A75        -0.2693
   1617  OP1       42.8060   16.2790   12.8200 O.2    75  A75        -0.5172
   1618  OP2       43.1350   16.9980   15.4010 O.co2  75  A75        -0.4373
   1619  P         48.5510   19.9960   13.5810 P.3    76  A76         0.2141
   1620  C5'       49.9890   21.2200   11.7460 C.3    76  A76         0.1812
   1621  O5'       48.7270   21.0490   12.3840 O.3    76  A76        -0.3114
   1622  C4'       49.8750   21.9000   10.4020 C.3    76  A76         0.1773
   1623  O4'       48.7860   21.3080    9.6520 O.3    76  A76        -0.3307
   1624  C3'       49.5670   23.3910   10.4200 C.3    76  A76         0.1860
   1625  O3'       50.7390   24.1780   10.5470 O.3    76  A76        -0.3112
   1626  C2'       48.8380   23.6250    9.1020 C.3    76  A76         0.2309
   1627  O2'       49.7690   23.8090    8.0440 O.3    76  A76        -0.2156
   1628  C1'       48.1260   22.2890    8.8860 C.3    76  A76         0.2408
   1629  N1        43.2310   23.3820    7.5810 N.ar   76  A76        -0.2040
   1630  C2        44.3860   23.5450    6.9310 C.ar   76  A76         0.2016
   1631  N3        45.6230   23.2460    7.3190 N.ar   76  A76        -0.2048
   1632  C4        45.6190   22.7150    8.5500 C.ar   76  A76         0.1692
   1633  C5        44.5110   22.4820    9.3410 C.ar   76  A76         0.1518
   1634  C6        43.2540   22.8420    8.8130 C.ar   76  A76         0.1919
   1635  N6        42.0980   22.6790    9.4630 N.pl3  76  A76        -0.1054
   1636  N7        44.8900   21.9180   10.5450 N.ar   76  A76        -0.2193
   1637  C8        46.1950   21.8200   10.4580 C.ar   76  A76         0.1816
   1638  N9        46.7050   22.2910    9.2840 N.ar   76  A76        -0.2693
   1639  OP1       49.8080   20.1120   14.3540 O.3    76  A76        -0.4373
   1640  OP2       47.2460   20.1940   14.2500 O.co2  76  A76        -0.5172
   1641  P         50.6450   25.6850   11.0670 P.3    77  A77         0.2141
   1642  C5'       50.1250   26.8790    8.8140 C.3    77  A77         0.1812
   1643  O5'       49.6410   26.4120   10.0620 O.3    77  A77        -0.3114
   1644  C4'       49.0160   27.5320    8.0380 C.3    77  A77         0.1773
   1645  O4'       47.9560   26.5670    7.8390 O.3    77  A77        -0.3307
   1646  C3'       48.3390   28.6950    8.7410 C.3    77  A77         0.1860
   1647  O3'       49.0420   29.9090    8.5620 O.3    77  A77        -0.3112
   1648  C2'       46.9470   28.7020    8.1310 C.3    77  A77         0.2309
   1649  O2'       46.9620   29.3680    6.8780 O.3    77  A77        -0.2156
   1650  C1'       46.7030   27.2110    7.8970 C.3    77  A77         0.2408
   1651  N1        42.0650   25.5490    9.4160 N.ar   77  A77        -0.2040
   1652  C2        42.4830   26.1070    8.2770 C.ar   77  A77         0.2016
   1653  N3        43.7070   26.5140    7.9510 N.ar   77  A77        -0.2048
   1654  C4        44.5690   26.2980    8.9540 C.ar   77  A77         0.1692
   1655  C5        44.2860   25.7380   10.1780 C.ar   77  A77         0.1518
   1656  C6        42.9520   25.3480   10.4080 C.ar   77  A77         0.1919
   1657  N6        42.5240   24.7880   11.5440 N.pl3  77  A77        -0.1054
   1658  N7        45.4290   25.6790   10.9560 N.ar   77  A77        -0.2193
   1659  C8        46.3650   26.1970   10.1980 C.ar   77  A77         0.1816
   1660  N9        45.9120   26.5940    8.9770 N.ar   77  A77        -0.2693
   1661  OP1       51.9390   26.3510   10.8030 O.2    77  A77        -0.5172
   1662  OP2       50.0480   25.6740   12.4180 O.co2  77  A77        -0.4373
   1663  P         49.2390   30.9240    9.7810 P.3    78  C78         0.2141
   1664  C5'       46.7670   31.6580   10.1680 C.3    78  C78         0.1812
   1665  O5'       47.8660   30.8740   10.6090 O.3    78  C78        -0.3114
   1666  C4'       45.4360   31.1230   10.6420 C.3    78  C78         0.1773
   1667  O4'       45.4770   29.6780   10.7560 O.3    78  C78        -0.3307
   1668  C3'       44.9740   31.5770   12.0160 C.3    78  C78         0.1860
   1669  O3'       44.4080   32.8710   12.0010 O.3    78  C78        -0.3112
   1670  C2'       43.9760   30.4980   12.4030 C.3    78  C78         0.2309
   1671  O2'       42.7320   30.7010   11.7470 O.3    78  C78        -0.2156
   1672  C1'       44.6480   29.2580   11.8180 C.3    78  C78         0.2420
   1673  N1        45.5210   28.6050   12.8040 N.ar   78  C78        -0.2535
   1674  C2        44.9590   27.8330   13.8290 C.ar   78  C78         0.3532
   1675  O2        43.7280   27.7070   13.8930 O.2    78  C78        -0.2443
   1676  N3        45.7860   27.2440   14.7260 N.ar   78  C78        -0.1739
   1677  C4        47.1050   27.4070   14.6180 C.ar   78  C78         0.1759
   1678  N4        47.8810   26.8070   15.5220 N.pl3  78  C78        -0.1070
   1679  C5        47.6910   28.1910   13.5790 C.ar   78  C78         0.0566
   1680  C6        46.8690   28.7700   12.7000 C.ar   78  C78         0.0850
   1681  OP1       49.2680   32.2850    9.2040 O.2    78  C78        -0.5172
   1682  OP2       50.3500   30.4410   10.6350 O.co2  78  C78        -0.4373
   1683  P         44.5770   33.7860   13.2960 P.3    79  G79         0.2141
   1684  C5'       42.1960   32.9610   13.9880 C.3    79  G79         0.1812
   1685  O5'       43.5640   33.1050   14.3310 O.3    79  G79        -0.3114
   1686  C4'       41.4590   32.1000   14.9810 C.3    79  G79         0.1773
   1687  O4'       41.9930   30.7510   14.9550 O.3    79  G79        -0.3307
   1688  C3'       41.5960   32.4910   16.4420 C.3    79  G79         0.1860
   1689  O3'       40.8170   33.6160   16.8100 O.3    79  G79        -0.3112
   1690  C2'       41.1960   31.1970   17.1370 C.3    79  G79         0.2309
   1691  O2'       39.7980   30.9720   17.0260 O.3    79  G79        -0.2156
   1692  C1'       41.9030   30.1810   16.2440 C.3    79  G79         0.2408
   1693  N1        44.5610   27.6100   19.6930 N.ar   79  G79        -0.1709
   1694  C2        43.2040   27.6540   19.4710 C.ar   79  G79         0.2606
   1695  N2        42.4390   26.9090   20.2820 N.pl3  79  G79        -0.0859
   1696  N3        42.6280   28.3740   18.5220 N.ar   79  G79        -0.1918
   1697  C4        43.5450   29.0600   17.8020 C.ar   79  G79         0.1723
   1698  C5        44.9140   29.0870   17.9400 C.ar   79  G79         0.1748
   1699  C6        45.5150   28.3110   18.9590 C.ar   79  G79         0.3023
   1700  O6        46.7190   28.2020   19.2410 O.2    79  G79        -0.2633
   1701  N7        45.4850   29.9250   16.9910 N.ar   79  G79        -0.2173
   1702  C8        44.4640   30.3790   16.3150 C.ar   79  G79         0.1817
   1703  N9        43.2570   29.8900   16.7500 N.ar   79  G79        -0.2693
   1704  OP1       43.9880   35.1140   12.9870 O.2    79  G79        -0.5172
   1705  OP2       45.9540   33.6450   13.8270 O.co2  79  G79        -0.4373
   1706  P         41.4410   34.7170   17.7940 P.3    80  U80         0.2141
   1707  C5'       40.1780   33.4820   19.7160 C.3    80  U80         0.1812
   1708  O5'       41.4110   33.9640   19.2040 O.3    80  U80        -0.3114
   1709  C4'       40.3900   32.6560   20.9570 C.3    80  U80         0.1773
   1710  O4'       41.1520   31.4700   20.6140 O.3    80  U80        -0.3307
   1711  C3'       41.2150   33.3030   22.0620 C.3    80  U80         0.1860
   1712  O3'       40.5090   34.2400   22.8610 O.3    80  U80        -0.3112
   1713  C2'       41.7010   32.0850   22.8340 C.3    80  U80         0.2309
   1714  O2'       40.6510   31.5380   23.6190 O.3    80  U80        -0.2156
   1715  C1'       42.0030   31.1250   21.6850 C.3    80  U80         0.2420
   1716  N1        43.4160   31.2460   21.2500 N.ar   80  U80        -0.2534
   1717  C2        44.3580   30.4200   21.8210 C.ar   80  U80         0.3546
   1718  O2        44.0870   29.5810   22.6590 O.2    80  U80        -0.2443
   1719  N3        45.6400   30.6020   21.3730 N.ar   80  U80        -0.1530
   1720  C4        46.0660   31.5200   20.4340 C.ar   80  U80         0.2846
   1721  O4        47.2540   31.5690   20.1340 O.2    80  U80        -0.2650
   1722  C5        45.0270   32.3570   19.8940 C.ar   80  U80         0.0814
   1723  C6        43.7680   32.1930   20.3130 C.ar   80  U80         0.0870
   1724  OP1       40.5390   35.8890   17.8360 O.3    80  U80        -0.4373
   1725  OP2       42.8830   34.8980   17.5150 O.co2  80  U80        -0.5172
   1726  P         41.3360   35.2410   23.8070 P.3    81  U81         0.2141
   1727  C5'       41.3090   33.6300   25.8210 C.3    81  U81         0.1812
   1728  O5'       42.0850   34.2570   24.8150 O.3    81  U81        -0.3114
   1729  C4'       42.1990   33.0360   26.8750 C.3    81  U81         0.1773
   1730  O4'       42.9830   31.9720   26.2790 O.3    81  U81        -0.3307
   1731  C3'       43.2350   33.9740   27.4830 C.3    81  U81         0.1860
   1732  O3'       42.7080   34.8230   28.4950 O.3    81  U81        -0.3112
   1733  C2'       44.2800   32.9880   27.9880 C.3    81  U81         0.2309
   1734  O2'       43.8450   32.3890   29.2020 O.3    81  U81        -0.2156
   1735  C1'       44.2540   31.9280   26.8860 C.3    81  U81         0.2420
   1736  N1        45.2710   32.1450   25.8310 N.ar   81  U81        -0.2534
   1737  C2        46.5790   31.7790   26.0720 C.ar   81  U81         0.3546
   1738  O2        46.9560   31.2830   27.1190 O.2    81  U81        -0.2443
   1739  N3        47.4450   32.0170   25.0350 N.ar   81  U81        -0.1530
   1740  C4        47.1370   32.5760   23.8120 C.ar   81  U81         0.2846
   1741  O4        48.0280   32.7340   22.9860 O.2    81  U81        -0.2650
   1742  C5        45.7510   32.9330   23.6350 C.ar   81  U81         0.0814
   1743  C6        44.8850   32.7070   24.6290 C.ar   81  U81         0.0870
   1744  OP1       40.3700   36.0680   24.5600 O.3    81  U81        -0.4373
   1745  OP2       42.4430   35.8830   23.0660 O.co2  81  U81        -0.5172
   1746  P         43.5430   36.0320   29.1520 P.3    82  G82         0.2141
   1747  C5'       44.8070   34.5660   30.9060 C.3    82  G82         0.1812
   1748  O5'       44.8760   35.3590   29.7310 O.3    82  G82        -0.3114
   1749  C4'       46.1480   33.9790   31.2690 C.3    82  G82         0.1773
   1750  O4'       46.5860   33.0400   30.2540 O.3    82  G82        -0.3307
   1751  C3'       47.3050   34.9560   31.3780 C.3    82  G82         0.1860
   1752  O3'       47.3150   35.6540   32.6070 O.3    82  G82        -0.3112
   1753  C2'       48.5120   34.0450   31.2080 C.3    82  G82         0.2309
   1754  O2'       48.7870   33.3540   32.4170 O.3    82  G82        -0.2156
   1755  C1'       47.9980   33.0430   30.1770 C.3    82  G82         0.2408
   1756  N1        51.7430   33.1070   26.6830 N.ar   82  G82        -0.1709
   1757  C2        51.7560   32.5960   27.9520 C.ar   82  G82         0.2606
   1758  N2        52.9130   32.0380   28.3260 N.pl3  82  G82        -0.0859
   1759  N3        50.7200   32.6310   28.7840 N.ar   82  G82        -0.1918
   1760  C4        49.6410   33.2320   28.2280 C.ar   82  G82         0.1723
   1761  C5        49.5290   33.7700   26.9680 C.ar   82  G82         0.1748
   1762  C6        50.6450   33.7250   26.0990 C.ar   82  G82         0.3023
   1763  O6        50.7320   34.1570   24.9450 O.2    82  G82        -0.2633
   1764  N7        48.2580   34.2980   26.7640 N.ar   82  G82        -0.2173
   1765  C8        47.6350   34.0740   27.8850 C.ar   82  G82         0.1817
   1766  N9        48.4100   33.4280   28.8170 N.ar   82  G82        -0.2693
   1767  OP1       42.8120   36.4790   30.3570 O.3    82  G82        -0.4373
   1768  OP2       43.9100   37.0310   28.1270 O.co2  82  G82        -0.5172
   1769  P         48.5010   36.6730   32.9200 P.3    83  A83         0.2141
   1770  C5'       51.0740   36.3930   33.1430 C.3    83  A83         0.1812
   1771  O5'       49.8180   35.7660   32.9380 O.3    83  A83        -0.3114
   1772  C4'       52.2240   35.4850   32.7890 C.3    83  A83         0.1773
   1773  O4'       51.8840   34.7020   31.6190 O.3    83  A83        -0.3307
   1774  C3'       53.5130   36.1980   32.4140 C.3    83  A83         0.1860
   1775  O3'       54.2870   36.5590   33.5420 O.3    83  A83        -0.3112
   1776  C2'       54.2020   35.2080   31.4830 C.3    83  A83         0.2309
   1777  O2'       54.8730   34.1960   32.2140 O.3    83  A83        -0.2156
   1778  C1'       53.0050   34.5830   30.7690 C.3    83  A83         0.2408
   1779  N1        54.7400   35.9670   26.1390 N.ar   83  A83        -0.2040
   1780  C2        55.2850   35.2290   27.1080 C.ar   83  A83         0.2016
   1781  N3        54.7720   34.9060   28.2890 N.ar   83  A83        -0.2048
   1782  C4        53.5470   35.4330   28.4390 C.ar   83  A83         0.1692
   1783  C5        52.8580   36.2110   27.5360 C.ar   83  A83         0.1518
   1784  C6        53.5060   36.4820   26.3210 C.ar   83  A83         0.1919
   1785  N6        52.9520   37.2180   25.3520 N.pl3  83  A83        -0.1054
   1786  N7        51.6180   36.5750   28.0360 N.ar   83  A83        -0.2193
   1787  C8        51.5810   36.0180   29.2220 C.ar   83  A83         0.1816
   1788  N9        52.7120   35.3110   29.5240 N.ar   83  A83        -0.2693
   1789  OP1       48.3500   37.0990   34.3290 O.3    83  A83        -0.4373
   1790  OP2       48.5990   37.6760   31.8340 O.co2  83  A83        -0.5172
   1791  P         54.9830   37.9940   33.6060 P.3    84  A84         0.2141
   1792  C5'       57.1770   36.8690   32.7780 C.3    84  A84         0.1812
   1793  O5'       56.1950   37.8720   32.5710 O.3    84  A84        -0.3114
   1794  C4'       58.0290   36.7050   31.5490 C.3    84  A84         0.1773
   1795  O4'       57.2100   36.2020   30.4640 O.3    84  A84        -0.3307
   1796  C3'       58.6220   37.9940   31.0100 C.3    84  A84         0.1860
   1797  O3'       59.8220   38.3580   31.6650 O.3    84  A84        -0.3112
   1798  C2'       58.8040   37.6970   29.5300 C.3    84  A84         0.2309
   1799  O2'       59.9760   36.9260   29.3160 O.3    84  A84        -0.2156
   1800  C1'       57.5780   36.8250   29.2540 C.3    84  A84         0.2408
   1801  N1        55.5750   39.8250   25.5650 N.ar   84  A84        -0.2040
   1802  C2        56.7510   39.1900   25.6540 C.ar   84  A84         0.2016
   1803  N3        57.2150   38.4250   26.6430 N.ar   84  A84        -0.2048
   1804  C4        56.3140   38.3350   27.6340 C.ar   84  A84         0.1692
   1805  C5        55.0680   38.9270   27.6860 C.ar   84  A84         0.1518
   1806  C6        54.6930   39.7140   26.5840 C.ar   84  A84         0.1919
   1807  N6        53.5150   40.3420   26.5130 N.pl3  84  A84        -0.1054
   1808  N7        54.4150   38.6130   28.8660 N.ar   84  A84        -0.2193
   1809  C8        55.2700   37.8470   29.4980 C.ar   84  A84         0.1816
   1810  N9        56.4320   37.6360   28.8090 N.ar   84  A84        -0.2693
   1811  OP1       55.6600   38.1270   34.9150 O.3    84  A84        -0.4373
   1812  OP2       54.0150   39.0160   33.1470 O.co2  84  A84        -0.5172
   1813  P         59.9000   39.8070   32.3220 P.3    85  A85         0.2141
   1814  C5'       61.3410   40.4140   30.2260 C.3    85  A85         0.1812
   1815  O5'       60.2480   40.7430   31.0720 O.3    85  A85        -0.3114
   1816  C4'       61.1820   41.0250   28.8570 C.3    85  A85         0.1773
   1817  O4'       60.0360   40.4350   28.1910 O.3    85  A85        -0.3307
   1818  C3'       60.8870   42.5170   28.8310 C.3    85  A85         0.1860
   1819  O3'       62.0350   43.3300   28.9950 O.3    85  A85        -0.3112
   1820  C2'       60.2050   42.7000   27.4840 C.3    85  A85         0.2309
   1821  O2'       61.1580   42.7060   26.4330 O.3    85  A85        -0.2156
   1822  C1'       59.3960   41.4090   27.3950 C.3    85  A85         0.2408
   1823  N1        54.9290   43.8650   26.7040 N.ar   85  A85        -0.2040
   1824  C2        56.0860   43.8990   26.0320 C.ar   85  A85         0.2016
   1825  N3        57.2120   43.2290   26.2710 N.ar   85  A85        -0.2048
   1826  C4        57.0790   42.4400   27.3520 C.ar   85  A85         0.1692
   1827  C5        55.9550   42.2980   28.1450 C.ar   85  A85         0.1518
   1828  C6        54.8230   43.0610   27.7850 C.ar   85  A85         0.1919
   1829  N6        53.6650   43.0330   28.4530 N.pl3  85  A85        -0.1054
   1830  N7        56.1930   41.3950   29.1650 N.ar   85  A85        -0.2193
   1831  C8        57.4350   41.0150   28.9710 C.ar   85  A85         0.1816
   1832  N9        58.0260   41.6050   27.8950 N.ar   85  A85        -0.2693
   1833  OP1       61.1070   39.8850   33.1770 O.3    85  A85        -0.4373
   1834  OP2       58.5620   40.1520   32.8600 O.co2  85  A85        -0.5172
   1835  P         61.8970   44.6490   29.8890 P.3    86  G86         0.2141
   1836  C5'       61.6700   45.9230   27.5990 C.3    86  G86         0.1812
   1837  O5'       61.1990   45.7120   28.9210 O.3    86  G86        -0.3114
   1838  C4'       60.6840   46.7560   26.8270 C.3    86  G86         0.1773
   1839  O4'       59.4850   45.9810   26.5860 O.3    86  G86        -0.3307
   1840  C3'       60.1760   47.9780   27.5650 C.3    86  G86         0.1860
   1841  O3'       61.0710   49.0690   27.4870 O.3    86  G86        -0.3112
   1842  C2'       58.8230   48.2370   26.9160 C.3    86  G86         0.2309
   1843  O2'       58.9810   48.8910   25.6650 O.3    86  G86        -0.2156
   1844  C1'       58.3460   46.8130   26.6470 C.3    86  G86         0.2408
   1845  N1        53.6860   46.7870   28.8290 N.ar   86  G86        -0.1709
   1846  C2        54.1230   47.5290   27.7670 C.ar   86  G86         0.2606
   1847  N2        53.2100   48.3470   27.2350 N.pl3  86  G86        -0.0859
   1848  N3        55.3520   47.4710   27.2680 N.ar   86  G86        -0.1918
   1849  C4        56.1280   46.5880   27.9470 C.ar   86  G86         0.1723
   1850  C5        55.7750   45.8050   29.0240 C.ar   86  G86         0.1748
   1851  C6        54.4640   45.8780   29.5350 C.ar   86  G86         0.3023
   1852  O6        53.9820   45.2520   30.4880 O.2    86  G86        -0.2633
   1853  N7        56.8350   45.0210   29.4480 N.ar   86  G86        -0.2173
   1854  C8        57.8010   45.3400   28.6320 C.ar   86  G86         0.1817
   1855  N9        57.4540   46.2860   27.6980 N.ar   86  G86        -0.2693
   1856  OP1       63.2450   45.2130   30.1320 O.2    86  G86        -0.5172
   1857  OP2       60.9620   44.3520   30.9990 O.co2  86  G86        -0.4373
   1858  P         61.0800   50.1050   28.6950 P.3    87  C87         0.2141
   1859  C5'       59.4890   51.8370   27.6710 C.3    87  C87         0.1812
   1860  O5'       59.6440   50.7960   28.6170 O.3    87  C87        -0.3114
   1861  C4'       58.0380   52.1820   27.4800 C.3    87  C87         0.1773
   1862  O4'       57.2500   50.9700   27.4470 O.3    87  C87        -0.3307
   1863  C3'       57.3950   52.9740   28.6000 C.3    87  C87         0.1860
   1864  O3'       57.7130   54.3490   28.5530 O.3    87  C87        -0.3112
   1865  C2'       55.9130   52.6740   28.4240 C.3    87  C87         0.2309
   1866  O2'       55.3550   53.4310   27.3610 O.3    87  C87        -0.2156
   1867  C1'       55.9730   51.2100   27.9970 C.3    87  C87         0.2420
   1868  N1        55.7450   50.2640   29.1170 N.ar   87  C87        -0.2535
   1869  C2        54.4540   50.1490   29.6210 C.ar   87  C87         0.3532
   1870  O2        53.5660   50.8430   29.1130 O.2    87  C87        -0.2443
   1871  N3        54.2280   49.2890   30.6430 N.ar   87  C87        -0.1739
   1872  C4        55.2330   48.5720   31.1440 C.ar   87  C87         0.1759
   1873  N4        54.9620   47.7370   32.1530 N.pl3  87  C87        -0.1070
   1874  C5        56.5600   48.6780   30.6370 C.ar   87  C87         0.0566
   1875  C6        56.7730   49.5290   29.6330 C.ar   87  C87         0.0850
   1876  OP1       62.0150   51.2000   28.3520 O.2    87  C87        -0.5172
   1877  OP2       61.1690   49.3590   29.9710 O.co2  87  C87        -0.4373
   1878  P         58.0800   54.9800   29.9580 P.3    88  G88         0.2141
   1879  C5'       55.8780   56.2900   30.0570 C.3    88  G88         0.1812
   1880  O5'       56.6230   55.2030   30.5790 O.3    88  G88        -0.3114
   1881  C4'       54.4810   56.3570   30.6190 C.3    88  G88         0.1773
   1882  O4'       53.8330   55.0730   30.4740 O.3    88  G88        -0.3307
   1883  C3'       54.3810   56.6190   32.1040 C.3    88  G88         0.1860
   1884  O3'       54.5710   57.9770   32.4370 O.3    88  G88        -0.3112
   1885  C2'       52.9920   56.0940   32.4260 C.3    88  G88         0.2309
   1886  O2'       52.0130   56.9920   31.9310 O.3    88  G88        -0.2156
   1887  C1'       52.9580   54.8440   31.5560 C.3    88  G88         0.2408
   1888  N1        52.1550   51.2570   35.1300 N.ar   88  G88        -0.1709
   1889  C2        51.3450   52.3060   34.7730 C.ar   88  G88         0.2606
   1890  N2        50.1840   52.4120   35.4400 N.pl3  88  G88        -0.0859
   1891  N3        51.6480   53.1850   33.8220 N.ar   88  G88        -0.1918
   1892  C4        52.8480   52.9280   33.2580 C.ar   88  G88         0.1723
   1893  C5        53.7240   51.9120   33.5550 C.ar   88  G88         0.1748
   1894  C6        53.3930   50.9800   34.5600 C.ar   88  G88         0.3023
   1895  O6        54.0590   50.0120   34.9510 O.2    88  G88        -0.2633
   1896  N7        54.8550   51.9860   32.7540 N.ar   88  G88        -0.2173
   1897  C8        54.6440   53.0280   32.0020 C.ar   88  G88         0.1817
   1898  N9        53.4490   53.6500   32.2570 N.ar   88  G88        -0.2693
   1899  OP1       58.6110   56.3460   29.7670 O.2    88  G88        -0.5172
   1900  OP2       58.8530   53.9670   30.7110 O.co2  88  G88        -0.4373
   1901  P         55.3950   58.2360   33.7710 P.3    89  G89         0.2141
   1902  C5'       53.0600   58.9450   34.7640 C.3    89  G89         0.1812
   1903  O5'       54.2470   58.1760   34.8820 O.3    89  G89        -0.3114
   1904  C4'       52.0660   58.5880   35.8460 C.3    89  G89         0.1773
   1905  O4'       51.5510   57.2510   35.6170 O.3    89  G89        -0.3307
   1906  C3'       52.6010   58.5550   37.2730 C.3    89  G89         0.1860
   1907  O3'       52.6050   59.8310   37.8850 O.3    89  G89        -0.3112
   1908  C2'       51.6830   57.5610   37.9700 C.3    89  G89         0.2309
   1909  O2'       50.4690   58.1790   38.3710 O.3    89  G89        -0.2156
   1910  C1'       51.3860   56.5730   36.8400 C.3    89  G89         0.2408
   1911  N1        52.6040   52.0770   38.8970 N.ar   89  G89        -0.1709
   1912  C2        51.5420   52.9090   39.1720 C.ar   89  G89         0.2606
   1913  N2        50.6840   52.5030   40.1130 N.pl3  89  G89        -0.0859
   1914  N3        51.3230   54.0660   38.5700 N.ar   89  G89        -0.1918
   1915  C4        52.2750   54.3290   37.6440 C.ar   89  G89         0.1723
   1916  C5        53.3700   53.5720   37.2950 C.ar   89  G89         0.1748
   1917  C6        53.5970   52.3340   37.9500 C.ar   89  G89         0.3023
   1918  O6        54.5260   51.5250   37.7650 O.2    89  G89        -0.2633
   1919  N7        54.1030   54.2070   36.2970 N.ar   89  G89        -0.2173
   1920  C8        53.4510   55.3130   36.0710 C.ar   89  G89         0.1817
   1921  N9        52.3310   55.4460   36.8470 N.ar   89  G89        -0.2693
   1922  OP1       55.8890   59.6290   33.7880 O.2    89  G89        -0.5172
   1923  OP2       56.3300   57.1070   33.9730 O.co2  89  G89        -0.4373
   1924  P         53.8650   60.3060   38.7400 P.3    90  A90         0.2141
   1925  C5'       52.4600   59.7710   40.8170 C.3    90  A90         0.1812
   1926  O5'       53.6430   59.4910   40.0900 O.3    90  A90        -0.3114
   1927  C4'       52.2000   58.7030   41.8420 C.3    90  A90         0.1773
   1928  O4'       51.9320   57.4480   41.1690 O.3    90  A90        -0.3307
   1929  C3'       53.3660   58.3640   42.7540 C.3    90  A90         0.1860
   1930  O3'       53.5760   59.3080   43.7900 O.3    90  A90        -0.3112
   1931  C2'       52.9650   56.9810   43.2420 C.3    90  A90         0.2309
   1932  O2'       51.8860   57.0690   44.1600 O.3    90  A90        -0.2156
   1933  C1'       52.4330   56.3820   41.9440 C.3    90  A90         0.2408
   1934  N1        55.2800   52.1670   41.3380 N.ar   90  A90        -0.2040
   1935  C2        54.2590   52.4450   42.1530 C.ar   90  A90         0.2016
   1936  N3        53.5590   53.5710   42.2540 N.ar   90  A90        -0.2048
   1937  C4        54.0080   54.4850   41.3870 C.ar   90  A90         0.1692
   1938  C5        55.0400   54.3490   40.4890 C.ar   90  A90         0.1518
   1939  C6        55.7040   53.1120   40.4770 C.ar   90  A90         0.1919
   1940  N6        56.7240   52.8410   39.6580 N.pl3  90  A90        -0.1054
   1941  N7        55.2100   55.5120   39.7550 N.ar   90  A90        -0.2193
   1942  C8        54.2890   56.3190   40.2210 C.ar   90  A90         0.1816
   1943  N9        53.5300   55.7530   41.2000 N.ar   90  A90        -0.2693
   1944  OP1       53.6340   61.7140   39.1260 O.3    90  A90        -0.4373
   1945  OP2       55.1440   59.8920   38.1170 O.co2  90  A90        -0.5172
   1946  P         55.0670   59.7620   44.1680 P.3    91  G91         0.2141
   1947  C5'       54.5180   58.0850   46.0620 C.3    91  G91         0.1812
   1948  O5'       55.5050   58.6160   45.1920 O.3    91  G91        -0.3114
   1949  C4'       54.9420   56.7590   46.6380 C.3    91  G91         0.1773
   1950  O4'       54.7100   55.6900   45.6840 O.3    91  G91        -0.3307
   1951  C3'       56.4150   56.6290   46.9850 C.3    91  G91         0.1860
   1952  O3'       56.7320   57.2800   48.2030 O.3    91  G91        -0.3112
   1953  C2'       56.5830   55.1170   47.0100 C.3    91  G91         0.2309
   1954  O2'       55.9980   54.5690   48.1780 O.3    91  G91        -0.2156
   1955  C1'       55.7200   54.7150   45.8160 C.3    91  G91         0.2408
   1956  N1        58.8630   52.0090   42.9070 N.ar   91  G91        -0.1709
   1957  C2        58.2210   51.6510   44.0670 C.ar   91  G91         0.2606
   1958  N2        58.4470   50.4100   44.5220 N.pl3  91  G91        -0.0859
   1959  N3        57.4130   52.4590   44.7350 N.ar   91  G91        -0.1918
   1960  C4        57.3000   53.6690   44.1380 C.ar   91  G91         0.1723
   1961  C5        57.8940   54.1230   42.9850 C.ar   91  G91         0.1748
   1962  C6        58.7520   53.2510   42.2830 C.ar   91  G91         0.3023
   1963  O6        59.3680   53.4790   41.2370 O.2    91  G91        -0.2633
   1964  N7        57.5170   55.4330   42.7070 N.ar   91  G91        -0.2173
   1965  C8        56.7130   55.7380   43.6890 C.ar   91  G91         0.1817
   1966  N9        56.5320   54.7120   44.5890 N.ar   91  G91        -0.2693
   1967  OP1       55.0070   60.9900   44.9910 O.3    91  G91        -0.4373
   1968  OP2       55.9270   59.7100   42.9630 O.co2  91  G91        -0.5172
   1969  P         58.2140   57.4070   48.7950 P.3    92  C92         0.2141
   1970  C5'       60.1650   55.7240   49.0290 C.3    92  C92         0.1812
   1971  O5'       58.9380   56.0420   48.3980 O.3    92  C92        -0.3114
   1972  C4'       60.3810   54.2360   49.0450 C.3    92  C92         0.1773
   1973  O4'       59.7310   53.6430   47.8940 O.3    92  C92        -0.3307
   1974  C3'       61.8340   53.8020   48.9560 C.3    92  C92         0.1860
   1975  O3'       62.4590   53.7570   50.2270 O.3    92  C92        -0.3112
   1976  C2'       61.7530   52.4490   48.2620 C.3    92  C92         0.2309
   1977  O2'       61.4430   51.4210   49.1890 O.3    92  C92        -0.2156
   1978  C1'       60.5510   52.6420   47.3370 C.3    92  C92         0.2420
   1979  N1        60.9290   53.1240   45.9850 N.ar   92  C92        -0.2535
   1980  C2        61.6390   52.2950   45.1120 C.ar   92  C92         0.3532
   1981  O2        61.9510   51.1550   45.4740 O.2    92  C92        -0.2443
   1982  N3        61.9680   52.7700   43.8890 N.ar   92  C92        -0.1739
   1983  C4        61.6130   54.0050   43.5340 C.ar   92  C92         0.1759
   1984  N4        61.9580   54.4280   42.3150 N.pl3  92  C92        -0.1070
   1985  C5        60.8880   54.8630   44.4080 C.ar   92  C92         0.0566
   1986  C6        60.5710   54.3850   45.6120 C.ar   92  C92         0.0850
   1987  OP1       58.0780   57.3230   50.2650 O.3    92  C92        -0.4373
   1988  OP2       58.9410   58.5310   48.1620 O.co2  92  C92        -0.5172
   1989  P         63.8880   54.4310   50.4460 P.3    93  C93         0.2141
   1990  C5'       64.9680   52.1120   50.1730 C.3    93  C93         0.1812
   1991  O5'       64.8690   53.4350   49.6700 O.3    93  C93        -0.3114
   1992  C4'       65.9370   51.2700   49.3840 C.3    93  C93         0.1773
   1993  O4'       65.3360   50.8890   48.1210 O.3    93  C93        -0.3307
   1994  C3'       67.2550   51.9210   48.9970 C.3    93  C93         0.1860
   1995  O3'       68.2090   51.8800   50.0380 O.3    93  C93        -0.3112
   1996  C2'       67.6680   51.0850   47.7960 C.3    93  C93         0.2309
   1997  O2'       68.1620   49.8290   48.2350 O.3    93  C93        -0.2156
   1998  C1'       66.3220   50.8590   47.1150 C.3    93  C93         0.2420
   1999  N1        65.9760   51.9580   46.1970 N.ar   93  C93        -0.2535
   2000  C2        66.4180   51.9470   44.8730 C.ar   93  C93         0.3532
   2001  O2        67.1020   50.9990   44.4760 O.2    93  C93        -0.2443
   2002  N3        66.0770   52.9780   44.0660 N.ar   93  C93        -0.1739
   2003  C4        65.3340   53.9770   44.5430 C.ar   93  C93         0.1759
   2004  N4        65.0150   54.9800   43.7280 N.pl3  93  C93        -0.1070
   2005  C5        64.8750   54.0060   45.8890 C.ar   93  C93         0.0566
   2006  C6        65.2160   52.9840   46.6720 C.ar   93  C93         0.0850
   2007  OP1       64.2440   54.2430   51.8660 O.3    93  C93        -0.4373
   2008  OP2       63.9300   55.7880   49.8580 O.co2  93  C93        -0.5172
   2009  P         69.5230   52.7760   49.9830 P.3    94  G94         0.2141
   2010  C5'       71.1760   51.1200   48.7090 C.3    94  G94         0.1813
   2011  O5'       70.3190   52.2530   48.6980 O.3    94  G94        -0.3114
   2012  C4'       71.9570   51.0510   47.4200 C.3    94  G94         0.1801
   2013  O4'       71.0210   50.9760   46.3140 O.3    94  G94        -0.3306
   2014  C3'       72.8150   52.2720   47.1110 C.3    94  G94         0.2161
   2015  O3'       74.1020   52.2170   47.7020 O.3    94  G94        -0.2175
   2016  C2'       72.8450   52.2910   45.5900 C.3    94  G94         0.2337
   2017  O2'       73.7540   51.3170   45.1010 O.3    94  G94        -0.2155
   2018  C1'       71.4260   51.8290   45.2680 C.3    94  G94         0.2409
   2019  N1        68.8840   55.2100   42.3850 N.ar   94  G94        -0.1709
   2020  C2        69.7600   54.2170   42.0110 C.ar   94  G94         0.2606
   2021  N2        69.9980   54.0910   40.7010 N.pl3  94  G94        -0.0859
   2022  N3        70.3650   53.3910   42.8540 N.ar   94  G94        -0.1918
   2023  C4        70.0180   53.6440   44.1340 C.ar   94  G94         0.1723
   2024  C5        69.1540   54.6080   44.6120 C.ar   94  G94         0.1748
   2025  C6        68.5140   55.4840   43.6980 C.ar   94  G94         0.3023
   2026  O6        67.7160   56.4030   43.9350 O.2    94  G94        -0.2633
   2027  N7        69.0660   54.5400   45.9970 N.ar   94  G94        -0.2173
   2028  C8        69.8630   53.5560   46.3130 C.ar   94  G94         0.1817
   2029  N9        70.4790   52.9610   45.2360 N.ar   94  G94        -0.2693
   2030  OP1       70.3430   52.5220   51.1900 O.3    94  G94        -0.4373
   2031  OP2       69.1070   54.1500   49.6230 O.co2  94  G94        -0.5172
@<TRIPOS>BOND
     1   735   734    1
     2   734   736   ar
     3   734   733   ar
     4   738   720    2
     5   736   737   ar
     6   733   731   ar
     7   737   730   ar
     8   720   704    1
     9   720   722    1
    10   720   739    1
    11   731   730   ar
    12   731   732    2
    13   706   705    1
    14   730   729    1
    15   704   703    1
    16   722   721    1
    17   705   703    1
    18   705   707    1
    19   724   729    1
    20   724   723    1
    21   703   701    1
    22   729   727    1
    23   721   723    1
    24   757   756    2
    25   723   725    1
    26   707   717    1
    27   707   702    1
    28   701   702    1
    29   701   699    1
    30   727   725    1
    31   727   728    1
    32   716   717   ar
    33   716   715   ar
    34   717   711   ar
    35   756   750   ar
    36   756   755   ar
    37   700   699    1
    38   700   698    1
    39   715   712   ar
    40   711   710   ar
    41   711   712   ar
    42   725   726    1
    43   719   698    2
    44   758   755   ar
    45   758   759   ar
    46   710   709   ar
    47   718   698    1
    48   712   713   ar
    49   750   751   ar
    50   755   754   ar
    51   698   681    1
    52   709   708   ar
    53   726   740    1
    54   713   708   ar
    55   713   714    1
    56   759   760   ar
    57   751   752    1
    58   751   753   ar
    59   754   760   ar
    60   754   753   ar
    61   654   635    2
    62   762   740    2
    63   692   691    2
    64   760   749    1
    65   740   742    1
    66   740   761    1
    67   742   741    1
    68   681   680    1
    69   674   655    2
    70   653   635    1
    71   697   675    2
    72   691   685   ar
    73   691   690   ar
    74   673   655    1
    75   744   749    1
    76   744   743    1
    77   633   615    2
    78   685   686   ar
    79   635   621    1
    80   635   637    1
    81   680   682    1
    82   680   678    1
    83   693   690   ar
    84   693   694   ar
    85   690   689   ar
    86   741   743    1
    87   696   675    1
    88   655   641    1
    89   655   657    1
    90   749   747    1
    91   432   431    1
    92   686   687    1
    93   686   688   ar
    94   437   416    2
    95   682   683    1
    96   682   684    1
    97   675   677    1
    98   675   661    1
    99   410   409    2
   100   694   695   ar
   101   689   688   ar
   102   689   695   ar
   103   636   637    1
   104   636   638    1
   105   411   412   ar
   106   411   408   ar
   107   677   676    1
   108   621   620    1
   109   743   745    1
   110   436   416    1
   111   634   615    1
   112   695   684    1
   113   431   430   ar
   114   431   426   ar
   115   615   617    1
   116   615   598    1
   117   433   430   ar
   118   433   434   ar
   119   412   413   ar
   120   409   408   ar
   121   409   403   ar
   122   641   640    1
   123   430   429   ar
   124   617   616    1
   125   408   407   ar
   126   657   656    1
   127   747   745    1
   128   747   748    1
   129   416   399    1
   130   416   418    1
   131   676   678    1
   132   426   427   ar
   133   678   679    1
   134   299   300   ar
   135   299   296   ar
   136   434   435   ar
   137   684   679    1
   138   616   618    1
   139   300   301   ar
   140   421   422    1
   141   421   423    1
   142   421   419    1
   143   398   400    1
   144   398   399    1
   145   398   396    1
   146   422   438    1
   147   640   638    1
   148   640   642    1
   149   620   618    1
   150   620   622    1
   151   423   424    1
   152   423   425    1
   153   661   660    1
   154   400   402    1
   155   400   401    1
   156   638   639    1
   157   403   404   ar
   158   429   435   ar
   159   429   428   ar
   160   670   669    1
   161   413   407   ar
   162   413   402    1
   163   745   746    1
   164   427   428   ar
   165   435   425    1
   166   407   406   ar
   167   298   297    1
   168   671   669   ar
   169   671   672   ar
   170   394   396    1
   171   394   395    1
   172   598   597    1
   173   660   662    1
   174   660   658    1
   175   415   393    2
   176   618   619    1
   177   417   418    1
   178   417   419    1
   179   296   297   ar
   180   296   295   ar
   181   669   668   ar
   182   656   658    1
   183   455   454    2
   184   672   665   ar
   185   301   291    1
   186   301   295   ar
   187   402   397    1
   188   404   406   ar
   189   404   405    1
   190   651   652   ar
   191   651   649   ar
   192   396   397    1
   193   425   420    1
   194   297   292   ar
   195   419   420    1
   196   348   327    2
   197  1607  1608   ar
   198  1607  1612   ar
   199  1649  1648    1
   200   652   645   ar
   201  1630  1631   ar
   202  1630  1629   ar
   203   639   644    1
   204  1608  1609   ar
   205   746   763    1
   206   460   438    2
   207   290   289    1
   208   650   649    1
   209   438   459    1
   210   438   440    1
   211   622   623    1
   212   622   624    1
   213   456   453   ar
   214   456   457   ar
   215   393   395    1
   216   393   414    1
   217   393   376    1
   218   291   289    1
   219   291   286    1
   220   454   453   ar
   221   454   448   ar
   222   295   294   ar
   223   668   666   ar
   224   662   664    1
   225   662   663    1
   226   649   648   ar
   227   658   659    1
   228   642   644    1
   229   642   643    1
   230   613   592    2
   231   368   350    2
   232  1631  1632   ar
   233   392   370    2
   234   369   350    1
   235   665   666   ar
   236   665   664    1
   237   453   452   ar
   238   325   304    2
   239   645   644    1
   240   645   646   ar
   241  1613  1612    1
   242   597   595    1
   243   597   599    1
   244  1629  1634   ar
   245   614   592    1
   246   457   458   ar
   247   632   631   ar
   248   632   625   ar
   249  1612  1611   ar
   250   619   624    1
   251   666   667    2
   252   448   449   ar
   253   631   629   ar
   254   593   595    1
   255   593   594    1
   256   292   293   ar
   257   387   386    2
   258  1609  1610   ar
   259  1645  1650    1
   260  1645  1644    1
   261   648   646   ar
   262   659   664    1
   263  1650  1648    1
   264  1650  1660    1
   265   289   287    1
   266  1653  1652   ar
   267  1653  1654   ar
   268   349   327    1
   269  1644  1646    1
   270  1644  1642    1
   271   350   352    1
   272   350   333    1
   273   780   781   ar
   274   780   777   ar
   275   646   647    2
   276   286   285    1
   277  1627  1626    1
   278   327   329    1
   279   327   310    1
   280   391   370    1
   281   624   625    1
   282  1648  1646    1
   283   592   594    1
   284   592   575    1
   285   781   782   ar
   286   388   385   ar
   287   388   389   ar
   288   294   293   ar
   289   595   596    1
   290   376   375    1
   291   452   458   ar
   292   452   451   ar
   293   625   626   ar
   294   783   763    2
   295  1652  1651   ar
   296   458   447    1
   297   440   439    1
   298   370   372    1
   299   370   356    1
   300   763   765    1
   301   763   784    1
   302   386   385   ar
   303   386   380   ar
   304   629   630    1
   305   629   628   ar
   306   449   451   ar
   307   449   450    1
   308   764   765    1
   309   764   766    1
   310   288   304    1
   311   288   287    1
   312   600   599    1
   313  1632  1638   ar
   314  1632  1633   ar
   315  1647  1646    1
   316  1647  1663    1
   317   767   766    1
   318   767   772    1
   319   478   477    2
   320   599   601    1
   321  1611  1610   ar
   322  1611  1614   ar
   323  1610  1616   ar
   324   779   778    1
   325   372   371    1
   326   385   384   ar
   327   375   377    1
   328   375   373    1
   329   389   390   ar
   330   328   329    1
   331   328   330    1
   332   304   326    1
   333   304   306    1
   334   442   447    1
   335   442   441    1
   336  1634  1633   ar
   337  1634  1635    1
   338  1642  1643    1
   339   777   778   ar
   340   777   776   ar
   341  1628  1626    1
   342  1628  1638    1
   343  1628  1623    1
   344   352   351    1
   345   626   628   ar
   346   626   627    2
   347  1654  1660   ar
   348  1654  1655   ar
   349  1660  1659   ar
   350   782   772    1
   351   782   776   ar
   352   287   285    1
   353   439   441    1
   354   310   309    1
   355  1626  1624    1
   356   380   381   ar
   357   447   445    1
   358   333   332    1
   359   778   773   ar
   360  1681  1663    2
   361   766   768    1
   362   285   283    1
   363   477   471   ar
   364   477   476   ar
   365  1638  1637   ar
   366   377   378    1
   367   377   379    1
   368  1633  1636   ar
   369  1651  1656   ar
   370   371   373    1
   371   471   472   ar
   372   384   390   ar
   373   384   383   ar
   374   575   574    1
   375   772   770    1
   376   776   775   ar
   377   390   379    1
   378   332   330    1
   379   332   334    1
   380  1614  1615   ar
   381  1616  1606    1
   382  1616  1615   ar
   383   330   331    1
   384   596   601    1
   385   309   307    1
   386   309   311    1
   387  1623  1622    1
   388   356   355    1
   389   305   306    1
   390   305   307    1
   391  1663  1665    1
   392  1663  1682    1
   393   441   443    1
   394   373   374    1
   395   355   357    1
   396   355   353    1
   397   381   383   ar
   398   381   382    1
   399   476   479   ar
   400   476   475   ar
   401   601   612    1
   402   479   480   ar
   403   351   353    1
   404   773   774   ar
   405  1606  1604    1
   406  1606  1601    1
   407  1643  1641    1
   408  1309  1310   ar
   409  1309  1314   ar
   410   472   473    1
   411   472   474   ar
   412  1310  1311   ar
   413  1664  1665    1
   414  1664  1666    1
   415  1655  1656   ar
   416  1655  1658   ar
   417   379   374    1
   418   307   308    1
   419  1659  1658   ar
   420  1605  1604    1
   421   501   500    2
   422   775   774   ar
   423  1622  1624    1
   424  1622  1620    1
   425   283   284    1
   426  1656  1657    1
   427  1624  1625    1
   428   612   611   ar
   429   612   606   ar
   430   611   610   ar
   431  1637  1636   ar
   432   445   443    1
   433   445   446    1
   434  1625  1641    1
   435   475   474   ar
   436   475   481   ar
   437  1604  1602    1
   438   357   358    1
   439   357   359    1
   440   480   481   ar
   441  1666  1667    1
   442  1666  1668    1
   443   768   770    1
   444   768   769    1
   445   353   354    1
   446   303   282    2
   447   574   576    1
   448   574   572    1
   449  1667  1672    1
   450   443   444    1
   451   494   500   ar
   452   494   495   ar
   453   770   771    1
   454  1661  1641    2
   455   311   312    1
   456   311   313    1
   457  1311  1312   ar
   458  1315  1314    1
   459  1314  1313   ar
   460   334   335    1
   461   334   336    1
   462   610   607   ar
   463   500   499   ar
   464   331   336    1
   465   606   605   ar
   466   606   607   ar
   467   577   576    1
   468   481   470    1
   469  1641  1662    1
   470  1601  1600    1
   471   496   495    1
   472   605   603   ar
   473   576   578    1
   474   607   608   ar
   475   367   366   ar
   476   367   360   ar
   477   366   364   ar
   478   801   800    1
   479   495   497   ar
   480  1312  1313   ar
   481  1312  1318   ar
   482   284   282    1
   483  1313  1316   ar
   484   308   313    1
   485  1332  1333   ar
   486  1332  1331   ar
   487   769   785    1
   488  1620  1621    1
   489  1671  1670    1
   490   603   604    1
   491   603   602   ar
   492   336   347    1
   493   590   569    2
   494  1672  1670    1
   495  1672  1673    1
   496   354   359    1
   497   470   465    1
   498   470   468    1
   499  1333  1334   ar
   500   572   570    1
   501   572   573    1
   502   608   602   ar
   503   608   609    2
   504   499   502   ar
   505   499   498   ar
   506   359   360    1
   507   282   265    1
   508   282   302    1
   509  1669  1668    1
   510  1669  1683    1
   511  1668  1670    1
   512   570   571    1
   513   360   361   ar
   514   346   347   ar
   515   346   345   ar
   516   364   365    2
   517   364   363   ar
   518   313   324    1
   519   465   464    1
   520  1602  1600    1
   521  1602  1603    1
   522   571   569    1
   523   569   591    1
   524   569   555    1
   525   444   461    1
   526  1331  1336   ar
   527   800   799   ar
   528   800   795   ar
   529   483   461    2
   530   265   264    1
   531  1600  1598    1
   532   802   799   ar
   533   802   803   ar
   534   497   498   ar
   535  1621  1619    1
   536   347   341   ar
   537   502   503   ar
   538  1318  1308    1
   539  1318  1317   ar
   540  1316  1317   ar
   541  1582  1581    1
   542   498   504   ar
   543   799   798   ar
   544   363   361   ar
   545   361   362    2
   546  1329  1328    1
   547   345   342   ar
   548  1308  1303    1
   549  1308  1306    1
   550  1680  1673   ar
   551  1680  1679   ar
   552   795   796   ar
   553   578   589    1
   554   578   573    1
   555  1334  1340   ar
   556  1334  1335   ar
   557  1673  1674   ar
   558  1617  1597    2
   559  1330  1325    1
   560  1330  1340    1
   561  1330  1328    1
   562  1603  1619    1
   563   823   822    1
   564   806   785    2
   565   803   804   ar
   566  1704  1683    2
   567   324   323   ar
   568   324   318   ar
   569   461   463    1
   570   461   482    1
   571   463   462    1
   572   589   588   ar
   573   589   583   ar
   574   588   587   ar
   575  1307  1306    1
   576   785   805    1
   577   785   787    1
   578  1336  1335   ar
   579  1336  1337    1
   580   323   322   ar
   581  1325  1324    1
   582  1395  1394    2
   583  1340  1339   ar
   584   468   469    1
   585   468   466    1
   586  1586  1585    1
   587   503   504   ar
   588  1683  1705    1
   589  1683  1685    1
   590   341   342   ar
   591   341   340   ar
   592   587   584   ar
   593   583   582   ar
   594   583   584   ar
   595   798   804   ar
   596   798   797   ar
   597  1335  1338   ar
   598  1303  1302    1
   599   504   493    1
   600   817   822   ar
   601   817   818   ar
   602   582   580   ar
   603   796   797   ar
   604  1598  1599    1
   605   464   462    1
   606   464   466    1
   607  1599  1597    1
   608  1306  1304    1
   609   342   343   ar
   610   584   585   ar
   611   822   821   ar
   612   264   266    1
   613   264   262    1
   614  1679  1677   ar
   615  1328  1326    1
   616  1619  1640    2
   617  1619  1639    1
   618   804   794    1
   619   555   554    1
   620  1581  1579    1
   621  1581  1583    1
   622  1396  1394   ar
   623  1396  1397   ar
   624  1580  1597    1
   625  1580  1579    1
   626   580   581    1
   627   580   579   ar
   628  1394  1393   ar
   629  1674  1675    2
   630  1674  1676   ar
   631   787   786    1
   632   585   579   ar
   633   585   586    2
   634   789   794    1
   635   789   788    1
   636   318   317   ar
   637   318   319   ar
   638   340   338   ar
   639   267   266    1
   640  1684  1685    1
   641  1684  1686    1
   642  1597  1618    1
   643   322   319   ar
   644  1324  1326    1
   645  1324  1322    1
   646   466   467    1
   647   266   268    1
   648  1339  1338   ar
   649   317   315   ar
   650   818   819   ar
   651  1587  1585   ar
   652  1587  1588   ar
   653  1398  1397    1
   654  1585  1584   ar
   655   786   788    1
   656  1415  1414    2
   657   493   488    1
   658   493   491    1
   659   794   792    1
   660  1397  1399   ar
   661   821   824   ar
   662   821   820   ar
   663   343   344    2
   664   343   337   ar
   665  1579  1577    1
   666   319   320   ar
   667   261   260    1
   668   261   259    1
   669  1411  1410    1
   670  1677  1676   ar
   671  1677  1678    1
   672  1302  1304    1
   673  1302  1300    1
   674   488   487    1
   675  1583  1578    1
   676  1583  1594    1
   677  1326  1327    1
   678   262   260    1
   679   262   263    1
   680  1393  1392    1
   681  1393  1400   ar
   682   554   556    1
   683   554   552    1
   684  1412  1413    1
   685  1412  1407    1
   686  1412  1410    1
   687   824   825   ar
   688  1414  1413   ar
   689  1414  1416   ar
   690   338   337   ar
   691   338   339    1
   692  1392  1387    1
   693  1392  1390    1
   694   788   790    1
   695  1304  1305    1
   696  1687  1686    1
   697  1687  1692    1
   698  1686  1688    1
   699   819   820   ar
   700   568   549    2
   701  1322  1323    1
   702   315   316    1
   703   315   314   ar
   704  1577  1578    1
   705  1577  1575    1
   706  1327  1343    1
   707   820   826   ar
   708  1413  1420   ar
   709  1416  1417   ar
   710   280   259    2
   711  1407  1406    1
   712   556   557    1
   713   556   558    1
   714  1301  1300    1
   715  1301  1299    1
   716  1391  1390    1
   717   567   549    1
   718  1588  1594   ar
   719  1588  1589   ar
   720  1584  1590   ar
   721  1399  1400   ar
   722   467   484    1
   723  1410  1408    1
   724  1361  1343    2
   725  1387  1386    1
   726   320   314   ar
   727   320   321    2
   728  1594  1593   ar
   729   259   281    1
   730   259   243    1
   731   268   279    1
   732   268   263    1
   733   506   484    2
   734   278   279   ar
   735   278   277   ar
   736  1323  1321    1
   737   491   492    1
   738   491   489    1
   739   825   826   ar
   740  1417  1418    1
   741  1417  1419   ar
   742  1420  1419   ar
   743  1320  1299    2
   744   844   843    1
   745  1305  1321    1
   746   549   551    1
   747   549   535    1
   748  1390  1388    1
   749   826   816    1
   750   792   790    1
   751   792   793    1
   752   279   273   ar
   753   790   791    1
   754  1343  1362    1
   755  1343  1345    1
   756   277   274   ar
   757   486   484    1
   758   486   485    1
   759   552   550    1
   760   552   553    1
   761  1406  1408    1
   762  1406  1404    1
   763   551   550    1
   764  1563  1562    1
   765   487   485    1
   766   487   489    1
   767  1692  1703    1
   768  1692  1690    1
   769   484   505    1
   770  1702  1703   ar
   771  1702  1701   ar
   772  1575  1576    1
   773  1299  1319    1
   774  1299  1285    1
   775   842   843   ar
   776   842   840   ar
   777  1589  1590   ar
   778  1589  1592   ar
   779  1688  1689    1
   780  1688  1690    1
   781   547   529    2
   782   548   529    1
   783  1590  1591    2
   784   489   490    1
   785   273   274   ar
   786   273   272   ar
   787   843   845   ar
   788  1427  1432    1
   789  1427  1426    1
   790  1321  1342    2
   791  1321  1341    1
   792   274   275   ar
   793  1408  1409    1
   794   558   559    1
   795   558   553    1
   796  1703  1697   ar
   797  1593  1592   ar
   798   816   811    1
   799   816   814    1
   800  1431  1430    1
   801  1689  1706    1
   802  1386  1388    1
   803  1386  1384    1
   804   559   566   ar
   805   559   560   ar
   806  1432  1433    1
   807  1432  1430    1
   808   566   565   ar
   809  1435  1434    2
   810   243   242    1
   811  1701  1698   ar
   812  1562  1561   ar
   813  1562  1564   ar
   814   561   560    2
   815   272   270   ar
   816  1561  1567   ar
   817   560   562   ar
   818  1691  1690    1
   819  1404  1405    1
   820   565   563   ar
   821   811   810    1
   822   841   840    2
   823  1426  1424    1
   824  1426  1428    1
   825  1388  1389    1
   826  1409  1423    1
   827   529   531    1
   828   529   513    1
   829   562   563   ar
   830   791   807    1
   831   257   237    2
   832   563   564    2
   833   840   839   ar
   834   275   276    2
   835   275   269   ar
   836   535   534    1
   837  1576  1574    1
   838  1345  1344    1
   839  1434  1433   ar
   840  1434  1436   ar
   841  1433  1440   ar
   842  1725  1706    2
   843  1285  1284    1
   844   864   863    1
   845   527   507    2
   846  1424  1425    1
   847   270   269   ar
   848   270   271    1
   849  1359  1357   ar
   850  1359  1360   ar
   851  1389  1403    1
   852  1430  1428    1
   853   845   846   ar
   854  1358  1357    2
   855   862   863   ar
   856   862   860   ar
   857   239   237    1
   858   239   238    1
   859   235   214    2
   860   531   530    1
   861  1384  1385    1
   862  1706  1724    1
   863  1706  1708    1
   864  1697  1698   ar
   865  1697  1696   ar
   866  1568  1567    2
   867  1564  1565   ar
   868   258   237    1
   869   881   880    2
   870   490   507    1
   871  1567  1566   ar
   872  1405  1403    1
   873  1698  1699   ar
   874   861   860    2
   875   863   865   ar
   876   242   240    1
   877   242   244    1
   878   237   220    1
   879   828   807    2
   880  1436  1437   ar
   881  1440  1439   ar
   882   534   532    1
   883   534   536    1
   884   814   815    1
   885   814   812    1
   886  1595  1574    2
   887   809   807    1
   888   809   808    1
   889   860   859   ar
   890  1428  1429    1
   891  1385  1383    1
   892  1425  1423    1
   893  1357  1356   ar
   894   807   827    1
   895   530   532    1
   896  1344  1346    1
   897   839   846   ar
   898   839   838    1
   899  1360  1353   ar
   900   238   240    1
   901  1429  1443    1
   902   513   512    1
   903   507   528    1
   904   507   509    1
   905  1696  1694   ar
   906   810   808    1
   907   810   812    1
   908  1423  1441    2
   909  1423  1442    1
   910  1574  1596    1
   911  1574  1557    1
   912  1437  1439   ar
   913  1437  1438    2
   914  1287  1286    1
   915  1565  1566   ar
   916  1565  1571   ar
   917   865   866   ar
   918   880   882   ar
   919   880   879   ar
   920  1403  1422    2
   921  1403  1421    1
   922   236   214    1
   923  1284  1286    1
   924  1284  1282    1
   925  1566  1569   ar
   926  1559  1558    1
   927   882   883   ar
   928   859   866   ar
   929   859   858    1
   930   240   241    1
   931  1401  1383    2
   932   214   216    1
   933   214   198    1
   934  1699  1700    2
   935  1699  1693   ar
   936   532   533    1
   937  1445  1444    1
   938  1445  1443    1
   939  1558  1556    1
   940  1558  1560    1
   941  1286  1288    1
   942   244   245    1
   943   244   246    1
   944   812   813    1
   945  1447  1446    1
   946  1447  1452    1
   947   536   537    1
   948   536   538    1
   949  1708  1707    1
   950   838   833    1
   951   838   836    1
   952   858   853    1
   953   858   856    1
   954   897   896    1
   955  1383  1402    1
   956  1383  1369    1
   957   255   254   ar
   958   255   256   ar
   959  1557  1556    1
   960   512   510    1
   961   512   514    1
   962   508   509    1
   963   508   510    1
   964   878   879    1
   965   878   876    1
   966   878   873    1
   967  1694  1693   ar
   968  1694  1695    1
   969   877   876    1
   970   216   215    1
   971  1464  1443    2
   972   220   219    1
   973   879   886   ar
   974  1356  1354   ar
   975   545   546   ar
   976   545   543   ar
   977  1446  1444    1
   978  1446  1448    1
   979  1452  1463    1
   980  1452  1450    1
   981   546   539   ar
   982  1346  1347    1
   983  1346  1348    1
   984  1571  1560    1
   985  1571  1570   ar
   986  1353  1354   ar
   987  1353  1352    1
   988   898   893    1
   989   898   909    1
   990   898   896    1
   991  1707  1709    1
   992   254   251   ar
   993   883   884    1
   994   883   885   ar
   995   893   892    1
   996  1443  1465    1
   997  1347  1352    1
   998  1569  1570   ar
   999  1556  1554    1
  1000  1348  1349    1
  1001  1348  1350    1
  1002  1722  1723   ar
  1003  1722  1720   ar
  1004  1560  1555    1
  1005   833   832    1
  1006  1282  1280    1
  1007  1282  1283    1
  1008   901   900    1
  1009  1484  1466    2
  1010   198   197    1
  1011   533   538    1
  1012   215   217    1
  1013  1485  1466    1
  1014   902   900   ar
  1015   902   903   ar
  1016  1456  1457   ar
  1017  1456  1454   ar
  1018   853   852    1
  1019   876   874    1
  1020   241   246    1
  1021   543   544    1
  1022   543   542   ar
  1023  1455  1454    1
  1024   539   538    1
  1025   539   540   ar
  1026  1463  1457   ar
  1027  1463  1462   ar
  1028   510   511    1
  1029  1721  1720    2
  1030  1451  1450    1
  1031   873   872    1
  1032   246   256    1
  1033   219   217    1
  1034   219   221    1
  1035   857   856    1
  1036  1291  1290    2
  1037   256   250   ar
  1038  1457  1458   ar
  1039   212   192    2
  1040  1454  1453   ar
  1041   856   854    1
  1042  1723  1716   ar
  1043   900   899   ar
  1044  1280  1281    1
  1045   909   903   ar
  1046   909   908   ar
  1047  1354  1355    2
  1048   896   894    1
  1049   836   837    1
  1050   836   834    1
  1051  1349  1363    1
  1052   813   829    1
  1053  1720  1719   ar
  1054  1352  1350    1
  1055  1462  1461   ar
  1056   903   904   ar
  1057  1288  1289    1
  1058  1288  1283    1
  1059   886   885   ar
  1060   892   894    1
  1061   892   890    1
  1062   514   515    1
  1063   514   516    1
  1064  1369  1368    1
  1065   542   540   ar
  1066   540   541    2
  1067  1710  1709    1
  1068  1710  1715    1
  1069   194   192    1
  1070   194   193    1
  1071  1350  1351    1
  1072  1466  1449    1
  1073  1466  1468    1
  1074  1450  1448    1
  1075  1458  1461   ar
  1076  1458  1459   ar
  1077  1453  1459   ar
  1078   178   177    1
  1079  1281  1279    1
  1080   217   218    1
  1081  1290  1289   ar
  1082  1290  1292   ar
  1083   251   250   ar
  1084   251   252   ar
  1085  1709  1711    1
  1086   908   907   ar
  1087  1297  1279    2
  1088  1448  1449    1
  1089  1459  1460    2
  1090   899   905   ar
  1091   848   829    2
  1092  1289  1296   ar
  1093   192   213    1
  1094   192   176    1
  1095   916   915    1
  1096   916   921    1
  1097   197   195    1
  1098   197   199    1
  1099   904   907   ar
  1100   904   905   ar
  1101  1554  1555    1
  1102  1554  1552    1
  1103  1716  1715    1
  1104  1716  1717   ar
  1105   250   249   ar
  1106  1371  1370    1
  1107   831   829    1
  1108   831   830    1
  1109   894   895    1
  1110  1292  1293   ar
  1111   920   919    1
  1112  1546  1545    1
  1113   872   874    1
  1114   872   870    1
  1115   832   834    1
  1116   832   830    1
  1117  1719  1717   ar
  1118   221   222    1
  1119   221   223    1
  1120  1368  1370    1
  1121  1368  1366    1
  1122   890   891    1
  1123   829   847    1
  1124   915   913    1
  1125   915   917    1
  1126   511   516    1
  1127   834   835    1
  1128   905   906    2
  1129   852   854    1
  1130   852   850    1
  1131   874   875    1
  1132   253   252    1
  1133   195   193    1
  1134   195   196    1
  1135   921   919    1
  1136   921   932    1
  1137   854   855    1
  1138   895   912    1
  1139  1296  1295   ar
  1140  1279  1298    1
  1141  1279  1265    1
  1142   525   526   ar
  1143   525   524   ar
  1144  1715  1713    1
  1145   913   914    1
  1146   516   526    1
  1147   252   247   ar
  1148  1382  1363    2
  1149  1717  1718    2
  1150  1363  1381    1
  1151  1363  1365    1
  1152  1468  1467    1
  1153   233   232   ar
  1154   233   234   ar
  1155  1293  1295   ar
  1156  1293  1294    1
  1157   526   520   ar
  1158   524   521   ar
  1159   200   199    1
  1160  1711  1713    1
  1161  1711  1712    1
  1162  1370  1372    1
  1163  1544  1545   ar
  1164  1544  1542   ar
  1165   218   223    1
  1166   177   179    1
  1167   177   175    1
  1168   891   889    1
  1169   232   229   ar
  1170  1545  1547   ar
  1171   851   850    1
  1172   851   849    1
  1173   875   889    1
  1174   919   917    1
  1175  1553  1552    1
  1176  1553  1551    1
  1177   199   201    1
  1178   249   248   ar
  1179  1525  1524    2
  1180   870   871    1
  1181   179   174    1
  1182   179   189    1
  1183   521   520   ar
  1184   521   522   ar
  1185   520   519   ar
  1186   223   234    1
  1187  1366  1364    1
  1188  1366  1367    1
  1189   932   931   ar
  1190   932   926   ar
  1191   917   918    1
  1192   176   175    1
  1193   234   228   ar
  1194   918   935    1
  1195  1365  1364    1
  1196   835   849    1
  1197   855   869    1
  1198   182   181   ar
  1199   182   183   ar
  1200   174   173    1
  1201  1713  1714    1
  1202   914   912    1
  1203  1712  1726    1
  1204   247   248   ar
  1205   871   869    1
  1206   925   926   ar
  1207   925   923   ar
  1208   173   175    1
  1209   173   171    1
  1210  1507  1486    2
  1211   868   849    2
  1212   196   201    1
  1213   519   518   ar
  1214  1741  1740    2
  1215  1265  1264    1
  1216  1543  1542    2
  1217  1482  1483   ar
  1218  1482  1480   ar
  1219   522   523    1
  1220   522   517   ar
  1221   931   930   ar
  1222   912   933    2
  1223   912   934    1
  1224  1745  1726    2
  1225  1542  1541   ar
  1226  1467  1469    1
  1227   936   938    1
  1228   936   937    1
  1229   926   927   ar
  1230  1573  1551    2
  1231   849   867    1
  1232   889   910    2
  1233   889   911    1
  1234   229   228   ar
  1235   229   230   ar
  1236   939   938    1
  1237   939   944    1
  1238   181   180   ar
  1239   938   940    1
  1240  1372  1367    1
  1241  1372  1373    1
  1242  1481  1480    1
  1243  1547  1548   ar
  1244  1524  1518   ar
  1245  1524  1523   ar
  1246  1551  1572    1
  1247  1551  1537    1
  1248   518   517   ar
  1249   201   211    1
  1250   228   227   ar
  1251   924   923    1
  1252  1502  1501    1
  1253  1483  1476   ar
  1254   923   922   ar
  1255  1742  1740   ar
  1256  1742  1743   ar
  1257   888   869    2
  1258   869   887    1
  1259   189   183   ar
  1260   189   188   ar
  1261  1518  1519   ar
  1262  1480  1479   ar
  1263   183   184   ar
  1264  1726  1744    1
  1265  1726  1728    1
  1266  1740  1739   ar
  1267   231   230    2
  1268   930   927   ar
  1269   927   928   ar
  1270   943   942    1
  1271   230   224   ar
  1272  1267  1266    1
  1273   953   935    2
  1274  1264  1266    1
  1275  1264  1262    1
  1276   935   937    1
  1277   935   954    1
  1278  1266  1268    1
  1279  1471  1469    1
  1280  1471  1473    1
  1281  1471  1472    1
  1282   171   172    1
  1283  1541  1548   ar
  1284  1541  1540    1
  1285   944   942    1
  1286   944   945    1
  1287  1375  1374    2
  1288  1486  1506    1
  1289  1486  1472    1
  1290  1486  1488    1
  1291  1469  1470    1
  1292   172   170    1
  1293   211   210   ar
  1294   211   205   ar
  1295   227   225   ar
  1296  1523  1526   ar
  1297  1523  1522   ar
  1298  1503  1500   ar
  1299  1503  1504   ar
  1300   922   928   ar
  1301  1526  1527   ar
  1302  1373  1374   ar
  1303  1373  1380   ar
  1304   180   185   ar
  1305  1501  1500   ar
  1306  1501  1496   ar
  1307  1538  1536    1
  1308  1538  1540    1
  1309  1538  1539    1
  1310  1530  1508    2
  1311   940   941    1
  1312   940   942    1
  1313  1473  1475    1
  1314  1473  1474    1
  1315   210   209   ar
  1316   941   955    1
  1317  1743  1736   ar
  1318   928   929    2
  1319  1537  1536    1
  1320  1374  1376   ar
  1321  1728  1727    1
  1322  1476  1475    1
  1323  1476  1477   ar
  1324  1536  1534    1
  1325  1500  1499   ar
  1326   224   225   ar
  1327  1519  1520    1
  1328  1519  1521   ar
  1329  1763  1762    2
  1330  1487  1488    1
  1331  1487  1489    1
  1332  1479  1477   ar
  1333   188   187   ar
  1334   952   945   ar
  1335   952   951   ar
  1336  1470  1475    1
  1337  1739  1737   ar
  1338   225   226    1
  1339   205   204   ar
  1340   205   206   ar
  1341  1496  1497   ar
  1342   204   203   ar
  1343  1504  1505   ar
  1344   945   946   ar
  1345  1540  1535    1
  1346   184   185   ar
  1347   184   187   ar
  1348  1380  1379   ar
  1349  1271  1270    2
  1350  1550  1531    2
  1351  1785  1784    1
  1352  1262  1260    1
  1353  1262  1263    1
  1354   209   206   ar
  1355  1270  1272   ar
  1356  1270  1269   ar
  1357   185   186    1
  1358  1522  1521   ar
  1359  1522  1528   ar
  1360  1268  1269    1
  1361  1268  1263    1
  1362  1477  1478    2
  1363  1272  1273   ar
  1364  1527  1528   ar
  1365  1801  1802   ar
  1366  1801  1806   ar
  1367   975   955    2
  1368  1269  1276   ar
  1369  1802  1803   ar
  1370  1843  1842    1
  1371   206   207   ar
  1372  1261  1260    1
  1373  1261  1259    1
  1374  1273  1274    1
  1375  1273  1275   ar
  1376  1727  1729    1
  1377  1499  1505   ar
  1378  1499  1498   ar
  1379  1736  1737   ar
  1380  1736  1735    1
  1381   951   949   ar
  1382   955   976    1
  1383   955   957    1
  1384  1533  1531    1
  1385  1533  1532    1
  1386  1276  1275   ar
  1387   170   191    2
  1388   170   190    1
  1389   170   156    1
  1390  1376  1377   ar
  1391   203   202   ar
  1392   158   157    1
  1393  1505  1495    1
  1394  1508  1529    1
  1395  1508  1510    1
  1396  1508  1492    1
  1397  1491  1489    1
  1398  1491  1493    1
  1399  1491  1492    1
  1400  1824  1825   ar
  1401  1824  1823   ar
  1402  1497  1498   ar
  1403  1737  1738    2
  1404  1762  1756   ar
  1405  1762  1761   ar
  1406   946   947    2
  1407   946   948   ar
  1408  1779  1784   ar
  1409  1779  1780   ar
  1410  1535  1534    1
  1411  1489  1490    1
  1412  1379  1377   ar
  1413  1534  1532    1
  1414  1528  1517    1
  1415  1825  1826   ar
  1416  1730  1729    1
  1417  1730  1735    1
  1418  1784  1783   ar
  1419  1531  1549    1
  1420  1531  1514    1
  1421  1821  1820    1
  1422  1493  1495    1
  1423  1493  1494    1
  1424  1807  1806    1
  1425   207   202   ar
  1426   207   208    1
  1427  1510  1509    1
  1428  1277  1259    2
  1429  1806  1805   ar
  1430  1839  1844    1
  1431  1839  1838    1
  1432   156   155    1
  1433  1803  1804   ar
  1434  1844  1842    1
  1435  1844  1855    1
  1436  1756  1757   ar
  1437  1490  1495    1
  1438  1377  1378    2
  1439  1823  1828   ar
  1440  1764  1761   ar
  1441  1764  1765   ar
  1442  1259  1278    1
  1443  1259  1242    1
  1444  1838  1840    1
  1445  1838  1836    1
  1446   949   948   ar
  1447   949   950    1
  1448   956   957    1
  1449   956   958    1
  1450  1729  1731    1
  1451  1735  1733    1
  1452  1842  1840    1
  1453   157   155    1
  1454   157   159    1
  1455  1761  1760   ar
  1456  1780  1781   ar
  1457  1847  1846    1
  1458  1848  1846   ar
  1459  1848  1849   ar
  1460  1513  1515    1
  1461  1513  1514    1
  1462  1513  1511    1
  1463  1826  1832   ar
  1464  1826  1827   ar
  1465  1866  1865    1
  1466  1822  1820    1
  1467  1822  1832    1
  1468  1822  1817    1
  1469   959   958    1
  1470   959   964    1
  1471  1515  1517    1
  1472  1515  1516    1
  1473  1862  1861    1
  1474  1862  1867    1
  1475  1861  1859    1
  1476  1861  1863    1
  1477  1731  1733    1
  1478  1731  1732    1
  1479  1820  1818    1
  1480  1841  1840    1
  1481  1841  1858    1
  1482  1783  1786   ar
  1483  1783  1782   ar
  1484  1517  1512    1
  1485   155   153    1
  1486  1836  1837    1
  1487   162   161    2
  1488  1804  1805   ar
  1489  1804  1810   ar
  1490  1859  1860    1
  1491  1805  1808   ar
  1492  1855  1849   ar
  1493  1855  1854   ar
  1494   958   960    1
  1495  1846  1845   ar
  1496  1828  1827   ar
  1497  1828  1829    1
  1498  1765  1766   ar
  1499  1832  1831   ar
  1500  1509  1511    1
  1501  1849  1850   ar
  1502  1757  1758    1
  1503  1757  1759   ar
  1504  1733  1734    1
  1505  1867  1865    1
  1506  1867  1868    1
  1507  1786  1787   ar
  1508  1248  1247    1
  1509  1512  1511    1
  1510  1768  1746    2
  1511   159   160    1
  1512   159   154    1
  1513  1827  1830   ar
  1514  1246  1247   ar
  1515  1246  1252   ar
  1516  1817  1816    1
  1517  1242  1241    1
  1518  1253  1252    2
  1519   973   972   ar
  1520   973   974   ar
  1521  1760  1759   ar
  1522  1760  1766   ar
  1523  1781  1782   ar
  1524  1876  1858    2
  1525  1865  1863    1
  1526  1782  1788   ar
  1527  1247  1249   ar
  1528  1252  1251   ar
  1529   972   969   ar
  1530  1732  1746    1
  1531   161   160   ar
  1532   161   163   ar
  1533  1864  1863    1
  1534  1864  1878    1
  1535   153   154    1
  1536   153   151    1
  1537   964   974    1
  1538   964   962    1
  1539  1860  1858    1
  1540  1854  1853   ar
  1541  1858  1877    1
  1542   974   968   ar
  1543  1810  1800    1
  1544  1810  1809   ar
  1545  1766  1755    1
  1546  1845  1851   ar
  1547  1818  1816    1
  1548  1818  1819    1
  1549  1816  1814    1
  1550   160   167   ar
  1551  1808  1809   ar
  1552  1837  1835    1
  1553  1241  1243    1
  1554  1241  1239    1
  1555  1831  1830   ar
  1556  1819  1835    1
  1557  1850  1853   ar
  1558  1850  1851   ar
  1559  1249  1250   ar
  1560  1251  1250   ar
  1561  1251  1254   ar
  1562  1870  1869    2
  1563  1868  1869   ar
  1564  1868  1875   ar
  1565  1243  1244    1
  1566  1243  1245    1
  1567  1746  1748    1
  1568  1746  1767    1
  1569   960   961    1
  1570   960   962    1
  1571   969   968   ar
  1572   969   970   ar
  1573   163   164   ar
  1574  1787  1788   ar
  1575  1800  1798    1
  1576  1800  1795    1
  1577  1799  1798    1
  1578  1250  1256   ar
  1579   968   967   ar
  1580  1788  1778    1
  1581  1798  1796    1
  1582  1851  1852    2
  1583  1254  1255   ar
  1584  1869  1871   ar
  1585  1875  1874   ar
  1586   961   977    1
  1587   971   970    1
  1588  1748  1747    1
  1589   151   152    1
  1590  1899  1878    2
  1591   962   963    1
  1592   970   965   ar
  1593   167   166   ar
  1594  1835  1856    2
  1595  1835  1857    1
  1596  1256  1255   ar
  1597  1256  1245    1
  1598  1878  1880    1
  1599  1878  1900    1
  1600   967   966   ar
  1601  1879  1880    1
  1602  1879  1881    1
  1603  1258  1236    2
  1604  1257  1236    1
  1605  1755  1750    1
  1606  1755  1753    1
  1607   164   166   ar
  1608   164   165    1
  1609  1814  1815    1
  1610  1750  1749    1
  1611   152   150    1
  1612  1238  1237    1
  1613  1238  1236    1
  1614  1245  1240    1
  1615  1239  1237    1
  1616  1239  1240    1
  1617  1795  1794    1
  1618   965   966   ar
  1619  1882  1881    1
  1620  1882  1887    1
  1621  1236  1222    1
  1622  1881  1883    1
  1623  1874  1872   ar
  1624  1871  1872   ar
  1625  1778  1776    1
  1626  1778  1773    1
  1627   139   138    1
  1628  1747  1749    1
  1629   997   977    2
  1630  1796  1794    1
  1631  1796  1797    1
  1632   977   998    1
  1633   977   979    1
  1634  1815  1813    1
  1635  1872  1873    1
  1636  1753  1751    1
  1637  1753  1754    1
  1638  1749  1751    1
  1639  1751  1752    1
  1640   168   150    2
  1641  1776  1777    1
  1642  1776  1774    1
  1643  1794  1792    1
  1644   993   992    1
  1645  1887  1898    1
  1646  1887  1885    1
  1647  1773  1772    1
  1648  1797  1813    1
  1649   150   169    1
  1650   150   133    1
  1651    22     1    1
  1652   138   137   ar
  1653   138   140   ar
  1654  1790  1769    2
  1655  1886  1885    1
  1656  1897  1898   ar
  1657  1897  1896   ar
  1658   979   978    1
  1659  1883  1885    1
  1660  1883  1884    1
  1661   137   143   ar
  1662  1222  1221    1
  1663   992   991   ar
  1664   992   987   ar
  1665  1231  1230    2
  1666  1898  1892   ar
  1667   135   134    1
  1668   994   991   ar
  1669   994   995   ar
  1670   140   141   ar
  1671  1813  1834    2
  1672  1813  1833    1
  1673  1774  1772    1
  1674  1774  1775    1
  1675  1884  1901    1
  1676   133   132    1
  1677   991   990   ar
  1678  1793  1792    1
  1679  1793  1791    1
  1680   987   988   ar
  1681  1752  1769    1
  1682   134   132    1
  1683   134   136    1
  1684  1230  1232   ar
  1685  1230  1229   ar
  1686    23     1    1
  1687  1896  1893   ar
  1688  1772  1770    1
  1689  1221  1219    1
  1690  1221  1223    1
  1691   995   996   ar
  1692  1232  1233   ar
  1693  1769  1771    1
  1694  1769  1789    1
  1695  1771  1770    1
  1696     1     3    1
  1697  1217  1218    1
  1698  1217  1219    1
  1699   143   144    2
  1700   143   142   ar
  1701     2     3    1
  1702     2     4    1
  1703  1812  1791    2
  1704  1229  1227   ar
  1705   990   996   ar
  1706   990   989   ar
  1707   141   142   ar
  1708   141   147   ar
  1709   988   989   ar
  1710   132   130    1
  1711  1892  1893   ar
  1712  1892  1891   ar
  1713   981   986    1
  1714   981   980    1
  1715  1233  1226   ar
  1716   996   986    1
  1717  1218  1216    1
  1718   978   980    1
  1719  1775  1791    1
  1720  1893  1894   ar
  1721  1235  1216    2
  1722  1791  1811    1
  1723   142   145   ar
  1724  1219  1220    1
  1725  1223  1225    1
  1726  1223  1224    1
  1727  1901  1922    2
  1728  1901  1923    1
  1729  1901  1903    1
  1730  1227  1226   ar
  1731  1227  1228    2
  1732  1192  1170    2
  1733  1891  1889   ar
  1734   136   147    1
  1735   136   131    1
  1736  1226  1225    1
  1737   147   146   ar
  1738  1191  1170    1
  1739   986   984    1
  1740  1234  1216    1
  1741  1215  1193    2
  1742    45    24    2
  1743  1216  1199    1
  1744     4     5    1
  1745     4     6    1
  1746   980   982    1
  1747  1220  1225    1
  1748  1168  1150    2
  1749  1894  1895    2
  1750  1894  1888   ar
  1751     7    24    1
  1752     7     6    1
  1753   130   131    1
  1754   130   128    1
  1755   145   146   ar
  1756  1170  1156    1
  1757  1170  1172    1
  1758  1014  1013    1
  1759    46    24    1
  1760  1902  1903    1
  1761  1902  1904    1
  1762  1889  1888   ar
  1763  1889  1890    1
  1764    24    26    1
  1765  1214  1193    1
  1766     5    10    1
  1767     6     8    1
  1768  1193  1195    1
  1769  1193  1176    1
  1770  1013  1015   ar
  1771  1013  1012   ar
  1772  1015  1016   ar
  1773  1169  1150    1
  1774  1210  1209    2
  1775  1017   999    2
  1776   982   984    1
  1777   982   983    1
  1778  1156  1155    1
  1779   984   985    1
  1780  1150  1152    1
  1781  1150  1134    1
  1782  1905  1904    1
  1783  1905  1910    1
  1784  1195  1194    1
  1785  1199  1198    1
  1786   128   129    1
  1787  1172  1171    1
  1788   129   127    1
  1789  1012  1010   ar
  1790  1211  1208   ar
  1791  1211  1212   ar
  1792  1904  1906    1
  1793  1016  1009   ar
  1794  1209  1208   ar
  1795  1209  1203   ar
  1796  1198  1200    1
  1797  1198  1196    1
  1798  1920  1919   ar
  1799  1920  1921   ar
  1800  1151  1152    1
  1801  1151  1153    1
  1802  1208  1207   ar
  1803  1212  1213   ar
  1804     9     8    1
  1805  1919  1916   ar
  1806  1175  1176    1
  1807  1175  1177    1
  1808  1175  1173    1
  1809  1155  1153    1
  1810  1155  1157    1
  1811  1171  1173    1
  1812     8    10    1
  1813  1010  1009   ar
  1814  1010  1011    2
  1815    10    21    1
  1816  1009  1008    1
  1817    26    25    1
  1818  1203  1204   ar
  1819  1194  1196    1
  1820   983   999    1
  1821   148   127    2
  1822   122   121    1
  1823   999  1001    1
  1824   999  1018    1
  1825    20    21   ar
  1826    20    19   ar
  1827  1003  1008    1
  1828  1003  1002    1
  1829  1200  1202    1
  1830  1200  1201    1
  1831  1134  1133    1
  1832    25    27    1
  1833  1910  1921    1
  1834  1910  1908    1
  1835  1921  1915   ar
  1836  1177  1178    1
  1837  1177  1179    1
  1838   149   127    1
  1839   127   113    1
  1840  1207  1213   ar
  1841  1207  1206   ar
  1842  1153  1154    1
  1843  1213  1202    1
  1844  1008  1006    1
  1845  1196  1197    1
  1846  1173  1174    1
  1847    21    15   ar
  1848  1001  1000    1
  1849   120   121   ar
  1850   120   118   ar
  1851  1906  1907    1
  1852  1906  1908    1
  1853   121   123   ar
  1854  1916  1915   ar
  1855  1916  1917   ar
  1856  1204  1206   ar
  1857  1204  1205    1
  1858    66    47    2
  1859  1000  1002    1
  1860  1189  1188   ar
  1861  1189  1190   ar
  1862  1188  1185   ar
  1863  1157  1158    1
  1864  1157  1159    1
  1865  1202  1197    1
  1866  1915  1914   ar
  1867    19    16   ar
  1868  1918  1917    2
  1869   119   118    2
  1870   118   117   ar
  1871  1907  1924    1
  1872  1002  1004    1
  1873   123   124   ar
  1874  1917  1911   ar
  1875  1908  1909    1
  1876  1190  1179    1
  1877  1190  1184   ar
  1878    65    47    1
  1879  1185  1186   ar
  1880  1185  1184   ar
  1881  1167  1166   ar
  1882  1167  1160   ar
  1883  1166  1164   ar
  1884  1174  1179    1
  1885  1187  1186    2
  1886  1945  1924    2
  1887  1133  1135    1
  1888  1133  1131    1
  1889   114   115    1
  1890   114   112    1
  1891   114   116    1
  1892  1034  1033    1
  1893  1154  1159    1
  1894   113   112    1
  1895    27    29    1
  1896    27    28    1
  1897  1148  1128    2
  1898  1186  1180   ar
  1899    47    30    1
  1900    47    49    1
  1901  1184  1183   ar
  1902   117   124   ar
  1903   117   116    1
  1904  1136  1135    1
  1905    30    29    1
  1906    15    16   ar
  1907    15    14   ar
  1908  1006  1004    1
  1909  1006  1007    1
  1910  1159  1160    1
  1911  1914  1912   ar
  1912  1160  1161   ar
  1913   112   110    1
  1914   102   101    2
  1915  1164  1165    2
  1916  1164  1163   ar
  1917    29    31    1
  1918  1924  1944    1
  1919  1924  1926    1
  1920    16    17   ar
  1921    43    42   ar
  1922    43    44   ar
  1923  1135  1137    1
  1924  1180  1181   ar
  1925    42    39   ar
  1926  1183  1181   ar
  1927  1911  1912   ar
  1928  1129  1131    1
  1929  1129  1130    1
  1930  1033  1035   ar
  1931  1033  1032   ar
  1932  1131  1132    1
  1933  1004  1005    1
  1934   116   111    1
  1935    28    33    1
  1936  1181  1182    1
  1937  1161  1163   ar
  1938  1161  1162    2
  1939  1912  1913    1
  1940  1035  1036   ar
  1941    14    12   ar
  1942  1032  1030   ar
  1943  1130  1128    1
  1944   101   100   ar
  1945   101   103   ar
  1946  1128  1149    1
  1947  1128  1112    1
  1948  1940  1939    1
  1949  1941  1942   ar
  1950  1941  1938   ar
  1951    49    48    1
  1952   100    98   ar
  1953  1055  1054    1
  1954    44    33    1
  1955    44    38   ar
  1956    82    81    2
  1957    17    18    2
  1958    17    11   ar
  1959   110   111    1
  1960   110   108    1
  1961  1926  1925    1
  1962  1036  1029   ar
  1963  1030  1029   ar
  1964  1030  1031    2
  1965    39    40   ar
  1966    39    38   ar
  1967    33    31    1
  1968    31    32    1
  1969  1942  1943   ar
  1970   103   104   ar
  1971  1005  1019    1
  1972    41    40    2
  1973  1137  1132    1
  1974  1137  1147    1
  1975   109   108    1
  1976   109   107    1
  1977   126   107    2
  1978  1939  1938   ar
  1979  1939  1934   ar
  1980  1049  1054   ar
  1981  1049  1050   ar
  1982  1938  1937   ar
  1983  1029  1028    1
  1984    63    64   ar
  1985    63    61   ar
  1986    12    11   ar
  1987    12    13    1
  1988    86    67    2
  1989  1054  1053   ar
  1990  2021  2020    1
  1991    62    61    1
  1992    40    34   ar
  1993  1112  1111    1
  1994    98    99    2
  1995    98    97   ar
  1996  1925  1927    1
  1997    38    37   ar
  1998    48    50    1
  1999  1038  1019    2
  2000  1147  1146   ar
  2001  1147  1141   ar
  2002    81    83   ar
  2003    81    80   ar
  2004  1146  1145   ar
  2005    64    57   ar
  2006   104    97   ar
  2007  1928  1927    1
  2008  1928  1933    1
  2009  1050  1051   ar
  2010  1943  1937   ar
  2011  1943  1933    1
  2012   107   125    1
  2013   107    93    1
  2014  1073  1072    1
  2015  1963  1962    2
  2016  1023  1028    1
  2017  1023  1022    1
  2018    83    84   ar
  2019    61    60   ar
  2020  1934  1935   ar
  2021  1028  1026    1
  2022  1937  1936   ar
  2023    97    96    1
  2024  1019  1021    1
  2025  1019  1037    1
  2026  1053  1056   ar
  2027  1053  1052   ar
  2028  1071  1072   ar
  2029  1071  1077   ar
  2030  1141  1140   ar
  2031  1141  1142   ar
  2032  1078  1077    2
  2033  1145  1142   ar
  2034  1140  1139   ar
  2035  1056  1057   ar
  2036  1927  1929    1
  2037  1021  1020    1
  2038    80    78   ar
  2039  1933  1931    1
  2040   106    87    2
  2041  1072  1074   ar
  2042  2020  2019   ar
  2043  2020  2022   ar
  2044  1051  1052   ar
  2045    67    53    1
  2046    67    85    1
  2047    67    69    1
  2048  1111  1113    1
  2049  1111  1109    1
  2050    94    92    1
  2051    94    96    1
  2052    94    95    1
  2053    34    35   ar
  2054  1052  1058   ar
  2055    37    35   ar
  2056  1935  1936   ar
  2057  1142  1143   ar
  2058    50    52    1
  2059    50    51    1
  2060  1077  1076   ar
  2061    52    53    1
  2062    52    54    1
  2063  1962  1956   ar
  2064  1962  1961   ar
  2065  1984  1983    1
  2066  1020  1022    1
  2067    51    56    1
  2068    84    77   ar
  2069  2019  2025   ar
  2070    92    93    1
  2071    92    90    1
  2072    57    56    1
  2073    57    58   ar
  2074    96    91    1
  2075  1139  1138   ar
  2076  1022  1024    1
  2077    60    58   ar
  2078  1114  1113    1
  2079  1057  1058   ar
  2080  1964  1961   ar
  2081  1964  1965   ar
  2082    35    36    1
  2083  1113  1115    1
  2084  1929  1931    1
  2085  1929  1930    1
  2086    69    68    1
  2087  1026  1024    1
  2088  1026  1027    1
  2089  2022  2023   ar
  2090  1058  1048    1
  2091  1143  1138   ar
  2092  1143  1144    1
  2093  1956  1957   ar
  2094    89    87    1
  2095    89    88    1
  2096  1968  1946    2
  2097  1961  1960   ar
  2098  1074  1075   ar
  2099  1107  1109    1
  2100  1107  1108    1
  2101    78    77   ar
  2102    78    79    2
  2103  1109  1110    1
  2104    56    54    1
  2105    58    59    2
  2106    87   105    1
  2107    87    73    1
  2108  1024  1025    1
  2109  1931  1932    1
  2110    77    76    1
  2111  1076  1075   ar
  2112  1076  1079   ar
  2113    54    55    1
  2114    91    90    1
  2115  1983  1982   ar
  2116  1983  1985   ar
  2117  1075  1081   ar
  2118    90    88    1
  2119  1965  1966   ar
  2120  2025  2026    2
  2121  2025  2024   ar
  2122  2004  2003    1
  2123  1048  1043    1
  2124  1048  1046    1
  2125  1930  1946    1
  2126  1982  1980   ar
  2127    72    74    1
  2128    72    73    1
  2129    72    70    1
  2130  2002  2003   ar
  2131  2002  2000   ar
  2132  1957  1958    1
  2133  1957  1959   ar
  2134  1043  1042    1
  2135  1126  1106    2
  2136  2023  2024   ar
  2137  2023  2029   ar
  2138  1960  1966   ar
  2139  1960  1959   ar
  2140  1946  1967    1
  2141  1946  1948    1
  2142  1079  1080   ar
  2143  1115  1110    1
  2144  1115  1125    1
  2145    68    70    1
  2146    74    76    1
  2147    74    75    1
  2148  1108  1106    1
  2149  1985  1986   ar
  2150    76    71    1
  2151  2001  2000    2
  2152  2003  2005   ar
  2153  1118  1119   ar
  2154  1118  1117   ar
  2155  1966  1955    1
  2156  2024  2027   ar
  2157  1025  1039    1
  2158  1125  1119   ar
  2159  1125  1124   ar
  2160  1081  1080   ar
  2161  1081  1070    1
  2162    71    70    1
  2163  1060  1039    2
  2164  1119  1120   ar
  2165  1127  1106    1
  2166  1117  1116   ar
  2167  1106  1090    1
  2168  2000  1999   ar
  2169  1124  1123   ar
  2170  1046  1047    1
  2171  1046  1044    1
  2172  2017  2016    1
  2173  1041  1039    1
  2174  1041  1040    1
  2175  1980  1981    2
  2176  1980  1979   ar
  2177  1948  1947    1
  2178  1120  1123   ar
  2179  1120  1121   ar
  2180  1116  1121   ar
  2181  2029  2018    1
  2182  2029  2028   ar
  2183  2018  2016    1
  2184  2018  2013    1
  2185  1039  1059    1
  2186  1070  1065    1
  2187  1070  1068    1
  2188  1121  1122    1
  2189  1042  1040    1
  2190  1042  1044    1
  2191  2016  2014    1
  2192  1986  1979   ar
  2193  1950  1955    1
  2194  1950  1949    1
  2195  1955  1953    1
  2196  2005  2006   ar
  2197  1979  1978    1
  2198  2027  2028   ar
  2199  1044  1045    1
  2200  1065  1064    1
  2201  1947  1949    1
  2202  1999  2006   ar
  2203  1999  1998    1
  2204  2013  2012    1
  2205  1090  1089    1
  2206  1068  1069    1
  2207  1068  1066    1
  2208  1949  1951    1
  2209  1951  1953    1
  2210  1951  1952    1
  2211  1953  1954    1
  2212  2014  2012    1
  2213  2014  2015    1
  2214  1998  1996    1
  2215  1998  1993    1
  2216  1089  1091    1
  2217  1089  1087    1
  2218  1978  1973    1
  2219  1978  1976    1
  2220  1045  1061    1
  2221  1091  1092    1
  2222  1091  1093    1
  2223  2012  2010    1
  2224  1064  1066    1
  2225  1064  1062    1
  2226  1095  1094   ar
  2227  1095  1096   ar
  2228  1094  1099   ar
  2229  1066  1067    1
  2230  1996  1997    1
  2231  1996  1994    1
  2232  1096  1097   ar
  2233  1973  1972    1
  2234  1099  1100    1
  2235  1099  1098   ar
  2236  1063  1062    1
  2237  1063  1061    1
  2238  1083  1061    2
  2239  1993  1992    1
  2240  1988  1969    2
  2241  1952  1969    1
  2242  1976  1974    1
  2243  1976  1977    1
  2244  1097  1098   ar
  2245  1097  1103   ar
  2246  1971  1969    1
  2247  1971  1970    1
  2248  1061  1082    1
  2249  1098  1101   ar
  2250  2011  2010    1
  2251  2011  2009    1
  2252  1103  1093    1
  2253  1103  1102   ar
  2254  1087  1085    1
  2255  1087  1088    1
  2256  1093  1088    1
  2257  1969  1987    1
  2258  1101  1102   ar
  2259  1086  1085    1
  2260  1086  1084    1
  2261  1974  1972    1
  2262  1974  1975    1
  2263  1067  1084    1
  2264  1994  1992    1
  2265  1994  1995    1
  2266  1970  1972    1
  2267  1992  1990    1
  2268  2031  2009    2
  2269  1991  1990    1
  2270  1991  1989    1
  2271  1105  1084    2
  2272  1084  1104    1
  2273  2008  1989    2
  2274  2009  1995    1
  2275  2009  2030    1
  2276  1975  1989    1
  2277  1989  2007    1
