ligand
 OpenBabel11021811393D
libRbt.so/2013.1/901 2013/11/27
 14 13  0  0  0  0  0  0  0  0999 V2000
   37.4671   21.4927   32.7158 N   0  0  0  0  0  0  0  0  0  0  0  0
   37.9824   21.3808   34.0716 C   0  0  0  0  0  0  0  0  0  0  0  0
   37.0195   20.5277   34.9425 C   0  0  0  0  0  0  0  0  0  0  0  0
   37.3812   20.3272   36.4573 C   0  0  0  0  0  0  0  0  0  0  0  0
   38.6413   19.5416   36.7244 N   0  0  0  0  0  0  0  0  0  0  0  0
   39.8934   20.3340   36.5518 C   0  0  0  0  0  0  0  0  0  0  0  0
   41.1442   19.6256   37.0394 C   0  0  0  0  0  0  0  0  0  0  0  0
   42.4110   20.4061   36.7389 C   0  0  0  0  0  0  0  0  0  0  0  0
   42.3890   21.6234   37.5815 C   0  0  0  0  0  0  0  0  0  0  0  0
   43.5199   22.5604   37.3786 N   0  0  0  0  0  0  0  0  0  0  0  0
   43.2262   23.6482   36.4120 C   0  0  0  0  0  0  0  0  0  0  0  0
   44.4295   24.5590   36.0259 C   0  0  0  0  0  0  0  0  0  0  0  0
   43.9320   25.6109   35.0189 C   0  0  0  0  0  0  0  0  0  0  0  0
   45.0244   26.4899   34.6096 N   0  0  0  0  0  0  0  0  0  0  0  0
  1  2  1  0  0  0  0
  2  3  1  0  0  0  0
  3  4  1  0  0  0  0
  4  5  1  0  0  0  0
  5  6  1  0  0  0  0
  6  7  1  0  0  0  0
  7  8  1  0  0  0  0
  8  9  1  0  0  0  0
  9 10  1  0  0  0  0
 10 11  1  0  0  0  0
 11 12  1  0  0  0  0
 12 13  1  0  0  0  0
 13 14  1  0  0  0  0
M  END
>  <CHROM.1>
-178.16049722,-65.28836652,78.85471705,170.31889130,174.97952073,68.18527271
-176.94607784,94.31546712,-172.76825319,179.70432276,-179.48854323,41.03288873
22.00889166,35.87650489,2.73981393,0.47481331,2.42017658

>  <Name>
ligand

>  <RI>
0

>  <Rbt.Current_Directory>
/home/itssahil/PROJECTS/Mol_Feturizer/New_Systems/rnas/1EVV

>  <Rbt.Executable>
rbdock ($Id: //depot/dev/client3/rdock/2013.1/src/exe/rbdock.cxx#4 $)

>  <Rbt.Library>
libRbt.so (2013.1, Build901 2013/11/27)

>  <Rbt.Parameter_File>
/export/apps/rDock/src/rDock_2013.1_src/data/scripts/dock_solv.prm

>  <Rbt.Receptor>
prm/pocket_docking_2.prm

>  <SCORE>
-0.229992

>  <SCORE.INTER>
8.46766

>  <SCORE.INTER.CONST>
1

>  <SCORE.INTER.POLAR>
0

>  <SCORE.INTER.ROT>
11

>  <SCORE.INTER.SOLV>
3.50557

>  <SCORE.INTER.VDW>
-6.45675

>  <SCORE.INTER.norm>
0.604833

>  <SCORE.INTRA>
-8.71646

>  <SCORE.INTRA.DIHEDRAL>
-18.5653

>  <SCORE.INTRA.DIHEDRAL.0>
20.2131

>  <SCORE.INTRA.POLAR>
0

>  <SCORE.INTRA.POLAR.0>
0

>  <SCORE.INTRA.REPUL>
0

>  <SCORE.INTRA.REPUL.0>
0

>  <SCORE.INTRA.SOLV>
-0.846022

>  <SCORE.INTRA.SOLV.lig_0>
-48.2851

>  <SCORE.INTRA.VDW>
0.989219

>  <SCORE.INTRA.VDW.0>
-1.08658

>  <SCORE.INTRA.norm>
-0.622605

>  <SCORE.RESTR>
0.0188094

>  <SCORE.RESTR.CAVITY>
0.0188094

>  <SCORE.RESTR.norm>
0.00134353

>  <SCORE.SYSTEM>
0

>  <SCORE.SYSTEM.CONST>
0

>  <SCORE.SYSTEM.DIHEDRAL>
0

>  <SCORE.SYSTEM.SOLV>
0

>  <SCORE.SYSTEM.norm>
0

>  <SCORE.heavy>
14

>  <SCORE.norm>
-0.016428

>  <RMSD>
1.174

$$$$
ligand
 OpenBabel11021811393D
libRbt.so/2013.1/901 2013/11/27
 14 13  0  0  0  0  0  0  0  0999 V2000
   37.4212   21.2931   33.0482 N   0  0  0  0  0  0  0  0  0  0  0  0
   38.3067   20.2249   33.4856 C   0  0  0  0  0  0  0  0  0  0  0  0
   37.7195   19.5217   34.7403 C   0  0  0  0  0  0  0  0  0  0  0  0
   37.5432   20.3754   36.0463 C   0  0  0  0  0  0  0  0  0  0  0  0
   38.8046   21.0039   36.5853 N   0  0  0  0  0  0  0  0  0  0  0  0
   39.6988   20.0452   37.2973 C   0  0  0  0  0  0  0  0  0  0  0  0
   41.0807   20.5968   37.5972 C   0  0  0  0  0  0  0  0  0  0  0  0
   41.8658   20.9189   36.3387 C   0  0  0  0  0  0  0  0  0  0  0  0
   43.1705   21.4755   36.7634 C   0  0  0  0  0  0  0  0  0  0  0  0
   43.1074   22.7671   37.4887 N   0  0  0  0  0  0  0  0  0  0  0  0
   42.8368   23.9317   36.6089 C   0  0  0  0  0  0  0  0  0  0  0  0
   44.0587   24.4845   35.8163 C   0  0  0  0  0  0  0  0  0  0  0  0
   43.5832   25.6813   34.9739 C   0  0  0  0  0  0  0  0  0  0  0  0
   44.6779   26.2085   34.1633 N   0  0  0  0  0  0  0  0  0  0  0  0
  1  2  1  0  0  0  0
  2  3  1  0  0  0  0
  3  4  1  0  0  0  0
  4  5  1  0  0  0  0
  5  6  1  0  0  0  0
  6  7  1  0  0  0  0
  7  8  1  0  0  0  0
  8  9  1  0  0  0  0
  9 10  1  0  0  0  0
 10 11  1  0  0  0  0
 11 12  1  0  0  0  0
 12 13  1  0  0  0  0
 13 14  1  0  0  0  0
M  END
>  <CHROM.1>
-62.80389048,-58.48092657,-76.47010158,168.45267748,-63.35730760,178.61674129
-64.51507868,-75.39925870,-79.61579865,-179.79485001,-177.63768189,40.99106080
22.03742587,35.78257837,2.80426355,0.58118492,2.25323658

>  <Name>
ligand

>  <RI>
0

>  <Rbt.Current_Directory>
/home/itssahil/PROJECTS/Mol_Feturizer/New_Systems/rnas/1EVV

>  <Rbt.Executable>
rbdock ($Id: //depot/dev/client3/rdock/2013.1/src/exe/rbdock.cxx#4 $)

>  <Rbt.Library>
libRbt.so (2013.1, Build901 2013/11/27)

>  <Rbt.Parameter_File>
/export/apps/rDock/src/rDock_2013.1_src/data/scripts/dock_solv.prm

>  <Rbt.Receptor>
prm/pocket_docking_2.prm

>  <SCORE>
1.02399

>  <SCORE.INTER>
9.81298

>  <SCORE.INTER.CONST>
1

>  <SCORE.INTER.POLAR>
0

>  <SCORE.INTER.ROT>
11

>  <SCORE.INTER.SOLV>
2.55226

>  <SCORE.INTER.VDW>
-5.2421

>  <SCORE.INTER.norm>
0.700927

>  <SCORE.INTRA>
-8.78899

>  <SCORE.INTRA.DIHEDRAL>
-19.2359

>  <SCORE.INTRA.DIHEDRAL.0>
20.2131

>  <SCORE.INTRA.POLAR>
0

>  <SCORE.INTRA.POLAR.0>
0

>  <SCORE.INTRA.REPUL>
0

>  <SCORE.INTRA.REPUL.0>
0

>  <SCORE.INTRA.SOLV>
0.986757

>  <SCORE.INTRA.SOLV.lig_0>
-48.2851

>  <SCORE.INTRA.VDW>
0.335564

>  <SCORE.INTRA.VDW.0>
-1.08658

>  <SCORE.INTRA.norm>
-0.627785

>  <SCORE.RESTR>
0

>  <SCORE.RESTR.CAVITY>
0

>  <SCORE.RESTR.norm>
0

>  <SCORE.SYSTEM>
0

>  <SCORE.SYSTEM.CONST>
0

>  <SCORE.SYSTEM.DIHEDRAL>
0

>  <SCORE.SYSTEM.SOLV>
0

>  <SCORE.SYSTEM.norm>
0

>  <SCORE.heavy>
14

>  <SCORE.norm>
0.0731423

>  <RMSD>
1.179

$$$$
ligand
 OpenBabel11021811393D
libRbt.so/2013.1/901 2013/11/27
 14 13  0  0  0  0  0  0  0  0999 V2000
   37.5377   21.4068   32.4861 N   0  0  0  0  0  0  0  0  0  0  0  0
   37.3788   21.4153   33.9321 C   0  0  0  0  0  0  0  0  0  0  0  0
   37.5522   19.9792   34.4989 C   0  0  0  0  0  0  0  0  0  0  0  0
   37.4211   19.7808   36.0510 C   0  0  0  0  0  0  0  0  0  0  0  0
   38.3575   20.6126   36.8923 N   0  0  0  0  0  0  0  0  0  0  0  0
   39.7623   20.1109   36.9053 C   0  0  0  0  0  0  0  0  0  0  0  0
   40.8068   21.2041   37.0400 C   0  0  0  0  0  0  0  0  0  0  0  0
   42.2248   20.6639   37.0002 C   0  0  0  0  0  0  0  0  0  0  0  0
   43.1408   21.8217   37.1138 C   0  0  0  0  0  0  0  0  0  0  0  0
   43.0597   22.8099   36.0114 N   0  0  0  0  0  0  0  0  0  0  0  0
   44.1300   23.8378   36.0531 C   0  0  0  0  0  0  0  0  0  0  0  0
   44.0847   24.9136   34.9274 C   0  0  0  0  0  0  0  0  0  0  0  0
   45.2646   25.8788   35.1377 C   0  0  0  0  0  0  0  0  0  0  0  0
   45.2612   26.9265   34.1199 N   0  0  0  0  0  0  0  0  0  0  0  0
  1  2  1  0  0  0  0
  2  3  1  0  0  0  0
  3  4  1  0  0  0  0
  4  5  1  0  0  0  0
  5  6  1  0  0  0  0
  6  7  1  0  0  0  0
  7  8  1  0  0  0  0
  8  9  1  0  0  0  0
  9 10  1  0  0  0  0
 10 11  1  0  0  0  0
 11 12  1  0  0  0  0
 12 13  1  0  0  0  0
 13 14  1  0  0  0  0
M  END
>  <CHROM.1>
179.78061654,-56.70632807,-75.90679367,148.07243485,-177.96433844,178.93244361
-62.58433487,-171.11799371,-179.30091813,-179.90582304,-179.08619482,41.14161523
22.23984841,35.58379790,2.76152944,0.49129340,2.28530827

>  <Name>
ligand

>  <RI>
0

>  <Rbt.Current_Directory>
/home/itssahil/PROJECTS/Mol_Feturizer/New_Systems/rnas/1EVV

>  <Rbt.Executable>
rbdock ($Id: //depot/dev/client3/rdock/2013.1/src/exe/rbdock.cxx#4 $)

>  <Rbt.Library>
libRbt.so (2013.1, Build901 2013/11/27)

>  <Rbt.Parameter_File>
/export/apps/rDock/src/rDock_2013.1_src/data/scripts/dock_solv.prm

>  <Rbt.Receptor>
prm/pocket_docking_2.prm

>  <SCORE>
-1.32483

>  <SCORE.INTER>
8.62735

>  <SCORE.INTER.CONST>
1

>  <SCORE.INTER.POLAR>
0

>  <SCORE.INTER.ROT>
11

>  <SCORE.INTER.SOLV>
4.48869

>  <SCORE.INTER.VDW>
-6.678

>  <SCORE.INTER.norm>
0.616239

>  <SCORE.INTRA>
-9.95348

>  <SCORE.INTRA.DIHEDRAL>
-19.2022

>  <SCORE.INTRA.DIHEDRAL.0>
20.2131

>  <SCORE.INTRA.POLAR>
0

>  <SCORE.INTRA.POLAR.0>
0

>  <SCORE.INTRA.REPUL>
0

>  <SCORE.INTRA.REPUL.0>
0

>  <SCORE.INTRA.SOLV>
-0.665642

>  <SCORE.INTRA.SOLV.lig_0>
-48.2851

>  <SCORE.INTRA.VDW>
-0.0195514

>  <SCORE.INTRA.VDW.0>
-1.08658

>  <SCORE.INTRA.norm>
-0.710963

>  <SCORE.RESTR>
0.00130437

>  <SCORE.RESTR.CAVITY>
0.00130437

>  <SCORE.RESTR.norm>
9.31691e-05

>  <SCORE.SYSTEM>
0

>  <SCORE.SYSTEM.CONST>
0

>  <SCORE.SYSTEM.DIHEDRAL>
0

>  <SCORE.SYSTEM.SOLV>
0

>  <SCORE.SYSTEM.norm>
0

>  <SCORE.heavy>
14

>  <SCORE.norm>
-0.0946306

>  <RMSD>
1.284

$$$$
ligand
 OpenBabel11021811393D
libRbt.so/2013.1/901 2013/11/27
 14 13  0  0  0  0  0  0  0  0999 V2000
   43.5374   27.0628   35.1387 N   0  0  0  0  0  0  0  0  0  0  0  0
   42.9302   25.8205   35.5905 C   0  0  0  0  0  0  0  0  0  0  0  0
   43.9115   24.6352   35.3767 C   0  0  0  0  0  0  0  0  0  0  0  0
   43.4227   23.1959   35.7706 C   0  0  0  0  0  0  0  0  0  0  0  0
   43.0542   23.0110   37.2220 N   0  0  0  0  0  0  0  0  0  0  0  0
   42.6421   21.6193   37.5665 C   0  0  0  0  0  0  0  0  0  0  0  0
   41.1875   21.3126   37.2594 C   0  0  0  0  0  0  0  0  0  0  0  0
   40.8345   19.8566   37.5034 C   0  0  0  0  0  0  0  0  0  0  0  0
   39.3929   19.6968   37.2060 C   0  0  0  0  0  0  0  0  0  0  0  0
   38.9880   20.0223   35.8173 N   0  0  0  0  0  0  0  0  0  0  0  0
   37.5188   20.1327   35.6356 C   0  0  0  0  0  0  0  0  0  0  0  0
   37.0456   20.9667   34.4079 C   0  0  0  0  0  0  0  0  0  0  0  0
   37.6606   20.3473   33.1406 C   0  0  0  0  0  0  0  0  0  0  0  0
   37.4289   21.2065   31.9823 N   0  0  0  0  0  0  0  0  0  0  0  0
  1  2  1  0  0  0  0
  2  3  1  0  0  0  0
  3  4  1  0  0  0  0
  4  5  1  0  0  0  0
  5  6  1  0  0  0  0
  6  7  1  0  0  0  0
  7  8  1  0  0  0  0
  8  9  1  0  0  0  0
  9 10  1  0  0  0  0
 10 11  1  0  0  0  0
 11 12  1  0  0  0  0
 12 13  1  0  0  0  0
 13 14  1  0  0  0  0
M  END
>  <CHROM.1>
-178.46064019,-60.38802095,-177.91990674,-83.12565019,174.80732619,178.46135882
60.39411575,-167.59723806,157.88579136,57.35273975,-170.97516682,40.68246457
22.06298234,35.68721559,0.33593454,-0.63251598,-0.75336265

>  <Name>
ligand

>  <RI>
0

>  <Rbt.Current_Directory>
/home/itssahil/PROJECTS/Mol_Feturizer/New_Systems/rnas/1EVV

>  <Rbt.Executable>
rbdock ($Id: //depot/dev/client3/rdock/2013.1/src/exe/rbdock.cxx#4 $)

>  <Rbt.Library>
libRbt.so (2013.1, Build901 2013/11/27)

>  <Rbt.Parameter_File>
/export/apps/rDock/src/rDock_2013.1_src/data/scripts/dock_solv.prm

>  <Rbt.Receptor>
prm/pocket_docking_2.prm

>  <SCORE>
-1.01169

>  <SCORE.INTER>
8.46297

>  <SCORE.INTER.CONST>
1

>  <SCORE.INTER.POLAR>
0

>  <SCORE.INTER.ROT>
11

>  <SCORE.INTER.SOLV>
1.78219

>  <SCORE.INTER.VDW>
-5.88542

>  <SCORE.INTER.norm>
0.604498

>  <SCORE.INTRA>
-9.476

>  <SCORE.INTRA.DIHEDRAL>
-18.8892

>  <SCORE.INTRA.DIHEDRAL.0>
20.2131

>  <SCORE.INTRA.POLAR>
0

>  <SCORE.INTRA.POLAR.0>
0

>  <SCORE.INTRA.REPUL>
0

>  <SCORE.INTRA.REPUL.0>
0

>  <SCORE.INTRA.SOLV>
-0.243222

>  <SCORE.INTRA.SOLV.lig_0>
-48.2851

>  <SCORE.INTRA.VDW>
0.0902085

>  <SCORE.INTRA.VDW.0>
-1.08658

>  <SCORE.INTRA.norm>
-0.676857

>  <SCORE.RESTR>
0.0013335

>  <SCORE.RESTR.CAVITY>
0.0013335

>  <SCORE.RESTR.norm>
9.52499e-05

>  <SCORE.SYSTEM>
0

>  <SCORE.SYSTEM.CONST>
0

>  <SCORE.SYSTEM.DIHEDRAL>
0

>  <SCORE.SYSTEM.SOLV>
0

>  <SCORE.SYSTEM.norm>
0

>  <SCORE.heavy>
14

>  <SCORE.norm>
-0.0722638

>  <RMSD>
1.293

$$$$
ligand
 OpenBabel11021811393D
libRbt.so/2013.1/901 2013/11/27
 14 13  0  0  0  0  0  0  0  0999 V2000
   44.3183   25.5357   36.5372 N   0  0  0  0  0  0  0  0  0  0  0  0
   44.5753   25.0404   35.1938 C   0  0  0  0  0  0  0  0  0  0  0  0
   43.3564   24.2252   34.6805 C   0  0  0  0  0  0  0  0  0  0  0  0
   43.0228   22.8701   35.4001 C   0  0  0  0  0  0  0  0  0  0  0  0
   42.6392   22.9858   36.8548 N   0  0  0  0  0  0  0  0  0  0  0  0
   42.2311   21.6918   37.4750 C   0  0  0  0  0  0  0  0  0  0  0  0
   40.8531   21.2136   37.0548 C   0  0  0  0  0  0  0  0  0  0  0  0
   40.5446   19.8135   37.5537 C   0  0  0  0  0  0  0  0  0  0  0  0
   39.1715   19.4806   37.1111 C   0  0  0  0  0  0  0  0  0  0  0  0
   38.9909   19.3349   35.6467 N   0  0  0  0  0  0  0  0  0  0  0  0
   38.1998   20.4305   35.0321 C   0  0  0  0  0  0  0  0  0  0  0  0
   37.7678   20.2104   33.5517 C   0  0  0  0  0  0  0  0  0  0  0  0
   37.0324   21.4746   33.0730 C   0  0  0  0  0  0  0  0  0  0  0  0
   37.9579   22.5994   32.9649 N   0  0  0  0  0  0  0  0  0  0  0  0
  1  2  1  0  0  0  0
  2  3  1  0  0  0  0
  3  4  1  0  0  0  0
  4  5  1  0  0  0  0
  5  6  1  0  0  0  0
  6  7  1  0  0  0  0
  7  8  1  0  0  0  0
  8  9  1  0  0  0  0
  9 10  1  0  0  0  0
 10 11  1  0  0  0  0
 11 12  1  0  0  0  0
 12 13  1  0  0  0  0
 13 14  1  0  0  0  0
M  END
>  <CHROM.1>
-66.66690131,63.14775089,175.65359809,-74.42358333,172.36306868,178.57572174
66.96030446,-109.74406654,-169.82929406,-176.93387563,68.59973134,40.76141874
21.92160616,35.58070446,0.23111789,-0.58227078,-0.83137197

>  <Name>
ligand

>  <RI>
0

>  <Rbt.Current_Directory>
/home/itssahil/PROJECTS/Mol_Feturizer/New_Systems/rnas/1EVV

>  <Rbt.Executable>
rbdock ($Id: //depot/dev/client3/rdock/2013.1/src/exe/rbdock.cxx#4 $)

>  <Rbt.Library>
libRbt.so (2013.1, Build901 2013/11/27)

>  <Rbt.Parameter_File>
/export/apps/rDock/src/rDock_2013.1_src/data/scripts/dock_solv.prm

>  <Rbt.Receptor>
prm/pocket_docking_2.prm

>  <SCORE>
1.91633

>  <SCORE.INTER>
9.65142

>  <SCORE.INTER.CONST>
1

>  <SCORE.INTER.POLAR>
0

>  <SCORE.INTER.ROT>
11

>  <SCORE.INTER.SOLV>
1.28998

>  <SCORE.INTER.VDW>
-4.92904

>  <SCORE.INTER.norm>
0.689387

>  <SCORE.INTRA>
-7.7351

>  <SCORE.INTRA.DIHEDRAL>
-17.9139

>  <SCORE.INTRA.DIHEDRAL.0>
20.2131

>  <SCORE.INTRA.POLAR>
0

>  <SCORE.INTRA.POLAR.0>
0

>  <SCORE.INTRA.REPUL>
0

>  <SCORE.INTRA.REPUL.0>
0

>  <SCORE.INTRA.SOLV>
2.18208

>  <SCORE.INTRA.SOLV.lig_0>
-48.2851

>  <SCORE.INTRA.VDW>
0.130838

>  <SCORE.INTRA.VDW.0>
-1.08658

>  <SCORE.INTRA.norm>
-0.552507

>  <SCORE.RESTR>
0

>  <SCORE.RESTR.CAVITY>
0

>  <SCORE.RESTR.norm>
0

>  <SCORE.SYSTEM>
0

>  <SCORE.SYSTEM.CONST>
0

>  <SCORE.SYSTEM.DIHEDRAL>
0

>  <SCORE.SYSTEM.SOLV>
0

>  <SCORE.SYSTEM.norm>
0

>  <SCORE.heavy>
14

>  <SCORE.norm>
0.13688

>  <RMSD>
1.295

$$$$
ligand
 OpenBabel11021811393D
libRbt.so/2013.1/901 2013/11/27
 14 13  0  0  0  0  0  0  0  0999 V2000
   37.4738   21.1683   32.2764 N   0  0  0  0  0  0  0  0  0  0  0  0
   37.4337   21.3701   33.7165 C   0  0  0  0  0  0  0  0  0  0  0  0
   37.4656   20.0014   34.4509 C   0  0  0  0  0  0  0  0  0  0  0  0
   37.3946   20.0071   36.0194 C   0  0  0  0  0  0  0  0  0  0  0  0
   38.5235   20.7252   36.7169 N   0  0  0  0  0  0  0  0  0  0  0  0
   39.6023   19.8190   37.2075 C   0  0  0  0  0  0  0  0  0  0  0  0
   40.7544   20.5403   37.8830 C   0  0  0  0  0  0  0  0  0  0  0  0
   41.5214   21.4368   36.9280 C   0  0  0  0  0  0  0  0  0  0  0  0
   42.6175   22.0665   37.6989 C   0  0  0  0  0  0  0  0  0  0  0  0
   43.6115   22.8190   36.8964 N   0  0  0  0  0  0  0  0  0  0  0  0
   43.2106   24.2200   36.6131 C   0  0  0  0  0  0  0  0  0  0  0  0
   44.2841   25.1073   35.9153 C   0  0  0  0  0  0  0  0  0  0  0  0
   43.7134   26.5293   35.7733 C   0  0  0  0  0  0  0  0  0  0  0  0
   44.6636   27.3998   35.0856 N   0  0  0  0  0  0  0  0  0  0  0  0
  1  2  1  0  0  0  0
  2  3  1  0  0  0  0
  3  4  1  0  0  0  0
  4  5  1  0  0  0  0
  5  6  1  0  0  0  0
  6  7  1  0  0  0  0
  7  8  1  0  0  0  0
  8  9  1  0  0  0  0
  9 10  1  0  0  0  0
 10 11  1  0  0  0  0
 11 12  1  0  0  0  0
 12 13  1  0  0  0  0
 13 14  1  0  0  0  0
M  END
>  <CHROM.1>
-178.55692028,-61.02284392,-98.35937154,178.73513821,-65.00046721,-179.43044676
170.92266984,85.10554003,173.26524544,-177.14319619,-178.23860544,40.87635759
22.37187559,35.94179536,2.78940389,0.62020531,2.33091267

>  <Name>
ligand

>  <RI>
0

>  <Rbt.Current_Directory>
/home/itssahil/PROJECTS/Mol_Feturizer/New_Systems/rnas/1EVV

>  <Rbt.Executable>
rbdock ($Id: //depot/dev/client3/rdock/2013.1/src/exe/rbdock.cxx#4 $)

>  <Rbt.Library>
libRbt.so (2013.1, Build901 2013/11/27)

>  <Rbt.Parameter_File>
/export/apps/rDock/src/rDock_2013.1_src/data/scripts/dock_solv.prm

>  <Rbt.Receptor>
prm/pocket_docking_2.prm

>  <SCORE>
-1.42772

>  <SCORE.INTER>
8.22682

>  <SCORE.INTER.CONST>
1

>  <SCORE.INTER.POLAR>
0

>  <SCORE.INTER.ROT>
11

>  <SCORE.INTER.SOLV>
3.2834

>  <SCORE.INTER.VDW>
-6.54325

>  <SCORE.INTER.norm>
0.58763

>  <SCORE.INTRA>
-9.67136

>  <SCORE.INTRA.DIHEDRAL>
-18.417

>  <SCORE.INTRA.DIHEDRAL.0>
20.2131

>  <SCORE.INTRA.POLAR>
0

>  <SCORE.INTRA.POLAR.0>
0

>  <SCORE.INTRA.REPUL>
0

>  <SCORE.INTRA.REPUL.0>
0

>  <SCORE.INTRA.SOLV>
-0.735008

>  <SCORE.INTRA.SOLV.lig_0>
-48.2851

>  <SCORE.INTRA.VDW>
-0.095378

>  <SCORE.INTRA.VDW.0>
-1.08658

>  <SCORE.INTRA.norm>
-0.690812

>  <SCORE.RESTR>
0.0168185

>  <SCORE.RESTR.CAVITY>
0.0168185

>  <SCORE.RESTR.norm>
0.00120132

>  <SCORE.SYSTEM>
0

>  <SCORE.SYSTEM.CONST>
0

>  <SCORE.SYSTEM.DIHEDRAL>
0

>  <SCORE.SYSTEM.SOLV>
0

>  <SCORE.SYSTEM.norm>
0

>  <SCORE.heavy>
14

>  <SCORE.norm>
-0.10198

>  <RMSD>
1.295

$$$$
ligand
 OpenBabel11021811393D
libRbt.so/2013.1/901 2013/11/27
 14 13  0  0  0  0  0  0  0  0999 V2000
   44.3121   26.3621   34.0129 N   0  0  0  0  0  0  0  0  0  0  0  0
   45.2006   25.5153   34.7937 C   0  0  0  0  0  0  0  0  0  0  0  0
   44.3798   24.6554   35.7940 C   0  0  0  0  0  0  0  0  0  0  0  0
   43.3993   23.5792   35.2059 C   0  0  0  0  0  0  0  0  0  0  0  0
   42.6481   22.7600   36.2263 N   0  0  0  0  0  0  0  0  0  0  0  0
   42.0613   21.5035   35.6766 C   0  0  0  0  0  0  0  0  0  0  0  0
   41.9805   20.3688   36.6816 C   0  0  0  0  0  0  0  0  0  0  0  0
   40.9064   20.5940   37.7303 C   0  0  0  0  0  0  0  0  0  0  0  0
   39.6442   20.0344   37.1955 C   0  0  0  0  0  0  0  0  0  0  0  0
   39.0660   20.7572   36.0373 N   0  0  0  0  0  0  0  0  0  0  0  0
   37.8282   20.1347   35.5043 C   0  0  0  0  0  0  0  0  0  0  0  0
   36.9788   21.0213   34.5457 C   0  0  0  0  0  0  0  0  0  0  0  0
   37.8099   21.2923   33.2793 C   0  0  0  0  0  0  0  0  0  0  0  0
   38.0405   20.0543   32.5393 N   0  0  0  0  0  0  0  0  0  0  0  0
  1  2  1  0  0  0  0
  2  3  1  0  0  0  0
  3  4  1  0  0  0  0
  4  5  1  0  0  0  0
  5  6  1  0  0  0  0
  6  7  1  0  0  0  0
  7  8  1  0  0  0  0
  8  9  1  0  0  0  0
  9 10  1  0  0  0  0
 10 11  1  0  0  0  0
 11 12  1  0  0  0  0
 12 13  1  0  0  0  0
 13 14  1  0  0  0  0
M  END
>  <CHROM.1>
65.41658411,178.99830239,-162.40864681,148.93389954,72.23511948,88.33670304
-68.24229627,177.96711390,164.92188721,64.70811155,65.62090602,41.01827021
22.04499657,35.37333565,0.34249553,-0.53817239,-0.91051229

>  <Name>
ligand

>  <RI>
0

>  <Rbt.Current_Directory>
/home/itssahil/PROJECTS/Mol_Feturizer/New_Systems/rnas/1EVV

>  <Rbt.Executable>
rbdock ($Id: //depot/dev/client3/rdock/2013.1/src/exe/rbdock.cxx#4 $)

>  <Rbt.Library>
libRbt.so (2013.1, Build901 2013/11/27)

>  <Rbt.Parameter_File>
/export/apps/rDock/src/rDock_2013.1_src/data/scripts/dock_solv.prm

>  <Rbt.Receptor>
prm/pocket_docking_2.prm

>  <SCORE>
2.45763

>  <SCORE.INTER>
8.74857

>  <SCORE.INTER.CONST>
1

>  <SCORE.INTER.POLAR>
0

>  <SCORE.INTER.ROT>
11

>  <SCORE.INTER.SOLV>
1.89906

>  <SCORE.INTER.VDW>
-5.73397

>  <SCORE.INTER.norm>
0.624898

>  <SCORE.INTRA>
-6.29094

>  <SCORE.INTRA.DIHEDRAL>
-15.2515

>  <SCORE.INTRA.DIHEDRAL.0>
20.2131

>  <SCORE.INTRA.POLAR>
0

>  <SCORE.INTRA.POLAR.0>
0

>  <SCORE.INTRA.REPUL>
0

>  <SCORE.INTRA.REPUL.0>
0

>  <SCORE.INTRA.SOLV>
2.40654

>  <SCORE.INTRA.SOLV.lig_0>
-48.2851

>  <SCORE.INTRA.VDW>
0.131514

>  <SCORE.INTRA.VDW.0>
-1.08658

>  <SCORE.INTRA.norm>
-0.449353

>  <SCORE.RESTR>
0

>  <SCORE.RESTR.CAVITY>
0

>  <SCORE.RESTR.norm>
0

>  <SCORE.SYSTEM>
0

>  <SCORE.SYSTEM.CONST>
0

>  <SCORE.SYSTEM.DIHEDRAL>
0

>  <SCORE.SYSTEM.SOLV>
0

>  <SCORE.SYSTEM.norm>
0

>  <SCORE.heavy>
14

>  <SCORE.norm>
0.175545

>  <RMSD>
1.326

$$$$
ligand
 OpenBabel11021811393D
libRbt.so/2013.1/901 2013/11/27
 14 13  0  0  0  0  0  0  0  0999 V2000
   44.3341   26.9043   34.2864 N   0  0  0  0  0  0  0  0  0  0  0  0
   43.5510   25.8026   34.8242 C   0  0  0  0  0  0  0  0  0  0  0  0
   44.4903   24.6660   35.3137 C   0  0  0  0  0  0  0  0  0  0  0  0
   43.8296   23.3494   35.8574 C   0  0  0  0  0  0  0  0  0  0  0  0
   42.9406   23.5208   37.0645 N   0  0  0  0  0  0  0  0  0  0  0  0
   42.5478   22.2351   37.7110 C   0  0  0  0  0  0  0  0  0  0  0  0
   41.3265   21.5806   37.0912 C   0  0  0  0  0  0  0  0  0  0  0  0
   40.9209   20.3057   37.8085 C   0  0  0  0  0  0  0  0  0  0  0  0
   39.7790   19.7261   37.0652 C   0  0  0  0  0  0  0  0  0  0  0  0
   38.5650   20.5747   36.9976 N   0  0  0  0  0  0  0  0  0  0  0  0
   37.4214   19.9245   36.3098 C   0  0  0  0  0  0  0  0  0  0  0  0
   36.9725   20.5785   34.9691 C   0  0  0  0  0  0  0  0  0  0  0  0
   38.1241   20.4403   33.9579 C   0  0  0  0  0  0  0  0  0  0  0  0
   37.7522   21.0212   32.6704 N   0  0  0  0  0  0  0  0  0  0  0  0
  1  2  1  0  0  0  0
  2  3  1  0  0  0  0
  3  4  1  0  0  0  0
  4  5  1  0  0  0  0
  5  6  1  0  0  0  0
  6  7  1  0  0  0  0
  7  8  1  0  0  0  0
  8  9  1  0  0  0  0
  9 10  1  0  0  0  0
 10 11  1  0  0  0  0
 11 12  1  0  0  0  0
 12 13  1  0  0  0  0
 13 14  1  0  0  0  0
M  END
>  <CHROM.1>
-176.67815840,-60.87163457,-168.68491828,-85.48425015,-177.63101121,-176.66480289
-61.47846561,-176.76707843,-114.38509729,64.40879831,179.19191169,40.89679003
22.18750500,35.85216567,0.38388439,-0.57671356,-0.94306032

>  <Name>
ligand

>  <RI>
0

>  <Rbt.Current_Directory>
/home/itssahil/PROJECTS/Mol_Feturizer/New_Systems/rnas/1EVV

>  <Rbt.Executable>
rbdock ($Id: //depot/dev/client3/rdock/2013.1/src/exe/rbdock.cxx#4 $)

>  <Rbt.Library>
libRbt.so (2013.1, Build901 2013/11/27)

>  <Rbt.Parameter_File>
/export/apps/rDock/src/rDock_2013.1_src/data/scripts/dock_solv.prm

>  <Rbt.Receptor>
prm/pocket_docking_2.prm

>  <SCORE>
-1.46508

>  <SCORE.INTER>
7.92068

>  <SCORE.INTER.CONST>
1

>  <SCORE.INTER.POLAR>
0

>  <SCORE.INTER.ROT>
11

>  <SCORE.INTER.SOLV>
3.18066

>  <SCORE.INTER.VDW>
-6.7131

>  <SCORE.INTER.norm>
0.565763

>  <SCORE.INTRA>
-9.39563

>  <SCORE.INTRA.DIHEDRAL>
-18.2724

>  <SCORE.INTRA.DIHEDRAL.0>
20.2131

>  <SCORE.INTRA.POLAR>
0

>  <SCORE.INTRA.POLAR.0>
0

>  <SCORE.INTRA.REPUL>
0

>  <SCORE.INTRA.REPUL.0>
0

>  <SCORE.INTRA.SOLV>
-0.367545

>  <SCORE.INTRA.SOLV.lig_0>
-48.2851

>  <SCORE.INTRA.VDW>
-0.0756669

>  <SCORE.INTRA.VDW.0>
-1.08658

>  <SCORE.INTRA.norm>
-0.671117

>  <SCORE.RESTR>
0.00987306

>  <SCORE.RESTR.CAVITY>
0.00987306

>  <SCORE.RESTR.norm>
0.000705218

>  <SCORE.SYSTEM>
0

>  <SCORE.SYSTEM.CONST>
0

>  <SCORE.SYSTEM.DIHEDRAL>
0

>  <SCORE.SYSTEM.SOLV>
0

>  <SCORE.SYSTEM.norm>
0

>  <SCORE.heavy>
14

>  <SCORE.norm>
-0.104649

>  <RMSD>
1.327

$$$$
ligand
 OpenBabel11021811393D
libRbt.so/2013.1/901 2013/11/27
 14 13  0  0  0  0  0  0  0  0999 V2000
   44.5687   25.6059   36.4190 N   0  0  0  0  0  0  0  0  0  0  0  0
   44.4469   25.0077   35.0985 C   0  0  0  0  0  0  0  0  0  0  0  0
   43.3173   23.9410   35.0953 C   0  0  0  0  0  0  0  0  0  0  0  0
   43.4889   22.6859   36.0230 C   0  0  0  0  0  0  0  0  0  0  0  0
   42.3191   21.7333   36.0478 N   0  0  0  0  0  0  0  0  0  0  0  0
   42.6700   20.3601   36.5134 C   0  0  0  0  0  0  0  0  0  0  0  0
   41.5175   19.3742   36.4516 C   0  0  0  0  0  0  0  0  0  0  0  0
   40.4081   19.7118   37.4312 C   0  0  0  0  0  0  0  0  0  0  0  0
   39.2872   18.7817   37.1653 C   0  0  0  0  0  0  0  0  0  0  0  0
   38.5441   19.0218   35.9050 N   0  0  0  0  0  0  0  0  0  0  0  0
   37.4873   20.0574   36.0247 C   0  0  0  0  0  0  0  0  0  0  0  0
   37.0494   20.7400   34.6947 C   0  0  0  0  0  0  0  0  0  0  0  0
   38.2584   21.5032   34.1257 C   0  0  0  0  0  0  0  0  0  0  0  0
   37.9009   22.1825   32.8830 N   0  0  0  0  0  0  0  0  0  0  0  0
  1  2  1  0  0  0  0
  2  3  1  0  0  0  0
  3  4  1  0  0  0  0
  4  5  1  0  0  0  0
  5  6  1  0  0  0  0
  6  7  1  0  0  0  0
  7  8  1  0  0  0  0
  8  9  1  0  0  0  0
  9 10  1  0  0  0  0
 10 11  1  0  0  0  0
 11 12  1  0  0  0  0
 12 13  1  0  0  0  0
 13 14  1  0  0  0  0
M  END
>  <CHROM.1>
-62.85869229,176.00851372,159.22687977,-176.11447601,-66.86802703,173.51536360
-71.43770147,-83.99892367,157.70635741,-63.63076284,-179.17664565,40.80454744
21.47877229,35.70573427,0.48387613,-0.40977421,-0.58169664

>  <Name>
ligand

>  <RI>
0

>  <Rbt.Current_Directory>
/home/itssahil/PROJECTS/Mol_Feturizer/New_Systems/rnas/1EVV

>  <Rbt.Executable>
rbdock ($Id: //depot/dev/client3/rdock/2013.1/src/exe/rbdock.cxx#4 $)

>  <Rbt.Library>
libRbt.so (2013.1, Build901 2013/11/27)

>  <Rbt.Parameter_File>
/export/apps/rDock/src/rDock_2013.1_src/data/scripts/dock_solv.prm

>  <Rbt.Receptor>
prm/pocket_docking_2.prm

>  <SCORE>
-0.432383

>  <SCORE.INTER>
8.65528

>  <SCORE.INTER.CONST>
1

>  <SCORE.INTER.POLAR>
0

>  <SCORE.INTER.ROT>
11

>  <SCORE.INTER.SOLV>
1.50602

>  <SCORE.INTER.VDW>
-5.66515

>  <SCORE.INTER.norm>
0.618234

>  <SCORE.INTRA>
-9.08766

>  <SCORE.INTRA.DIHEDRAL>
-18.1257

>  <SCORE.INTRA.DIHEDRAL.0>
20.2131

>  <SCORE.INTRA.POLAR>
0

>  <SCORE.INTRA.POLAR.0>
0

>  <SCORE.INTRA.REPUL>
0

>  <SCORE.INTRA.REPUL.0>
0

>  <SCORE.INTRA.SOLV>
0.425542

>  <SCORE.INTRA.SOLV.lig_0>
-48.2851

>  <SCORE.INTRA.VDW>
-0.23756

>  <SCORE.INTRA.VDW.0>
-1.08658

>  <SCORE.INTRA.norm>
-0.649119

>  <SCORE.RESTR>
0

>  <SCORE.RESTR.CAVITY>
0

>  <SCORE.RESTR.norm>
0

>  <SCORE.SYSTEM>
0

>  <SCORE.SYSTEM.CONST>
0

>  <SCORE.SYSTEM.DIHEDRAL>
0

>  <SCORE.SYSTEM.SOLV>
0

>  <SCORE.SYSTEM.norm>
0

>  <SCORE.heavy>
14

>  <SCORE.norm>
-0.0308845

>  <RMSD>
1.358

$$$$
ligand
 OpenBabel11021811393D
libRbt.so/2013.1/901 2013/11/27
 14 13  0  0  0  0  0  0  0  0999 V2000
   37.4007   21.2219   32.2382 N   0  0  0  0  0  0  0  0  0  0  0  0
   37.7339   20.2316   33.2504 C   0  0  0  0  0  0  0  0  0  0  0  0
   37.1643   20.6624   34.6301 C   0  0  0  0  0  0  0  0  0  0  0  0
   37.5002   19.7677   35.8759 C   0  0  0  0  0  0  0  0  0  0  0  0
   38.9600   19.7011   36.2516 N   0  0  0  0  0  0  0  0  0  0  0  0
   39.4277   20.8642   37.0601 C   0  0  0  0  0  0  0  0  0  0  0  0
   40.7397   20.6243   37.7849 C   0  0  0  0  0  0  0  0  0  0  0  0
   41.9235   20.5479   36.8379 C   0  0  0  0  0  0  0  0  0  0  0  0
   42.2050   21.9249   36.3723 C   0  0  0  0  0  0  0  0  0  0  0  0
   43.3255   22.0567   35.4103 N   0  0  0  0  0  0  0  0  0  0  0  0
   43.5569   23.4497   34.9525 C   0  0  0  0  0  0  0  0  0  0  0  0
   44.5891   24.2747   35.7775 C   0  0  0  0  0  0  0  0  0  0  0  0
   44.7325   25.6590   35.1208 C   0  0  0  0  0  0  0  0  0  0  0  0
   43.5410   26.4692   35.3605 N   0  0  0  0  0  0  0  0  0  0  0  0
  1  2  1  0  0  0  0
  2  3  1  0  0  0  0
  3  4  1  0  0  0  0
  4  5  1  0  0  0  0
  5  6  1  0  0  0  0
  6  7  1  0  0  0  0
  7  8  1  0  0  0  0
  8  9  1  0  0  0  0
  9 10  1  0  0  0  0
 10 11  1  0  0  0  0
 11 12  1  0  0  0  0
 12 13  1  0  0  0  0
 13 14  1  0  0  0  0
M  END
>  <CHROM.1>
-176.06076322,64.22088164,81.59577962,162.67633683,69.96318494,73.71504012
-178.99051996,178.98737361,92.00589458,177.74619208,72.31953163,40.91432100
21.96092961,35.49477955,2.83790097,0.54954284,2.26577812

>  <Name>
ligand

>  <RI>
0

>  <Rbt.Current_Directory>
/home/itssahil/PROJECTS/Mol_Feturizer/New_Systems/rnas/1EVV

>  <Rbt.Executable>
rbdock ($Id: //depot/dev/client3/rdock/2013.1/src/exe/rbdock.cxx#4 $)

>  <Rbt.Library>
libRbt.so (2013.1, Build901 2013/11/27)

>  <Rbt.Parameter_File>
/export/apps/rDock/src/rDock_2013.1_src/data/scripts/dock_solv.prm

>  <Rbt.Receptor>
prm/pocket_docking_2.prm

>  <SCORE>
0.209032

>  <SCORE.INTER>
8.09921

>  <SCORE.INTER.CONST>
1

>  <SCORE.INTER.POLAR>
0

>  <SCORE.INTER.ROT>
11

>  <SCORE.INTER.SOLV>
1.98053

>  <SCORE.INTER.VDW>
-6.19404

>  <SCORE.INTER.norm>
0.578515

>  <SCORE.INTRA>
-7.89426

>  <SCORE.INTRA.DIHEDRAL>
-17.1486

>  <SCORE.INTRA.DIHEDRAL.0>
20.2131

>  <SCORE.INTRA.POLAR>
0

>  <SCORE.INTRA.POLAR.0>
0

>  <SCORE.INTRA.REPUL>
0

>  <SCORE.INTRA.REPUL.0>
0

>  <SCORE.INTRA.SOLV>
0.186845

>  <SCORE.INTRA.SOLV.lig_0>
-48.2851

>  <SCORE.INTRA.VDW>
0.586604

>  <SCORE.INTRA.VDW.0>
-1.08658

>  <SCORE.INTRA.norm>
-0.563876

>  <SCORE.RESTR>
0.00408845

>  <SCORE.RESTR.CAVITY>
0.00408845

>  <SCORE.RESTR.norm>
0.000292032

>  <SCORE.SYSTEM>
0

>  <SCORE.SYSTEM.CONST>
0

>  <SCORE.SYSTEM.DIHEDRAL>
0

>  <SCORE.SYSTEM.SOLV>
0

>  <SCORE.SYSTEM.norm>
0

>  <SCORE.heavy>
14

>  <SCORE.norm>
0.0149308

>  <RMSD>
1.362

$$$$
ligand
 OpenBabel11021811393D
libRbt.so/2013.1/901 2013/11/27
 14 13  0  0  0  0  0  0  0  0999 V2000
   44.5425   26.1511   33.4072 N   0  0  0  0  0  0  0  0  0  0  0  0
   44.6381   26.5635   34.7990 C   0  0  0  0  0  0  0  0  0  0  0  0
   44.5949   25.3210   35.7306 C   0  0  0  0  0  0  0  0  0  0  0  0
   43.3335   24.3892   35.6551 C   0  0  0  0  0  0  0  0  0  0  0  0
   43.2854   23.2791   36.6759 N   0  0  0  0  0  0  0  0  0  0  0  0
   42.2320   22.2577   36.4063 C   0  0  0  0  0  0  0  0  0  0  0  0
   41.9590   21.3293   37.5757 C   0  0  0  0  0  0  0  0  0  0  0  0
   40.9885   20.2167   37.2227 C   0  0  0  0  0  0  0  0  0  0  0  0
   39.6416   20.8231   37.1195 C   0  0  0  0  0  0  0  0  0  0  0  0
   38.5289   19.8704   36.8904 N   0  0  0  0  0  0  0  0  0  0  0  0
   37.5510   20.3304   35.8727 C   0  0  0  0  0  0  0  0  0  0  0  0
   38.0985   20.4817   34.4222 C   0  0  0  0  0  0  0  0  0  0  0  0
   36.9458   20.9583   33.5210 C   0  0  0  0  0  0  0  0  0  0  0  0
   37.3994   21.1103   32.1409 N   0  0  0  0  0  0  0  0  0  0  0  0
  1  2  1  0  0  0  0
  2  3  1  0  0  0  0
  3  4  1  0  0  0  0
  4  5  1  0  0  0  0
  5  6  1  0  0  0  0
  6  7  1  0  0  0  0
  7  8  1  0  0  0  0
  8  9  1  0  0  0  0
  9 10  1  0  0  0  0
 10 11  1  0  0  0  0
 11 12  1  0  0  0  0
 12 13  1  0  0  0  0
 13 14  1  0  0  0  0
M  END
>  <CHROM.1>
-58.87625687,-174.20114184,-168.26209490,-166.50990102,-174.11691803,-73.19216307
-175.10046625,-136.64972490,64.27568540,179.80768440,-179.63231841,40.98137017
22.36287729,35.53168698,0.33701885,-0.57856151,-0.96519218

>  <Name>
ligand

>  <RI>
0

>  <Rbt.Current_Directory>
/home/itssahil/PROJECTS/Mol_Feturizer/New_Systems/rnas/1EVV

>  <Rbt.Executable>
rbdock ($Id: //depot/dev/client3/rdock/2013.1/src/exe/rbdock.cxx#4 $)

>  <Rbt.Library>
libRbt.so (2013.1, Build901 2013/11/27)

>  <Rbt.Parameter_File>
/export/apps/rDock/src/rDock_2013.1_src/data/scripts/dock_solv.prm

>  <Rbt.Receptor>
prm/pocket_docking_2.prm

>  <SCORE>
0.0543701

>  <SCORE.INTER>
8.30876

>  <SCORE.INTER.CONST>
1

>  <SCORE.INTER.POLAR>
0

>  <SCORE.INTER.ROT>
11

>  <SCORE.INTER.SOLV>
2.83544

>  <SCORE.INTER.VDW>
-6.33931

>  <SCORE.INTER.norm>
0.593483

>  <SCORE.INTRA>
-8.2626

>  <SCORE.INTRA.DIHEDRAL>
-17.9054

>  <SCORE.INTRA.DIHEDRAL.0>
20.2131

>  <SCORE.INTRA.POLAR>
0

>  <SCORE.INTRA.POLAR.0>
0

>  <SCORE.INTRA.REPUL>
0

>  <SCORE.INTRA.REPUL.0>
0

>  <SCORE.INTRA.SOLV>
-0.524263

>  <SCORE.INTRA.SOLV.lig_0>
-48.2851

>  <SCORE.INTRA.VDW>
0.952233

>  <SCORE.INTRA.VDW.0>
-1.08658

>  <SCORE.INTRA.norm>
-0.590186

>  <SCORE.RESTR>
0.00820527

>  <SCORE.RESTR.CAVITY>
0.00820527

>  <SCORE.RESTR.norm>
0.00058609

>  <SCORE.SYSTEM>
0

>  <SCORE.SYSTEM.CONST>
0

>  <SCORE.SYSTEM.DIHEDRAL>
0

>  <SCORE.SYSTEM.SOLV>
0

>  <SCORE.SYSTEM.norm>
0

>  <SCORE.heavy>
14

>  <SCORE.norm>
0.00388358

>  <RMSD>
1.368

$$$$
ligand
 OpenBabel11021811393D
libRbt.so/2013.1/901 2013/11/27
 14 13  0  0  0  0  0  0  0  0999 V2000
   44.6647   26.5976   34.2873 N   0  0  0  0  0  0  0  0  0  0  0  0
   43.9323   26.5292   35.5423 C   0  0  0  0  0  0  0  0  0  0  0  0
   44.5568   25.4503   36.4694 C   0  0  0  0  0  0  0  0  0  0  0  0
   44.5409   23.9594   35.9771 C   0  0  0  0  0  0  0  0  0  0  0  0
   43.1720   23.3538   35.7877 N   0  0  0  0  0  0  0  0  0  0  0  0
   42.7521   22.4537   36.9008 C   0  0  0  0  0  0  0  0  0  0  0  0
   41.5455   21.5920   36.5759 C   0  0  0  0  0  0  0  0  0  0  0  0
   41.1299   20.7085   37.7381 C   0  0  0  0  0  0  0  0  0  0  0  0
   39.9958   19.8764   37.2757 C   0  0  0  0  0  0  0  0  0  0  0  0
   38.7627   20.6191   36.9206 N   0  0  0  0  0  0  0  0  0  0  0  0
   37.7590   19.7969   36.1993 C   0  0  0  0  0  0  0  0  0  0  0  0
   37.0491   20.4887   34.9976 C   0  0  0  0  0  0  0  0  0  0  0  0
   38.0989   20.7446   33.9020 C   0  0  0  0  0  0  0  0  0  0  0  0
   37.4876   21.3895   32.7428 N   0  0  0  0  0  0  0  0  0  0  0  0
  1  2  1  0  0  0  0
  2  3  1  0  0  0  0
  3  4  1  0  0  0  0
  4  5  1  0  0  0  0
  5  6  1  0  0  0  0
  6  7  1  0  0  0  0
  7  8  1  0  0  0  0
  8  9  1  0  0  0  0
  9 10  1  0  0  0  0
 10 11  1  0  0  0  0
 11 12  1  0  0  0  0
 12 13  1  0  0  0  0
 13 14  1  0  0  0  0
M  END
>  <CHROM.1>
-62.54649375,-63.01748745,-101.74887569,-166.22100448,-178.91975780,-177.23009335
-64.18129186,167.81985484,-137.86042729,66.27623243,179.76825593,41.10341958
22.39687704,35.80867356,0.39055955,-0.56511270,-0.85397574

>  <Name>
ligand

>  <RI>
0

>  <Rbt.Current_Directory>
/home/itssahil/PROJECTS/Mol_Feturizer/New_Systems/rnas/1EVV

>  <Rbt.Executable>
rbdock ($Id: //depot/dev/client3/rdock/2013.1/src/exe/rbdock.cxx#4 $)

>  <Rbt.Library>
libRbt.so (2013.1, Build901 2013/11/27)

>  <Rbt.Parameter_File>
/export/apps/rDock/src/rDock_2013.1_src/data/scripts/dock_solv.prm

>  <Rbt.Receptor>
prm/pocket_docking_2.prm

>  <SCORE>
-0.0840208

>  <SCORE.INTER>
8.66238

>  <SCORE.INTER.CONST>
1

>  <SCORE.INTER.POLAR>
0

>  <SCORE.INTER.ROT>
11

>  <SCORE.INTER.SOLV>
2.90928

>  <SCORE.INTER.VDW>
-6.12817

>  <SCORE.INTER.norm>
0.618742

>  <SCORE.INTRA>
-8.74697

>  <SCORE.INTRA.DIHEDRAL>
-17.734

>  <SCORE.INTRA.DIHEDRAL.0>
20.2131

>  <SCORE.INTRA.POLAR>
0

>  <SCORE.INTRA.POLAR.0>
0

>  <SCORE.INTRA.REPUL>
0

>  <SCORE.INTRA.REPUL.0>
0

>  <SCORE.INTRA.SOLV>
0.805701

>  <SCORE.INTRA.SOLV.lig_0>
-48.2851

>  <SCORE.INTRA.VDW>
-0.282796

>  <SCORE.INTRA.VDW.0>
-1.08658

>  <SCORE.INTRA.norm>
-0.624783

>  <SCORE.RESTR>
0.000563167

>  <SCORE.RESTR.CAVITY>
0.000563167

>  <SCORE.RESTR.norm>
4.02262e-05

>  <SCORE.SYSTEM>
0

>  <SCORE.SYSTEM.CONST>
0

>  <SCORE.SYSTEM.DIHEDRAL>
0

>  <SCORE.SYSTEM.SOLV>
0

>  <SCORE.SYSTEM.norm>
0

>  <SCORE.heavy>
14

>  <SCORE.norm>
-0.00600148

>  <RMSD>
1.368

$$$$
ligand
 OpenBabel11021811393D
libRbt.so/2013.1/901 2013/11/27
 14 13  0  0  0  0  0  0  0  0999 V2000
   44.9191   25.4323   35.3047 N   0  0  0  0  0  0  0  0  0  0  0  0
   43.4673   25.3452   35.2757 C   0  0  0  0  0  0  0  0  0  0  0  0
   43.0161   23.8646   35.4097 C   0  0  0  0  0  0  0  0  0  0  0  0
   43.3585   23.1097   36.7432 C   0  0  0  0  0  0  0  0  0  0  0  0
   42.7816   21.7211   36.8686 N   0  0  0  0  0  0  0  0  0  0  0  0
   41.3024   21.6983   37.0612 C   0  0  0  0  0  0  0  0  0  0  0  0
   40.8124   20.5643   37.9433 C   0  0  0  0  0  0  0  0  0  0  0  0
   41.0357   19.1999   37.3167 C   0  0  0  0  0  0  0  0  0  0  0  0
   40.0019   19.0201   36.2721 C   0  0  0  0  0  0  0  0  0  0  0  0
   38.5987   19.1363   36.7365 N   0  0  0  0  0  0  0  0  0  0  0  0
   37.6005   19.0658   35.6399 C   0  0  0  0  0  0  0  0  0  0  0  0
   37.0902   20.4330   35.0950 C   0  0  0  0  0  0  0  0  0  0  0  0
   38.2775   21.1638   34.4436 C   0  0  0  0  0  0  0  0  0  0  0  0
   37.8500   22.4420   33.8806 N   0  0  0  0  0  0  0  0  0  0  0  0
  1  2  1  0  0  0  0
  2  3  1  0  0  0  0
  3  4  1  0  0  0  0
  4  5  1  0  0  0  0
  5  6  1  0  0  0  0
  6  7  1  0  0  0  0
  7  8  1  0  0  0  0
  8  9  1  0  0  0  0
  9 10  1  0  0  0  0
 10 11  1  0  0  0  0
 11 12  1  0  0  0  0
 12 13  1  0  0  0  0
 13 14  1  0  0  0  0
M  END
>  <CHROM.1>
63.71102006,174.37581833,-70.72249493,-146.26160243,-66.11200083,-76.33639834
-57.18303937,175.03453351,-96.54634422,64.71405013,178.47923401,40.72215515
21.58522147,35.99947348,0.54300913,-0.45168387,-0.61376093

>  <Name>
ligand

>  <RI>
0

>  <Rbt.Current_Directory>
/home/itssahil/PROJECTS/Mol_Feturizer/New_Systems/rnas/1EVV

>  <Rbt.Executable>
rbdock ($Id: //depot/dev/client3/rdock/2013.1/src/exe/rbdock.cxx#4 $)

>  <Rbt.Library>
libRbt.so (2013.1, Build901 2013/11/27)

>  <Rbt.Parameter_File>
/export/apps/rDock/src/rDock_2013.1_src/data/scripts/dock_solv.prm

>  <Rbt.Receptor>
prm/pocket_docking_2.prm

>  <SCORE>
2.18398

>  <SCORE.INTER>
9.61584

>  <SCORE.INTER.CONST>
1

>  <SCORE.INTER.POLAR>
0

>  <SCORE.INTER.ROT>
11

>  <SCORE.INTER.SOLV>
3.71276

>  <SCORE.INTER.VDW>
-5.76036

>  <SCORE.INTER.norm>
0.686845

>  <SCORE.INTRA>
-7.43282

>  <SCORE.INTRA.DIHEDRAL>
-17.0964

>  <SCORE.INTRA.DIHEDRAL.0>
20.2131

>  <SCORE.INTRA.POLAR>
0

>  <SCORE.INTRA.POLAR.0>
0

>  <SCORE.INTRA.REPUL>
0

>  <SCORE.INTRA.REPUL.0>
0

>  <SCORE.INTRA.SOLV>
0.831214

>  <SCORE.INTRA.SOLV.lig_0>
-48.2851

>  <SCORE.INTRA.VDW>
0.699798

>  <SCORE.INTRA.VDW.0>
-1.08658

>  <SCORE.INTRA.norm>
-0.530916

>  <SCORE.RESTR>
0.000963172

>  <SCORE.RESTR.CAVITY>
0.000963172

>  <SCORE.RESTR.norm>
6.8798e-05

>  <SCORE.SYSTEM>
0

>  <SCORE.SYSTEM.CONST>
0

>  <SCORE.SYSTEM.DIHEDRAL>
0

>  <SCORE.SYSTEM.SOLV>
0

>  <SCORE.SYSTEM.norm>
0

>  <SCORE.heavy>
14

>  <SCORE.norm>
0.155999

>  <RMSD>
1.377

$$$$
ligand
 OpenBabel11021811393D
libRbt.so/2013.1/901 2013/11/27
 14 13  0  0  0  0  0  0  0  0999 V2000
   37.4175   21.0902   32.1435 N   0  0  0  0  0  0  0  0  0  0  0  0
   37.9502   20.4149   33.3167 C   0  0  0  0  0  0  0  0  0  0  0  0
   37.0058   20.6261   34.5320 C   0  0  0  0  0  0  0  0  0  0  0  0
   37.4313   20.0054   35.9102 C   0  0  0  0  0  0  0  0  0  0  0  0
   38.6806   20.5867   36.5249 N   0  0  0  0  0  0  0  0  0  0  0  0
   39.5207   19.5852   37.2436 C   0  0  0  0  0  0  0  0  0  0  0  0
   41.0132   19.7714   37.0395 C   0  0  0  0  0  0  0  0  0  0  0  0
   41.5004   21.1313   37.5058 C   0  0  0  0  0  0  0  0  0  0  0  0
   42.9198   21.2530   37.1026 C   0  0  0  0  0  0  0  0  0  0  0  0
   43.5796   22.5296   37.4677 N   0  0  0  0  0  0  0  0  0  0  0  0
   43.3203   23.6304   36.5062 C   0  0  0  0  0  0  0  0  0  0  0  0
   44.5750   24.4050   36.0038 C   0  0  0  0  0  0  0  0  0  0  0  0
   44.0961   25.5999   35.1606 C   0  0  0  0  0  0  0  0  0  0  0  0
   43.4347   25.1391   33.9425 N   0  0  0  0  0  0  0  0  0  0  0  0
  1  2  1  0  0  0  0
  2  3  1  0  0  0  0
  3  4  1  0  0  0  0
  4  5  1  0  0  0  0
  5  6  1  0  0  0  0
  6  7  1  0  0  0  0
  7  8  1  0  0  0  0
  8  9  1  0  0  0  0
  9 10  1  0  0  0  0
 10 11  1  0  0  0  0
 11 12  1  0  0  0  0
 12 13  1  0  0  0  0
 13 14  1  0  0  0  0
M  END
>  <CHROM.1>
-178.26795209,65.30142458,-143.88235589,140.23192674,59.43732557,-173.09799585
179.73301943,-82.86073111,-130.20052091,-173.29484963,-65.91056295,40.88899736
21.84037943,35.74312435,2.94031202,0.55281897,2.23877699

>  <Name>
ligand

>  <RI>
0

>  <Rbt.Current_Directory>
/home/itssahil/PROJECTS/Mol_Feturizer/New_Systems/rnas/1EVV

>  <Rbt.Executable>
rbdock ($Id: //depot/dev/client3/rdock/2013.1/src/exe/rbdock.cxx#4 $)

>  <Rbt.Library>
libRbt.so (2013.1, Build901 2013/11/27)

>  <Rbt.Parameter_File>
/export/apps/rDock/src/rDock_2013.1_src/data/scripts/dock_solv.prm

>  <Rbt.Receptor>
prm/pocket_docking_2.prm

>  <SCORE>
0.322276

>  <SCORE.INTER>
8.46485

>  <SCORE.INTER.CONST>
1

>  <SCORE.INTER.POLAR>
0

>  <SCORE.INTER.ROT>
11

>  <SCORE.INTER.SOLV>
2.47535

>  <SCORE.INTER.VDW>
-6.11522

>  <SCORE.INTER.norm>
0.604632

>  <SCORE.INTRA>
-8.1473

>  <SCORE.INTRA.DIHEDRAL>
-16.4176

>  <SCORE.INTRA.DIHEDRAL.0>
20.2131

>  <SCORE.INTRA.POLAR>
0

>  <SCORE.INTRA.POLAR.0>
0

>  <SCORE.INTRA.REPUL>
0

>  <SCORE.INTRA.REPUL.0>
0

>  <SCORE.INTRA.SOLV>
0.0370434

>  <SCORE.INTRA.SOLV.lig_0>
-48.2851

>  <SCORE.INTRA.VDW>
0.0429945

>  <SCORE.INTRA.VDW.0>
-1.08658

>  <SCORE.INTRA.norm>
-0.58195

>  <SCORE.RESTR>
0.00471985

>  <SCORE.RESTR.CAVITY>
0.00471985

>  <SCORE.RESTR.norm>
0.000337132

>  <SCORE.SYSTEM>
0

>  <SCORE.SYSTEM.CONST>
0

>  <SCORE.SYSTEM.DIHEDRAL>
0

>  <SCORE.SYSTEM.SOLV>
0

>  <SCORE.SYSTEM.norm>
0

>  <SCORE.heavy>
14

>  <SCORE.norm>
0.0230197

>  <RMSD>
1.385

$$$$
ligand
 OpenBabel11021811393D
libRbt.so/2013.1/901 2013/11/27
 14 13  0  0  0  0  0  0  0  0999 V2000
   37.4456   22.4988   32.9252 N   0  0  0  0  0  0  0  0  0  0  0  0
   37.9827   21.9160   34.1451 C   0  0  0  0  0  0  0  0  0  0  0  0
   37.0537   20.7776   34.6498 C   0  0  0  0  0  0  0  0  0  0  0  0
   37.4874   19.9916   35.9379 C   0  0  0  0  0  0  0  0  0  0  0  0
   38.8119   19.2748   35.8449 N   0  0  0  0  0  0  0  0  0  0  0  0
   39.5110   19.1282   37.1545 C   0  0  0  0  0  0  0  0  0  0  0  0
   40.2396   20.3800   37.6086 C   0  0  0  0  0  0  0  0  0  0  0  0
   41.3302   20.8032   36.6414 C   0  0  0  0  0  0  0  0  0  0  0  0
   41.9268   22.0515   37.1686 C   0  0  0  0  0  0  0  0  0  0  0  0
   43.0251   22.6268   36.3555 N   0  0  0  0  0  0  0  0  0  0  0  0
   43.3736   24.0212   36.7268 C   0  0  0  0  0  0  0  0  0  0  0  0
   44.5789   24.6477   35.9641 C   0  0  0  0  0  0  0  0  0  0  0  0
   44.2222   24.7074   34.4684 C   0  0  0  0  0  0  0  0  0  0  0  0
   43.1379   25.6576   34.2345 N   0  0  0  0  0  0  0  0  0  0  0  0
  1  2  1  0  0  0  0
  2  3  1  0  0  0  0
  3  4  1  0  0  0  0
  4  5  1  0  0  0  0
  5  6  1  0  0  0  0
  6  7  1  0  0  0  0
  7  8  1  0  0  0  0
  8  9  1  0  0  0  0
  9 10  1  0  0  0  0
 10 11  1  0  0  0  0
 11 12  1  0  0  0  0
 12 13  1  0  0  0  0
 13 14  1  0  0  0  0
M  END
>  <CHROM.1>
178.17742657,-60.07772261,151.41154948,-79.44742140,-61.20735052,178.02139028
179.86784450,166.20121968,176.42973411,62.27978967,67.19580145,40.72338553
22.03426024,35.70217419,2.72222243,0.46600042,2.38934306

>  <Name>
ligand

>  <RI>
0

>  <Rbt.Current_Directory>
/home/itssahil/PROJECTS/Mol_Feturizer/New_Systems/rnas/1EVV

>  <Rbt.Executable>
rbdock ($Id: //depot/dev/client3/rdock/2013.1/src/exe/rbdock.cxx#4 $)

>  <Rbt.Library>
libRbt.so (2013.1, Build901 2013/11/27)

>  <Rbt.Parameter_File>
/export/apps/rDock/src/rDock_2013.1_src/data/scripts/dock_solv.prm

>  <Rbt.Receptor>
prm/pocket_docking_2.prm

>  <SCORE>
-0.649671

>  <SCORE.INTER>
8.46601

>  <SCORE.INTER.CONST>
1

>  <SCORE.INTER.POLAR>
0

>  <SCORE.INTER.ROT>
11

>  <SCORE.INTER.SOLV>
1.7048

>  <SCORE.INTER.VDW>
-5.85759

>  <SCORE.INTER.norm>
0.604715

>  <SCORE.INTRA>
-9.11568

>  <SCORE.INTRA.DIHEDRAL>
-18.9642

>  <SCORE.INTRA.DIHEDRAL.0>
20.2131

>  <SCORE.INTRA.POLAR>
0

>  <SCORE.INTRA.POLAR.0>
0

>  <SCORE.INTRA.REPUL>
0

>  <SCORE.INTRA.REPUL.0>
0

>  <SCORE.INTRA.SOLV>
1.0451

>  <SCORE.INTRA.SOLV.lig_0>
-48.2851

>  <SCORE.INTRA.VDW>
-0.156136

>  <SCORE.INTRA.VDW.0>
-1.08658

>  <SCORE.INTRA.norm>
-0.65112

>  <SCORE.RESTR>
0

>  <SCORE.RESTR.CAVITY>
0

>  <SCORE.RESTR.norm>
0

>  <SCORE.SYSTEM>
0

>  <SCORE.SYSTEM.CONST>
0

>  <SCORE.SYSTEM.DIHEDRAL>
0

>  <SCORE.SYSTEM.SOLV>
0

>  <SCORE.SYSTEM.norm>
0

>  <SCORE.heavy>
14

>  <SCORE.norm>
-0.0464051

>  <RMSD>
1.394

$$$$
ligand
 OpenBabel11021811393D
libRbt.so/2013.1/901 2013/11/27
 14 13  0  0  0  0  0  0  0  0999 V2000
   37.7494   22.1901   33.7264 N   0  0  0  0  0  0  0  0  0  0  0  0
   36.9653   20.9663   33.6643 C   0  0  0  0  0  0  0  0  0  0  0  0
   37.5313   19.9158   34.6591 C   0  0  0  0  0  0  0  0  0  0  0  0
   37.3971   20.2111   36.1953 C   0  0  0  0  0  0  0  0  0  0  0  0
   38.0915   19.2299   37.1073 N   0  0  0  0  0  0  0  0  0  0  0  0
   39.5791   19.2537   36.9971 C   0  0  0  0  0  0  0  0  0  0  0  0
   40.2083   20.5682   37.4218 C   0  0  0  0  0  0  0  0  0  0  0  0
   41.7152   20.5792   37.2390 C   0  0  0  0  0  0  0  0  0  0  0  0
   42.1942   21.9302   37.6099 C   0  0  0  0  0  0  0  0  0  0  0  0
   41.6895   23.0400   36.7662 N   0  0  0  0  0  0  0  0  0  0  0  0
   42.5030   24.2781   36.8613 C   0  0  0  0  0  0  0  0  0  0  0  0
   43.8545   24.2657   36.0866 C   0  0  0  0  0  0  0  0  0  0  0  0
   44.5838   25.5904   36.3719 C   0  0  0  0  0  0  0  0  0  0  0  0
   43.8738   26.7115   35.7616 N   0  0  0  0  0  0  0  0  0  0  0  0
  1  2  1  0  0  0  0
  2  3  1  0  0  0  0
  3  4  1  0  0  0  0
  4  5  1  0  0  0  0
  5  6  1  0  0  0  0
  6  7  1  0  0  0  0
  7  8  1  0  0  0  0
  8  9  1  0  0  0  0
  9 10  1  0  0  0  0
 10 11  1  0  0  0  0
 11 12  1  0  0  0  0
 12 13  1  0  0  0  0
 13 14  1  0  0  0  0
M  END
>  <CHROM.1>
67.63898744,-173.80992164,66.60272530,63.91786421,-177.44992225,176.74898028
-62.93762151,-160.97959295,76.40624616,-176.72520792,-68.19656637,40.56694547
22.05187082,36.17640369,2.69293501,0.56467664,2.48041232

>  <Name>
ligand

>  <RI>
0

>  <Rbt.Current_Directory>
/home/itssahil/PROJECTS/Mol_Feturizer/New_Systems/rnas/1EVV

>  <Rbt.Executable>
rbdock ($Id: //depot/dev/client3/rdock/2013.1/src/exe/rbdock.cxx#4 $)

>  <Rbt.Library>
libRbt.so (2013.1, Build901 2013/11/27)

>  <Rbt.Parameter_File>
/export/apps/rDock/src/rDock_2013.1_src/data/scripts/dock_solv.prm

>  <Rbt.Receptor>
prm/pocket_docking_2.prm

>  <SCORE>
-0.47634

>  <SCORE.INTER>
7.75164

>  <SCORE.INTER.CONST>
1

>  <SCORE.INTER.POLAR>
0

>  <SCORE.INTER.ROT>
11

>  <SCORE.INTER.SOLV>
4.26785

>  <SCORE.INTER.VDW>
-7.18819

>  <SCORE.INTER.norm>
0.553688

>  <SCORE.INTRA>
-8.23087

>  <SCORE.INTRA.DIHEDRAL>
-18.9295

>  <SCORE.INTRA.DIHEDRAL.0>
20.2131

>  <SCORE.INTRA.POLAR>
0

>  <SCORE.INTRA.POLAR.0>
0

>  <SCORE.INTRA.REPUL>
0

>  <SCORE.INTRA.REPUL.0>
0

>  <SCORE.INTRA.SOLV>
0.354021

>  <SCORE.INTRA.SOLV.lig_0>
-48.2851

>  <SCORE.INTRA.VDW>
1.05687

>  <SCORE.INTRA.VDW.0>
-1.08658

>  <SCORE.INTRA.norm>
-0.58792

>  <SCORE.RESTR>
0.00289727

>  <SCORE.RESTR.CAVITY>
0.00289727

>  <SCORE.RESTR.norm>
0.000206948

>  <SCORE.SYSTEM>
0

>  <SCORE.SYSTEM.CONST>
0

>  <SCORE.SYSTEM.DIHEDRAL>
0

>  <SCORE.SYSTEM.SOLV>
0

>  <SCORE.SYSTEM.norm>
0

>  <SCORE.heavy>
14

>  <SCORE.norm>
-0.0340243

>  <RMSD>
1.435

$$$$
ligand
 OpenBabel11021811393D
libRbt.so/2013.1/901 2013/11/27
 14 13  0  0  0  0  0  0  0  0999 V2000
   38.1011   22.0748   34.2842 N   0  0  0  0  0  0  0  0  0  0  0  0
   37.0443   21.0898   34.1134 C   0  0  0  0  0  0  0  0  0  0  0  0
   37.4341   19.7584   34.8127 C   0  0  0  0  0  0  0  0  0  0  0  0
   37.5037   19.7449   36.3813 C   0  0  0  0  0  0  0  0  0  0  0  0
   38.6092   20.5732   36.9884 N   0  0  0  0  0  0  0  0  0  0  0  0
   39.8433   19.7952   37.3002 C   0  0  0  0  0  0  0  0  0  0  0  0
   41.0919   20.6474   37.4373 C   0  0  0  0  0  0  0  0  0  0  0  0
   41.4635   21.3496   36.1439 C   0  0  0  0  0  0  0  0  0  0  0  0
   42.7201   22.0927   36.3912 C   0  0  0  0  0  0  0  0  0  0  0  0
   43.2815   22.8050   35.2183 N   0  0  0  0  0  0  0  0  0  0  0  0
   44.5772   23.4755   35.4928 C   0  0  0  0  0  0  0  0  0  0  0  0
   44.4875   24.9116   36.0895 C   0  0  0  0  0  0  0  0  0  0  0  0
   43.7490   25.8065   35.0786 C   0  0  0  0  0  0  0  0  0  0  0  0
   43.6238   27.1686   35.5911 N   0  0  0  0  0  0  0  0  0  0  0  0
  1  2  1  0  0  0  0
  2  3  1  0  0  0  0
  3  4  1  0  0  0  0
  4  5  1  0  0  0  0
  5  6  1  0  0  0  0
  6  7  1  0  0  0  0
  7  8  1  0  0  0  0
  8  9  1  0  0  0  0
  9 10  1  0  0  0  0
 10 11  1  0  0  0  0
 11 12  1  0  0  0  0
 12 13  1  0  0  0  0
 13 14  1  0  0  0  0
M  END
>  <CHROM.1>
68.40623691,-67.40177113,-95.30535223,159.52679405,-63.75680267,-177.53309381
177.50439937,-176.90977364,-86.01376730,-61.02183010,179.49739386,40.96646088
22.23483971,35.80889419,2.58083049,0.38417850,2.58803495

>  <Name>
ligand

>  <RI>
0

>  <Rbt.Current_Directory>
/home/itssahil/PROJECTS/Mol_Feturizer/New_Systems/rnas/1EVV

>  <Rbt.Executable>
rbdock ($Id: //depot/dev/client3/rdock/2013.1/src/exe/rbdock.cxx#4 $)

>  <Rbt.Library>
libRbt.so (2013.1, Build901 2013/11/27)

>  <Rbt.Parameter_File>
/export/apps/rDock/src/rDock_2013.1_src/data/scripts/dock_solv.prm

>  <Rbt.Receptor>
prm/pocket_docking_2.prm

>  <SCORE>
1.04043

>  <SCORE.INTER>
9.30074

>  <SCORE.INTER.CONST>
1

>  <SCORE.INTER.POLAR>
0

>  <SCORE.INTER.ROT>
11

>  <SCORE.INTER.SOLV>
3.20456

>  <SCORE.INTER.VDW>
-5.80103

>  <SCORE.INTER.norm>
0.664339

>  <SCORE.INTRA>
-8.26031

>  <SCORE.INTRA.DIHEDRAL>
-18.0772

>  <SCORE.INTRA.DIHEDRAL.0>
20.2131

>  <SCORE.INTRA.POLAR>
0

>  <SCORE.INTRA.POLAR.0>
0

>  <SCORE.INTRA.REPUL>
0

>  <SCORE.INTRA.REPUL.0>
0

>  <SCORE.INTRA.SOLV>
2.50312

>  <SCORE.INTRA.SOLV.lig_0>
-48.2851

>  <SCORE.INTRA.VDW>
-0.473256

>  <SCORE.INTRA.VDW.0>
-1.08658

>  <SCORE.INTRA.norm>
-0.590022

>  <SCORE.RESTR>
0

>  <SCORE.RESTR.CAVITY>
0

>  <SCORE.RESTR.norm>
0

>  <SCORE.SYSTEM>
0

>  <SCORE.SYSTEM.CONST>
0

>  <SCORE.SYSTEM.DIHEDRAL>
0

>  <SCORE.SYSTEM.SOLV>
0

>  <SCORE.SYSTEM.norm>
0

>  <SCORE.heavy>
14

>  <SCORE.norm>
0.0743167

>  <RMSD>
1.465

$$$$
ligand
 OpenBabel11021811393D
libRbt.so/2013.1/901 2013/11/27
 14 13  0  0  0  0  0  0  0  0999 V2000
   37.8271   21.1671   33.4183 N   0  0  0  0  0  0  0  0  0  0  0  0
   36.9016   20.8813   34.5035 C   0  0  0  0  0  0  0  0  0  0  0  0
   37.6319   20.1216   35.6451 C   0  0  0  0  0  0  0  0  0  0  0  0
   38.8236   20.8468   36.3657 C   0  0  0  0  0  0  0  0  0  0  0  0
   39.6044   19.9995   37.3399 N   0  0  0  0  0  0  0  0  0  0  0  0
   40.8701   20.6336   37.8103 C   0  0  0  0  0  0  0  0  0  0  0  0
   42.0905   20.2586   36.9893 C   0  0  0  0  0  0  0  0  0  0  0  0
   42.0224   20.7879   35.5683 C   0  0  0  0  0  0  0  0  0  0  0  0
   42.2789   22.2450   35.6280 C   0  0  0  0  0  0  0  0  0  0  0  0
   43.6012   22.6383   36.1713 N   0  0  0  0  0  0  0  0  0  0  0  0
   43.8685   24.0962   36.0907 C   0  0  0  0  0  0  0  0  0  0  0  0
   44.8308   24.5500   34.9528 C   0  0  0  0  0  0  0  0  0  0  0  0
   45.1016   26.0550   35.1243 C   0  0  0  0  0  0  0  0  0  0  0  0
   43.8789   26.8260   34.9146 N   0  0  0  0  0  0  0  0  0  0  0  0
  1  2  1  0  0  0  0
  2  3  1  0  0  0  0
  3  4  1  0  0  0  0
  4  5  1  0  0  0  0
  5  6  1  0  0  0  0
  6  7  1  0  0  0  0
  7  8  1  0  0  0  0
  8  9  1  0  0  0  0
  9 10  1  0  0  0  0
 10 11  1  0  0  0  0
 11 12  1  0  0  0  0
 12 13  1  0  0  0  0
 13 14  1  0  0  0  0
M  END
>  <CHROM.1>
61.72637100,-172.51866279,169.21778549,-92.83146001,66.14168366,74.20015761
60.93877941,174.36791803,-102.98512935,-173.99413876,-65.50146481,41.38087415
22.22174341,35.75169399,2.61028427,0.40818902,2.49104601

>  <Name>
ligand

>  <RI>
0

>  <Rbt.Current_Directory>
/home/itssahil/PROJECTS/Mol_Feturizer/New_Systems/rnas/1EVV

>  <Rbt.Executable>
rbdock ($Id: //depot/dev/client3/rdock/2013.1/src/exe/rbdock.cxx#4 $)

>  <Rbt.Library>
libRbt.so (2013.1, Build901 2013/11/27)

>  <Rbt.Parameter_File>
/export/apps/rDock/src/rDock_2013.1_src/data/scripts/dock_solv.prm

>  <Rbt.Receptor>
prm/pocket_docking_2.prm

>  <SCORE>
1.74544

>  <SCORE.INTER>
8.82821

>  <SCORE.INTER.CONST>
1

>  <SCORE.INTER.POLAR>
0

>  <SCORE.INTER.ROT>
11

>  <SCORE.INTER.SOLV>
3.39722

>  <SCORE.INTER.VDW>
-6.18027

>  <SCORE.INTER.norm>
0.630586

>  <SCORE.INTRA>
-7.0848

>  <SCORE.INTRA.DIHEDRAL>
-17.0065

>  <SCORE.INTRA.DIHEDRAL.0>
20.2131

>  <SCORE.INTRA.POLAR>
0

>  <SCORE.INTRA.POLAR.0>
0

>  <SCORE.INTRA.REPUL>
0

>  <SCORE.INTRA.REPUL.0>
0

>  <SCORE.INTRA.SOLV>
1.25954

>  <SCORE.INTRA.SOLV.lig_0>
-48.2851

>  <SCORE.INTRA.VDW>
0.78869

>  <SCORE.INTRA.VDW.0>
-1.08658

>  <SCORE.INTRA.norm>
-0.506057

>  <SCORE.RESTR>
0.00201993

>  <SCORE.RESTR.CAVITY>
0.00201993

>  <SCORE.RESTR.norm>
0.000144281

>  <SCORE.SYSTEM>
0

>  <SCORE.SYSTEM.CONST>
0

>  <SCORE.SYSTEM.DIHEDRAL>
0

>  <SCORE.SYSTEM.SOLV>
0

>  <SCORE.SYSTEM.norm>
0

>  <SCORE.heavy>
14

>  <SCORE.norm>
0.124674

>  <RMSD>
1.504

$$$$
ligand
 OpenBabel11021811393D
libRbt.so/2013.1/901 2013/11/27
 14 13  0  0  0  0  0  0  0  0999 V2000
   44.0685   25.6824   34.1899 N   0  0  0  0  0  0  0  0  0  0  0  0
   44.4870   24.7650   35.2385 C   0  0  0  0  0  0  0  0  0  0  0  0
   43.2456   24.1117   35.9062 C   0  0  0  0  0  0  0  0  0  0  0  0
   43.4912   23.0830   37.0668 C   0  0  0  0  0  0  0  0  0  0  0  0
   42.2656   22.3498   37.5534 N   0  0  0  0  0  0  0  0  0  0  0  0
   42.1192   20.9780   36.9859 C   0  0  0  0  0  0  0  0  0  0  0  0
   40.8762   20.2449   37.4566 C   0  0  0  0  0  0  0  0  0  0  0  0
   40.6987   18.9004   36.7745 C   0  0  0  0  0  0  0  0  0  0  0  0
   39.4543   18.2982   37.3046 C   0  0  0  0  0  0  0  0  0  0  0  0
   38.2216   19.0961   37.0994 N   0  0  0  0  0  0  0  0  0  0  0  0
   37.6662   18.9918   35.7267 C   0  0  0  0  0  0  0  0  0  0  0  0
   37.2359   20.3337   35.0628 C   0  0  0  0  0  0  0  0  0  0  0  0
   38.5006   21.1752   34.8168 C   0  0  0  0  0  0  0  0  0  0  0  0
   38.1663   22.4188   34.1275 N   0  0  0  0  0  0  0  0  0  0  0  0
  1  2  1  0  0  0  0
  2  3  1  0  0  0  0
  3  4  1  0  0  0  0
  4  5  1  0  0  0  0
  5  6  1  0  0  0  0
  6  7  1  0  0  0  0
  7  8  1  0  0  0  0
  8  9  1  0  0  0  0
  9 10  1  0  0  0  0
 10 11  1  0  0  0  0
 11 12  1  0  0  0  0
 12 13  1  0  0  0  0
 13 14  1  0  0  0  0
M  END
>  <CHROM.1>
179.89425937,-172.37554880,99.22163774,-179.11525558,175.30963883,-179.39128812
58.88244279,78.79249145,-134.44463008,66.96203211,176.92154571,40.74980098
21.45882930,36.09368909,0.61271095,-0.44868828,-0.66037417

>  <Name>
ligand

>  <RI>
0

>  <Rbt.Current_Directory>
/home/itssahil/PROJECTS/Mol_Feturizer/New_Systems/rnas/1EVV

>  <Rbt.Executable>
rbdock ($Id: //depot/dev/client3/rdock/2013.1/src/exe/rbdock.cxx#4 $)

>  <Rbt.Library>
libRbt.so (2013.1, Build901 2013/11/27)

>  <Rbt.Parameter_File>
/export/apps/rDock/src/rDock_2013.1_src/data/scripts/dock_solv.prm

>  <Rbt.Receptor>
prm/pocket_docking_2.prm

>  <SCORE>
-0.439961

>  <SCORE.INTER>
8.85965

>  <SCORE.INTER.CONST>
1

>  <SCORE.INTER.POLAR>
0

>  <SCORE.INTER.ROT>
11

>  <SCORE.INTER.SOLV>
4.28889

>  <SCORE.INTER.VDW>
-6.45653

>  <SCORE.INTER.norm>
0.632832

>  <SCORE.INTRA>
-9.30638

>  <SCORE.INTRA.DIHEDRAL>
-17.5064

>  <SCORE.INTRA.DIHEDRAL.0>
20.2131

>  <SCORE.INTRA.POLAR>
0

>  <SCORE.INTRA.POLAR.0>
0

>  <SCORE.INTRA.REPUL>
0

>  <SCORE.INTRA.REPUL.0>
0

>  <SCORE.INTRA.SOLV>
-0.648923

>  <SCORE.INTRA.SOLV.lig_0>
-48.2851

>  <SCORE.INTRA.VDW>
-0.228706

>  <SCORE.INTRA.VDW.0>
-1.08658

>  <SCORE.INTRA.norm>
-0.664742

>  <SCORE.RESTR>
0.00676786

>  <SCORE.RESTR.CAVITY>
0.00676786

>  <SCORE.RESTR.norm>
0.000483418

>  <SCORE.SYSTEM>
0

>  <SCORE.SYSTEM.CONST>
0

>  <SCORE.SYSTEM.DIHEDRAL>
0

>  <SCORE.SYSTEM.SOLV>
0

>  <SCORE.SYSTEM.norm>
0

>  <SCORE.heavy>
14

>  <SCORE.norm>
-0.0314258

>  <RMSD>
1.529

$$$$
ligand
 OpenBabel11021811393D
libRbt.so/2013.1/901 2013/11/27
 14 13  0  0  0  0  0  0  0  0999 V2000
   44.2960   25.9333   34.2151 N   0  0  0  0  0  0  0  0  0  0  0  0
   43.8760   24.5699   33.9306 C   0  0  0  0  0  0  0  0  0  0  0  0
   42.8853   24.0755   35.0205 C   0  0  0  0  0  0  0  0  0  0  0  0
   42.3671   22.5963   34.9264 C   0  0  0  0  0  0  0  0  0  0  0  0
   41.4043   22.1765   36.0096 N   0  0  0  0  0  0  0  0  0  0  0  0
   41.8947   21.0420   36.8450 C   0  0  0  0  0  0  0  0  0  0  0  0
   40.8748   20.5249   37.8433 C   0  0  0  0  0  0  0  0  0  0  0  0
   39.7448   19.7594   37.1791 C   0  0  0  0  0  0  0  0  0  0  0  0
   38.8169   20.7576   36.6004 C   0  0  0  0  0  0  0  0  0  0  0  0
   37.5678   20.2072   36.0214 N   0  0  0  0  0  0  0  0  0  0  0  0
   37.1897   20.8241   34.7252 C   0  0  0  0  0  0  0  0  0  0  0  0
   37.8861   20.2353   33.4623 C   0  0  0  0  0  0  0  0  0  0  0  0
   37.4278   21.0477   32.2383 C   0  0  0  0  0  0  0  0  0  0  0  0
   37.9668   22.4043   32.2888 N   0  0  0  0  0  0  0  0  0  0  0  0
  1  2  1  0  0  0  0
  2  3  1  0  0  0  0
  3  4  1  0  0  0  0
  4  5  1  0  0  0  0
  5  6  1  0  0  0  0
  6  7  1  0  0  0  0
  7  8  1  0  0  0  0
  8  9  1  0  0  0  0
  9 10  1  0  0  0  0
 10 11  1  0  0  0  0
 11 12  1  0  0  0  0
 12 13  1  0  0  0  0
 13 14  1  0  0  0  0
M  END
>  <CHROM.1>
-177.20769753,-179.78696981,-119.02430846,-174.16601726,71.87133647,-78.21745418
-174.07435063,-137.37713089,83.37771723,-176.96678112,68.60737439,40.29987224
21.86781936,35.09346787,0.29609073,-0.52056880,-1.00851427

>  <Name>
ligand

>  <RI>
0

>  <Rbt.Current_Directory>
/home/itssahil/PROJECTS/Mol_Feturizer/New_Systems/rnas/1EVV

>  <Rbt.Executable>
rbdock ($Id: //depot/dev/client3/rdock/2013.1/src/exe/rbdock.cxx#4 $)

>  <Rbt.Library>
libRbt.so (2013.1, Build901 2013/11/27)

>  <Rbt.Parameter_File>
/export/apps/rDock/src/rDock_2013.1_src/data/scripts/dock_solv.prm

>  <Rbt.Receptor>
prm/pocket_docking_2.prm

>  <SCORE>
2.18805

>  <SCORE.INTER>
9.31029

>  <SCORE.INTER.CONST>
1

>  <SCORE.INTER.POLAR>
0

>  <SCORE.INTER.ROT>
11

>  <SCORE.INTER.SOLV>
2.10217

>  <SCORE.INTER.VDW>
-5.4272

>  <SCORE.INTER.norm>
0.665021

>  <SCORE.INTRA>
-7.12225

>  <SCORE.INTRA.DIHEDRAL>
-15.3441

>  <SCORE.INTRA.DIHEDRAL.0>
20.2131

>  <SCORE.INTRA.POLAR>
0

>  <SCORE.INTRA.POLAR.0>
0

>  <SCORE.INTRA.REPUL>
0

>  <SCORE.INTRA.REPUL.0>
0

>  <SCORE.INTRA.SOLV>
0.395701

>  <SCORE.INTRA.SOLV.lig_0>
-48.2851

>  <SCORE.INTRA.VDW>
0.351953

>  <SCORE.INTRA.VDW.0>
-1.08658

>  <SCORE.INTRA.norm>
-0.508732

>  <SCORE.RESTR>
0

>  <SCORE.RESTR.CAVITY>
0

>  <SCORE.RESTR.norm>
0

>  <SCORE.SYSTEM>
0

>  <SCORE.SYSTEM.CONST>
0

>  <SCORE.SYSTEM.DIHEDRAL>
0

>  <SCORE.SYSTEM.SOLV>
0

>  <SCORE.SYSTEM.norm>
0

>  <SCORE.heavy>
14

>  <SCORE.norm>
0.156289

>  <RMSD>
1.563

$$$$
ligand
 OpenBabel11021811393D
libRbt.so/2013.1/901 2013/11/27
 14 13  0  0  0  0  0  0  0  0999 V2000
   44.4430   26.0906   34.1720 N   0  0  0  0  0  0  0  0  0  0  0  0
   44.5777   25.0069   35.1331 C   0  0  0  0  0  0  0  0  0  0  0  0
   43.2157   24.2831   35.3193 C   0  0  0  0  0  0  0  0  0  0  0  0
   43.1407   23.1163   36.3674 C   0  0  0  0  0  0  0  0  0  0  0  0
   41.7987   22.4368   36.4861 N   0  0  0  0  0  0  0  0  0  0  0  0
   41.6773   21.5466   37.6771 C   0  0  0  0  0  0  0  0  0  0  0  0
   40.3408   20.8348   37.7818 C   0  0  0  0  0  0  0  0  0  0  0  0
   40.1007   19.8730   36.6322 C   0  0  0  0  0  0  0  0  0  0  0  0
   38.7883   19.2279   36.8641 C   0  0  0  0  0  0  0  0  0  0  0  0
   37.6150   20.1330   36.8154 N   0  0  0  0  0  0  0  0  0  0  0  0
   37.1095   20.3795   35.4416 C   0  0  0  0  0  0  0  0  0  0  0  0
   37.6980   21.6242   34.7128 C   0  0  0  0  0  0  0  0  0  0  0  0
   37.0032   21.7535   33.3458 C   0  0  0  0  0  0  0  0  0  0  0  0
   37.3712   20.6414   32.4733 N   0  0  0  0  0  0  0  0  0  0  0  0
  1  2  1  0  0  0  0
  2  3  1  0  0  0  0
  3  4  1  0  0  0  0
  4  5  1  0  0  0  0
  5  6  1  0  0  0  0
  6  7  1  0  0  0  0
  7  8  1  0  0  0  0
  8  9  1  0  0  0  0
  9 10  1  0  0  0  0
 10 11  1  0  0  0  0
 11 12  1  0  0  0  0
 12 13  1  0  0  0  0
 13 14  1  0  0  0  0
M  END
>  <CHROM.1>
-177.47838199,-178.98803446,-167.54800283,-178.58517083,63.99704760,178.86325780
64.95100487,83.88566666,-92.00806624,-177.04248802,-67.23894209,40.34858251
21.92465927,35.65898608,0.30999874,-0.51495613,-0.95138355

>  <Name>
ligand

>  <RI>
0

>  <Rbt.Current_Directory>
/home/itssahil/PROJECTS/Mol_Feturizer/New_Systems/rnas/1EVV

>  <Rbt.Executable>
rbdock ($Id: //depot/dev/client3/rdock/2013.1/src/exe/rbdock.cxx#4 $)

>  <Rbt.Library>
libRbt.so (2013.1, Build901 2013/11/27)

>  <Rbt.Parameter_File>
/export/apps/rDock/src/rDock_2013.1_src/data/scripts/dock_solv.prm

>  <Rbt.Receptor>
prm/pocket_docking_3.prm

>  <SCORE>
-1.45128

>  <SCORE.INTER>
7.67745

>  <SCORE.INTER.CONST>
1

>  <SCORE.INTER.POLAR>
0

>  <SCORE.INTER.ROT>
11

>  <SCORE.INTER.SOLV>
3.76289

>  <SCORE.INTER.VDW>
-7.06933

>  <SCORE.INTER.norm>
0.548389

>  <SCORE.INTRA>
-9.12873

>  <SCORE.INTRA.DIHEDRAL>
-18.5996

>  <SCORE.INTRA.DIHEDRAL.0>
20.2131

>  <SCORE.INTRA.POLAR>
0

>  <SCORE.INTRA.POLAR.0>
0

>  <SCORE.INTRA.REPUL>
0

>  <SCORE.INTRA.REPUL.0>
0

>  <SCORE.INTRA.SOLV>
0.167852

>  <SCORE.INTRA.SOLV.lig_0>
-48.2851

>  <SCORE.INTRA.VDW>
0.0871451

>  <SCORE.INTRA.VDW.0>
-1.08658

>  <SCORE.INTRA.norm>
-0.652052

>  <SCORE.RESTR>
0

>  <SCORE.RESTR.CAVITY>
0

>  <SCORE.RESTR.norm>
0

>  <SCORE.SYSTEM>
0

>  <SCORE.SYSTEM.CONST>
0

>  <SCORE.SYSTEM.DIHEDRAL>
0

>  <SCORE.SYSTEM.SOLV>
0

>  <SCORE.SYSTEM.norm>
0

>  <SCORE.heavy>
14

>  <SCORE.norm>
-0.103663

>  <RMSD>
1.606

$$$$
ligand
 OpenBabel11021811393D
libRbt.so/2013.1/901 2013/11/27
 14 13  0  0  0  0  0  0  0  0999 V2000
   44.5637   27.4722   33.4373 N   0  0  0  0  0  0  0  0  0  0  0  0
   44.3953   26.0895   33.8567 C   0  0  0  0  0  0  0  0  0  0  0  0
   44.8091   25.9265   35.3453 C   0  0  0  0  0  0  0  0  0  0  0  0
   44.6153   24.5182   36.0121 C   0  0  0  0  0  0  0  0  0  0  0  0
   43.1844   24.0648   36.1652 N   0  0  0  0  0  0  0  0  0  0  0  0
   43.0446   22.6937   36.7361 C   0  0  0  0  0  0  0  0  0  0  0  0
   41.6069   22.2276   36.8770 C   0  0  0  0  0  0  0  0  0  0  0  0
   41.4995   20.8495   37.5045 C   0  0  0  0  0  0  0  0  0  0  0  0
   40.0666   20.4768   37.5067 C   0  0  0  0  0  0  0  0  0  0  0  0
   39.4495   20.3067   36.1694 N   0  0  0  0  0  0  0  0  0  0  0  0
   38.1966   21.0822   35.9885 C   0  0  0  0  0  0  0  0  0  0  0  0
   37.9263   21.6128   34.5490 C   0  0  0  0  0  0  0  0  0  0  0  0
   37.7685   20.4020   33.6125 C   0  0  0  0  0  0  0  0  0  0  0  0
   37.4971   20.8394   32.2456 N   0  0  0  0  0  0  0  0  0  0  0  0
  1  2  1  0  0  0  0
  2  3  1  0  0  0  0
  3  4  1  0  0  0  0
  4  5  1  0  0  0  0
  5  6  1  0  0  0  0
  6  7  1  0  0  0  0
  7  8  1  0  0  0  0
  8  9  1  0  0  0  0
  9 10  1  0  0  0  0
 10 11  1  0  0  0  0
 11 12  1  0  0  0  0
 12 13  1  0  0  0  0
 13 14  1  0  0  0  0
M  END
>  <CHROM.1>
176.33479292,-65.96462789,176.95025117,-179.33981507,-178.02419901,-176.46182794
64.76719513,-128.29741415,147.04359619,63.09451733,179.36099795,41.33030639
22.75425864,35.42937481,0.38724126,-0.59920299,-0.95390708

>  <Name>
ligand

>  <RI>
0

>  <Rbt.Current_Directory>
/home/itssahil/PROJECTS/Mol_Feturizer/New_Systems/rnas/1EVV

>  <Rbt.Executable>
rbdock ($Id: //depot/dev/client3/rdock/2013.1/src/exe/rbdock.cxx#4 $)

>  <Rbt.Library>
libRbt.so (2013.1, Build901 2013/11/27)

>  <Rbt.Parameter_File>
/export/apps/rDock/src/rDock_2013.1_src/data/scripts/dock_solv.prm

>  <Rbt.Receptor>
prm/pocket_docking_2.prm

>  <SCORE>
-0.310966

>  <SCORE.INTER>
9.13483

>  <SCORE.INTER.CONST>
1

>  <SCORE.INTER.POLAR>
0

>  <SCORE.INTER.ROT>
11

>  <SCORE.INTER.SOLV>
1.41825

>  <SCORE.INTER.VDW>
-5.3162

>  <SCORE.INTER.norm>
0.652488

>  <SCORE.INTRA>
-9.47157

>  <SCORE.INTRA.DIHEDRAL>
-17.9939

>  <SCORE.INTRA.DIHEDRAL.0>
20.2131

>  <SCORE.INTRA.POLAR>
0

>  <SCORE.INTRA.POLAR.0>
0

>  <SCORE.INTRA.REPUL>
0

>  <SCORE.INTRA.REPUL.0>
0

>  <SCORE.INTRA.SOLV>
-0.40963

>  <SCORE.INTRA.SOLV.lig_0>
-48.2851

>  <SCORE.INTRA.VDW>
-0.26983

>  <SCORE.INTRA.VDW.0>
-1.08658

>  <SCORE.INTRA.norm>
-0.676541

>  <SCORE.RESTR>
0.0257752

>  <SCORE.RESTR.CAVITY>
0.0257752

>  <SCORE.RESTR.norm>
0.00184109

>  <SCORE.SYSTEM>
0

>  <SCORE.SYSTEM.CONST>
0

>  <SCORE.SYSTEM.DIHEDRAL>
0

>  <SCORE.SYSTEM.SOLV>
0

>  <SCORE.SYSTEM.norm>
0

>  <SCORE.heavy>
14

>  <SCORE.norm>
-0.0222119

>  <RMSD>
1.611

$$$$
ligand
 OpenBabel11021811393D
libRbt.so/2013.1/901 2013/11/27
 14 13  0  0  0  0  0  0  0  0999 V2000
   37.5339   19.1780   33.0317 N   0  0  0  0  0  0  0  0  0  0  0  0
   38.9677   19.4199   33.0750 C   0  0  0  0  0  0  0  0  0  0  0  0
   39.3125   20.3936   34.2355 C   0  0  0  0  0  0  0  0  0  0  0  0
   39.0419   19.9108   35.7049 C   0  0  0  0  0  0  0  0  0  0  0  0
   39.2954   20.9371   36.7815 N   0  0  0  0  0  0  0  0  0  0  0  0
   40.3554   20.5413   37.7538 C   0  0  0  0  0  0  0  0  0  0  0  0
   41.7145   21.1541   37.4685 C   0  0  0  0  0  0  0  0  0  0  0  0
   42.4035   20.5154   36.2762 C   0  0  0  0  0  0  0  0  0  0  0  0
   43.5627   21.3683   35.9281 C   0  0  0  0  0  0  0  0  0  0  0  0
   43.2321   22.6626   35.2848 N   0  0  0  0  0  0  0  0  0  0  0  0
   44.3553   23.6332   35.2876 C   0  0  0  0  0  0  0  0  0  0  0  0
   44.2991   24.7425   34.1954 C   0  0  0  0  0  0  0  0  0  0  0  0
   45.4956   25.6866   34.4076 C   0  0  0  0  0  0  0  0  0  0  0  0
   45.3282   26.4636   35.6331 N   0  0  0  0  0  0  0  0  0  0  0  0
  1  2  1  0  0  0  0
  2  3  1  0  0  0  0
  3  4  1  0  0  0  0
  4  5  1  0  0  0  0
  5  6  1  0  0  0  0
  6  7  1  0  0  0  0
  7  8  1  0  0  0  0
  8  9  1  0  0  0  0
  9 10  1  0  0  0  0
 10 11  1  0  0  0  0
 11 12  1  0  0  0  0
 12 13  1  0  0  0  0
 13 14  1  0  0  0  0
M  END
>  <CHROM.1>
64.68247629,-175.44947893,-118.60658284,98.72009395,-73.90229637,168.38673895
-72.72884558,164.27458929,157.02810760,176.94715683,-69.21364869,41.77859098
21.90033154,35.36177618,2.97352552,0.69837180,1.88520390

>  <Name>
ligand

>  <RI>
0

>  <Rbt.Current_Directory>
/home/itssahil/PROJECTS/Mol_Feturizer/New_Systems/rnas/1EVV

>  <Rbt.Executable>
rbdock ($Id: //depot/dev/client3/rdock/2013.1/src/exe/rbdock.cxx#4 $)

>  <Rbt.Library>
libRbt.so (2013.1, Build901 2013/11/27)

>  <Rbt.Parameter_File>
/export/apps/rDock/src/rDock_2013.1_src/data/scripts/dock_solv.prm

>  <Rbt.Receptor>
prm/pocket_docking_2.prm

>  <SCORE>
4.26766

>  <SCORE.INTER>
11.8957

>  <SCORE.INTER.CONST>
1

>  <SCORE.INTER.POLAR>
0

>  <SCORE.INTER.ROT>
11

>  <SCORE.INTER.SOLV>
5.78642

>  <SCORE.INTER.VDW>
-4.93167

>  <SCORE.INTER.norm>
0.849694

>  <SCORE.INTRA>
-7.62875

>  <SCORE.INTRA.DIHEDRAL>
-15.2246

>  <SCORE.INTRA.DIHEDRAL.0>
20.2131

>  <SCORE.INTRA.POLAR>
0

>  <SCORE.INTRA.POLAR.0>
0

>  <SCORE.INTRA.REPUL>
0

>  <SCORE.INTRA.REPUL.0>
0

>  <SCORE.INTRA.SOLV>
0.749953

>  <SCORE.INTRA.SOLV.lig_0>
-48.2851

>  <SCORE.INTRA.VDW>
-0.391438

>  <SCORE.INTRA.VDW.0>
-1.08658

>  <SCORE.INTRA.norm>
-0.544911

>  <SCORE.RESTR>
0.000705277

>  <SCORE.RESTR.CAVITY>
0.000705277

>  <SCORE.RESTR.norm>
5.03769e-05

>  <SCORE.SYSTEM>
0

>  <SCORE.SYSTEM.CONST>
0

>  <SCORE.SYSTEM.DIHEDRAL>
0

>  <SCORE.SYSTEM.SOLV>
0

>  <SCORE.SYSTEM.norm>
0

>  <SCORE.heavy>
14

>  <SCORE.norm>
0.304833

>  <RMSD>
1.620

$$$$
ligand
 OpenBabel11021811393D
libRbt.so/2013.1/901 2013/11/27
 14 13  0  0  0  0  0  0  0  0999 V2000
   37.5856   21.6509   32.9942 N   0  0  0  0  0  0  0  0  0  0  0  0
   37.8971   21.5672   34.4127 C   0  0  0  0  0  0  0  0  0  0  0  0
   37.2752   20.2810   35.0232 C   0  0  0  0  0  0  0  0  0  0  0  0
   37.4659   20.0311   36.5616 C   0  0  0  0  0  0  0  0  0  0  0  0
   38.8964   19.9125   37.0267 N   0  0  0  0  0  0  0  0  0  0  0  0
   39.3749   18.5050   37.1506 C   0  0  0  0  0  0  0  0  0  0  0  0
   40.7782   18.3777   37.7152 C   0  0  0  0  0  0  0  0  0  0  0  0
   41.8383   18.9102   36.7682 C   0  0  0  0  0  0  0  0  0  0  0  0
   41.8324   20.3862   36.8853 C   0  0  0  0  0  0  0  0  0  0  0  0
   42.8226   21.0971   36.0412 N   0  0  0  0  0  0  0  0  0  0  0  0
   42.9651   22.5367   36.3745 C   0  0  0  0  0  0  0  0  0  0  0  0
   43.7459   23.4008   35.3400 C   0  0  0  0  0  0  0  0  0  0  0  0
   43.8587   24.8311   35.8965 C   0  0  0  0  0  0  0  0  0  0  0  0
   42.5349   25.4258   36.0619 N   0  0  0  0  0  0  0  0  0  0  0  0
  1  2  1  0  0  0  0
  2  3  1  0  0  0  0
  3  4  1  0  0  0  0
  4  5  1  0  0  0  0
  5  6  1  0  0  0  0
  6  7  1  0  0  0  0
  7  8  1  0  0  0  0
  8  9  1  0  0  0  0
  9 10  1  0  0  0  0
 10 11  1  0  0  0  0
 11 12  1  0  0  0  0
 12 13  1  0  0  0  0
 13 14  1  0  0  0  0
M  END
>  <CHROM.1>
-178.24164551,-60.37823458,-96.73725429,-175.73516515,-68.07722522,78.73747223
179.23831128,-168.91594272,-167.21138696,-176.70806341,-62.26045614,40.63372771
21.20775789,36.01818321,2.56944523,0.36570538,2.65279627

>  <Name>
ligand

>  <RI>
0

>  <Rbt.Current_Directory>
/home/itssahil/PROJECTS/Mol_Feturizer/New_Systems/rnas/1EVV

>  <Rbt.Executable>
rbdock ($Id: //depot/dev/client3/rdock/2013.1/src/exe/rbdock.cxx#4 $)

>  <Rbt.Library>
libRbt.so (2013.1, Build901 2013/11/27)

>  <Rbt.Parameter_File>
/export/apps/rDock/src/rDock_2013.1_src/data/scripts/dock_solv.prm

>  <Rbt.Receptor>
prm/pocket_docking_2.prm

>  <SCORE>
0.280378

>  <SCORE.INTER>
8.22756

>  <SCORE.INTER.CONST>
1

>  <SCORE.INTER.POLAR>
0

>  <SCORE.INTER.ROT>
11

>  <SCORE.INTER.SOLV>
2.67539

>  <SCORE.INTER.VDW>
-6.34009

>  <SCORE.INTER.norm>
0.587683

>  <SCORE.INTRA>
-7.94718

>  <SCORE.INTRA.DIHEDRAL>
-17.4871

>  <SCORE.INTRA.DIHEDRAL.0>
20.2131

>  <SCORE.INTRA.POLAR>
0

>  <SCORE.INTRA.POLAR.0>
0

>  <SCORE.INTRA.REPUL>
0

>  <SCORE.INTRA.REPUL.0>
0

>  <SCORE.INTRA.SOLV>
0.80425

>  <SCORE.INTRA.SOLV.lig_0>
-48.2851

>  <SCORE.INTRA.VDW>
0.394218

>  <SCORE.INTRA.VDW.0>
-1.08658

>  <SCORE.INTRA.norm>
-0.567656

>  <SCORE.RESTR>
0

>  <SCORE.RESTR.CAVITY>
0

>  <SCORE.RESTR.norm>
0

>  <SCORE.SYSTEM>
0

>  <SCORE.SYSTEM.CONST>
0

>  <SCORE.SYSTEM.DIHEDRAL>
0

>  <SCORE.SYSTEM.SOLV>
0

>  <SCORE.SYSTEM.norm>
0

>  <SCORE.heavy>
14

>  <SCORE.norm>
0.020027

>  <RMSD>
1.651

$$$$
ligand
 OpenBabel11021811393D
libRbt.so/2013.1/901 2013/11/27
 14 13  0  0  0  0  0  0  0  0999 V2000
   37.7221   21.6861   33.4332 N   0  0  0  0  0  0  0  0  0  0  0  0
   36.9271   20.8860   34.3518 C   0  0  0  0  0  0  0  0  0  0  0  0
   37.8540   20.0195   35.2483 C   0  0  0  0  0  0  0  0  0  0  0  0
   38.8064   20.7601   36.2532 C   0  0  0  0  0  0  0  0  0  0  0  0
   39.8633   19.8987   36.8995 N   0  0  0  0  0  0  0  0  0  0  0  0
   40.6107   20.5820   37.9949 C   0  0  0  0  0  0  0  0  0  0  0  0
   41.6230   21.6028   37.5078 C   0  0  0  0  0  0  0  0  0  0  0  0
   42.7254   20.9779   36.6722 C   0  0  0  0  0  0  0  0  0  0  0  0
   43.6448   22.0667   36.2703 C   0  0  0  0  0  0  0  0  0  0  0  0
   43.0627   23.0957   35.3755 N   0  0  0  0  0  0  0  0  0  0  0  0
   44.0539   24.0829   34.8790 C   0  0  0  0  0  0  0  0  0  0  0  0
   44.5463   25.1343   35.9177 C   0  0  0  0  0  0  0  0  0  0  0  0
   43.3403   25.9898   36.3439 C   0  0  0  0  0  0  0  0  0  0  0  0
   42.8650   26.8032   35.2277 N   0  0  0  0  0  0  0  0  0  0  0  0
  1  2  1  0  0  0  0
  2  3  1  0  0  0  0
  3  4  1  0  0  0  0
  4  5  1  0  0  0  0
  5  6  1  0  0  0  0
  6  7  1  0  0  0  0
  7  8  1  0  0  0  0
  8  9  1  0  0  0  0
  9 10  1  0  0  0  0
 10 11  1  0  0  0  0
 11 12  1  0  0  0  0
 12 13  1  0  0  0  0
 13 14  1  0  0  0  0
M  END
>  <CHROM.1>
65.16071126,-168.64718830,-171.20360250,-74.84906993,-62.83138193,-179.59608369
-64.81681523,-173.67024435,-73.54231418,-63.40395067,-67.04312105,41.26051093
22.39879618,35.88418660,2.61326108,0.44898752,2.58014748

>  <Name>
ligand

>  <RI>
0

>  <Rbt.Current_Directory>
/home/itssahil/PROJECTS/Mol_Feturizer/New_Systems/rnas/1EVV

>  <Rbt.Executable>
rbdock ($Id: //depot/dev/client3/rdock/2013.1/src/exe/rbdock.cxx#4 $)

>  <Rbt.Library>
libRbt.so (2013.1, Build901 2013/11/27)

>  <Rbt.Parameter_File>
/export/apps/rDock/src/rDock_2013.1_src/data/scripts/dock_solv.prm

>  <Rbt.Receptor>
prm/pocket_docking_2.prm

>  <SCORE>
1.52117

>  <SCORE.INTER>
9.57736

>  <SCORE.INTER.CONST>
1

>  <SCORE.INTER.POLAR>
0

>  <SCORE.INTER.ROT>
11

>  <SCORE.INTER.SOLV>
2.50618

>  <SCORE.INTER.VDW>
-5.38382

>  <SCORE.INTER.norm>
0.684097

>  <SCORE.INTRA>
-8.05619

>  <SCORE.INTRA.DIHEDRAL>
-18.8798

>  <SCORE.INTRA.DIHEDRAL.0>
20.2131

>  <SCORE.INTRA.POLAR>
0

>  <SCORE.INTRA.POLAR.0>
0

>  <SCORE.INTRA.REPUL>
0

>  <SCORE.INTRA.REPUL.0>
0

>  <SCORE.INTRA.SOLV>
1.76242

>  <SCORE.INTRA.SOLV.lig_0>
-48.2851

>  <SCORE.INTRA.VDW>
0.502506

>  <SCORE.INTRA.VDW.0>
-1.08658

>  <SCORE.INTRA.norm>
-0.575442

>  <SCORE.RESTR>
0

>  <SCORE.RESTR.CAVITY>
0

>  <SCORE.RESTR.norm>
0

>  <SCORE.SYSTEM>
0

>  <SCORE.SYSTEM.CONST>
0

>  <SCORE.SYSTEM.DIHEDRAL>
0

>  <SCORE.SYSTEM.SOLV>
0

>  <SCORE.SYSTEM.norm>
0

>  <SCORE.heavy>
14

>  <SCORE.norm>
0.108655

>  <RMSD>
1.653

$$$$
ligand
 OpenBabel11021811393D
libRbt.so/2013.1/901 2013/11/27
 14 13  0  0  0  0  0  0  0  0999 V2000
   45.3202   27.3093   35.1557 N   0  0  0  0  0  0  0  0  0  0  0  0
   44.6461   26.9201   33.9268 C   0  0  0  0  0  0  0  0  0  0  0  0
   44.3393   25.3972   33.9426 C   0  0  0  0  0  0  0  0  0  0  0  0
   43.4554   24.8376   35.1134 C   0  0  0  0  0  0  0  0  0  0  0  0
   43.1060   23.3727   35.0190 N   0  0  0  0  0  0  0  0  0  0  0  0
   42.7910   22.7424   36.3339 C   0  0  0  0  0  0  0  0  0  0  0  0
   41.7124   21.6766   36.2647 C   0  0  0  0  0  0  0  0  0  0  0  0
   41.5476   20.9279   37.5748 C   0  0  0  0  0  0  0  0  0  0  0  0
   40.4252   19.9779   37.4013 C   0  0  0  0  0  0  0  0  0  0  0  0
   39.0700   20.5784   37.4359 N   0  0  0  0  0  0  0  0  0  0  0  0
   38.5078   20.8576   36.0907 C   0  0  0  0  0  0  0  0  0  0  0  0
   38.2023   19.6107   35.2083 C   0  0  0  0  0  0  0  0  0  0  0  0
   37.7218   20.1025   33.8316 C   0  0  0  0  0  0  0  0  0  0  0  0
   37.5232   18.9767   32.9225 N   0  0  0  0  0  0  0  0  0  0  0  0
  1  2  1  0  0  0  0
  2  3  1  0  0  0  0
  3  4  1  0  0  0  0
  4  5  1  0  0  0  0
  5  6  1  0  0  0  0
  6  7  1  0  0  0  0
  7  8  1  0  0  0  0
  8  9  1  0  0  0  0
  9 10  1  0  0  0  0
 10 11  1  0  0  0  0
 11 12  1  0  0  0  0
 12 13  1  0  0  0  0
 13 14  1  0  0  0  0
M  END
>  <CHROM.1>
58.34079867,175.60393182,155.75256935,145.02255442,172.28280022,176.90061888
-75.99870433,96.94180402,66.12425032,-176.22785154,175.38930571,41.31203671
22.37760921,35.44449137,0.38822233,-0.71561400,-1.11050595

>  <Name>
ligand

>  <RI>
0

>  <Rbt.Current_Directory>
/home/itssahil/PROJECTS/Mol_Feturizer/New_Systems/rnas/1EVV

>  <Rbt.Executable>
rbdock ($Id: //depot/dev/client3/rdock/2013.1/src/exe/rbdock.cxx#4 $)

>  <Rbt.Library>
libRbt.so (2013.1, Build901 2013/11/27)

>  <Rbt.Parameter_File>
/export/apps/rDock/src/rDock_2013.1_src/data/scripts/dock_solv.prm

>  <Rbt.Receptor>
prm/pocket_docking_2.prm

>  <SCORE>
3.5535

>  <SCORE.INTER>
11.7688

>  <SCORE.INTER.CONST>
1

>  <SCORE.INTER.POLAR>
0

>  <SCORE.INTER.ROT>
11

>  <SCORE.INTER.SOLV>
6.17503

>  <SCORE.INTER.VDW>
-5.14581

>  <SCORE.INTER.norm>
0.840628

>  <SCORE.INTRA>
-8.24371

>  <SCORE.INTRA.DIHEDRAL>
-16.8002

>  <SCORE.INTRA.DIHEDRAL.0>
20.2131

>  <SCORE.INTRA.POLAR>
0

>  <SCORE.INTRA.POLAR.0>
0

>  <SCORE.INTRA.REPUL>
0

>  <SCORE.INTRA.REPUL.0>
0

>  <SCORE.INTRA.SOLV>
-0.3668

>  <SCORE.INTRA.SOLV.lig_0>
-48.2851

>  <SCORE.INTRA.VDW>
0.339796

>  <SCORE.INTRA.VDW.0>
-1.08658

>  <SCORE.INTRA.norm>
-0.588836

>  <SCORE.RESTR>
0.0284139

>  <SCORE.RESTR.CAVITY>
0.0284139

>  <SCORE.RESTR.norm>
0.00202957

>  <SCORE.SYSTEM>
0

>  <SCORE.SYSTEM.CONST>
0

>  <SCORE.SYSTEM.DIHEDRAL>
0

>  <SCORE.SYSTEM.SOLV>
0

>  <SCORE.SYSTEM.norm>
0

>  <SCORE.heavy>
14

>  <SCORE.norm>
0.253821

>  <RMSD>
1.662

$$$$
ligand
 OpenBabel11021811393D
libRbt.so/2013.1/901 2013/11/27
 14 13  0  0  0  0  0  0  0  0999 V2000
   44.1828   26.6518   33.8953 N   0  0  0  0  0  0  0  0  0  0  0  0
   44.5456   25.2846   34.2349 C   0  0  0  0  0  0  0  0  0  0  0  0
   44.6139   25.1154   35.7777 C   0  0  0  0  0  0  0  0  0  0  0  0
   43.2763   25.2387   36.5907 C   0  0  0  0  0  0  0  0  0  0  0  0
   42.2389   24.1834   36.2960 N   0  0  0  0  0  0  0  0  0  0  0  0
   42.5872   22.8321   36.8235 C   0  0  0  0  0  0  0  0  0  0  0  0
   41.5052   21.7890   36.6113 C   0  0  0  0  0  0  0  0  0  0  0  0
   41.9135   20.4151   37.1112 C   0  0  0  0  0  0  0  0  0  0  0  0
   40.7999   19.4873   36.8090 C   0  0  0  0  0  0  0  0  0  0  0  0
   39.5125   19.7971   37.4760 N   0  0  0  0  0  0  0  0  0  0  0  0
   38.3399   19.1470   36.8387 C   0  0  0  0  0  0  0  0  0  0  0  0
   37.4296   20.0755   35.9808 C   0  0  0  0  0  0  0  0  0  0  0  0
   38.2452   20.5622   34.7700 C   0  0  0  0  0  0  0  0  0  0  0  0
   37.4600   21.4887   33.9584 N   0  0  0  0  0  0  0  0  0  0  0  0
  1  2  1  0  0  0  0
  2  3  1  0  0  0  0
  3  4  1  0  0  0  0
  4  5  1  0  0  0  0
  5  6  1  0  0  0  0
  6  7  1  0  0  0  0
  7  8  1  0  0  0  0
  8  9  1  0  0  0  0
  9 10  1  0  0  0  0
 10 11  1  0  0  0  0
 11 12  1  0  0  0  0
 12 13  1  0  0  0  0
 13 14  1  0  0  0  0
M  END
>  <CHROM.1>
66.78189994,64.04919366,71.61900598,176.10633726,177.78628236,-178.20876168
-62.14799702,161.36022004,-104.68686174,65.40002515,-177.41846293,41.18946482
22.29025874,35.94117261,0.65084856,-0.48636479,-0.71172760

>  <Name>
ligand

>  <RI>
0

>  <Rbt.Current_Directory>
/home/itssahil/PROJECTS/Mol_Feturizer/New_Systems/rnas/1EVV

>  <Rbt.Executable>
rbdock ($Id: //depot/dev/client3/rdock/2013.1/src/exe/rbdock.cxx#4 $)

>  <Rbt.Library>
libRbt.so (2013.1, Build901 2013/11/27)

>  <Rbt.Parameter_File>
/export/apps/rDock/src/rDock_2013.1_src/data/scripts/dock_solv.prm

>  <Rbt.Receptor>
prm/pocket_docking_2.prm

>  <SCORE>
0.145165

>  <SCORE.INTER>
9.1592

>  <SCORE.INTER.CONST>
1

>  <SCORE.INTER.POLAR>
0

>  <SCORE.INTER.ROT>
11

>  <SCORE.INTER.SOLV>
3.10122

>  <SCORE.INTER.VDW>
-5.86094

>  <SCORE.INTER.norm>
0.654229

>  <SCORE.INTRA>
-9.01628

>  <SCORE.INTRA.DIHEDRAL>
-18.3939

>  <SCORE.INTRA.DIHEDRAL.0>
20.2131

>  <SCORE.INTRA.POLAR>
0

>  <SCORE.INTRA.POLAR.0>
0

>  <SCORE.INTRA.REPUL>
0

>  <SCORE.INTRA.REPUL.0>
0

>  <SCORE.INTRA.SOLV>
0.717084

>  <SCORE.INTRA.SOLV.lig_0>
-48.2851

>  <SCORE.INTRA.VDW>
-0.177892

>  <SCORE.INTRA.VDW.0>
-1.08658

>  <SCORE.INTRA.norm>
-0.64402

>  <SCORE.RESTR>
0.00224441

>  <SCORE.RESTR.CAVITY>
0.00224441

>  <SCORE.RESTR.norm>
0.000160315

>  <SCORE.SYSTEM>
0

>  <SCORE.SYSTEM.CONST>
0

>  <SCORE.SYSTEM.DIHEDRAL>
0

>  <SCORE.SYSTEM.SOLV>
0

>  <SCORE.SYSTEM.norm>
0

>  <SCORE.heavy>
14

>  <SCORE.norm>
0.0103689

>  <RMSD>
1.670

$$$$
ligand
 OpenBabel11021811393D
libRbt.so/2013.1/901 2013/11/27
 14 13  0  0  0  0  0  0  0  0999 V2000
   44.5713   26.8556   33.4695 N   0  0  0  0  0  0  0  0  0  0  0  0
   44.0888   26.1479   34.6453 C   0  0  0  0  0  0  0  0  0  0  0  0
   44.5342   24.6603   34.5961 C   0  0  0  0  0  0  0  0  0  0  0  0
   44.0658   23.7139   35.7581 C   0  0  0  0  0  0  0  0  0  0  0  0
   42.5783   23.4742   35.8394 N   0  0  0  0  0  0  0  0  0  0  0  0
   42.0797   23.2458   37.2267 C   0  0  0  0  0  0  0  0  0  0  0  0
   42.5247   21.9273   37.8331 C   0  0  0  0  0  0  0  0  0  0  0  0
   41.8786   20.7291   37.1616 C   0  0  0  0  0  0  0  0  0  0  0  0
   40.5128   20.5957   37.7175 C   0  0  0  0  0  0  0  0  0  0  0  0
   39.7465   19.4153   37.2509 N   0  0  0  0  0  0  0  0  0  0  0  0
   38.9705   19.6615   36.0095 C   0  0  0  0  0  0  0  0  0  0  0  0
   37.6308   20.4365   36.1867 C   0  0  0  0  0  0  0  0  0  0  0  0
   36.9983   20.6263   34.7968 C   0  0  0  0  0  0  0  0  0  0  0  0
   37.8044   21.5325   33.9829 N   0  0  0  0  0  0  0  0  0  0  0  0
  1  2  1  0  0  0  0
  2  3  1  0  0  0  0
  3  4  1  0  0  0  0
  4  5  1  0  0  0  0
  5  6  1  0  0  0  0
  6  7  1  0  0  0  0
  7  8  1  0  0  0  0
  8  9  1  0  0  0  0
  9 10  1  0  0  0  0
 10 11  1  0  0  0  0
 11 12  1  0  0  0  0
 12 13  1  0  0  0  0
 13 14  1  0  0  0  0
M  END
>  <CHROM.1>
-177.88979545,65.30355751,-148.81849386,-69.42353428,-68.84400889,-79.76946128
-175.92449089,-88.65931980,-78.61028381,178.43726823,-67.54286014,41.28465431
22.35850633,35.89131137,0.60254017,-0.46442520,-0.81720219

>  <Name>
ligand

>  <RI>
0

>  <Rbt.Current_Directory>
/home/itssahil/PROJECTS/Mol_Feturizer/New_Systems/rnas/1EVV

>  <Rbt.Executable>
rbdock ($Id: //depot/dev/client3/rdock/2013.1/src/exe/rbdock.cxx#4 $)

>  <Rbt.Library>
libRbt.so (2013.1, Build901 2013/11/27)

>  <Rbt.Parameter_File>
/export/apps/rDock/src/rDock_2013.1_src/data/scripts/dock_solv.prm

>  <Rbt.Receptor>
prm/pocket_docking_2.prm

>  <SCORE>
0.973302

>  <SCORE.INTER>
8.15018

>  <SCORE.INTER.CONST>
1

>  <SCORE.INTER.POLAR>
0

>  <SCORE.INTER.ROT>
11

>  <SCORE.INTER.SOLV>
3.38095

>  <SCORE.INTER.VDW>
-6.62686

>  <SCORE.INTER.norm>
0.582156

>  <SCORE.INTRA>
-7.17688

>  <SCORE.INTRA.DIHEDRAL>
-16.4879

>  <SCORE.INTRA.DIHEDRAL.0>
20.2131

>  <SCORE.INTRA.POLAR>
0

>  <SCORE.INTRA.POLAR.0>
0

>  <SCORE.INTRA.REPUL>
0

>  <SCORE.INTRA.REPUL.0>
0

>  <SCORE.INTRA.SOLV>
0.229117

>  <SCORE.INTRA.SOLV.lig_0>
-48.2851

>  <SCORE.INTRA.VDW>
0.952499

>  <SCORE.INTRA.VDW.0>
-1.08658

>  <SCORE.INTRA.norm>
-0.512635

>  <SCORE.RESTR>
0

>  <SCORE.RESTR.CAVITY>
0

>  <SCORE.RESTR.norm>
0

>  <SCORE.SYSTEM>
0

>  <SCORE.SYSTEM.CONST>
0

>  <SCORE.SYSTEM.DIHEDRAL>
0

>  <SCORE.SYSTEM.SOLV>
0

>  <SCORE.SYSTEM.norm>
0

>  <SCORE.heavy>
14

>  <SCORE.norm>
0.0695215

>  <RMSD>
1.684

$$$$
ligand
 OpenBabel11021811393D
libRbt.so/2013.1/901 2013/11/27
 14 13  0  0  0  0  0  0  0  0999 V2000
   44.1708   25.2157   34.9480 N   0  0  0  0  0  0  0  0  0  0  0  0
   44.1794   25.3450   36.3969 C   0  0  0  0  0  0  0  0  0  0  0  0
   42.9727   24.5827   37.0104 C   0  0  0  0  0  0  0  0  0  0  0  0
   42.9077   23.0267   36.8107 C   0  0  0  0  0  0  0  0  0  0  0  0
   41.6905   22.3489   37.3902 N   0  0  0  0  0  0  0  0  0  0  0  0
   41.7370   20.8597   37.3150 C   0  0  0  0  0  0  0  0  0  0  0  0
   40.3731   20.1961   37.3718 C   0  0  0  0  0  0  0  0  0  0  0  0
   40.4518   18.6876   37.2218 C   0  0  0  0  0  0  0  0  0  0  0  0
   39.0648   18.1699   37.2396 C   0  0  0  0  0  0  0  0  0  0  0  0
   38.2350   18.5279   36.0642 N   0  0  0  0  0  0  0  0  0  0  0  0
   37.3454   19.6936   36.2959 C   0  0  0  0  0  0  0  0  0  0  0  0
   36.9842   20.5351   35.0357 C   0  0  0  0  0  0  0  0  0  0  0  0
   38.2827   21.1399   34.4736 C   0  0  0  0  0  0  0  0  0  0  0  0
   38.0084   21.9234   33.2717 N   0  0  0  0  0  0  0  0  0  0  0  0
  1  2  1  0  0  0  0
  2  3  1  0  0  0  0
  3  4  1  0  0  0  0
  4  5  1  0  0  0  0
  5  6  1  0  0  0  0
  6  7  1  0  0  0  0
  7  8  1  0  0  0  0
  8  9  1  0  0  0  0
  9 10  1  0  0  0  0
 10 11  1  0  0  0  0
 11 12  1  0  0  0  0
 12 13  1  0  0  0  0
 13 14  1  0  0  0  0
M  END
>  <CHROM.1>
62.99522064,-178.09745660,-173.56197751,-157.36327770,177.07255939,-177.79829427
68.29404354,-98.06829532,151.81253746,-62.81258889,178.97648696,40.45737664
21.44635892,36.20357138,0.53482818,-0.55474829,-0.64321327

>  <Name>
ligand

>  <RI>
0

>  <Rbt.Current_Directory>
/home/itssahil/PROJECTS/Mol_Feturizer/New_Systems/rnas/1EVV

>  <Rbt.Executable>
rbdock ($Id: //depot/dev/client3/rdock/2013.1/src/exe/rbdock.cxx#4 $)

>  <Rbt.Library>
libRbt.so (2013.1, Build901 2013/11/27)

>  <Rbt.Parameter_File>
/export/apps/rDock/src/rDock_2013.1_src/data/scripts/dock_solv.prm

>  <Rbt.Receptor>
prm/pocket_docking_2.prm

>  <SCORE>
-1.98352

>  <SCORE.INTER>
7.27185

>  <SCORE.INTER.CONST>
1

>  <SCORE.INTER.POLAR>
0

>  <SCORE.INTER.ROT>
11

>  <SCORE.INTER.SOLV>
2.85279

>  <SCORE.INTER.VDW>
-7.03636

>  <SCORE.INTER.norm>
0.519418

>  <SCORE.INTRA>
-9.25537

>  <SCORE.INTRA.DIHEDRAL>
-18.0256

>  <SCORE.INTRA.DIHEDRAL.0>
20.2131

>  <SCORE.INTRA.POLAR>
0

>  <SCORE.INTRA.POLAR.0>
0

>  <SCORE.INTRA.REPUL>
0

>  <SCORE.INTRA.REPUL.0>
0

>  <SCORE.INTRA.SOLV>
-0.0120695

>  <SCORE.INTRA.SOLV.lig_0>
-48.2851

>  <SCORE.INTRA.VDW>
-0.236534

>  <SCORE.INTRA.VDW.0>
-1.08658

>  <SCORE.INTRA.norm>
-0.661098

>  <SCORE.RESTR>
0

>  <SCORE.RESTR.CAVITY>
0

>  <SCORE.RESTR.norm>
0

>  <SCORE.SYSTEM>
0

>  <SCORE.SYSTEM.CONST>
0

>  <SCORE.SYSTEM.DIHEDRAL>
0

>  <SCORE.SYSTEM.SOLV>
0

>  <SCORE.SYSTEM.norm>
0

>  <SCORE.heavy>
14

>  <SCORE.norm>
-0.14168

>  <RMSD>
1.685

$$$$
ligand
 OpenBabel11021811393D
libRbt.so/2013.1/901 2013/11/27
 14 13  0  0  0  0  0  0  0  0999 V2000
   37.7798   21.4267   33.3851 N   0  0  0  0  0  0  0  0  0  0  0  0
   36.8979   20.9527   34.4404 C   0  0  0  0  0  0  0  0  0  0  0  0
   37.6915   20.0783   35.4501 C   0  0  0  0  0  0  0  0  0  0  0  0
   38.7901   20.7801   36.3253 C   0  0  0  0  0  0  0  0  0  0  0  0
   39.6019   19.8621   37.2056 N   0  0  0  0  0  0  0  0  0  0  0  0
   40.7658   20.5278   37.8594 C   0  0  0  0  0  0  0  0  0  0  0  0
   41.8515   20.9628   36.8918 C   0  0  0  0  0  0  0  0  0  0  0  0
   43.0821   21.5003   37.5995 C   0  0  0  0  0  0  0  0  0  0  0  0
   43.9999   22.0151   36.5578 C   0  0  0  0  0  0  0  0  0  0  0  0
   43.5443   23.2379   35.8539 N   0  0  0  0  0  0  0  0  0  0  0  0
   44.6011   23.8819   35.0341 C   0  0  0  0  0  0  0  0  0  0  0  0
   44.3321   25.3577   34.6141 C   0  0  0  0  0  0  0  0  0  0  0  0
   45.5647   25.8718   33.8497 C   0  0  0  0  0  0  0  0  0  0  0  0
   45.3879   27.2705   33.4675 N   0  0  0  0  0  0  0  0  0  0  0  0
  1  2  1  0  0  0  0
  2  3  1  0  0  0  0
  3  4  1  0  0  0  0
  4  5  1  0  0  0  0
  5  6  1  0  0  0  0
  6  7  1  0  0  0  0
  7  8  1  0  0  0  0
  8  9  1  0  0  0  0
  9 10  1  0  0  0  0
 10 11  1  0  0  0  0
 11 12  1  0  0  0  0
 12 13  1  0  0  0  0
 13 14  1  0  0  0  0
M  END
>  <CHROM.1>
66.78116219,-175.28948365,171.10273749,-67.06855557,-173.87642092,-174.29393688
69.16229678,167.73251134,-162.79609140,176.70335768,-178.12027200,41.70651905
22.40875278,35.60985058,2.60878823,0.39769339,2.31494893

>  <Name>
ligand

>  <RI>
0

>  <Rbt.Current_Directory>
/home/itssahil/PROJECTS/Mol_Feturizer/New_Systems/rnas/1EVV

>  <Rbt.Executable>
rbdock ($Id: //depot/dev/client3/rdock/2013.1/src/exe/rbdock.cxx#4 $)

>  <Rbt.Library>
libRbt.so (2013.1, Build901 2013/11/27)

>  <Rbt.Parameter_File>
/export/apps/rDock/src/rDock_2013.1_src/data/scripts/dock_solv.prm

>  <Rbt.Receptor>
prm/pocket_docking_2.prm

>  <SCORE>
-1.12218

>  <SCORE.INTER>
8.15005

>  <SCORE.INTER.CONST>
1

>  <SCORE.INTER.POLAR>
0

>  <SCORE.INTER.ROT>
11

>  <SCORE.INTER.SOLV>
4.60116

>  <SCORE.INTER.VDW>
-7.03369

>  <SCORE.INTER.norm>
0.582146

>  <SCORE.INTRA>
-9.27544

>  <SCORE.INTRA.DIHEDRAL>
-18.8638

>  <SCORE.INTRA.DIHEDRAL.0>
20.2131

>  <SCORE.INTRA.POLAR>
0

>  <SCORE.INTRA.POLAR.0>
0

>  <SCORE.INTRA.REPUL>
0

>  <SCORE.INTRA.REPUL.0>
0

>  <SCORE.INTRA.SOLV>
-0.392957

>  <SCORE.INTRA.SOLV.lig_0>
-48.2851

>  <SCORE.INTRA.VDW>
0.352921

>  <SCORE.INTRA.VDW.0>
-1.08658

>  <SCORE.INTRA.norm>
-0.662531

>  <SCORE.RESTR>
0.0032116

>  <SCORE.RESTR.CAVITY>
0.0032116

>  <SCORE.RESTR.norm>
0.0002294

>  <SCORE.SYSTEM>
0

>  <SCORE.SYSTEM.CONST>
0

>  <SCORE.SYSTEM.DIHEDRAL>
0

>  <SCORE.SYSTEM.SOLV>
0

>  <SCORE.SYSTEM.norm>
0

>  <SCORE.heavy>
14

>  <SCORE.norm>
-0.0801556

>  <RMSD>
1.691

$$$$
ligand
 OpenBabel11021811393D
libRbt.so/2013.1/901 2013/11/27
 14 13  0  0  0  0  0  0  0  0999 V2000
   37.7754   21.7714   34.2159 N   0  0  0  0  0  0  0  0  0  0  0  0
   38.3934   21.0007   35.2837 C   0  0  0  0  0  0  0  0  0  0  0  0
   37.4074   19.9184   35.8036 C   0  0  0  0  0  0  0  0  0  0  0  0
   37.9251   18.9162   36.8959 C   0  0  0  0  0  0  0  0  0  0  0  0
   39.1081   18.0713   36.4920 N   0  0  0  0  0  0  0  0  0  0  0  0
   40.1499   17.9470   37.5525 C   0  0  0  0  0  0  0  0  0  0  0  0
   41.2690   18.9665   37.4407 C   0  0  0  0  0  0  0  0  0  0  0  0
   40.7896   20.3870   37.6786 C   0  0  0  0  0  0  0  0  0  0  0  0
   41.9516   21.2831   37.4809 C   0  0  0  0  0  0  0  0  0  0  0  0
   42.5222   21.2955   36.1126 N   0  0  0  0  0  0  0  0  0  0  0  0
   42.6108   22.6521   35.5164 C   0  0  0  0  0  0  0  0  0  0  0  0
   43.8558   23.4949   35.9243 C   0  0  0  0  0  0  0  0  0  0  0  0
   43.7487   24.8706   35.2430 C   0  0  0  0  0  0  0  0  0  0  0  0
   44.9354   25.6763   35.5190 N   0  0  0  0  0  0  0  0  0  0  0  0
  1  2  1  0  0  0  0
  2  3  1  0  0  0  0
  3  4  1  0  0  0  0
  4  5  1  0  0  0  0
  5  6  1  0  0  0  0
  6  7  1  0  0  0  0
  7  8  1  0  0  0  0
  8  9  1  0  0  0  0
  9 10  1  0  0  0  0
 10 11  1  0  0  0  0
 11 12  1  0  0  0  0
 12 13  1  0  0  0  0
 13 14  1  0  0  0  0
M  END
>  <CHROM.1>
175.96081418,-60.06361344,137.02707701,-93.93969436,65.99039537,-177.42621643
63.35418290,125.56353741,82.68939687,-178.41605517,-176.28753812,40.88867690
21.16056727,36.22589658,2.43663476,0.35556546,2.59522910

>  <Name>
ligand

>  <RI>
0

>  <Rbt.Current_Directory>
/home/itssahil/PROJECTS/Mol_Feturizer/New_Systems/rnas/1EVV

>  <Rbt.Executable>
rbdock ($Id: //depot/dev/client3/rdock/2013.1/src/exe/rbdock.cxx#4 $)

>  <Rbt.Library>
libRbt.so (2013.1, Build901 2013/11/27)

>  <Rbt.Parameter_File>
/export/apps/rDock/src/rDock_2013.1_src/data/scripts/dock_solv.prm

>  <Rbt.Receptor>
prm/pocket_docking_2.prm

>  <SCORE>
-1.35291

>  <SCORE.INTER>
7.34449

>  <SCORE.INTER.CONST>
1

>  <SCORE.INTER.POLAR>
0

>  <SCORE.INTER.ROT>
11

>  <SCORE.INTER.SOLV>
3.17603

>  <SCORE.INTER.VDW>
-7.09568

>  <SCORE.INTER.norm>
0.524607

>  <SCORE.INTRA>
-8.6974

>  <SCORE.INTRA.DIHEDRAL>
-16.6349

>  <SCORE.INTRA.DIHEDRAL.0>
20.2131

>  <SCORE.INTRA.POLAR>
0

>  <SCORE.INTRA.POLAR.0>
0

>  <SCORE.INTRA.REPUL>
0

>  <SCORE.INTRA.REPUL.0>
0

>  <SCORE.INTRA.SOLV>
-0.0888185

>  <SCORE.INTRA.SOLV.lig_0>
-48.2851

>  <SCORE.INTRA.VDW>
-0.33556

>  <SCORE.INTRA.VDW.0>
-1.08658

>  <SCORE.INTRA.norm>
-0.621243

>  <SCORE.RESTR>
0

>  <SCORE.RESTR.CAVITY>
0

>  <SCORE.RESTR.norm>
0

>  <SCORE.SYSTEM>
0

>  <SCORE.SYSTEM.CONST>
0

>  <SCORE.SYSTEM.DIHEDRAL>
0

>  <SCORE.SYSTEM.SOLV>
0

>  <SCORE.SYSTEM.norm>
0

>  <SCORE.heavy>
14

>  <SCORE.norm>
-0.0966362

>  <RMSD>
1.695

$$$$
ligand
 OpenBabel11021811393D
libRbt.so/2013.1/901 2013/11/27
 14 13  0  0  0  0  0  0  0  0999 V2000
   37.0231   19.8747   33.3259 N   0  0  0  0  0  0  0  0  0  0  0  0
   37.3449   20.8158   34.3875 C   0  0  0  0  0  0  0  0  0  0  0  0
   37.4525   20.0734   35.7479 C   0  0  0  0  0  0  0  0  0  0  0  0
   38.4378   18.8547   35.8443 C   0  0  0  0  0  0  0  0  0  0  0  0
   38.7524   18.3843   37.2430 N   0  0  0  0  0  0  0  0  0  0  0  0
   40.1921   18.0594   37.4600 C   0  0  0  0  0  0  0  0  0  0  0  0
   41.1356   19.2122   37.1686 C   0  0  0  0  0  0  0  0  0  0  0  0
   40.7402   20.4866   37.8923 C   0  0  0  0  0  0  0  0  0  0  0  0
   41.7229   21.5289   37.5182 C   0  0  0  0  0  0  0  0  0  0  0  0
   41.6726   21.9756   36.1053 N   0  0  0  0  0  0  0  0  0  0  0  0
   41.9408   23.4249   35.9289 C   0  0  0  0  0  0  0  0  0  0  0  0
   43.4374   23.8254   35.7667 C   0  0  0  0  0  0  0  0  0  0  0  0
   43.5120   25.3553   35.6188 C   0  0  0  0  0  0  0  0  0  0  0  0
   44.8949   25.7888   35.4367 N   0  0  0  0  0  0  0  0  0  0  0  0
  1  2  1  0  0  0  0
  2  3  1  0  0  0  0
  3  4  1  0  0  0  0
  4  5  1  0  0  0  0
  5  6  1  0  0  0  0
  6  7  1  0  0  0  0
  7  8  1  0  0  0  0
  8  9  1  0  0  0  0
  9 10  1  0  0  0  0
 10 11  1  0  0  0  0
 11 12  1  0  0  0  0
 12 13  1  0  0  0  0
 13 14  1  0  0  0  0
M  END
>  <CHROM.1>
54.62265531,165.94592655,-137.60681799,57.47931918,51.84637431,-179.48043626
68.15326709,143.49697939,87.82253531,-179.15601097,-178.90628463,40.58993889
21.26132391,36.10338059,2.54722080,0.55274375,2.48140184

>  <Name>
ligand

>  <RI>
0

>  <Rbt.Current_Directory>
/home/itssahil/PROJECTS/Mol_Feturizer/New_Systems/rnas/1EVV

>  <Rbt.Executable>
rbdock ($Id: //depot/dev/client3/rdock/2013.1/src/exe/rbdock.cxx#4 $)

>  <Rbt.Library>
libRbt.so (2013.1, Build901 2013/11/27)

>  <Rbt.Parameter_File>
/export/apps/rDock/src/rDock_2013.1_src/data/scripts/dock_solv.prm

>  <Rbt.Receptor>
prm/pocket_docking_2.prm

>  <SCORE>
0.963712

>  <SCORE.INTER>
8.49336

>  <SCORE.INTER.CONST>
1

>  <SCORE.INTER.POLAR>
0

>  <SCORE.INTER.ROT>
11

>  <SCORE.INTER.SOLV>
5.83276

>  <SCORE.INTER.VDW>
-7.21534

>  <SCORE.INTER.norm>
0.606669

>  <SCORE.INTRA>
-7.52965

>  <SCORE.INTRA.DIHEDRAL>
-16.5866

>  <SCORE.INTRA.DIHEDRAL.0>
20.2131

>  <SCORE.INTRA.POLAR>
0

>  <SCORE.INTRA.POLAR.0>
0

>  <SCORE.INTRA.REPUL>
0

>  <SCORE.INTRA.REPUL.0>
0

>  <SCORE.INTRA.SOLV>
0.274176

>  <SCORE.INTRA.SOLV.lig_0>
-48.2851

>  <SCORE.INTRA.VDW>
0.626564

>  <SCORE.INTRA.VDW.0>
-1.08658

>  <SCORE.INTRA.norm>
-0.537832

>  <SCORE.RESTR>
0

>  <SCORE.RESTR.CAVITY>
0

>  <SCORE.RESTR.norm>
0

>  <SCORE.SYSTEM>
0

>  <SCORE.SYSTEM.CONST>
0

>  <SCORE.SYSTEM.DIHEDRAL>
0

>  <SCORE.SYSTEM.SOLV>
0

>  <SCORE.SYSTEM.norm>
0

>  <SCORE.heavy>
14

>  <SCORE.norm>
0.0688365

>  <RMSD>
1.703

$$$$
ligand
 OpenBabel11021811393D
libRbt.so/2013.1/901 2013/11/27
 14 13  0  0  0  0  0  0  0  0999 V2000
   38.2745   21.6783   32.4029 N   0  0  0  0  0  0  0  0  0  0  0  0
   36.9742   21.4444   33.0116 C   0  0  0  0  0  0  0  0  0  0  0  0
   37.1462   20.7737   34.4025 C   0  0  0  0  0  0  0  0  0  0  0  0
   37.8145   19.3540   34.4564 C   0  0  0  0  0  0  0  0  0  0  0  0
   37.9207   18.7391   35.8301 N   0  0  0  0  0  0  0  0  0  0  0  0
   39.2242   18.9988   36.5074 C   0  0  0  0  0  0  0  0  0  0  0  0
   39.3497   20.3948   37.0899 C   0  0  0  0  0  0  0  0  0  0  0  0
   40.6237   20.5787   37.8944 C   0  0  0  0  0  0  0  0  0  0  0  0
   41.7414   20.6923   36.9300 C   0  0  0  0  0  0  0  0  0  0  0  0
   41.7802   21.9485   36.1433 N   0  0  0  0  0  0  0  0  0  0  0  0
   42.3695   23.0946   36.8800 C   0  0  0  0  0  0  0  0  0  0  0  0
   42.3945   24.4531   36.1180 C   0  0  0  0  0  0  0  0  0  0  0  0
   43.2881   24.2906   34.8757 C   0  0  0  0  0  0  0  0  0  0  0  0
   43.3841   25.5497   34.1416 N   0  0  0  0  0  0  0  0  0  0  0  0
  1  2  1  0  0  0  0
  2  3  1  0  0  0  0
  3  4  1  0  0  0  0
  4  5  1  0  0  0  0
  5  6  1  0  0  0  0
  6  7  1  0  0  0  0
  7  8  1  0  0  0  0
  8  9  1  0  0  0  0
  9 10  1  0  0  0  0
 10 11  1  0  0  0  0
 11 12  1  0  0  0  0
 12 13  1  0  0  0  0
 13 14  1  0  0  0  0
M  END
>  <CHROM.1>
-62.55244144,-178.44372799,-93.92732750,77.29381887,174.02316125,74.78326016
70.70858246,80.46357357,-178.12080960,-63.00094649,-178.19724522,40.16319228
21.57058589,35.47775970,2.79828358,0.62611079,2.29630287

>  <Name>
ligand

>  <RI>
0

>  <Rbt.Current_Directory>
/home/itssahil/PROJECTS/Mol_Feturizer/New_Systems/rnas/1EVV

>  <Rbt.Executable>
rbdock ($Id: //depot/dev/client3/rdock/2013.1/src/exe/rbdock.cxx#4 $)

>  <Rbt.Library>
libRbt.so (2013.1, Build901 2013/11/27)

>  <Rbt.Parameter_File>
/export/apps/rDock/src/rDock_2013.1_src/data/scripts/dock_solv.prm

>  <Rbt.Receptor>
prm/pocket_docking_2.prm

>  <SCORE>
1.66162

>  <SCORE.INTER>
9.3773

>  <SCORE.INTER.CONST>
1

>  <SCORE.INTER.POLAR>
0

>  <SCORE.INTER.ROT>
11

>  <SCORE.INTER.SOLV>
2.05247

>  <SCORE.INTER.VDW>
-5.36596

>  <SCORE.INTER.norm>
0.669807

>  <SCORE.INTRA>
-7.71568

>  <SCORE.INTRA.DIHEDRAL>
-17.4369

>  <SCORE.INTRA.DIHEDRAL.0>
20.2131

>  <SCORE.INTRA.POLAR>
0

>  <SCORE.INTRA.POLAR.0>
0

>  <SCORE.INTRA.REPUL>
0

>  <SCORE.INTRA.REPUL.0>
0

>  <SCORE.INTRA.SOLV>
0.207304

>  <SCORE.INTRA.SOLV.lig_0>
-48.2851

>  <SCORE.INTRA.VDW>
0.899094

>  <SCORE.INTRA.VDW.0>
-1.08658

>  <SCORE.INTRA.norm>
-0.55112

>  <SCORE.RESTR>
0

>  <SCORE.RESTR.CAVITY>
0

>  <SCORE.RESTR.norm>
0

>  <SCORE.SYSTEM>
0

>  <SCORE.SYSTEM.CONST>
0

>  <SCORE.SYSTEM.DIHEDRAL>
0

>  <SCORE.SYSTEM.SOLV>
0

>  <SCORE.SYSTEM.norm>
0

>  <SCORE.heavy>
14

>  <SCORE.norm>
0.118687

>  <RMSD>
1.710

$$$$
ligand
 OpenBabel11021811393D
libRbt.so/2013.1/901 2013/11/27
 14 13  0  0  0  0  0  0  0  0999 V2000
   37.3989   21.9193   33.9389 N   0  0  0  0  0  0  0  0  0  0  0  0
   38.1094   20.7484   34.4291 C   0  0  0  0  0  0  0  0  0  0  0  0
   37.6891   20.4400   35.8926 C   0  0  0  0  0  0  0  0  0  0  0  0
   38.4797   19.3248   36.6650 C   0  0  0  0  0  0  0  0  0  0  0  0
   39.9704   19.5366   36.7629 N   0  0  0  0  0  0  0  0  0  0  0  0
   40.3684   20.5626   37.7701 C   0  0  0  0  0  0  0  0  0  0  0  0
   41.7457   21.1559   37.5355 C   0  0  0  0  0  0  0  0  0  0  0  0
   41.8457   21.8925   36.2121 C   0  0  0  0  0  0  0  0  0  0  0  0
   43.2160   22.4455   36.1179 C   0  0  0  0  0  0  0  0  0  0  0  0
   43.4950   23.2565   34.9086 N   0  0  0  0  0  0  0  0  0  0  0  0
   44.3986   24.4074   35.1586 C   0  0  0  0  0  0  0  0  0  0  0  0
   44.7174   25.3032   33.9247 C   0  0  0  0  0  0  0  0  0  0  0  0
   45.5858   26.4820   34.3984 C   0  0  0  0  0  0  0  0  0  0  0  0
   44.8425   27.3291   35.3277 N   0  0  0  0  0  0  0  0  0  0  0  0
  1  2  1  0  0  0  0
  2  3  1  0  0  0  0
  3  4  1  0  0  0  0
  4  5  1  0  0  0  0
  5  6  1  0  0  0  0
  6  7  1  0  0  0  0
  7  8  1  0  0  0  0
  8  9  1  0  0  0  0
  9 10  1  0  0  0  0
 10 11  1  0  0  0  0
 11 12  1  0  0  0  0
 12 13  1  0  0  0  0
 13 14  1  0  0  0  0
M  END
>  <CHROM.1>
-172.27982370,56.94465729,76.30453306,-158.40514396,62.19409298,178.74443391
-177.51697154,144.06788093,-179.49288816,176.41445713,-64.35094137,41.56167983
22.48576887,35.64603681,2.53209423,0.42706276,2.38889990

>  <Name>
ligand

>  <RI>
0

>  <Rbt.Current_Directory>
/home/itssahil/PROJECTS/Mol_Feturizer/New_Systems/rnas/1EVV

>  <Rbt.Executable>
rbdock ($Id: //depot/dev/client3/rdock/2013.1/src/exe/rbdock.cxx#4 $)

>  <Rbt.Library>
libRbt.so (2013.1, Build901 2013/11/27)

>  <Rbt.Parameter_File>
/export/apps/rDock/src/rDock_2013.1_src/data/scripts/dock_solv.prm

>  <Rbt.Receptor>
prm/pocket_docking_2.prm

>  <SCORE>
-0.760687

>  <SCORE.INTER>
8.52777

>  <SCORE.INTER.CONST>
1

>  <SCORE.INTER.POLAR>
0

>  <SCORE.INTER.ROT>
11

>  <SCORE.INTER.SOLV>
4.08825

>  <SCORE.INTER.VDW>
-6.6109

>  <SCORE.INTER.norm>
0.609126

>  <SCORE.INTRA>
-9.29185

>  <SCORE.INTRA.DIHEDRAL>
-18.4539

>  <SCORE.INTRA.DIHEDRAL.0>
20.2131

>  <SCORE.INTRA.POLAR>
0

>  <SCORE.INTRA.POLAR.0>
0

>  <SCORE.INTRA.REPUL>
0

>  <SCORE.INTRA.REPUL.0>
0

>  <SCORE.INTRA.SOLV>
0.126794

>  <SCORE.INTRA.SOLV.lig_0>
-48.2851

>  <SCORE.INTRA.VDW>
-0.128305

>  <SCORE.INTRA.VDW.0>
-1.08658

>  <SCORE.INTRA.norm>
-0.663704

>  <SCORE.RESTR>
0.00339663

>  <SCORE.RESTR.CAVITY>
0.00339663

>  <SCORE.RESTR.norm>
0.000242617

>  <SCORE.SYSTEM>
0

>  <SCORE.SYSTEM.CONST>
0

>  <SCORE.SYSTEM.DIHEDRAL>
0

>  <SCORE.SYSTEM.SOLV>
0

>  <SCORE.SYSTEM.norm>
0

>  <SCORE.heavy>
14

>  <SCORE.norm>
-0.0543348

>  <RMSD>
1.719

$$$$
ligand
 OpenBabel11021811393D
libRbt.so/2013.1/901 2013/11/27
 14 13  0  0  0  0  0  0  0  0999 V2000
   38.0040   20.7283   33.5508 N   0  0  0  0  0  0  0  0  0  0  0  0
   37.7668   19.5667   34.3939 C   0  0  0  0  0  0  0  0  0  0  0  0
   37.4104   20.0160   35.8378 C   0  0  0  0  0  0  0  0  0  0  0  0
   38.5122   20.7669   36.6670 C   0  0  0  0  0  0  0  0  0  0  0  0
   39.7445   19.9582   36.9896 N   0  0  0  0  0  0  0  0  0  0  0  0
   40.6383   20.5983   37.9980 C   0  0  0  0  0  0  0  0  0  0  0  0
   41.6702   21.5375   37.4002 C   0  0  0  0  0  0  0  0  0  0  0  0
   42.6481   20.8231   36.4851 C   0  0  0  0  0  0  0  0  0  0  0  0
   43.5749   21.8447   35.9470 C   0  0  0  0  0  0  0  0  0  0  0  0
   42.9530   22.8814   35.0885 N   0  0  0  0  0  0  0  0  0  0  0  0
   43.9363   23.7751   34.4267 C   0  0  0  0  0  0  0  0  0  0  0  0
   44.5220   24.9161   35.3109 C   0  0  0  0  0  0  0  0  0  0  0  0
   43.3645   25.8365   35.7362 C   0  0  0  0  0  0  0  0  0  0  0  0
   43.8591   26.9452   36.5484 N   0  0  0  0  0  0  0  0  0  0  0  0
  1  2  1  0  0  0  0
  2  3  1  0  0  0  0
  3  4  1  0  0  0  0
  4  5  1  0  0  0  0
  5  6  1  0  0  0  0
  6  7  1  0  0  0  0
  7  8  1  0  0  0  0
  8  9  1  0  0  0  0
  9 10  1  0  0  0  0
 10 11  1  0  0  0  0
 11 12  1  0  0  0  0
 12 13  1  0  0  0  0
 13 14  1  0  0  0  0
M  END
>  <CHROM.1>
-64.90340794,-64.39597100,-168.35854926,-88.29760298,-63.25416053,178.74145904
-63.95985215,-172.32164689,-79.54159137,-62.26049552,-178.84001504,41.32896483
22.15651075,35.88442646,2.66310825,0.56700305,2.34736154

>  <Name>
ligand

>  <RI>
0

>  <Rbt.Current_Directory>
/home/itssahil/PROJECTS/Mol_Feturizer/New_Systems/rnas/1EVV

>  <Rbt.Executable>
rbdock ($Id: //depot/dev/client3/rdock/2013.1/src/exe/rbdock.cxx#4 $)

>  <Rbt.Library>
libRbt.so (2013.1, Build901 2013/11/27)

>  <Rbt.Parameter_File>
/export/apps/rDock/src/rDock_2013.1_src/data/scripts/dock_solv.prm

>  <Rbt.Receptor>
prm/pocket_docking_2.prm

>  <SCORE>
0.663633

>  <SCORE.INTER>
9.54594

>  <SCORE.INTER.CONST>
1

>  <SCORE.INTER.POLAR>
0

>  <SCORE.INTER.ROT>
11

>  <SCORE.INTER.SOLV>
2.42105

>  <SCORE.INTER.VDW>
-5.37639

>  <SCORE.INTER.norm>
0.681853

>  <SCORE.INTRA>
-8.88231

>  <SCORE.INTRA.DIHEDRAL>
-18.9297

>  <SCORE.INTRA.DIHEDRAL.0>
20.2131

>  <SCORE.INTRA.POLAR>
0

>  <SCORE.INTRA.POLAR.0>
0

>  <SCORE.INTRA.REPUL>
0

>  <SCORE.INTRA.REPUL.0>
0

>  <SCORE.INTRA.SOLV>
1.1374

>  <SCORE.INTRA.SOLV.lig_0>
-48.2851

>  <SCORE.INTRA.VDW>
0.0138243

>  <SCORE.INTRA.VDW.0>
-1.08658

>  <SCORE.INTRA.norm>
-0.634451

>  <SCORE.RESTR>
0

>  <SCORE.RESTR.CAVITY>
0

>  <SCORE.RESTR.norm>
0

>  <SCORE.SYSTEM>
0

>  <SCORE.SYSTEM.CONST>
0

>  <SCORE.SYSTEM.DIHEDRAL>
0

>  <SCORE.SYSTEM.SOLV>
0

>  <SCORE.SYSTEM.norm>
0

>  <SCORE.heavy>
14

>  <SCORE.norm>
0.0474023

>  <RMSD>
1.724

$$$$
ligand
 OpenBabel11021811393D
libRbt.so/2013.1/901 2013/11/27
 14 13  0  0  0  0  0  0  0  0999 V2000
   37.6777   20.2727   33.4377 N   0  0  0  0  0  0  0  0  0  0  0  0
   36.9575   20.8247   34.5747 C   0  0  0  0  0  0  0  0  0  0  0  0
   37.6277   20.3766   35.9027 C   0  0  0  0  0  0  0  0  0  0  0  0
   37.6273   18.8444   36.2458 C   0  0  0  0  0  0  0  0  0  0  0  0
   38.4559   18.4478   37.4428 N   0  0  0  0  0  0  0  0  0  0  0  0
   39.8492   18.0379   37.1020 C   0  0  0  0  0  0  0  0  0  0  0  0
   40.9150   18.9915   37.6108 C   0  0  0  0  0  0  0  0  0  0  0  0
   40.7709   20.3883   37.0344 C   0  0  0  0  0  0  0  0  0  0  0  0
   41.9035   21.1944   37.5441 C   0  0  0  0  0  0  0  0  0  0  0  0
   41.9934   22.5758   37.0131 N   0  0  0  0  0  0  0  0  0  0  0  0
   42.4490   22.6430   35.6019 C   0  0  0  0  0  0  0  0  0  0  0  0
   42.8793   24.0506   35.0919 C   0  0  0  0  0  0  0  0  0  0  0  0
   44.1379   24.4783   35.8673 C   0  0  0  0  0  0  0  0  0  0  0  0
   44.6156   25.7767   35.3988 N   0  0  0  0  0  0  0  0  0  0  0  0
  1  2  1  0  0  0  0
  2  3  1  0  0  0  0
  3  4  1  0  0  0  0
  4  5  1  0  0  0  0
  5  6  1  0  0  0  0
  6  7  1  0  0  0  0
  7  8  1  0  0  0  0
  8  9  1  0  0  0  0
  9 10  1  0  0  0  0
 10 11  1  0  0  0  0
 11 12  1  0  0  0  0
 12 13  1  0  0  0  0
 13 14  1  0  0  0  0
M  END
>  <CHROM.1>
-64.19855601,171.76245804,-93.08793008,112.67413279,-60.84405420,-176.89968992
175.86760683,-73.08918246,-166.32652060,65.68720961,178.11081900,40.56137537
21.20711684,36.13356105,2.56232484,0.49777966,2.45363480

>  <Name>
ligand

>  <RI>
0

>  <Rbt.Current_Directory>
/home/itssahil/PROJECTS/Mol_Feturizer/New_Systems/rnas/1EVV

>  <Rbt.Executable>
rbdock ($Id: //depot/dev/client3/rdock/2013.1/src/exe/rbdock.cxx#4 $)

>  <Rbt.Library>
libRbt.so (2013.1, Build901 2013/11/27)

>  <Rbt.Parameter_File>
/export/apps/rDock/src/rDock_2013.1_src/data/scripts/dock_solv.prm

>  <Rbt.Receptor>
prm/pocket_docking_2.prm

>  <SCORE>
-1.22524

>  <SCORE.INTER>
7.54281

>  <SCORE.INTER.CONST>
1

>  <SCORE.INTER.POLAR>
0

>  <SCORE.INTER.ROT>
11

>  <SCORE.INTER.SOLV>
4.96898

>  <SCORE.INTER.VDW>
-7.56112

>  <SCORE.INTER.norm>
0.538772

>  <SCORE.INTRA>
-8.76805

>  <SCORE.INTRA.DIHEDRAL>
-17.5159

>  <SCORE.INTRA.DIHEDRAL.0>
20.2131

>  <SCORE.INTRA.POLAR>
0

>  <SCORE.INTRA.POLAR.0>
0

>  <SCORE.INTRA.REPUL>
0

>  <SCORE.INTRA.REPUL.0>
0

>  <SCORE.INTRA.SOLV>
-0.044912

>  <SCORE.INTRA.SOLV.lig_0>
-48.2851

>  <SCORE.INTRA.VDW>
0.0123637

>  <SCORE.INTRA.VDW.0>
-1.08658

>  <SCORE.INTRA.norm>
-0.62629

>  <SCORE.RESTR>
0

>  <SCORE.RESTR.CAVITY>
0

>  <SCORE.RESTR.norm>
0

>  <SCORE.SYSTEM>
0

>  <SCORE.SYSTEM.CONST>
0

>  <SCORE.SYSTEM.DIHEDRAL>
0

>  <SCORE.SYSTEM.SOLV>
0

>  <SCORE.SYSTEM.norm>
0

>  <SCORE.heavy>
14

>  <SCORE.norm>
-0.0875173

>  <RMSD>
1.740

$$$$
ligand
 OpenBabel11021811393D
libRbt.so/2013.1/901 2013/11/27
 14 13  0  0  0  0  0  0  0  0999 V2000
   44.9959   26.5914   36.2583 N   0  0  0  0  0  0  0  0  0  0  0  0
   45.4475   25.6253   35.2690 C   0  0  0  0  0  0  0  0  0  0  0  0
   45.4323   24.1935   35.8719 C   0  0  0  0  0  0  0  0  0  0  0  0
   44.0667   23.6379   36.4121 C   0  0  0  0  0  0  0  0  0  0  0  0
   44.1204   22.2524   37.0073 N   0  0  0  0  0  0  0  0  0  0  0  0
   42.9225   21.9005   37.8237 C   0  0  0  0  0  0  0  0  0  0  0  0
   41.7510   21.3824   37.0092 C   0  0  0  0  0  0  0  0  0  0  0  0
   40.5874   20.9398   37.8776 C   0  0  0  0  0  0  0  0  0  0  0  0
   39.5220   20.4526   36.9721 C   0  0  0  0  0  0  0  0  0  0  0  0
   38.8457   21.4953   36.1637 N   0  0  0  0  0  0  0  0  0  0  0  0
   37.9218   20.9482   35.1386 C   0  0  0  0  0  0  0  0  0  0  0  0
   37.2856   21.9897   34.1704 C   0  0  0  0  0  0  0  0  0  0  0  0
   36.4494   21.2276   33.1273 C   0  0  0  0  0  0  0  0  0  0  0  0
   37.3103   20.4227   32.2646 N   0  0  0  0  0  0  0  0  0  0  0  0
  1  2  1  0  0  0  0
  2  3  1  0  0  0  0
  3  4  1  0  0  0  0
  4  5  1  0  0  0  0
  5  6  1  0  0  0  0
  6  7  1  0  0  0  0
  7  8  1  0  0  0  0
  8  9  1  0  0  0  0
  9 10  1  0  0  0  0
 10 11  1  0  0  0  0
 11 12  1  0  0  0  0
 12 13  1  0  0  0  0
 13 14  1  0  0  0  0
M  END
>  <CHROM.1>
58.72690960,-178.96587185,164.65697498,83.82314480,175.83713456,-179.66733250
-69.95434909,171.96982113,-174.43582851,175.93447231,-66.66051975,41.18984343
22.36124312,35.81200996,0.06337797,-0.50672185,-0.90762910

>  <Name>
ligand

>  <RI>
0

>  <Rbt.Current_Directory>
/home/itssahil/PROJECTS/Mol_Feturizer/New_Systems/rnas/1EVV

>  <Rbt.Executable>
rbdock ($Id: //depot/dev/client3/rdock/2013.1/src/exe/rbdock.cxx#4 $)

>  <Rbt.Library>
libRbt.so (2013.1, Build901 2013/11/27)

>  <Rbt.Parameter_File>
/export/apps/rDock/src/rDock_2013.1_src/data/scripts/dock_solv.prm

>  <Rbt.Receptor>
prm/pocket_docking_3.prm

>  <SCORE>
-1.60596

>  <SCORE.INTER>
7.3855

>  <SCORE.INTER.CONST>
1

>  <SCORE.INTER.POLAR>
0

>  <SCORE.INTER.ROT>
11

>  <SCORE.INTER.SOLV>
4.49785

>  <SCORE.INTER.VDW>
-7.50895

>  <SCORE.INTER.norm>
0.527536

>  <SCORE.INTRA>
-8.99146

>  <SCORE.INTRA.DIHEDRAL>
-18.872

>  <SCORE.INTRA.DIHEDRAL.0>
20.2131

>  <SCORE.INTRA.POLAR>
0

>  <SCORE.INTRA.POLAR.0>
0

>  <SCORE.INTRA.REPUL>
0

>  <SCORE.INTRA.REPUL.0>
0

>  <SCORE.INTRA.SOLV>
0.441062

>  <SCORE.INTRA.SOLV.lig_0>
-48.2851

>  <SCORE.INTRA.VDW>
0.224004

>  <SCORE.INTRA.VDW.0>
-1.08658

>  <SCORE.INTRA.norm>
-0.642247

>  <SCORE.RESTR>
0

>  <SCORE.RESTR.CAVITY>
0

>  <SCORE.RESTR.norm>
0

>  <SCORE.SYSTEM>
0

>  <SCORE.SYSTEM.CONST>
0

>  <SCORE.SYSTEM.DIHEDRAL>
0

>  <SCORE.SYSTEM.SOLV>
0

>  <SCORE.SYSTEM.norm>
0

>  <SCORE.heavy>
14

>  <SCORE.norm>
-0.114712

>  <RMSD>
1.764

$$$$
ligand
 OpenBabel11021811393D
libRbt.so/2013.1/901 2013/11/27
 14 13  0  0  0  0  0  0  0  0999 V2000
   44.9962   25.8592   34.6142 N   0  0  0  0  0  0  0  0  0  0  0  0
   44.2512   25.2133   35.6838 C   0  0  0  0  0  0  0  0  0  0  0  0
   44.3190   23.6691   35.5277 C   0  0  0  0  0  0  0  0  0  0  0  0
   43.4972   22.7915   36.5377 C   0  0  0  0  0  0  0  0  0  0  0  0
   42.0005   22.9755   36.4877 N   0  0  0  0  0  0  0  0  0  0  0  0
   41.3051   22.6038   37.7541 C   0  0  0  0  0  0  0  0  0  0  0  0
   40.9827   21.1251   37.8701 C   0  0  0  0  0  0  0  0  0  0  0  0
   40.0041   20.6566   36.8085 C   0  0  0  0  0  0  0  0  0  0  0  0
   39.6707   19.2455   37.1083 C   0  0  0  0  0  0  0  0  0  0  0  0
   38.6913   18.6128   36.1925 N   0  0  0  0  0  0  0  0  0  0  0  0
   37.2879   19.0265   36.4434 C   0  0  0  0  0  0  0  0  0  0  0  0
   36.8975   20.4488   35.9420 C   0  0  0  0  0  0  0  0  0  0  0  0
   37.1396   20.5060   34.4234 C   0  0  0  0  0  0  0  0  0  0  0  0
   36.8998   21.8536   33.9136 N   0  0  0  0  0  0  0  0  0  0  0  0
  1  2  1  0  0  0  0
  2  3  1  0  0  0  0
  3  4  1  0  0  0  0
  4  5  1  0  0  0  0
  5  6  1  0  0  0  0
  6  7  1  0  0  0  0
  7  8  1  0  0  0  0
  8  9  1  0  0  0  0
  9 10  1  0  0  0  0
 10 11  1  0  0  0  0
 11 12  1  0  0  0  0
 12 13  1  0  0  0  0
 13 14  1  0  0  0  0
M  END
>  <CHROM.1>
-176.18872894,62.99481875,-156.17711181,-84.86121240,-63.79255208,-174.52340461
178.52917069,-76.63432405,75.90968636,58.88933545,-175.12330317,40.56731115
21.75600059,36.09368981,0.43987795,-0.45056940,-0.76367418

>  <Name>
ligand

>  <RI>
0

>  <Rbt.Current_Directory>
/home/itssahil/PROJECTS/Mol_Feturizer/New_Systems/rnas/1EVV

>  <Rbt.Executable>
rbdock ($Id: //depot/dev/client3/rdock/2013.1/src/exe/rbdock.cxx#4 $)

>  <Rbt.Library>
libRbt.so (2013.1, Build901 2013/11/27)

>  <Rbt.Parameter_File>
/export/apps/rDock/src/rDock_2013.1_src/data/scripts/dock_solv.prm

>  <Rbt.Receptor>
prm/pocket_docking_3.prm

>  <SCORE>
-2.46919

>  <SCORE.INTER>
6.43612

>  <SCORE.INTER.CONST>
1

>  <SCORE.INTER.POLAR>
0

>  <SCORE.INTER.ROT>
11

>  <SCORE.INTER.SOLV>
5.11442

>  <SCORE.INTER.VDW>
-8.34739

>  <SCORE.INTER.norm>
0.459723

>  <SCORE.INTRA>
-8.9053

>  <SCORE.INTRA.DIHEDRAL>
-18.5832

>  <SCORE.INTRA.DIHEDRAL.0>
20.2131

>  <SCORE.INTRA.POLAR>
0

>  <SCORE.INTRA.POLAR.0>
0

>  <SCORE.INTRA.REPUL>
0

>  <SCORE.INTRA.REPUL.0>
0

>  <SCORE.INTRA.SOLV>
-0.118241

>  <SCORE.INTRA.SOLV.lig_0>
-48.2851

>  <SCORE.INTRA.VDW>
0.44542

>  <SCORE.INTRA.VDW.0>
-1.08658

>  <SCORE.INTRA.norm>
-0.636093

>  <SCORE.RESTR>
0

>  <SCORE.RESTR.CAVITY>
0

>  <SCORE.RESTR.norm>
0

>  <SCORE.SYSTEM>
0

>  <SCORE.SYSTEM.CONST>
0

>  <SCORE.SYSTEM.DIHEDRAL>
0

>  <SCORE.SYSTEM.SOLV>
0

>  <SCORE.SYSTEM.norm>
0

>  <SCORE.heavy>
14

>  <SCORE.norm>
-0.176371

>  <RMSD>
1.785

$$$$
ligand
 OpenBabel11021811393D
libRbt.so/2013.1/901 2013/11/27
 14 13  0  0  0  0  0  0  0  0999 V2000
   44.4677   26.7279   33.8395 N   0  0  0  0  0  0  0  0  0  0  0  0
   45.3652   25.5840   33.8850 C   0  0  0  0  0  0  0  0  0  0  0  0
   44.5719   24.2936   34.2303 C   0  0  0  0  0  0  0  0  0  0  0  0
   43.8273   24.2359   35.6115 C   0  0  0  0  0  0  0  0  0  0  0  0
   43.1079   22.9429   35.9067 N   0  0  0  0  0  0  0  0  0  0  0  0
   42.2690   22.9879   37.1395 C   0  0  0  0  0  0  0  0  0  0  0  0
   41.7660   21.6297   37.5936 C   0  0  0  0  0  0  0  0  0  0  0  0
   40.8547   20.9739   36.5720 C   0  0  0  0  0  0  0  0  0  0  0  0
   40.3235   19.7357   37.1858 C   0  0  0  0  0  0  0  0  0  0  0  0
   39.4535   18.9127   36.3117 N   0  0  0  0  0  0  0  0  0  0  0  0
   38.0035   19.0976   36.5705 C   0  0  0  0  0  0  0  0  0  0  0  0
   37.4450   20.5305   36.3223 C   0  0  0  0  0  0  0  0  0  0  0  0
   37.7977   20.9405   34.8816 C   0  0  0  0  0  0  0  0  0  0  0  0
   37.1432   20.0576   33.9195 N   0  0  0  0  0  0  0  0  0  0  0  0
  1  2  1  0  0  0  0
  2  3  1  0  0  0  0
  3  4  1  0  0  0  0
  4  5  1  0  0  0  0
  5  6  1  0  0  0  0
  6  7  1  0  0  0  0
  7  8  1  0  0  0  0
  8  9  1  0  0  0  0
  9 10  1  0  0  0  0
 10 11  1  0  0  0  0
 11 12  1  0  0  0  0
 12 13  1  0  0  0  0
 13 14  1  0  0  0  0
M  END
>  <CHROM.1>
-61.34015216,-178.31202200,-172.46236335,-168.54824244,-62.62897416,-174.20050374
-177.24570573,-100.16324806,62.40703861,54.99246676,63.21569526,41.17119516
22.04640434,35.71240709,0.54895841,-0.49242969,-0.90389459

>  <Name>
ligand

>  <RI>
0

>  <Rbt.Current_Directory>
/home/itssahil/PROJECTS/Mol_Feturizer/New_Systems/rnas/1EVV

>  <Rbt.Executable>
rbdock ($Id: //depot/dev/client3/rdock/2013.1/src/exe/rbdock.cxx#4 $)

>  <Rbt.Library>
libRbt.so (2013.1, Build901 2013/11/27)

>  <Rbt.Parameter_File>
/export/apps/rDock/src/rDock_2013.1_src/data/scripts/dock_solv.prm

>  <Rbt.Receptor>
prm/pocket_docking_2.prm

>  <SCORE>
-0.181979

>  <SCORE.INTER>
7.78881

>  <SCORE.INTER.CONST>
1

>  <SCORE.INTER.POLAR>
0

>  <SCORE.INTER.ROT>
11

>  <SCORE.INTER.SOLV>
3.9914

>  <SCORE.INTER.VDW>
-7.07126

>  <SCORE.INTER.norm>
0.556344

>  <SCORE.INTRA>
-7.97079

>  <SCORE.INTRA.DIHEDRAL>
-18.8075

>  <SCORE.INTRA.DIHEDRAL.0>
20.2131

>  <SCORE.INTRA.POLAR>
0

>  <SCORE.INTRA.POLAR.0>
0

>  <SCORE.INTRA.REPUL>
0

>  <SCORE.INTRA.REPUL.0>
0

>  <SCORE.INTRA.SOLV>
1.78057

>  <SCORE.INTRA.SOLV.lig_0>
-48.2851

>  <SCORE.INTRA.VDW>
0.542665

>  <SCORE.INTRA.VDW.0>
-1.08658

>  <SCORE.INTRA.norm>
-0.569342

>  <SCORE.RESTR>
0

>  <SCORE.RESTR.CAVITY>
0

>  <SCORE.RESTR.norm>
0

>  <SCORE.SYSTEM>
0

>  <SCORE.SYSTEM.CONST>
0

>  <SCORE.SYSTEM.DIHEDRAL>
0

>  <SCORE.SYSTEM.SOLV>
0

>  <SCORE.SYSTEM.norm>
0

>  <SCORE.heavy>
14

>  <SCORE.norm>
-0.0129985

>  <RMSD>
1.793

$$$$
ligand
 OpenBabel11021811393D
libRbt.so/2013.1/901 2013/11/27
 14 13  0  0  0  0  0  0  0  0999 V2000
   44.5314   26.0601   36.5529 N   0  0  0  0  0  0  0  0  0  0  0  0
   44.1196   25.3181   35.3714 C   0  0  0  0  0  0  0  0  0  0  0  0
   43.9634   23.8105   35.7125 C   0  0  0  0  0  0  0  0  0  0  0  0
   42.9311   23.4120   36.8266 C   0  0  0  0  0  0  0  0  0  0  0  0
   42.6979   21.9308   36.9944 N   0  0  0  0  0  0  0  0  0  0  0  0
   41.8750   21.3235   35.9083 C   0  0  0  0  0  0  0  0  0  0  0  0
   41.4447   19.8945   36.1857 C   0  0  0  0  0  0  0  0  0  0  0  0
   40.5058   19.7885   37.3736 C   0  0  0  0  0  0  0  0  0  0  0  0
   39.9269   18.4257   37.3576 C   0  0  0  0  0  0  0  0  0  0  0  0
   39.0678   18.1112   36.1908 N   0  0  0  0  0  0  0  0  0  0  0  0
   37.6523   18.5230   36.3652 C   0  0  0  0  0  0  0  0  0  0  0  0
   37.3988   20.0554   36.4832 C   0  0  0  0  0  0  0  0  0  0  0  0
   37.9348   20.7305   35.2084 C   0  0  0  0  0  0  0  0  0  0  0  0
   37.2239   20.2433   34.0292 N   0  0  0  0  0  0  0  0  0  0  0  0
  1  2  1  0  0  0  0
  2  3  1  0  0  0  0
  3  4  1  0  0  0  0
  4  5  1  0  0  0  0
  5  6  1  0  0  0  0
  6  7  1  0  0  0  0
  7  8  1  0  0  0  0
  8  9  1  0  0  0  0
  9 10  1  0  0  0  0
 10 11  1  0  0  0  0
 11 12  1  0  0  0  0
 12 13  1  0  0  0  0
 13 14  1  0  0  0  0
M  END
>  <CHROM.1>
59.39347759,172.70068809,-74.25255085,-170.41467223,65.01157192,167.61977714
-64.52259092,-86.08461682,64.91091254,58.68478677,61.78546123,40.80522679
21.25894629,36.18293238,0.65182156,-0.41801107,-0.46407857

>  <Name>
ligand

>  <RI>
0

>  <Rbt.Current_Directory>
/home/itssahil/PROJECTS/Mol_Feturizer/New_Systems/rnas/1EVV

>  <Rbt.Executable>
rbdock ($Id: //depot/dev/client3/rdock/2013.1/src/exe/rbdock.cxx#4 $)

>  <Rbt.Library>
libRbt.so (2013.1, Build901 2013/11/27)

>  <Rbt.Parameter_File>
/export/apps/rDock/src/rDock_2013.1_src/data/scripts/dock_solv.prm

>  <Rbt.Receptor>
prm/pocket_docking_2.prm

>  <SCORE>
1.021

>  <SCORE.INTER>
8.39899

>  <SCORE.INTER.CONST>
1

>  <SCORE.INTER.POLAR>
0

>  <SCORE.INTER.ROT>
11

>  <SCORE.INTER.SOLV>
3.54835

>  <SCORE.INTER.VDW>
-6.51679

>  <SCORE.INTER.norm>
0.599928

>  <SCORE.INTRA>
-7.37919

>  <SCORE.INTRA.DIHEDRAL>
-18.4708

>  <SCORE.INTRA.DIHEDRAL.0>
20.2131

>  <SCORE.INTRA.POLAR>
0

>  <SCORE.INTRA.POLAR.0>
0

>  <SCORE.INTRA.REPUL>
0

>  <SCORE.INTRA.REPUL.0>
0

>  <SCORE.INTRA.SOLV>
2.08615

>  <SCORE.INTRA.SOLV.lig_0>
-48.2851

>  <SCORE.INTRA.VDW>
0.813118

>  <SCORE.INTRA.VDW.0>
-1.08658

>  <SCORE.INTRA.norm>
-0.527085

>  <SCORE.RESTR>
0.00120247

>  <SCORE.RESTR.CAVITY>
0.00120247

>  <SCORE.RESTR.norm>
8.5891e-05

>  <SCORE.SYSTEM>
0

>  <SCORE.SYSTEM.CONST>
0

>  <SCORE.SYSTEM.DIHEDRAL>
0

>  <SCORE.SYSTEM.SOLV>
0

>  <SCORE.SYSTEM.norm>
0

>  <SCORE.heavy>
14

>  <SCORE.norm>
0.0729283

>  <RMSD>
1.824

$$$$
ligand
 OpenBabel11021811393D
libRbt.so/2013.1/901 2013/11/27
 14 13  0  0  0  0  0  0  0  0999 V2000
   36.0291   21.2920   33.8411 N   0  0  0  0  0  0  0  0  0  0  0  0
   37.2967   20.8366   34.3905 C   0  0  0  0  0  0  0  0  0  0  0  0
   37.1067   20.3667   35.8591 C   0  0  0  0  0  0  0  0  0  0  0  0
   38.3777   19.8911   36.6490 C   0  0  0  0  0  0  0  0  0  0  0  0
   39.4815   20.9119   36.7762 N   0  0  0  0  0  0  0  0  0  0  0  0
   40.5526   20.5243   37.7395 C   0  0  0  0  0  0  0  0  0  0  0  0
   41.8467   21.2988   37.5679 C   0  0  0  0  0  0  0  0  0  0  0  0
   42.4931   21.0619   36.2151 C   0  0  0  0  0  0  0  0  0  0  0  0
   43.7914   21.7738   36.2163 C   0  0  0  0  0  0  0  0  0  0  0  0
   43.7117   23.2461   36.3714 N   0  0  0  0  0  0  0  0  0  0  0  0
   44.5206   23.9945   35.3767 C   0  0  0  0  0  0  0  0  0  0  0  0
   44.8625   25.4683   35.7478 C   0  0  0  0  0  0  0  0  0  0  0  0
   45.6304   26.0943   34.5703 C   0  0  0  0  0  0  0  0  0  0  0  0
   44.7666   26.2180   33.3990 N   0  0  0  0  0  0  0  0  0  0  0  0
  1  2  1  0  0  0  0
  2  3  1  0  0  0  0
  3  4  1  0  0  0  0
  4  5  1  0  0  0  0
  5  6  1  0  0  0  0
  6  7  1  0  0  0  0
  7  8  1  0  0  0  0
  8  9  1  0  0  0  0
  9 10  1  0  0  0  0
 10 11  1  0  0  0  0
 11 12  1  0  0  0  0
 12 13  1  0  0  0  0
 13 14  1  0  0  0  0
M  END
>  <CHROM.1>
-177.54771170,58.61704010,169.10641471,162.06453481,-62.81589484,-175.28975396
-62.40433587,-131.41461536,-160.63831307,-176.90277568,66.74961377,41.46213669
22.35537634,35.76598788,2.70621258,0.36578153,2.35541152

>  <Name>
ligand

>  <RI>
0

>  <Rbt.Current_Directory>
/home/itssahil/PROJECTS/Mol_Feturizer/New_Systems/rnas/1EVV

>  <Rbt.Executable>
rbdock ($Id: //depot/dev/client3/rdock/2013.1/src/exe/rbdock.cxx#4 $)

>  <Rbt.Library>
libRbt.so (2013.1, Build901 2013/11/27)

>  <Rbt.Parameter_File>
/export/apps/rDock/src/rDock_2013.1_src/data/scripts/dock_solv.prm

>  <Rbt.Receptor>
prm/pocket_docking_3.prm

>  <SCORE>
-0.952089

>  <SCORE.INTER>
7.80554

>  <SCORE.INTER.CONST>
1

>  <SCORE.INTER.POLAR>
0

>  <SCORE.INTER.ROT>
11

>  <SCORE.INTER.SOLV>
7.87347

>  <SCORE.INTER.VDW>
-8.35413

>  <SCORE.INTER.norm>
0.557539

>  <SCORE.INTRA>
-8.75763

>  <SCORE.INTRA.DIHEDRAL>
-18.1126

>  <SCORE.INTRA.DIHEDRAL.0>
20.2131

>  <SCORE.INTRA.POLAR>
0

>  <SCORE.INTRA.POLAR.0>
0

>  <SCORE.INTRA.REPUL>
0

>  <SCORE.INTRA.REPUL.0>
0

>  <SCORE.INTRA.SOLV>
0.482819

>  <SCORE.INTRA.SOLV.lig_0>
-48.2851

>  <SCORE.INTRA.VDW>
0.0572331

>  <SCORE.INTRA.VDW.0>
-1.08658

>  <SCORE.INTRA.norm>
-0.625545

>  <SCORE.RESTR>
0

>  <SCORE.RESTR.CAVITY>
0

>  <SCORE.RESTR.norm>
0

>  <SCORE.SYSTEM>
0

>  <SCORE.SYSTEM.CONST>
0

>  <SCORE.SYSTEM.DIHEDRAL>
0

>  <SCORE.SYSTEM.SOLV>
0

>  <SCORE.SYSTEM.norm>
0

>  <SCORE.heavy>
14

>  <SCORE.norm>
-0.0680063

>  <RMSD>
1.855

$$$$
ligand
 OpenBabel11021811393D
libRbt.so/2013.1/901 2013/11/27
 14 13  0  0  0  0  0  0  0  0999 V2000
   37.4661   21.7695   32.9449 N   0  0  0  0  0  0  0  0  0  0  0  0
   37.8867   21.5767   34.3241 C   0  0  0  0  0  0  0  0  0  0  0  0
   37.1733   20.3388   34.9342 C   0  0  0  0  0  0  0  0  0  0  0  0
   37.4694   19.9854   36.4351 C   0  0  0  0  0  0  0  0  0  0  0  0
   38.9208   19.7455   36.7705 N   0  0  0  0  0  0  0  0  0  0  0  0
   39.6861   20.9925   37.0613 C   0  0  0  0  0  0  0  0  0  0  0  0
   40.9072   21.1866   36.1807 C   0  0  0  0  0  0  0  0  0  0  0  0
   41.5679   22.5372   36.3894 C   0  0  0  0  0  0  0  0  0  0  0  0
   42.6952   22.6287   35.4339 C   0  0  0  0  0  0  0  0  0  0  0  0
   43.4364   23.9128   35.4426 N   0  0  0  0  0  0  0  0  0  0  0  0
   44.5522   23.9631   34.4648 C   0  0  0  0  0  0  0  0  0  0  0  0
   45.1687   25.3704   34.2074 C   0  0  0  0  0  0  0  0  0  0  0  0
   45.6892   25.9191   35.5475 C   0  0  0  0  0  0  0  0  0  0  0  0
   44.5778   26.2502   36.4356 N   0  0  0  0  0  0  0  0  0  0  0  0
  1  2  1  0  0  0  0
  2  3  1  0  0  0  0
  3  4  1  0  0  0  0
  4  5  1  0  0  0  0
  5  6  1  0  0  0  0
  6  7  1  0  0  0  0
  7  8  1  0  0  0  0
  8  9  1  0  0  0  0
  9 10  1  0  0  0  0
 10 11  1  0  0  0  0
 11 12  1  0  0  0  0
 12 13  1  0  0  0  0
 13 14  1  0  0  0  0
M  END
>  <CHROM.1>
-178.46784223,-57.48746083,84.53500953,-123.41767678,173.26588575,-177.26560029
177.41748112,-179.67244970,167.35630551,58.71801423,-69.79603933,41.22841652
22.58389587,35.46944961,2.84365021,0.51714832,2.10194024

>  <Name>
ligand

>  <RI>
0

>  <Rbt.Current_Directory>
/home/itssahil/PROJECTS/Mol_Feturizer/New_Systems/rnas/1EVV

>  <Rbt.Executable>
rbdock ($Id: //depot/dev/client3/rdock/2013.1/src/exe/rbdock.cxx#4 $)

>  <Rbt.Library>
libRbt.so (2013.1, Build901 2013/11/27)

>  <Rbt.Parameter_File>
/export/apps/rDock/src/rDock_2013.1_src/data/scripts/dock_solv.prm

>  <Rbt.Receptor>
prm/pocket_docking_2.prm

>  <SCORE>
-0.149237

>  <SCORE.INTER>
8.02038

>  <SCORE.INTER.CONST>
1

>  <SCORE.INTER.POLAR>
0

>  <SCORE.INTER.ROT>
11

>  <SCORE.INTER.SOLV>
3.20313

>  <SCORE.INTER.VDW>
-6.65413

>  <SCORE.INTER.norm>
0.572884

>  <SCORE.INTRA>
-8.16961

>  <SCORE.INTRA.DIHEDRAL>
-17.8448

>  <SCORE.INTRA.DIHEDRAL.0>
20.2131

>  <SCORE.INTRA.POLAR>
0

>  <SCORE.INTRA.POLAR.0>
0

>  <SCORE.INTRA.REPUL>
0

>  <SCORE.INTRA.REPUL.0>
0

>  <SCORE.INTRA.SOLV>
1.92223

>  <SCORE.INTRA.SOLV.lig_0>
-48.2851

>  <SCORE.INTRA.VDW>
-0.208317

>  <SCORE.INTRA.VDW.0>
-1.08658

>  <SCORE.INTRA.norm>
-0.583544

>  <SCORE.RESTR>
0

>  <SCORE.RESTR.CAVITY>
0

>  <SCORE.RESTR.norm>
0

>  <SCORE.SYSTEM>
0

>  <SCORE.SYSTEM.CONST>
0

>  <SCORE.SYSTEM.DIHEDRAL>
0

>  <SCORE.SYSTEM.SOLV>
0

>  <SCORE.SYSTEM.norm>
0

>  <SCORE.heavy>
14

>  <SCORE.norm>
-0.0106598

>  <RMSD>
1.872

$$$$
ligand
 OpenBabel11021811393D
libRbt.so/2013.1/901 2013/11/27
 14 13  0  0  0  0  0  0  0  0999 V2000
   38.3580   20.5226   34.1397 N   0  0  0  0  0  0  0  0  0  0  0  0
   37.1116   20.5430   34.8895 C   0  0  0  0  0  0  0  0  0  0  0  0
   37.4007   20.4478   36.4129 C   0  0  0  0  0  0  0  0  0  0  0  0
   38.1112   19.1533   36.9468 C   0  0  0  0  0  0  0  0  0  0  0  0
   39.5366   18.9613   36.4911 N   0  0  0  0  0  0  0  0  0  0  0  0
   40.5190   19.8296   37.2028 C   0  0  0  0  0  0  0  0  0  0  0  0
   40.8151   21.1376   36.4917 C   0  0  0  0  0  0  0  0  0  0  0  0
   42.0137   21.8615   37.0777 C   0  0  0  0  0  0  0  0  0  0  0  0
   42.2963   23.0239   36.2052 C   0  0  0  0  0  0  0  0  0  0  0  0
   43.5628   23.7410   36.4881 N   0  0  0  0  0  0  0  0  0  0  0  0
   43.7759   24.9342   35.6311 C   0  0  0  0  0  0  0  0  0  0  0  0
   45.2409   25.4567   35.5437 C   0  0  0  0  0  0  0  0  0  0  0  0
   45.2420   26.7450   34.7022 C   0  0  0  0  0  0  0  0  0  0  0  0
   44.8631   26.4588   33.3209 N   0  0  0  0  0  0  0  0  0  0  0  0
  1  2  1  0  0  0  0
  2  3  1  0  0  0  0
  3  4  1  0  0  0  0
  4  5  1  0  0  0  0
  5  6  1  0  0  0  0
  6  7  1  0  0  0  0
  7  8  1  0  0  0  0
  8  9  1  0  0  0  0
  9 10  1  0  0  0  0
 10 11  1  0  0  0  0
 11 12  1  0  0  0  0
 12 13  1  0  0  0  0
 13 14  1  0  0  0  0
M  END
>  <CHROM.1>
-62.29636879,66.84418035,76.46883530,-93.56434727,-168.15298023,173.30839864
-170.82610092,-177.39454283,-161.10498545,-175.93095719,-65.62436738,41.34612238
22.34399958,35.82480795,2.55352023,0.50423495,2.32371667

>  <Name>
ligand

>  <RI>
0

>  <Rbt.Current_Directory>
/home/itssahil/PROJECTS/Mol_Feturizer/New_Systems/rnas/1EVV

>  <Rbt.Executable>
rbdock ($Id: //depot/dev/client3/rdock/2013.1/src/exe/rbdock.cxx#4 $)

>  <Rbt.Library>
libRbt.so (2013.1, Build901 2013/11/27)

>  <Rbt.Parameter_File>
/export/apps/rDock/src/rDock_2013.1_src/data/scripts/dock_solv.prm

>  <Rbt.Receptor>
prm/pocket_docking_2.prm

>  <SCORE>
0.00784982

>  <SCORE.INTER>
7.513

>  <SCORE.INTER.CONST>
1

>  <SCORE.INTER.POLAR>
0

>  <SCORE.INTER.ROT>
11

>  <SCORE.INTER.SOLV>
3.36775

>  <SCORE.INTER.VDW>
-7.04725

>  <SCORE.INTER.norm>
0.536643

>  <SCORE.INTRA>
-7.50515

>  <SCORE.INTRA.DIHEDRAL>
-17.6273

>  <SCORE.INTRA.DIHEDRAL.0>
20.2131

>  <SCORE.INTRA.POLAR>
0

>  <SCORE.INTRA.POLAR.0>
0

>  <SCORE.INTRA.REPUL>
0

>  <SCORE.INTRA.REPUL.0>
0

>  <SCORE.INTRA.SOLV>
3.14361

>  <SCORE.INTRA.SOLV.lig_0>
-48.2851

>  <SCORE.INTRA.VDW>
-0.263316

>  <SCORE.INTRA.VDW.0>
-1.08658

>  <SCORE.INTRA.norm>
-0.536082

>  <SCORE.RESTR>
0

>  <SCORE.RESTR.CAVITY>
0

>  <SCORE.RESTR.norm>
0

>  <SCORE.SYSTEM>
0

>  <SCORE.SYSTEM.CONST>
0

>  <SCORE.SYSTEM.DIHEDRAL>
0

>  <SCORE.SYSTEM.SOLV>
0

>  <SCORE.SYSTEM.norm>
0

>  <SCORE.heavy>
14

>  <SCORE.norm>
0.000560702

>  <RMSD>
1.875

$$$$
ligand
 OpenBabel11021811393D
libRbt.so/2013.1/901 2013/11/27
 14 13  0  0  0  0  0  0  0  0999 V2000
   44.3546   24.5686   33.9635 N   0  0  0  0  0  0  0  0  0  0  0  0
   44.6114   24.5237   35.3947 C   0  0  0  0  0  0  0  0  0  0  0  0
   43.3641   23.9826   36.1465 C   0  0  0  0  0  0  0  0  0  0  0  0
   42.8933   22.5184   35.8304 C   0  0  0  0  0  0  0  0  0  0  0  0
   41.6745   22.0516   36.5876 N   0  0  0  0  0  0  0  0  0  0  0  0
   41.4349   20.5820   36.4966 C   0  0  0  0  0  0  0  0  0  0  0  0
   40.8829   19.9667   37.7698 C   0  0  0  0  0  0  0  0  0  0  0  0
   40.7975   18.4530   37.6965 C   0  0  0  0  0  0  0  0  0  0  0  0
   39.6513   18.1181   36.8211 C   0  0  0  0  0  0  0  0  0  0  0  0
   38.3269   18.5837   37.2980 N   0  0  0  0  0  0  0  0  0  0  0  0
   37.4799   19.1673   36.2277 C   0  0  0  0  0  0  0  0  0  0  0  0
   37.8177   20.6308   35.8143 C   0  0  0  0  0  0  0  0  0  0  0  0
   36.9707   20.9890   34.5805 C   0  0  0  0  0  0  0  0  0  0  0  0
   37.4213   20.2394   33.4106 N   0  0  0  0  0  0  0  0  0  0  0  0
  1  2  1  0  0  0  0
  2  3  1  0  0  0  0
  3  4  1  0  0  0  0
  4  5  1  0  0  0  0
  5  6  1  0  0  0  0
  6  7  1  0  0  0  0
  7  8  1  0  0  0  0
  8  9  1  0  0  0  0
  9 10  1  0  0  0  0
 10 11  1  0  0  0  0
 11 12  1  0  0  0  0
 12 13  1  0  0  0  0
 13 14  1  0  0  0  0
M  END
>  <CHROM.1>
62.43581568,-179.78809867,-167.20406561,143.96294464,-173.56956031,-74.40302388
-61.85091484,137.17193211,-78.84521741,172.52649601,-69.39286741,40.54868716
21.02663724,36.00299224,0.55300187,-0.41900858,-0.73172797

>  <Name>
ligand

>  <RI>
0

>  <Rbt.Current_Directory>
/home/itssahil/PROJECTS/Mol_Feturizer/New_Systems/rnas/1EVV

>  <Rbt.Executable>
rbdock ($Id: //depot/dev/client3/rdock/2013.1/src/exe/rbdock.cxx#4 $)

>  <Rbt.Library>
libRbt.so (2013.1, Build901 2013/11/27)

>  <Rbt.Parameter_File>
/export/apps/rDock/src/rDock_2013.1_src/data/scripts/dock_solv.prm

>  <Rbt.Receptor>
prm/pocket_docking_2.prm

>  <SCORE>
0.803768

>  <SCORE.INTER>
8.11215

>  <SCORE.INTER.CONST>
1

>  <SCORE.INTER.POLAR>
0

>  <SCORE.INTER.ROT>
11

>  <SCORE.INTER.SOLV>
5.51657

>  <SCORE.INTER.VDW>
-7.36409

>  <SCORE.INTER.norm>
0.579439

>  <SCORE.INTRA>
-7.31368

>  <SCORE.INTRA.DIHEDRAL>
-16.4984

>  <SCORE.INTRA.DIHEDRAL.0>
20.2131

>  <SCORE.INTRA.POLAR>
0

>  <SCORE.INTRA.POLAR.0>
0

>  <SCORE.INTRA.REPUL>
0

>  <SCORE.INTRA.REPUL.0>
0

>  <SCORE.INTRA.SOLV>
1.02962

>  <SCORE.INTRA.SOLV.lig_0>
-48.2851

>  <SCORE.INTRA.VDW>
0.420734

>  <SCORE.INTRA.VDW.0>
-1.08658

>  <SCORE.INTRA.norm>
-0.522406

>  <SCORE.RESTR>
0.00530063

>  <SCORE.RESTR.CAVITY>
0.00530063

>  <SCORE.RESTR.norm>
0.000378616

>  <SCORE.SYSTEM>
0

>  <SCORE.SYSTEM.CONST>
0

>  <SCORE.SYSTEM.DIHEDRAL>
0

>  <SCORE.SYSTEM.SOLV>
0

>  <SCORE.SYSTEM.norm>
0

>  <SCORE.heavy>
14

>  <SCORE.norm>
0.057412

>  <RMSD>
1.885

$$$$
ligand
 OpenBabel11021811393D
libRbt.so/2013.1/901 2013/11/27
 14 13  0  0  0  0  0  0  0  0999 V2000
   44.6020   25.6189   35.8488 N   0  0  0  0  0  0  0  0  0  0  0  0
   44.9256   24.4855   34.9963 C   0  0  0  0  0  0  0  0  0  0  0  0
   43.7576   23.4610   35.0000 C   0  0  0  0  0  0  0  0  0  0  0  0
   43.3883   22.7722   36.3619 C   0  0  0  0  0  0  0  0  0  0  0  0
   42.2817   21.7489   36.2918 N   0  0  0  0  0  0  0  0  0  0  0  0
   41.5846   21.5253   37.5916 C   0  0  0  0  0  0  0  0  0  0  0  0
   40.4965   20.4685   37.5344 C   0  0  0  0  0  0  0  0  0  0  0  0
   41.0512   19.0709   37.3267 C   0  0  0  0  0  0  0  0  0  0  0  0
   39.8979   18.1450   37.2558 C   0  0  0  0  0  0  0  0  0  0  0  0
   39.0476   18.2764   36.0484 N   0  0  0  0  0  0  0  0  0  0  0  0
   37.6511   18.6834   36.3448 C   0  0  0  0  0  0  0  0  0  0  0  0
   37.3923   20.2172   36.4286 C   0  0  0  0  0  0  0  0  0  0  0  0
   37.8468   20.8542   35.1036 C   0  0  0  0  0  0  0  0  0  0  0  0
   37.0298   20.3722   33.9929 N   0  0  0  0  0  0  0  0  0  0  0  0
  1  2  1  0  0  0  0
  2  3  1  0  0  0  0
  3  4  1  0  0  0  0
  4  5  1  0  0  0  0
  5  6  1  0  0  0  0
  6  7  1  0  0  0  0
  7  8  1  0  0  0  0
  8  9  1  0  0  0  0
  9 10  1  0  0  0  0
 10 11  1  0  0  0  0
 11 12  1  0  0  0  0
 12 13  1  0  0  0  0
 13 14  1  0  0  0  0
M  END
>  <CHROM.1>
-62.70088328,-177.75503104,-156.55159828,-178.38155669,68.57564491,-178.63354698
69.06979618,-117.28945495,87.45189335,56.41306145,64.47082328,40.78238537
21.12124555,36.15207054,0.56414693,-0.40455245,-0.63355844

>  <Name>
ligand

>  <RI>
0

>  <Rbt.Current_Directory>
/home/itssahil/PROJECTS/Mol_Feturizer/New_Systems/rnas/1EVV

>  <Rbt.Executable>
rbdock ($Id: //depot/dev/client3/rdock/2013.1/src/exe/rbdock.cxx#4 $)

>  <Rbt.Library>
libRbt.so (2013.1, Build901 2013/11/27)

>  <Rbt.Parameter_File>
/export/apps/rDock/src/rDock_2013.1_src/data/scripts/dock_solv.prm

>  <Rbt.Receptor>
prm/pocket_docking_2.prm

>  <SCORE>
-1.32944

>  <SCORE.INTER>
6.48276

>  <SCORE.INTER.CONST>
1

>  <SCORE.INTER.POLAR>
0

>  <SCORE.INTER.ROT>
11

>  <SCORE.INTER.SOLV>
4.41272

>  <SCORE.INTER.VDW>
-8.0824

>  <SCORE.INTER.norm>
0.463054

>  <SCORE.INTRA>
-7.81992

>  <SCORE.INTRA.DIHEDRAL>
-17.3414

>  <SCORE.INTRA.DIHEDRAL.0>
20.2131

>  <SCORE.INTRA.POLAR>
0

>  <SCORE.INTRA.POLAR.0>
0

>  <SCORE.INTRA.REPUL>
0

>  <SCORE.INTRA.REPUL.0>
0

>  <SCORE.INTRA.SOLV>
1.93591

>  <SCORE.INTRA.SOLV.lig_0>
-48.2851

>  <SCORE.INTRA.VDW>
-0.117175

>  <SCORE.INTRA.VDW.0>
-1.08658

>  <SCORE.INTRA.norm>
-0.558566

>  <SCORE.RESTR>
0.00772067

>  <SCORE.RESTR.CAVITY>
0.00772067

>  <SCORE.RESTR.norm>
0.000551476

>  <SCORE.SYSTEM>
0

>  <SCORE.SYSTEM.CONST>
0

>  <SCORE.SYSTEM.DIHEDRAL>
0

>  <SCORE.SYSTEM.SOLV>
0

>  <SCORE.SYSTEM.norm>
0

>  <SCORE.heavy>
14

>  <SCORE.norm>
-0.0949598

>  <RMSD>
1.888

$$$$
ligand
 OpenBabel11021811393D
libRbt.so/2013.1/901 2013/11/27
 14 13  0  0  0  0  0  0  0  0999 V2000
   36.7448   21.6946   32.3452 N   0  0  0  0  0  0  0  0  0  0  0  0
   36.7849   21.8280   33.7932 C   0  0  0  0  0  0  0  0  0  0  0  0
   38.0453   21.1200   34.3622 C   0  0  0  0  0  0  0  0  0  0  0  0
   38.3194   21.2341   35.9041 C   0  0  0  0  0  0  0  0  0  0  0  0
   39.5813   20.5643   36.3895 N   0  0  0  0  0  0  0  0  0  0  0  0
   40.0530   21.0573   37.7161 C   0  0  0  0  0  0  0  0  0  0  0  0
   40.8780   22.3294   37.6439 C   0  0  0  0  0  0  0  0  0  0  0  0
   42.1433   22.1581   36.8230 C   0  0  0  0  0  0  0  0  0  0  0  0
   42.8989   23.4286   36.9075 C   0  0  0  0  0  0  0  0  0  0  0  0
   44.1165   23.5041   36.0650 N   0  0  0  0  0  0  0  0  0  0  0  0
   45.0424   24.5977   36.4528 C   0  0  0  0  0  0  0  0  0  0  0  0
   45.7579   25.3318   35.2798 C   0  0  0  0  0  0  0  0  0  0  0  0
   44.6874   26.0450   34.4352 C   0  0  0  0  0  0  0  0  0  0  0  0
   45.3046   26.7791   33.3335 N   0  0  0  0  0  0  0  0  0  0  0  0
  1  2  1  0  0  0  0
  2  3  1  0  0  0  0
  3  4  1  0  0  0  0
  4  5  1  0  0  0  0
  5  6  1  0  0  0  0
  6  7  1  0  0  0  0
  7  8  1  0  0  0  0
  8  9  1  0  0  0  0
  9 10  1  0  0  0  0
 10 11  1  0  0  0  0
 11 12  1  0  0  0  0
 12 13  1  0  0  0  0
 13 14  1  0  0  0  0
M  END
>  <CHROM.1>
176.02177019,-178.08162270,160.54153410,-83.33722884,-60.85413818,-176.14570228
-174.68496645,-163.48569425,-142.51607992,64.17777862,178.69063717,41.45412478
22.97652560,35.53262202,2.93106815,0.47729027,2.10754420

>  <Name>
ligand

>  <RI>
0

>  <Rbt.Current_Directory>
/home/itssahil/PROJECTS/Mol_Feturizer/New_Systems/rnas/1EVV

>  <Rbt.Executable>
rbdock ($Id: //depot/dev/client3/rdock/2013.1/src/exe/rbdock.cxx#4 $)

>  <Rbt.Library>
libRbt.so (2013.1, Build901 2013/11/27)

>  <Rbt.Parameter_File>
/export/apps/rDock/src/rDock_2013.1_src/data/scripts/dock_solv.prm

>  <Rbt.Receptor>
prm/pocket_docking_3.prm

>  <SCORE>
-1.56756

>  <SCORE.INTER>
7.9426

>  <SCORE.INTER.CONST>
1

>  <SCORE.INTER.POLAR>
0

>  <SCORE.INTER.ROT>
11

>  <SCORE.INTER.SOLV>
3.56572

>  <SCORE.INTER.VDW>
-6.82684

>  <SCORE.INTER.norm>
0.567328

>  <SCORE.INTRA>
-9.51016

>  <SCORE.INTRA.DIHEDRAL>
-18.1762

>  <SCORE.INTRA.DIHEDRAL.0>
20.2131

>  <SCORE.INTRA.POLAR>
0

>  <SCORE.INTRA.POLAR.0>
0

>  <SCORE.INTRA.REPUL>
0

>  <SCORE.INTRA.REPUL.0>
0

>  <SCORE.INTRA.SOLV>
-0.684212

>  <SCORE.INTRA.SOLV.lig_0>
-48.2851

>  <SCORE.INTRA.VDW>
-0.0799738

>  <SCORE.INTRA.VDW.0>
-1.08658

>  <SCORE.INTRA.norm>
-0.679297

>  <SCORE.RESTR>
0

>  <SCORE.RESTR.CAVITY>
0

>  <SCORE.RESTR.norm>
0

>  <SCORE.SYSTEM>
0

>  <SCORE.SYSTEM.CONST>
0

>  <SCORE.SYSTEM.DIHEDRAL>
0

>  <SCORE.SYSTEM.SOLV>
0

>  <SCORE.SYSTEM.norm>
0

>  <SCORE.heavy>
14

>  <SCORE.norm>
-0.111969

>  <RMSD>
1.929

$$$$
ligand
 OpenBabel11021811393D
libRbt.so/2013.1/901 2013/11/27
 14 13  0  0  0  0  0  0  0  0999 V2000
   44.9675   25.8110   34.5847 N   0  0  0  0  0  0  0  0  0  0  0  0
   46.0375   25.3950   35.4781 C   0  0  0  0  0  0  0  0  0  0  0  0
   45.6684   24.0530   36.1684 C   0  0  0  0  0  0  0  0  0  0  0  0
   44.3656   24.0107   37.0438 C   0  0  0  0  0  0  0  0  0  0  0  0
   44.0878   22.6958   37.7296 N   0  0  0  0  0  0  0  0  0  0  0  0
   42.6894   22.5617   38.2317 C   0  0  0  0  0  0  0  0  0  0  0  0
   41.7536   21.8528   37.2695 C   0  0  0  0  0  0  0  0  0  0  0  0
   40.3043   21.9092   37.7176 C   0  0  0  0  0  0  0  0  0  0  0  0
   39.5045   21.1664   36.7172 C   0  0  0  0  0  0  0  0  0  0  0  0
   38.0352   21.2196   36.9081 N   0  0  0  0  0  0  0  0  0  0  0  0
   37.2901   20.2458   36.0712 C   0  0  0  0  0  0  0  0  0  0  0  0
   36.6680   20.8113   34.7598 C   0  0  0  0  0  0  0  0  0  0  0  0
   37.8155   21.2670   33.8413 C   0  0  0  0  0  0  0  0  0  0  0  0
   37.2906   21.8096   32.5910 N   0  0  0  0  0  0  0  0  0  0  0  0
  1  2  1  0  0  0  0
  2  3  1  0  0  0  0
  3  4  1  0  0  0  0
  4  5  1  0  0  0  0
  5  6  1  0  0  0  0
  6  7  1  0  0  0  0
  7  8  1  0  0  0  0
  8  9  1  0  0  0  0
  9 10  1  0  0  0  0
 10 11  1  0  0  0  0
 11 12  1  0  0  0  0
 12 13  1  0  0  0  0
 13 14  1  0  0  0  0
M  END
>  <CHROM.1>
-59.42918400,-177.80606548,-164.05436957,94.68062713,-171.72800447,-178.93358767
-174.23952931,-167.89592965,-98.73209536,64.46287431,-179.96423653,41.17702453
22.48617532,36.07968008,0.02647461,-0.44694770,-1.16399819

>  <Name>
ligand

>  <RI>
0

>  <Rbt.Current_Directory>
/home/itssahil/PROJECTS/Mol_Feturizer/New_Systems/rnas/1EVV

>  <Rbt.Executable>
rbdock ($Id: //depot/dev/client3/rdock/2013.1/src/exe/rbdock.cxx#4 $)

>  <Rbt.Library>
libRbt.so (2013.1, Build901 2013/11/27)

>  <Rbt.Parameter_File>
/export/apps/rDock/src/rDock_2013.1_src/data/scripts/dock_solv.prm

>  <Rbt.Receptor>
prm/pocket_docking_3.prm

>  <SCORE>
-3.0695

>  <SCORE.INTER>
6.05022

>  <SCORE.INTER.CONST>
1

>  <SCORE.INTER.POLAR>
0

>  <SCORE.INTER.ROT>
11

>  <SCORE.INTER.SOLV>
5.56664

>  <SCORE.INTER.VDW>
-8.7554

>  <SCORE.INTER.norm>
0.432159

>  <SCORE.INTRA>
-9.11972

>  <SCORE.INTRA.DIHEDRAL>
-17.8103

>  <SCORE.INTRA.DIHEDRAL.0>
20.2131

>  <SCORE.INTRA.POLAR>
0

>  <SCORE.INTRA.POLAR.0>
0

>  <SCORE.INTRA.REPUL>
0

>  <SCORE.INTRA.REPUL.0>
0

>  <SCORE.INTRA.SOLV>
-0.40076

>  <SCORE.INTRA.SOLV.lig_0>
-48.2851

>  <SCORE.INTRA.VDW>
-0.0142085

>  <SCORE.INTRA.VDW.0>
-1.08658

>  <SCORE.INTRA.norm>
-0.651408

>  <SCORE.RESTR>
0

>  <SCORE.RESTR.CAVITY>
0

>  <SCORE.RESTR.norm>
0

>  <SCORE.SYSTEM>
0

>  <SCORE.SYSTEM.CONST>
0

>  <SCORE.SYSTEM.DIHEDRAL>
0

>  <SCORE.SYSTEM.SOLV>
0

>  <SCORE.SYSTEM.norm>
0

>  <SCORE.heavy>
14

>  <SCORE.norm>
-0.21925

>  <RMSD>
1.956

$$$$
ligand
 OpenBabel11021811393D
libRbt.so/2013.1/901 2013/11/27
 14 13  0  0  0  0  0  0  0  0999 V2000
   43.2671   24.1598   34.5890 N   0  0  0  0  0  0  0  0  0  0  0  0
   42.8001   24.7182   35.8485 C   0  0  0  0  0  0  0  0  0  0  0  0
   43.4942   24.0049   37.0414 C   0  0  0  0  0  0  0  0  0  0  0  0
   43.2283   22.4696   37.2353 C   0  0  0  0  0  0  0  0  0  0  0  0
   41.8017   22.0935   37.5514 N   0  0  0  0  0  0  0  0  0  0  0  0
   41.4746   20.6684   37.2556 C   0  0  0  0  0  0  0  0  0  0  0  0
   40.0077   20.3219   37.4348 C   0  0  0  0  0  0  0  0  0  0  0  0
   39.6835   18.9080   36.9873 C   0  0  0  0  0  0  0  0  0  0  0  0
   38.2220   18.7231   37.1353 C   0  0  0  0  0  0  0  0  0  0  0  0
   37.3787   19.7360   36.4561 N   0  0  0  0  0  0  0  0  0  0  0  0
   37.4974   19.7145   34.9766 C   0  0  0  0  0  0  0  0  0  0  0  0
   37.3817   21.0951   34.2644 C   0  0  0  0  0  0  0  0  0  0  0  0
   37.5682   20.8731   32.7531 C   0  0  0  0  0  0  0  0  0  0  0  0
   37.5674   22.1483   32.0408 N   0  0  0  0  0  0  0  0  0  0  0  0
  1  2  1  0  0  0  0
  2  3  1  0  0  0  0
  3  4  1  0  0  0  0
  4  5  1  0  0  0  0
  5  6  1  0  0  0  0
  6  7  1  0  0  0  0
  7  8  1  0  0  0  0
  8  9  1  0  0  0  0
  9 10  1  0  0  0  0
 10 11  1  0  0  0  0
 11 12  1  0  0  0  0
 12 13  1  0  0  0  0
 13 14  1  0  0  0  0
M  END
>  <CHROM.1>
-63.06522595,-64.12225843,159.38890221,-173.98045982,173.97488291,-176.67127534
53.89041802,65.00259925,-145.84350729,178.43285074,-175.84551296,40.09807253
21.40220310,35.82667360,0.11291814,-0.59803016,-0.89217626

>  <Name>
ligand

>  <RI>
0

>  <Rbt.Current_Directory>
/home/itssahil/PROJECTS/Mol_Feturizer/New_Systems/rnas/1EVV

>  <Rbt.Executable>
rbdock ($Id: //depot/dev/client3/rdock/2013.1/src/exe/rbdock.cxx#4 $)

>  <Rbt.Library>
libRbt.so (2013.1, Build901 2013/11/27)

>  <Rbt.Parameter_File>
/export/apps/rDock/src/rDock_2013.1_src/data/scripts/dock_solv.prm

>  <Rbt.Receptor>
prm/pocket_docking_2.prm

>  <SCORE>
0.132409

>  <SCORE.INTER>
8.68975

>  <SCORE.INTER.CONST>
1

>  <SCORE.INTER.POLAR>
0

>  <SCORE.INTER.ROT>
11

>  <SCORE.INTER.SOLV>
4.03422

>  <SCORE.INTER.VDW>
-6.48491

>  <SCORE.INTER.norm>
0.620696

>  <SCORE.INTRA>
-8.57518

>  <SCORE.INTRA.DIHEDRAL>
-18.6204

>  <SCORE.INTRA.DIHEDRAL.0>
20.2131

>  <SCORE.INTRA.POLAR>
0

>  <SCORE.INTRA.POLAR.0>
0

>  <SCORE.INTRA.REPUL>
0

>  <SCORE.INTRA.REPUL.0>
0

>  <SCORE.INTRA.SOLV>
0.541488

>  <SCORE.INTRA.SOLV.lig_0>
-48.2851

>  <SCORE.INTRA.VDW>
0.464255

>  <SCORE.INTRA.VDW.0>
-1.08658

>  <SCORE.INTRA.norm>
-0.612513

>  <SCORE.RESTR>
0.0178408

>  <SCORE.RESTR.CAVITY>
0.0178408

>  <SCORE.RESTR.norm>
0.00127434

>  <SCORE.SYSTEM>
0

>  <SCORE.SYSTEM.CONST>
0

>  <SCORE.SYSTEM.DIHEDRAL>
0

>  <SCORE.SYSTEM.SOLV>
0

>  <SCORE.SYSTEM.norm>
0

>  <SCORE.heavy>
14

>  <SCORE.norm>
0.00945779

>  <RMSD>
1.958

$$$$
ligand
 OpenBabel11021811393D
libRbt.so/2013.1/901 2013/11/27
 14 13  0  0  0  0  0  0  0  0999 V2000
   37.4563   21.0172   32.9023 N   0  0  0  0  0  0  0  0  0  0  0  0
   37.1405   20.9654   34.3214 C   0  0  0  0  0  0  0  0  0  0  0  0
   38.3702   21.4091   35.1609 C   0  0  0  0  0  0  0  0  0  0  0  0
   38.2268   21.4220   36.7244 C   0  0  0  0  0  0  0  0  0  0  0  0
   39.4323   21.9215   37.4819 N   0  0  0  0  0  0  0  0  0  0  0  0
   40.4111   20.8509   37.8303 C   0  0  0  0  0  0  0  0  0  0  0  0
   41.7718   21.0235   37.1803 C   0  0  0  0  0  0  0  0  0  0  0  0
   42.4477   22.3230   37.5785 C   0  0  0  0  0  0  0  0  0  0  0  0
   43.7258   22.4009   36.8351 C   0  0  0  0  0  0  0  0  0  0  0  0
   44.4511   23.6892   36.9462 N   0  0  0  0  0  0  0  0  0  0  0  0
   45.4262   23.9202   35.8510 C   0  0  0  0  0  0  0  0  0  0  0  0
   46.0895   25.3293   35.8161 C   0  0  0  0  0  0  0  0  0  0  0  0
   44.9861   26.3735   35.5706 C   0  0  0  0  0  0  0  0  0  0  0  0
   44.4156   26.2165   34.2352 N   0  0  0  0  0  0  0  0  0  0  0  0
  1  2  1  0  0  0  0
  2  3  1  0  0  0  0
  3  4  1  0  0  0  0
  4  5  1  0  0  0  0
  5  6  1  0  0  0  0
  6  7  1  0  0  0  0
  7  8  1  0  0  0  0
  8  9  1  0  0  0  0
  9 10  1  0  0  0  0
 10 11  1  0  0  0  0
 11 12  1  0  0  0  0
 12 13  1  0  0  0  0
 13 14  1  0  0  0  0
M  END
>  <CHROM.1>
179.94285489,-177.32401996,-89.52905818,116.63536657,60.36226360,-177.39614085
171.96649870,-159.20461918,172.73745097,-63.28647844,-66.58917746,41.73947278
22.77570177,36.03128065,2.91604865,0.46506870,2.16346291

>  <Name>
ligand

>  <RI>
0

>  <Rbt.Current_Directory>
/home/itssahil/PROJECTS/Mol_Feturizer/New_Systems/rnas/1EVV

>  <Rbt.Executable>
rbdock ($Id: //depot/dev/client3/rdock/2013.1/src/exe/rbdock.cxx#4 $)

>  <Rbt.Library>
libRbt.so (2013.1, Build901 2013/11/27)

>  <Rbt.Parameter_File>
/export/apps/rDock/src/rDock_2013.1_src/data/scripts/dock_solv.prm

>  <Rbt.Receptor>
prm/pocket_docking_3.prm

>  <SCORE>
-1.5889

>  <SCORE.INTER>
6.89718

>  <SCORE.INTER.CONST>
1

>  <SCORE.INTER.POLAR>
0

>  <SCORE.INTER.ROT>
11

>  <SCORE.INTER.SOLV>
4.32733

>  <SCORE.INTER.VDW>
-7.77766

>  <SCORE.INTER.norm>
0.492656

>  <SCORE.INTRA>
-8.48608

>  <SCORE.INTRA.DIHEDRAL>
-17.5725

>  <SCORE.INTRA.DIHEDRAL.0>
20.2131

>  <SCORE.INTRA.POLAR>
0

>  <SCORE.INTRA.POLAR.0>
0

>  <SCORE.INTRA.REPUL>
0

>  <SCORE.INTRA.REPUL.0>
0

>  <SCORE.INTRA.SOLV>
0.768255

>  <SCORE.INTRA.SOLV.lig_0>
-48.2851

>  <SCORE.INTRA.VDW>
-0.0839467

>  <SCORE.INTRA.VDW.0>
-1.08658

>  <SCORE.INTRA.norm>
-0.606149

>  <SCORE.RESTR>
0

>  <SCORE.RESTR.CAVITY>
0

>  <SCORE.RESTR.norm>
0

>  <SCORE.SYSTEM>
0

>  <SCORE.SYSTEM.CONST>
0

>  <SCORE.SYSTEM.DIHEDRAL>
0

>  <SCORE.SYSTEM.SOLV>
0

>  <SCORE.SYSTEM.norm>
0

>  <SCORE.heavy>
14

>  <SCORE.norm>
-0.113493

>  <RMSD>
2.026

$$$$
ligand
 OpenBabel11021811393D
libRbt.so/2013.1/901 2013/11/27
 14 13  0  0  0  0  0  0  0  0999 V2000
   44.7731   25.5979   34.1983 N   0  0  0  0  0  0  0  0  0  0  0  0
   45.2741   25.5297   35.5623 C   0  0  0  0  0  0  0  0  0  0  0  0
   44.1002   25.6585   36.5718 C   0  0  0  0  0  0  0  0  0  0  0  0
   43.0163   24.5227   36.5876 C   0  0  0  0  0  0  0  0  0  0  0  0
   43.5063   23.1650   37.0272 N   0  0  0  0  0  0  0  0  0  0  0  0
   42.6678   22.0334   36.5354 C   0  0  0  0  0  0  0  0  0  0  0  0
   43.0970   20.6746   37.0581 C   0  0  0  0  0  0  0  0  0  0  0  0
   42.3179   19.5345   36.4276 C   0  0  0  0  0  0  0  0  0  0  0  0
   40.9672   19.5355   37.0340 C   0  0  0  0  0  0  0  0  0  0  0  0
   40.0163   18.5445   36.4754 N   0  0  0  0  0  0  0  0  0  0  0  0
   38.7714   18.3994   37.2709 C   0  0  0  0  0  0  0  0  0  0  0  0
   37.4405   18.6693   36.5076 C   0  0  0  0  0  0  0  0  0  0  0  0
   37.4104   20.1542   36.1049 C   0  0  0  0  0  0  0  0  0  0  0  0
   38.3349   20.4084   35.0030 N   0  0  0  0  0  0  0  0  0  0  0  0
  1  2  1  0  0  0  0
  2  3  1  0  0  0  0
  3  4  1  0  0  0  0
  4  5  1  0  0  0  0
  5  6  1  0  0  0  0
  6  7  1  0  0  0  0
  7  8  1  0  0  0  0
  8  9  1  0  0  0  0
  9 10  1  0  0  0  0
 10 11  1  0  0  0  0
 11 12  1  0  0  0  0
 12 13  1  0  0  0  0
 13 14  1  0  0  0  0
M  END
>  <CHROM.1>
64.58238143,65.42625218,-156.91181918,-175.75848317,-174.02057892,-74.74861412
175.90261375,169.06464131,122.39270125,-65.49105906,73.59025630,41.54947964
21.60184619,36.31197895,0.77284266,-0.25161312,-0.35383586

>  <Name>
ligand

>  <RI>
0

>  <Rbt.Current_Directory>
/home/itssahil/PROJECTS/Mol_Feturizer/New_Systems/rnas/1EVV

>  <Rbt.Executable>
rbdock ($Id: //depot/dev/client3/rdock/2013.1/src/exe/rbdock.cxx#4 $)

>  <Rbt.Library>
libRbt.so (2013.1, Build901 2013/11/27)

>  <Rbt.Parameter_File>
/export/apps/rDock/src/rDock_2013.1_src/data/scripts/dock_solv.prm

>  <Rbt.Receptor>
prm/pocket_docking_2.prm

>  <SCORE>
1.90376

>  <SCORE.INTER>
8.05888

>  <SCORE.INTER.CONST>
1

>  <SCORE.INTER.POLAR>
0

>  <SCORE.INTER.ROT>
11

>  <SCORE.INTER.SOLV>
3.14381

>  <SCORE.INTER.VDW>
-6.60868

>  <SCORE.INTER.norm>
0.575635

>  <SCORE.INTRA>
-6.15512

>  <SCORE.INTRA.DIHEDRAL>
-16.4817

>  <SCORE.INTRA.DIHEDRAL.0>
20.2131

>  <SCORE.INTRA.POLAR>
0

>  <SCORE.INTRA.POLAR.0>
0

>  <SCORE.INTRA.REPUL>
0

>  <SCORE.INTRA.REPUL.0>
0

>  <SCORE.INTRA.SOLV>
3.83291

>  <SCORE.INTRA.SOLV.lig_0>
-48.2851

>  <SCORE.INTRA.VDW>
0.169254

>  <SCORE.INTRA.VDW.0>
-1.08658

>  <SCORE.INTRA.norm>
-0.439652

>  <SCORE.RESTR>
0

>  <SCORE.RESTR.CAVITY>
0

>  <SCORE.RESTR.norm>
0

>  <SCORE.SYSTEM>
0

>  <SCORE.SYSTEM.CONST>
0

>  <SCORE.SYSTEM.DIHEDRAL>
0

>  <SCORE.SYSTEM.SOLV>
0

>  <SCORE.SYSTEM.norm>
0

>  <SCORE.heavy>
14

>  <SCORE.norm>
0.135983

>  <RMSD>
2.065

$$$$
ligand
 OpenBabel11021811393D
libRbt.so/2013.1/901 2013/11/27
 14 13  0  0  0  0  0  0  0  0999 V2000
   37.0646   19.7366   32.9706 N   0  0  0  0  0  0  0  0  0  0  0  0
   38.0013   19.4262   34.0395 C   0  0  0  0  0  0  0  0  0  0  0  0
   37.5825   20.1528   35.3473 C   0  0  0  0  0  0  0  0  0  0  0  0
   38.5240   20.0185   36.5966 C   0  0  0  0  0  0  0  0  0  0  0  0
   39.9426   20.4907   36.3931 N   0  0  0  0  0  0  0  0  0  0  0  0
   40.7142   20.6444   37.6606 C   0  0  0  0  0  0  0  0  0  0  0  0
   42.0413   21.3616   37.4920 C   0  0  0  0  0  0  0  0  0  0  0  0
   41.8840   22.7440   36.8850 C   0  0  0  0  0  0  0  0  0  0  0  0
   43.2208   23.3807   36.8867 C   0  0  0  0  0  0  0  0  0  0  0  0
   43.2961   24.7080   36.2303 N   0  0  0  0  0  0  0  0  0  0  0  0
   44.5195   25.4747   36.5756 C   0  0  0  0  0  0  0  0  0  0  0  0
   45.4118   25.9095   35.3750 C   0  0  0  0  0  0  0  0  0  0  0  0
   44.6008   26.8826   34.5013 C   0  0  0  0  0  0  0  0  0  0  0  0
   45.4223   27.4049   33.4124 N   0  0  0  0  0  0  0  0  0  0  0  0
  1  2  1  0  0  0  0
  2  3  1  0  0  0  0
  3  4  1  0  0  0  0
  4  5  1  0  0  0  0
  5  6  1  0  0  0  0
  6  7  1  0  0  0  0
  7  8  1  0  0  0  0
  8  9  1  0  0  0  0
  9 10  1  0  0  0  0
 10 11  1  0  0  0  0
 11 12  1  0  0  0  0
 12 13  1  0  0  0  0
 13 14  1  0  0  0  0
M  END
>  <CHROM.1>
-176.08335271,58.08834054,166.67739292,-169.06278615,57.30348507,174.98973421
175.37477215,163.73039618,122.68242080,63.88286666,175.69091567,41.58762487
22.73809428,35.74083751,2.79365956,0.69513997,2.08031417

>  <Name>
ligand

>  <RI>
0

>  <Rbt.Current_Directory>
/home/itssahil/PROJECTS/Mol_Feturizer/New_Systems/rnas/1EVV

>  <Rbt.Executable>
rbdock ($Id: //depot/dev/client3/rdock/2013.1/src/exe/rbdock.cxx#4 $)

>  <Rbt.Library>
libRbt.so (2013.1, Build901 2013/11/27)

>  <Rbt.Parameter_File>
/export/apps/rDock/src/rDock_2013.1_src/data/scripts/dock_solv.prm

>  <Rbt.Receptor>
prm/pocket_docking_2.prm

>  <SCORE>
-0.607623

>  <SCORE.INTER>
8.81089

>  <SCORE.INTER.CONST>
1

>  <SCORE.INTER.POLAR>
0

>  <SCORE.INTER.ROT>
11

>  <SCORE.INTER.SOLV>
5.27734

>  <SCORE.INTER.VDW>
-6.81852

>  <SCORE.INTER.norm>
0.629349

>  <SCORE.INTRA>
-9.4368

>  <SCORE.INTRA.DIHEDRAL>
-18.1672

>  <SCORE.INTRA.DIHEDRAL.0>
20.2131

>  <SCORE.INTRA.POLAR>
0

>  <SCORE.INTRA.POLAR.0>
0

>  <SCORE.INTRA.REPUL>
0

>  <SCORE.INTRA.REPUL.0>
0

>  <SCORE.INTRA.SOLV>
-0.369005

>  <SCORE.INTRA.SOLV.lig_0>
-48.2851

>  <SCORE.INTRA.VDW>
-0.168709

>  <SCORE.INTRA.VDW.0>
-1.08658

>  <SCORE.INTRA.norm>
-0.674057

>  <SCORE.RESTR>
0.0182862

>  <SCORE.RESTR.CAVITY>
0.0182862

>  <SCORE.RESTR.norm>
0.00130616

>  <SCORE.SYSTEM>
0

>  <SCORE.SYSTEM.CONST>
0

>  <SCORE.SYSTEM.DIHEDRAL>
0

>  <SCORE.SYSTEM.SOLV>
0

>  <SCORE.SYSTEM.norm>
0

>  <SCORE.heavy>
14

>  <SCORE.norm>
-0.0434016

>  <RMSD>
2.065

$$$$
ligand
 OpenBabel11021811393D
libRbt.so/2013.1/901 2013/11/27
 14 13  0  0  0  0  0  0  0  0999 V2000
   37.3996   21.9058   32.9173 N   0  0  0  0  0  0  0  0  0  0  0  0
   37.8325   21.6589   34.2839 C   0  0  0  0  0  0  0  0  0  0  0  0
   36.9969   20.5093   34.9117 C   0  0  0  0  0  0  0  0  0  0  0  0
   37.3704   20.0361   36.3615 C   0  0  0  0  0  0  0  0  0  0  0  0
   38.7800   19.5264   36.5341 N   0  0  0  0  0  0  0  0  0  0  0  0
   38.8647   18.2181   37.2461 C   0  0  0  0  0  0  0  0  0  0  0  0
   40.2161   17.5372   37.1271 C   0  0  0  0  0  0  0  0  0  0  0  0
   41.3464   18.3828   37.6852 C   0  0  0  0  0  0  0  0  0  0  0  0
   41.6799   19.4019   36.6641 C   0  0  0  0  0  0  0  0  0  0  0  0
   42.6198   20.4612   37.1032 N   0  0  0  0  0  0  0  0  0  0  0  0
   42.5784   21.6816   36.2589 C   0  0  0  0  0  0  0  0  0  0  0  0
   43.4206   22.8895   36.7669 C   0  0  0  0  0  0  0  0  0  0  0  0
   43.2355   24.0539   35.7780 C   0  0  0  0  0  0  0  0  0  0  0  0
   43.9848   25.2280   36.2179 N   0  0  0  0  0  0  0  0  0  0  0  0
  1  2  1  0  0  0  0
  2  3  1  0  0  0  0
  3  4  1  0  0  0  0
  4  5  1  0  0  0  0
  5  6  1  0  0  0  0
  6  7  1  0  0  0  0
  7  8  1  0  0  0  0
  8  9  1  0  0  0  0
  9 10  1  0  0  0  0
 10 11  1  0  0  0  0
 11 12  1  0  0  0  0
 12 13  1  0  0  0  0
 13 14  1  0  0  0  0
M  END
>  <CHROM.1>
176.54610932,-59.29967506,-131.27232811,165.76021646,59.58700172,-78.97581588
170.87502498,-160.42623509,173.14798411,-179.22674835,178.91513379,40.45173213
20.82036993,36.13273685,2.65703001,0.40058292,2.66651237

>  <Name>
ligand

>  <RI>
0

>  <Rbt.Current_Directory>
/home/itssahil/PROJECTS/Mol_Feturizer/New_Systems/rnas/1EVV

>  <Rbt.Executable>
rbdock ($Id: //depot/dev/client3/rdock/2013.1/src/exe/rbdock.cxx#4 $)

>  <Rbt.Library>
libRbt.so (2013.1, Build901 2013/11/27)

>  <Rbt.Parameter_File>
/export/apps/rDock/src/rDock_2013.1_src/data/scripts/dock_solv.prm

>  <Rbt.Receptor>
prm/pocket_docking_2.prm

>  <SCORE>
-0.351538

>  <SCORE.INTER>
7.58039

>  <SCORE.INTER.CONST>
1

>  <SCORE.INTER.POLAR>
0

>  <SCORE.INTER.ROT>
11

>  <SCORE.INTER.SOLV>
3.38898

>  <SCORE.INTER.VDW>
-7.0094

>  <SCORE.INTER.norm>
0.541457

>  <SCORE.INTRA>
-7.96149

>  <SCORE.INTRA.DIHEDRAL>
-16.8753

>  <SCORE.INTRA.DIHEDRAL.0>
20.2131

>  <SCORE.INTRA.POLAR>
0

>  <SCORE.INTRA.POLAR.0>
0

>  <SCORE.INTRA.REPUL>
0

>  <SCORE.INTRA.REPUL.0>
0

>  <SCORE.INTRA.SOLV>
0.302316

>  <SCORE.INTRA.SOLV.lig_0>
-48.2851

>  <SCORE.INTRA.VDW>
0.325016

>  <SCORE.INTRA.VDW.0>
-1.08658

>  <SCORE.INTRA.norm>
-0.568678

>  <SCORE.RESTR>
0.0295563

>  <SCORE.RESTR.CAVITY>
0.0295563

>  <SCORE.RESTR.norm>
0.00211116

>  <SCORE.SYSTEM>
0

>  <SCORE.SYSTEM.CONST>
0

>  <SCORE.SYSTEM.DIHEDRAL>
0

>  <SCORE.SYSTEM.SOLV>
0

>  <SCORE.SYSTEM.norm>
0

>  <SCORE.heavy>
14

>  <SCORE.norm>
-0.0251099

>  <RMSD>
2.075

$$$$
ligand
 OpenBabel11021811393D
libRbt.so/2013.1/901 2013/11/27
 14 13  0  0  0  0  0  0  0  0999 V2000
   44.3837   27.3696   34.8034 N   0  0  0  0  0  0  0  0  0  0  0  0
   45.1116   26.4050   33.9936 C   0  0  0  0  0  0  0  0  0  0  0  0
   44.9663   24.9805   34.5965 C   0  0  0  0  0  0  0  0  0  0  0  0
   43.5284   24.3532   34.6618 C   0  0  0  0  0  0  0  0  0  0  0  0
   43.4583   22.9483   35.2076 N   0  0  0  0  0  0  0  0  0  0  0  0
   43.3188   22.8846   36.6915 C   0  0  0  0  0  0  0  0  0  0  0  0
   43.4261   21.4820   37.2619 C   0  0  0  0  0  0  0  0  0  0  0  0
   42.2762   20.5887   36.8333 C   0  0  0  0  0  0  0  0  0  0  0  0
   41.0789   21.0173   37.5917 C   0  0  0  0  0  0  0  0  0  0  0  0
   39.8666   20.1873   37.3926 N   0  0  0  0  0  0  0  0  0  0  0  0
   38.8164   20.8520   36.5807 C   0  0  0  0  0  0  0  0  0  0  0  0
   37.4605   20.0933   36.4688 C   0  0  0  0  0  0  0  0  0  0  0  0
   37.7232   18.7379   35.7891 C   0  0  0  0  0  0  0  0  0  0  0  0
   38.1781   18.9301   34.4145 N   0  0  0  0  0  0  0  0  0  0  0  0
  1  2  1  0  0  0  0
  2  3  1  0  0  0  0
  3  4  1  0  0  0  0
  4  5  1  0  0  0  0
  5  6  1  0  0  0  0
  6  7  1  0  0  0  0
  7  8  1  0  0  0  0
  8  9  1  0  0  0  0
  9 10  1  0  0  0  0
 10 11  1  0  0  0  0
 11 12  1  0  0  0  0
 12 13  1  0  0  0  0
 13 14  1  0  0  0  0
M  END
>  <CHROM.1>
62.88595971,177.72709837,87.95340246,-172.58409319,-66.15245757,-73.75378896
-175.20965105,-107.51709925,-173.55026669,-61.33205888,-64.85147360,41.68531147
22.20205851,35.87781316,0.66767319,-0.46248899,-0.75116377

>  <Name>
ligand

>  <RI>
0

>  <Rbt.Current_Directory>
/home/itssahil/PROJECTS/Mol_Feturizer/New_Systems/rnas/1EVV

>  <Rbt.Executable>
rbdock ($Id: //depot/dev/client3/rdock/2013.1/src/exe/rbdock.cxx#4 $)

>  <Rbt.Library>
libRbt.so (2013.1, Build901 2013/11/27)

>  <Rbt.Parameter_File>
/export/apps/rDock/src/rDock_2013.1_src/data/scripts/dock_solv.prm

>  <Rbt.Receptor>
prm/pocket_docking_2.prm

>  <SCORE>
0.876288

>  <SCORE.INTER>
7.95905

>  <SCORE.INTER.CONST>
1

>  <SCORE.INTER.POLAR>
0

>  <SCORE.INTER.ROT>
11

>  <SCORE.INTER.SOLV>
3.85941

>  <SCORE.INTER.VDW>
-6.91377

>  <SCORE.INTER.norm>
0.568504

>  <SCORE.INTRA>
-7.0886

>  <SCORE.INTRA.DIHEDRAL>
-17.3881

>  <SCORE.INTRA.DIHEDRAL.0>
20.2131

>  <SCORE.INTRA.POLAR>
0

>  <SCORE.INTRA.POLAR.0>
0

>  <SCORE.INTRA.REPUL>
0

>  <SCORE.INTRA.REPUL.0>
0

>  <SCORE.INTRA.SOLV>
1.75064

>  <SCORE.INTRA.SOLV.lig_0>
-48.2851

>  <SCORE.INTRA.VDW>
0.730104

>  <SCORE.INTRA.VDW.0>
-1.08658

>  <SCORE.INTRA.norm>
-0.506329

>  <SCORE.RESTR>
0.00584058

>  <SCORE.RESTR.CAVITY>
0.00584058

>  <SCORE.RESTR.norm>
0.000417184

>  <SCORE.SYSTEM>
0

>  <SCORE.SYSTEM.CONST>
0

>  <SCORE.SYSTEM.DIHEDRAL>
0

>  <SCORE.SYSTEM.SOLV>
0

>  <SCORE.SYSTEM.norm>
0

>  <SCORE.heavy>
14

>  <SCORE.norm>
0.062592

>  <RMSD>
2.146

$$$$
ligand
 OpenBabel11021811393D
libRbt.so/2013.1/901 2013/11/27
 14 13  0  0  0  0  0  0  0  0999 V2000
   37.6509   20.7267   33.7706 N   0  0  0  0  0  0  0  0  0  0  0  0
   37.0023   20.5423   35.0596 C   0  0  0  0  0  0  0  0  0  0  0  0
   38.0440   20.1058   36.1264 C   0  0  0  0  0  0  0  0  0  0  0  0
   39.2281   21.0874   36.4424 C   0  0  0  0  0  0  0  0  0  0  0  0
   40.2612   20.5664   37.4108 N   0  0  0  0  0  0  0  0  0  0  0  0
   41.6612   20.6532   36.9029 C   0  0  0  0  0  0  0  0  0  0  0  0
   42.5208   21.6689   37.6333 C   0  0  0  0  0  0  0  0  0  0  0  0
   42.0012   23.0874   37.4842 C   0  0  0  0  0  0  0  0  0  0  0  0
   42.4092   23.5676   36.1443 C   0  0  0  0  0  0  0  0  0  0  0  0
   43.8703   23.7048   35.9334 N   0  0  0  0  0  0  0  0  0  0  0  0
   44.2275   24.5941   34.7997 C   0  0  0  0  0  0  0  0  0  0  0  0
   45.4994   25.4716   34.9975 C   0  0  0  0  0  0  0  0  0  0  0  0
   45.6670   26.3618   33.7535 C   0  0  0  0  0  0  0  0  0  0  0  0
   44.5946   27.3506   33.6789 N   0  0  0  0  0  0  0  0  0  0  0  0
  1  2  1  0  0  0  0
  2  3  1  0  0  0  0
  3  4  1  0  0  0  0
  4  5  1  0  0  0  0
  5  6  1  0  0  0  0
  6  7  1  0  0  0  0
  7  8  1  0  0  0  0
  8  9  1  0  0  0  0
  9 10  1  0  0  0  0
 10 11  1  0  0  0  0
 11 12  1  0  0  0  0
 12 13  1  0  0  0  0
 13 14  1  0  0  0  0
M  END
>  <CHROM.1>
61.26546519,-175.70022436,127.42567876,111.13573252,-62.49252544,-78.43658097
-64.94171596,-160.42122497,143.62030173,-177.49051228,67.87523741,41.75988782
22.82049559,35.72432439,2.61351268,0.48699059,2.22791196

>  <Name>
ligand

>  <RI>
0

>  <Rbt.Current_Directory>
/home/itssahil/PROJECTS/Mol_Feturizer/New_Systems/rnas/1EVV

>  <Rbt.Executable>
rbdock ($Id: //depot/dev/client3/rdock/2013.1/src/exe/rbdock.cxx#4 $)

>  <Rbt.Library>
libRbt.so (2013.1, Build901 2013/11/27)

>  <Rbt.Parameter_File>
/export/apps/rDock/src/rDock_2013.1_src/data/scripts/dock_solv.prm

>  <Rbt.Receptor>
prm/pocket_docking_2.prm

>  <SCORE>
1.73421

>  <SCORE.INTER>
8.20726

>  <SCORE.INTER.CONST>
1

>  <SCORE.INTER.POLAR>
0

>  <SCORE.INTER.ROT>
11

>  <SCORE.INTER.SOLV>
4.48358

>  <SCORE.INTER.VDW>
-6.95635

>  <SCORE.INTER.norm>
0.586233

>  <SCORE.INTRA>
-6.47306

>  <SCORE.INTRA.DIHEDRAL>
-15.0715

>  <SCORE.INTRA.DIHEDRAL.0>
20.2131

>  <SCORE.INTRA.POLAR>
0

>  <SCORE.INTRA.POLAR.0>
0

>  <SCORE.INTRA.REPUL>
0

>  <SCORE.INTRA.REPUL.0>
0

>  <SCORE.INTRA.SOLV>
1.22022

>  <SCORE.INTRA.SOLV.lig_0>
-48.2851

>  <SCORE.INTRA.VDW>
0.452556

>  <SCORE.INTRA.VDW.0>
-1.08658

>  <SCORE.INTRA.norm>
-0.462361

>  <SCORE.RESTR>
0

>  <SCORE.RESTR.CAVITY>
0

>  <SCORE.RESTR.norm>
0

>  <SCORE.SYSTEM>
0

>  <SCORE.SYSTEM.CONST>
0

>  <SCORE.SYSTEM.DIHEDRAL>
0

>  <SCORE.SYSTEM.SOLV>
0

>  <SCORE.SYSTEM.norm>
0

>  <SCORE.heavy>
14

>  <SCORE.norm>
0.123872

>  <RMSD>
2.167

$$$$
ligand
 OpenBabel11021811393D
libRbt.so/2013.1/901 2013/11/27
 14 13  0  0  0  0  0  0  0  0999 V2000
   37.7065   19.7107   34.6633 N   0  0  0  0  0  0  0  0  0  0  0  0
   37.4269   19.9601   36.0689 C   0  0  0  0  0  0  0  0  0  0  0  0
   37.6315   18.6605   36.8952 C   0  0  0  0  0  0  0  0  0  0  0  0
   39.0816   18.0645   36.9807 C   0  0  0  0  0  0  0  0  0  0  0  0
   40.1245   18.9789   37.5748 N   0  0  0  0  0  0  0  0  0  0  0  0
   41.2858   19.2341   36.6738 C   0  0  0  0  0  0  0  0  0  0  0  0
   42.1288   20.4301   37.0774 C   0  0  0  0  0  0  0  0  0  0  0  0
   41.3401   21.7271   37.0742 C   0  0  0  0  0  0  0  0  0  0  0  0
   42.3129   22.8348   37.2119 C   0  0  0  0  0  0  0  0  0  0  0  0
   43.2684   22.9881   36.0886 N   0  0  0  0  0  0  0  0  0  0  0  0
   43.9842   24.2885   36.0887 C   0  0  0  0  0  0  0  0  0  0  0  0
   45.0379   24.4857   34.9584 C   0  0  0  0  0  0  0  0  0  0  0  0
   45.6881   25.8681   35.1436 C   0  0  0  0  0  0  0  0  0  0  0  0
   44.7004   26.9299   34.9693 N   0  0  0  0  0  0  0  0  0  0  0  0
  1  2  1  0  0  0  0
  2  3  1  0  0  0  0
  3  4  1  0  0  0  0
  4  5  1  0  0  0  0
  5  6  1  0  0  0  0
  6  7  1  0  0  0  0
  7  8  1  0  0  0  0
  8  9  1  0  0  0  0
  9 10  1  0  0  0  0
 10 11  1  0  0  0  0
 11 12  1  0  0  0  0
 12 13  1  0  0  0  0
 13 14  1  0  0  0  0
M  END
>  <CHROM.1>
64.91099422,59.27879271,-122.81108835,163.61378677,-60.66741629,-168.83705546
64.35313759,165.24705190,177.96958590,-178.77968869,-64.05287297,41.55129120
21.72561950,36.24794580,2.40651149,0.35984317,2.59559104

>  <Name>
ligand

>  <RI>
0

>  <Rbt.Current_Directory>
/home/itssahil/PROJECTS/Mol_Feturizer/New_Systems/rnas/1EVV

>  <Rbt.Executable>
rbdock ($Id: //depot/dev/client3/rdock/2013.1/src/exe/rbdock.cxx#4 $)

>  <Rbt.Library>
libRbt.so (2013.1, Build901 2013/11/27)

>  <Rbt.Parameter_File>
/export/apps/rDock/src/rDock_2013.1_src/data/scripts/dock_solv.prm

>  <Rbt.Receptor>
prm/pocket_docking_2.prm

>  <SCORE>
-0.704064

>  <SCORE.INTER>
7.34862

>  <SCORE.INTER.CONST>
1

>  <SCORE.INTER.POLAR>
0

>  <SCORE.INTER.ROT>
11

>  <SCORE.INTER.SOLV>
5.41959

>  <SCORE.INTER.VDW>
-7.84078

>  <SCORE.INTER.norm>
0.524902

>  <SCORE.INTRA>
-8.05269

>  <SCORE.INTRA.DIHEDRAL>
-17.897

>  <SCORE.INTRA.DIHEDRAL.0>
20.2131

>  <SCORE.INTRA.POLAR>
0

>  <SCORE.INTRA.POLAR.0>
0

>  <SCORE.INTRA.REPUL>
0

>  <SCORE.INTRA.REPUL.0>
0

>  <SCORE.INTRA.SOLV>
2.15969

>  <SCORE.INTRA.SOLV.lig_0>
-48.2851

>  <SCORE.INTRA.VDW>
-0.184015

>  <SCORE.INTRA.VDW.0>
-1.08658

>  <SCORE.INTRA.norm>
-0.575192

>  <SCORE.RESTR>
0

>  <SCORE.RESTR.CAVITY>
0

>  <SCORE.RESTR.norm>
0

>  <SCORE.SYSTEM>
0

>  <SCORE.SYSTEM.CONST>
0

>  <SCORE.SYSTEM.DIHEDRAL>
0

>  <SCORE.SYSTEM.SOLV>
0

>  <SCORE.SYSTEM.norm>
0

>  <SCORE.heavy>
14

>  <SCORE.norm>
-0.0502903

>  <RMSD>
2.168

$$$$
ligand
 OpenBabel11021811393D
libRbt.so/2013.1/901 2013/11/27
 14 13  0  0  0  0  0  0  0  0999 V2000
   37.6885   21.9094   34.3834 N   0  0  0  0  0  0  0  0  0  0  0  0
   37.0426   20.6391   34.6757 C   0  0  0  0  0  0  0  0  0  0  0  0
   37.1816   20.3019   36.1859 C   0  0  0  0  0  0  0  0  0  0  0  0
   38.6275   20.1016   36.7643 C   0  0  0  0  0  0  0  0  0  0  0  0
   39.5538   21.2836   36.6178 N   0  0  0  0  0  0  0  0  0  0  0  0
   40.7679   21.2084   37.4815 C   0  0  0  0  0  0  0  0  0  0  0  0
   41.8262   22.2448   37.1500 C   0  0  0  0  0  0  0  0  0  0  0  0
   43.0219   22.1761   38.0826 C   0  0  0  0  0  0  0  0  0  0  0  0
   43.9664   23.2380   37.6672 C   0  0  0  0  0  0  0  0  0  0  0  0
   44.5993   23.0457   36.3403 N   0  0  0  0  0  0  0  0  0  0  0  0
   45.8681   23.7973   36.1710 C   0  0  0  0  0  0  0  0  0  0  0  0
   45.7889   25.0757   35.2844 C   0  0  0  0  0  0  0  0  0  0  0  0
   44.9117   26.1105   36.0110 C   0  0  0  0  0  0  0  0  0  0  0  0
   44.7318   27.3031   35.1871 N   0  0  0  0  0  0  0  0  0  0  0  0
  1  2  1  0  0  0  0
  2  3  1  0  0  0  0
  3  4  1  0  0  0  0
  4  5  1  0  0  0  0
  5  6  1  0  0  0  0
  6  7  1  0  0  0  0
  7  8  1  0  0  0  0
  8  9  1  0  0  0  0
  9 10  1  0  0  0  0
 10 11  1  0  0  0  0
 11 12  1  0  0  0  0
 12 13  1  0  0  0  0
 13 14  1  0  0  0  0
M  END
>  <CHROM.1>
-62.33191463,59.02638482,164.38621033,168.81392615,177.69367537,-179.37789446
-67.06655318,-158.20473841,-104.46561349,66.77401866,-176.45607897,41.82694373
22.74510899,36.28615675,2.75530122,0.39397837,2.43044406

>  <Name>
ligand

>  <RI>
0

>  <Rbt.Current_Directory>
/home/itssahil/PROJECTS/Mol_Feturizer/New_Systems/rnas/1EVV

>  <Rbt.Executable>
rbdock ($Id: //depot/dev/client3/rdock/2013.1/src/exe/rbdock.cxx#4 $)

>  <Rbt.Library>
libRbt.so (2013.1, Build901 2013/11/27)

>  <Rbt.Parameter_File>
/export/apps/rDock/src/rDock_2013.1_src/data/scripts/dock_solv.prm

>  <Rbt.Receptor>
prm/pocket_docking_3.prm

>  <SCORE>
-2.72132

>  <SCORE.INTER>
5.65301

>  <SCORE.INTER.CONST>
1

>  <SCORE.INTER.POLAR>
0

>  <SCORE.INTER.ROT>
11

>  <SCORE.INTER.SOLV>
4.66797

>  <SCORE.INTER.VDW>
-8.72065

>  <SCORE.INTER.norm>
0.403787

>  <SCORE.INTRA>
-8.37433

>  <SCORE.INTRA.DIHEDRAL>
-18.1094

>  <SCORE.INTRA.DIHEDRAL.0>
20.2131

>  <SCORE.INTRA.POLAR>
0

>  <SCORE.INTRA.POLAR.0>
0

>  <SCORE.INTRA.REPUL>
0

>  <SCORE.INTRA.REPUL.0>
0

>  <SCORE.INTRA.SOLV>
1.92278

>  <SCORE.INTRA.SOLV.lig_0>
-48.2851

>  <SCORE.INTRA.VDW>
-0.281019

>  <SCORE.INTRA.VDW.0>
-1.08658

>  <SCORE.INTRA.norm>
-0.598167

>  <SCORE.RESTR>
0

>  <SCORE.RESTR.CAVITY>
0

>  <SCORE.RESTR.norm>
0

>  <SCORE.SYSTEM>
0

>  <SCORE.SYSTEM.CONST>
0

>  <SCORE.SYSTEM.DIHEDRAL>
0

>  <SCORE.SYSTEM.SOLV>
0

>  <SCORE.SYSTEM.norm>
0

>  <SCORE.heavy>
14

>  <SCORE.norm>
-0.19438

>  <RMSD>
2.215

$$$$
ligand
 OpenBabel11021811393D
libRbt.so/2013.1/901 2013/11/27
 14 13  0  0  0  0  0  0  0  0999 V2000
   45.1413   25.2961   36.4486 N   0  0  0  0  0  0  0  0  0  0  0  0
   44.9104   23.9719   37.0048 C   0  0  0  0  0  0  0  0  0  0  0  0
   43.3873   23.7243   37.1853 C   0  0  0  0  0  0  0  0  0  0  0  0
   42.9284   22.3175   37.7103 C   0  0  0  0  0  0  0  0  0  0  0  0
   41.4363   22.0988   37.7592 N   0  0  0  0  0  0  0  0  0  0  0  0
   41.0357   20.6628   37.7063 C   0  0  0  0  0  0  0  0  0  0  0  0
   39.6249   20.4341   37.1951 C   0  0  0  0  0  0  0  0  0  0  0  0
   39.2511   18.9635   37.1528 C   0  0  0  0  0  0  0  0  0  0  0  0
   37.8295   18.8816   36.7472 C   0  0  0  0  0  0  0  0  0  0  0  0
   37.5571   19.1606   35.3167 N   0  0  0  0  0  0  0  0  0  0  0  0
   37.1511   20.5634   35.0502 C   0  0  0  0  0  0  0  0  0  0  0  0
   36.7310   20.8837   33.5848 C   0  0  0  0  0  0  0  0  0  0  0  0
   36.4154   22.3870   33.4932 C   0  0  0  0  0  0  0  0  0  0  0  0
   37.6334   23.1794   33.6424 N   0  0  0  0  0  0  0  0  0  0  0  0
  1  2  1  0  0  0  0
  2  3  1  0  0  0  0
  3  4  1  0  0  0  0
  4  5  1  0  0  0  0
  5  6  1  0  0  0  0
  6  7  1  0  0  0  0
  7  8  1  0  0  0  0
  8  9  1  0  0  0  0
  9 10  1  0  0  0  0
 10 11  1  0  0  0  0
 11 12  1  0  0  0  0
 12 13  1  0  0  0  0
 13 14  1  0  0  0  0
M  END
>  <CHROM.1>
177.06641123,-175.26434970,156.15372561,-156.39472334,179.93760869,175.47284090
73.94877796,-96.02481579,-174.81862613,-177.24199039,68.92947541,40.07363680
21.60857255,36.14277227,0.14920901,-0.50917518,-0.64744651

>  <Name>
ligand

>  <RI>
0

>  <Rbt.Current_Directory>
/home/itssahil/PROJECTS/Mol_Feturizer/New_Systems/rnas/1EVV

>  <Rbt.Executable>
rbdock ($Id: //depot/dev/client3/rdock/2013.1/src/exe/rbdock.cxx#4 $)

>  <Rbt.Library>
libRbt.so (2013.1, Build901 2013/11/27)

>  <Rbt.Parameter_File>
/export/apps/rDock/src/rDock_2013.1_src/data/scripts/dock_solv.prm

>  <Rbt.Receptor>
prm/pocket_docking_3.prm

>  <SCORE>
-2.84034

>  <SCORE.INTER>
5.8808

>  <SCORE.INTER.CONST>
1

>  <SCORE.INTER.POLAR>
0

>  <SCORE.INTER.ROT>
11

>  <SCORE.INTER.SOLV>
5.27568

>  <SCORE.INTER.VDW>
-8.77136

>  <SCORE.INTER.norm>
0.420057

>  <SCORE.INTRA>
-8.72114

>  <SCORE.INTRA.DIHEDRAL>
-17.3608

>  <SCORE.INTRA.DIHEDRAL.0>
20.2131

>  <SCORE.INTRA.POLAR>
0

>  <SCORE.INTRA.POLAR.0>
0

>  <SCORE.INTRA.REPUL>
0

>  <SCORE.INTRA.REPUL.0>
0

>  <SCORE.INTRA.SOLV>
-0.341813

>  <SCORE.INTRA.SOLV.lig_0>
-48.2851

>  <SCORE.INTRA.VDW>
0.130162

>  <SCORE.INTRA.VDW.0>
-1.08658

>  <SCORE.INTRA.norm>
-0.622939

>  <SCORE.RESTR>
0

>  <SCORE.RESTR.CAVITY>
0

>  <SCORE.RESTR.norm>
0

>  <SCORE.SYSTEM>
0

>  <SCORE.SYSTEM.CONST>
0

>  <SCORE.SYSTEM.DIHEDRAL>
0

>  <SCORE.SYSTEM.SOLV>
0

>  <SCORE.SYSTEM.norm>
0

>  <SCORE.heavy>
14

>  <SCORE.norm>
-0.202882

>  <RMSD>
2.324

$$$$
ligand
 OpenBabel11021811393D
libRbt.so/2013.1/901 2013/11/27
 14 13  0  0  0  0  0  0  0  0999 V2000
   38.7913   22.1965   35.1185 N   0  0  0  0  0  0  0  0  0  0  0  0
   37.9179   21.4914   34.1931 C   0  0  0  0  0  0  0  0  0  0  0  0
   36.9579   20.5510   34.9727 C   0  0  0  0  0  0  0  0  0  0  0  0
   37.5876   19.5510   36.0066 C   0  0  0  0  0  0  0  0  0  0  0  0
   38.7139   18.6967   35.4790 N   0  0  0  0  0  0  0  0  0  0  0  0
   38.9456   17.4513   36.2668 C   0  0  0  0  0  0  0  0  0  0  0  0
   39.6211   17.6850   37.6059 C   0  0  0  0  0  0  0  0  0  0  0  0
   41.0187   18.2595   37.4618 C   0  0  0  0  0  0  0  0  0  0  0  0
   40.8794   19.7266   37.3184 C   0  0  0  0  0  0  0  0  0  0  0  0
   42.1483   20.4743   37.1483 N   0  0  0  0  0  0  0  0  0  0  0  0
   42.0083   21.9386   37.3483 C   0  0  0  0  0  0  0  0  0  0  0  0
   43.2467   22.8002   36.9599 C   0  0  0  0  0  0  0  0  0  0  0  0
   42.8539   24.2838   37.0723 C   0  0  0  0  0  0  0  0  0  0  0  0
   43.9155   25.1392   36.5481 N   0  0  0  0  0  0  0  0  0  0  0  0
  1  2  1  0  0  0  0
  2  3  1  0  0  0  0
  3  4  1  0  0  0  0
  4  5  1  0  0  0  0
  5  6  1  0  0  0  0
  6  7  1  0  0  0  0
  7  8  1  0  0  0  0
  8  9  1  0  0  0  0
  9 10  1  0  0  0  0
 10 11  1  0  0  0  0
 11 12  1  0  0  0  0
 12 13  1  0  0  0  0
 13 14  1  0  0  0  0
M  END
>  <CHROM.1>
-51.83767033,-51.64007895,-158.43030861,-74.19300124,-63.27696826,84.19751165
-179.32867586,-165.50842793,-170.49047180,173.19214078,-172.34477691,40.32877168
20.73143264,36.39295964,2.46968806,0.48305481,2.80743890

>  <Name>
ligand

>  <RI>
0

>  <Rbt.Current_Directory>
/home/itssahil/PROJECTS/Mol_Feturizer/New_Systems/rnas/1EVV

>  <Rbt.Executable>
rbdock ($Id: //depot/dev/client3/rdock/2013.1/src/exe/rbdock.cxx#4 $)

>  <Rbt.Library>
libRbt.so (2013.1, Build901 2013/11/27)

>  <Rbt.Parameter_File>
/export/apps/rDock/src/rDock_2013.1_src/data/scripts/dock_solv.prm

>  <Rbt.Receptor>
prm/pocket_docking_2.prm

>  <SCORE>
1.04012

>  <SCORE.INTER>
7.75752

>  <SCORE.INTER.CONST>
1

>  <SCORE.INTER.POLAR>
0

>  <SCORE.INTER.ROT>
11

>  <SCORE.INTER.SOLV>
3.26223

>  <SCORE.INTER.VDW>
-6.84906

>  <SCORE.INTER.norm>
0.554109

>  <SCORE.INTRA>
-6.73252

>  <SCORE.INTRA.DIHEDRAL>
-16.3863

>  <SCORE.INTRA.DIHEDRAL.0>
20.2131

>  <SCORE.INTRA.POLAR>
0

>  <SCORE.INTRA.POLAR.0>
0

>  <SCORE.INTRA.REPUL>
0

>  <SCORE.INTRA.REPUL.0>
0

>  <SCORE.INTRA.SOLV>
2.86252

>  <SCORE.INTRA.SOLV.lig_0>
-48.2851

>  <SCORE.INTRA.VDW>
0.0293848

>  <SCORE.INTRA.VDW.0>
-1.08658

>  <SCORE.INTRA.norm>
-0.480894

>  <SCORE.RESTR>
0.0151155

>  <SCORE.RESTR.CAVITY>
0.0151155

>  <SCORE.RESTR.norm>
0.00107968

>  <SCORE.SYSTEM>
0

>  <SCORE.SYSTEM.CONST>
0

>  <SCORE.SYSTEM.DIHEDRAL>
0

>  <SCORE.SYSTEM.SOLV>
0

>  <SCORE.SYSTEM.norm>
0

>  <SCORE.heavy>
14

>  <SCORE.norm>
0.0742944

>  <RMSD>
2.326

$$$$
ligand
 OpenBabel11021811393D
libRbt.so/2013.1/901 2013/11/27
 14 13  0  0  0  0  0  0  0  0999 V2000
   43.4175   23.0254   32.9834 N   0  0  0  0  0  0  0  0  0  0  0  0
   43.2852   23.8356   34.1844 C   0  0  0  0  0  0  0  0  0  0  0  0
   44.0875   23.1983   35.3522 C   0  0  0  0  0  0  0  0  0  0  0  0
   44.0714   23.9308   36.7409 C   0  0  0  0  0  0  0  0  0  0  0  0
   42.7146   24.0659   37.3870 N   0  0  0  0  0  0  0  0  0  0  0  0
   42.3753   22.9485   38.3153 C   0  0  0  0  0  0  0  0  0  0  0  0
   41.9934   21.6577   37.6138 C   0  0  0  0  0  0  0  0  0  0  0  0
   40.7672   21.8137   36.7326 C   0  0  0  0  0  0  0  0  0  0  0  0
   39.5901   21.8995   37.6267 C   0  0  0  0  0  0  0  0  0  0  0  0
   38.2747   21.9618   36.9454 N   0  0  0  0  0  0  0  0  0  0  0  0
   37.8132   20.6521   36.4205 C   0  0  0  0  0  0  0  0  0  0  0  0
   37.0324   20.6957   35.0732 C   0  0  0  0  0  0  0  0  0  0  0  0
   37.9871   21.2094   33.9811 C   0  0  0  0  0  0  0  0  0  0  0  0
   37.2978   21.3045   32.6969 N   0  0  0  0  0  0  0  0  0  0  0  0
  1  2  1  0  0  0  0
  2  3  1  0  0  0  0
  3  4  1  0  0  0  0
  4  5  1  0  0  0  0
  5  6  1  0  0  0  0
  6  7  1  0  0  0  0
  7  8  1  0  0  0  0
  8  9  1  0  0  0  0
  9 10  1  0  0  0  0
 10 11  1  0  0  0  0
 11 12  1  0  0  0  0
 12 13  1  0  0  0  0
 13 14  1  0  0  0  0
M  END
>  <CHROM.1>
179.88666686,61.52383836,92.06217179,-75.30939897,-60.86765828,-74.02033237
-175.93638087,76.70156817,-144.16427881,64.13717035,-178.54447015,40.76495176
22.29979268,35.86130423,-0.16212565,-0.38885358,-1.54425718

>  <Name>
ligand

>  <RI>
0

>  <Rbt.Current_Directory>
/home/itssahil/PROJECTS/Mol_Feturizer/New_Systems/rnas/1EVV

>  <Rbt.Executable>
rbdock ($Id: //depot/dev/client3/rdock/2013.1/src/exe/rbdock.cxx#4 $)

>  <Rbt.Library>
libRbt.so (2013.1, Build901 2013/11/27)

>  <Rbt.Parameter_File>
/export/apps/rDock/src/rDock_2013.1_src/data/scripts/dock_solv.prm

>  <Rbt.Receptor>
prm/pocket_docking_3.prm

>  <SCORE>
-0.173056

>  <SCORE.INTER>
7.96183

>  <SCORE.INTER.CONST>
1

>  <SCORE.INTER.POLAR>
0

>  <SCORE.INTER.ROT>
11

>  <SCORE.INTER.SOLV>
2.88793

>  <SCORE.INTER.VDW>
-6.58809

>  <SCORE.INTER.norm>
0.568702

>  <SCORE.INTRA>
-8.13609

>  <SCORE.INTRA.DIHEDRAL>
-17.4356

>  <SCORE.INTRA.DIHEDRAL.0>
20.2131

>  <SCORE.INTRA.POLAR>
0

>  <SCORE.INTRA.POLAR.0>
0

>  <SCORE.INTRA.REPUL>
0

>  <SCORE.INTRA.REPUL.0>
0

>  <SCORE.INTRA.SOLV>
-0.08367

>  <SCORE.INTRA.SOLV.lig_0>
-48.2851

>  <SCORE.INTRA.VDW>
0.623524

>  <SCORE.INTRA.VDW.0>
-1.08658

>  <SCORE.INTRA.norm>
-0.58115

>  <SCORE.RESTR>
0.00121127

>  <SCORE.RESTR.CAVITY>
0.00121127

>  <SCORE.RESTR.norm>
8.65194e-05

>  <SCORE.SYSTEM>
0

>  <SCORE.SYSTEM.CONST>
0

>  <SCORE.SYSTEM.DIHEDRAL>
0

>  <SCORE.SYSTEM.SOLV>
0

>  <SCORE.SYSTEM.norm>
0

>  <SCORE.heavy>
14

>  <SCORE.norm>
-0.0123611

>  <RMSD>
2.340

$$$$
ligand
 OpenBabel11021811393D
libRbt.so/2013.1/901 2013/11/27
 14 13  0  0  0  0  0  0  0  0999 V2000
   43.0619   26.1772   34.5163 N   0  0  0  0  0  0  0  0  0  0  0  0
   44.1483   25.3842   33.9622 C   0  0  0  0  0  0  0  0  0  0  0  0
   44.8309   24.5526   35.0830 C   0  0  0  0  0  0  0  0  0  0  0  0
   44.0075   23.3876   35.7390 C   0  0  0  0  0  0  0  0  0  0  0  0
   42.7268   23.8027   36.4203 N   0  0  0  0  0  0  0  0  0  0  0  0
   42.3775   22.9682   37.6065 C   0  0  0  0  0  0  0  0  0  0  0  0
   41.4160   21.8339   37.3015 C   0  0  0  0  0  0  0  0  0  0  0  0
   42.0533   20.7376   36.4671 C   0  0  0  0  0  0  0  0  0  0  0  0
   40.9876   19.7685   36.1246 C   0  0  0  0  0  0  0  0  0  0  0  0
   40.4200   19.0139   37.2677 N   0  0  0  0  0  0  0  0  0  0  0  0
   39.3322   18.0797   36.8835 C   0  0  0  0  0  0  0  0  0  0  0  0
   37.8808   18.5787   37.1499 C   0  0  0  0  0  0  0  0  0  0  0  0
   37.6339   19.8242   36.2806 C   0  0  0  0  0  0  0  0  0  0  0  0
   37.6295   19.4711   34.8633 N   0  0  0  0  0  0  0  0  0  0  0  0
  1  2  1  0  0  0  0
  2  3  1  0  0  0  0
  3  4  1  0  0  0  0
  4  5  1  0  0  0  0
  5  6  1  0  0  0  0
  6  7  1  0  0  0  0
  7  8  1  0  0  0  0
  8  9  1  0  0  0  0
  9 10  1  0  0  0  0
 10 11  1  0  0  0  0
 11 12  1  0  0  0  0
 12 13  1  0  0  0  0
 13 14  1  0  0  0  0
M  END
>  <CHROM.1>
68.20949362,-60.27947854,-147.47391501,-95.29687237,70.06851553,-174.36985277
-66.39954237,178.53283407,-100.50265652,63.44960397,66.76098193,41.32201186
21.68411428,36.11912027,0.76581123,-0.43730012,-0.64718149

>  <Name>
ligand

>  <RI>
0

>  <Rbt.Current_Directory>
/home/itssahil/PROJECTS/Mol_Feturizer/New_Systems/rnas/1EVV

>  <Rbt.Executable>
rbdock ($Id: //depot/dev/client3/rdock/2013.1/src/exe/rbdock.cxx#4 $)

>  <Rbt.Library>
libRbt.so (2013.1, Build901 2013/11/27)

>  <Rbt.Parameter_File>
/export/apps/rDock/src/rDock_2013.1_src/data/scripts/dock_solv.prm

>  <Rbt.Receptor>
prm/pocket_docking_2.prm

>  <SCORE>
2.50176

>  <SCORE.INTER>
8.89147

>  <SCORE.INTER.CONST>
1

>  <SCORE.INTER.POLAR>
0

>  <SCORE.INTER.ROT>
11

>  <SCORE.INTER.SOLV>
3.45441

>  <SCORE.INTER.VDW>
-6.15716

>  <SCORE.INTER.norm>
0.635105

>  <SCORE.INTRA>
-6.41168

>  <SCORE.INTRA.DIHEDRAL>
-16.7267

>  <SCORE.INTRA.DIHEDRAL.0>
20.2131

>  <SCORE.INTRA.POLAR>
0

>  <SCORE.INTRA.POLAR.0>
0

>  <SCORE.INTRA.REPUL>
0

>  <SCORE.INTRA.REPUL.0>
0

>  <SCORE.INTRA.SOLV>
4.30956

>  <SCORE.INTRA.SOLV.lig_0>
-48.2851

>  <SCORE.INTRA.VDW>
-0.203095

>  <SCORE.INTRA.VDW.0>
-1.08658

>  <SCORE.INTRA.norm>
-0.457977

>  <SCORE.RESTR>
0.0219716

>  <SCORE.RESTR.CAVITY>
0.0219716

>  <SCORE.RESTR.norm>
0.0015694

>  <SCORE.SYSTEM>
0

>  <SCORE.SYSTEM.CONST>
0

>  <SCORE.SYSTEM.DIHEDRAL>
0

>  <SCORE.SYSTEM.SOLV>
0

>  <SCORE.SYSTEM.norm>
0

>  <SCORE.heavy>
14

>  <SCORE.norm>
0.178697

>  <RMSD>
2.352

$$$$
ligand
 OpenBabel11021811393D
libRbt.so/2013.1/901 2013/11/27
 14 13  0  0  0  0  0  0  0  0999 V2000
   37.6427   21.4506   32.9813 N   0  0  0  0  0  0  0  0  0  0  0  0
   38.0069   20.7501   34.2032 C   0  0  0  0  0  0  0  0  0  0  0  0
   36.7699   20.6164   35.1336 C   0  0  0  0  0  0  0  0  0  0  0  0
   36.9560   19.8670   36.5008 C   0  0  0  0  0  0  0  0  0  0  0  0
   37.4413   18.4420   36.3982 N   0  0  0  0  0  0  0  0  0  0  0  0
   38.4062   18.0556   37.4683 C   0  0  0  0  0  0  0  0  0  0  0  0
   39.8565   18.0540   37.0203 C   0  0  0  0  0  0  0  0  0  0  0  0
   40.3086   19.4076   36.5032 C   0  0  0  0  0  0  0  0  0  0  0  0
   40.5194   20.2810   37.6801 C   0  0  0  0  0  0  0  0  0  0  0  0
   40.8266   21.6991   37.3755 N   0  0  0  0  0  0  0  0  0  0  0  0
   42.1676   21.9016   36.7719 C   0  0  0  0  0  0  0  0  0  0  0  0
   42.4526   23.3259   36.2089 C   0  0  0  0  0  0  0  0  0  0  0  0
   43.8447   23.3135   35.5532 C   0  0  0  0  0  0  0  0  0  0  0  0
   44.8854   23.1052   36.5567 N   0  0  0  0  0  0  0  0  0  0  0  0
  1  2  1  0  0  0  0
  2  3  1  0  0  0  0
  3  4  1  0  0  0  0
  4  5  1  0  0  0  0
  5  6  1  0  0  0  0
  6  7  1  0  0  0  0
  7  8  1  0  0  0  0
  8  9  1  0  0  0  0
  9 10  1  0  0  0  0
 10 11  1  0  0  0  0
 11 12  1  0  0  0  0
 12 13  1  0  0  0  0
 13 14  1  0  0  0  0
M  END
>  <CHROM.1>
179.13692585,-58.52189731,142.04462397,-101.32717517,58.64888906,75.97818378
-173.71618863,-69.71000442,169.97814689,-176.53124792,-66.21167102,40.00593816
20.73334461,36.16836922,2.82097483,0.43783415,2.39498972

>  <Name>
ligand

>  <RI>
0

>  <Rbt.Current_Directory>
/home/itssahil/PROJECTS/Mol_Feturizer/New_Systems/rnas/1EVV

>  <Rbt.Executable>
rbdock ($Id: //depot/dev/client3/rdock/2013.1/src/exe/rbdock.cxx#4 $)

>  <Rbt.Library>
libRbt.so (2013.1, Build901 2013/11/27)

>  <Rbt.Parameter_File>
/export/apps/rDock/src/rDock_2013.1_src/data/scripts/dock_solv.prm

>  <Rbt.Receptor>
prm/pocket_docking_3.prm

>  <SCORE>
-0.983593

>  <SCORE.INTER>
6.69426

>  <SCORE.INTER.CONST>
1

>  <SCORE.INTER.POLAR>
0

>  <SCORE.INTER.ROT>
11

>  <SCORE.INTER.SOLV>
4.46382

>  <SCORE.INTER.VDW>
-7.95843

>  <SCORE.INTER.norm>
0.478161

>  <SCORE.INTRA>
-7.67785

>  <SCORE.INTRA.DIHEDRAL>
-16.9124

>  <SCORE.INTRA.DIHEDRAL.0>
20.2131

>  <SCORE.INTRA.POLAR>
0

>  <SCORE.INTRA.POLAR.0>
0

>  <SCORE.INTRA.REPUL>
0

>  <SCORE.INTRA.REPUL.0>
0

>  <SCORE.INTRA.SOLV>
0.653625

>  <SCORE.INTRA.SOLV.lig_0>
-48.2851

>  <SCORE.INTRA.VDW>
0.451544

>  <SCORE.INTRA.VDW.0>
-1.08658

>  <SCORE.INTRA.norm>
-0.548418

>  <SCORE.RESTR>
0

>  <SCORE.RESTR.CAVITY>
0

>  <SCORE.RESTR.norm>
0

>  <SCORE.SYSTEM>
0

>  <SCORE.SYSTEM.CONST>
0

>  <SCORE.SYSTEM.DIHEDRAL>
0

>  <SCORE.SYSTEM.SOLV>
0

>  <SCORE.SYSTEM.norm>
0

>  <SCORE.heavy>
14

>  <SCORE.norm>
-0.0702566

>  <RMSD>
2.430

$$$$
ligand
 OpenBabel11021811393D
libRbt.so/2013.1/901 2013/11/27
 14 13  0  0  0  0  0  0  0  0999 V2000
   44.5795   27.4328   35.5717 N   0  0  0  0  0  0  0  0  0  0  0  0
   44.8549   26.0339   35.2833 C   0  0  0  0  0  0  0  0  0  0  0  0
   44.0762   25.1198   36.2692 C   0  0  0  0  0  0  0  0  0  0  0  0
   42.5081   25.1996   36.2630 C   0  0  0  0  0  0  0  0  0  0  0  0
   41.8086   24.2862   37.2392 N   0  0  0  0  0  0  0  0  0  0  0  0
   40.3386   24.5209   37.3368 C   0  0  0  0  0  0  0  0  0  0  0  0
   39.6396   23.6409   38.3571 C   0  0  0  0  0  0  0  0  0  0  0  0
   39.6237   22.1781   37.9522 C   0  0  0  0  0  0  0  0  0  0  0  0
   38.5255   22.0034   36.9746 C   0  0  0  0  0  0  0  0  0  0  0  0
   38.3119   20.6164   36.4961 N   0  0  0  0  0  0  0  0  0  0  0  0
   36.9606   20.3840   35.9271 C   0  0  0  0  0  0  0  0  0  0  0  0
   36.7428   20.8796   34.4664 C   0  0  0  0  0  0  0  0  0  0  0  0
   37.7309   20.1326   33.5533 C   0  0  0  0  0  0  0  0  0  0  0  0
   37.5299   20.5116   32.1571 N   0  0  0  0  0  0  0  0  0  0  0  0
  1  2  1  0  0  0  0
  2  3  1  0  0  0  0
  3  4  1  0  0  0  0
  4  5  1  0  0  0  0
  5  6  1  0  0  0  0
  6  7  1  0  0  0  0
  7  8  1  0  0  0  0
  8  9  1  0  0  0  0
  9 10  1  0  0  0  0
 10 11  1  0  0  0  0
 11 12  1  0  0  0  0
 12 13  1  0  0  0  0
 13 14  1  0  0  0  0
M  END
>  <CHROM.1>
61.26783765,179.85097615,172.13627061,-177.74494434,-68.07935737,-80.31980251
-177.63977105,159.41687665,79.49720783,60.75702843,177.34148032,40.23064348
23.06707007,35.98932716,-0.27722074,-0.66822399,-1.74988844

>  <Name>
ligand

>  <RI>
0

>  <Rbt.Current_Directory>
/home/itssahil/PROJECTS/Mol_Feturizer/New_Systems/rnas/1EVV

>  <Rbt.Executable>
rbdock ($Id: //depot/dev/client3/rdock/2013.1/src/exe/rbdock.cxx#4 $)

>  <Rbt.Library>
libRbt.so (2013.1, Build901 2013/11/27)

>  <Rbt.Parameter_File>
/export/apps/rDock/src/rDock_2013.1_src/data/scripts/dock_solv.prm

>  <Rbt.Receptor>
prm/pocket_docking_4.prm

>  <SCORE>
-2.94256

>  <SCORE.INTER>
5.34204

>  <SCORE.INTER.CONST>
1

>  <SCORE.INTER.POLAR>
0

>  <SCORE.INTER.ROT>
11

>  <SCORE.INTER.SOLV>
4.09641

>  <SCORE.INTER.VDW>
-8.73744

>  <SCORE.INTER.norm>
0.381574

>  <SCORE.INTRA>
-8.28619

>  <SCORE.INTRA.DIHEDRAL>
-17.6824

>  <SCORE.INTRA.DIHEDRAL.0>
20.2131

>  <SCORE.INTRA.POLAR>
0

>  <SCORE.INTRA.POLAR.0>
0

>  <SCORE.INTRA.REPUL>
0

>  <SCORE.INTRA.REPUL.0>
0

>  <SCORE.INTRA.SOLV>
0.211212

>  <SCORE.INTRA.SOLV.lig_0>
-48.2851

>  <SCORE.INTRA.VDW>
0.44942

>  <SCORE.INTRA.VDW.0>
-1.08658

>  <SCORE.INTRA.norm>
-0.59187

>  <SCORE.RESTR>
0.00158798

>  <SCORE.RESTR.CAVITY>
0.00158798

>  <SCORE.RESTR.norm>
0.000113427

>  <SCORE.SYSTEM>
0

>  <SCORE.SYSTEM.CONST>
0

>  <SCORE.SYSTEM.DIHEDRAL>
0

>  <SCORE.SYSTEM.SOLV>
0

>  <SCORE.SYSTEM.norm>
0

>  <SCORE.heavy>
14

>  <SCORE.norm>
-0.210183

>  <RMSD>
2.519

$$$$
ligand
 OpenBabel11021811393D
libRbt.so/2013.1/901 2013/11/27
 14 13  0  0  0  0  0  0  0  0999 V2000
   45.0887   25.2591   36.1985 N   0  0  0  0  0  0  0  0  0  0  0  0
   44.7777   24.0205   36.8952 C   0  0  0  0  0  0  0  0  0  0  0  0
   43.3479   23.5403   36.5226 C   0  0  0  0  0  0  0  0  0  0  0  0
   42.7955   22.2546   37.2348 C   0  0  0  0  0  0  0  0  0  0  0  0
   41.4243   21.8068   36.7921 N   0  0  0  0  0  0  0  0  0  0  0  0
   40.8447   20.7197   37.6335 C   0  0  0  0  0  0  0  0  0  0  0  0
   39.6136   20.0650   37.0336 C   0  0  0  0  0  0  0  0  0  0  0  0
   38.4652   21.0405   36.8500 C   0  0  0  0  0  0  0  0  0  0  0  0
   37.3197   20.2756   36.3068 C   0  0  0  0  0  0  0  0  0  0  0  0
   37.4692   19.8109   34.9069 N   0  0  0  0  0  0  0  0  0  0  0  0
   37.5055   20.9137   33.9138 C   0  0  0  0  0  0  0  0  0  0  0  0
   36.1512   21.6366   33.6496 C   0  0  0  0  0  0  0  0  0  0  0  0
   36.4217   22.8442   32.7350 C   0  0  0  0  0  0  0  0  0  0  0  0
   36.8864   22.4029   31.4224 N   0  0  0  0  0  0  0  0  0  0  0  0
  1  2  1  0  0  0  0
  2  3  1  0  0  0  0
  3  4  1  0  0  0  0
  4  5  1  0  0  0  0
  5  6  1  0  0  0  0
  6  7  1  0  0  0  0
  7  8  1  0  0  0  0
  8  9  1  0  0  0  0
  9 10  1  0  0  0  0
 10 11  1  0  0  0  0
 11 12  1  0  0  0  0
 12 13  1  0  0  0  0
 13 14  1  0  0  0  0
M  END
>  <CHROM.1>
-176.78907249,-177.68386673,-170.88304544,-167.75617951,-61.78911729,-178.06788871
-70.22095370,-66.47871225,-72.46139455,173.18044555,65.08296110,39.86496067
21.89914319,35.57849642,-0.12089766,-0.48223935,-0.87859725

>  <Name>
ligand

>  <RI>
0

>  <Rbt.Current_Directory>
/home/itssahil/PROJECTS/Mol_Feturizer/New_Systems/rnas/1EVV

>  <Rbt.Executable>
rbdock ($Id: //depot/dev/client3/rdock/2013.1/src/exe/rbdock.cxx#4 $)

>  <Rbt.Library>
libRbt.so (2013.1, Build901 2013/11/27)

>  <Rbt.Parameter_File>
/export/apps/rDock/src/rDock_2013.1_src/data/scripts/dock_solv.prm

>  <Rbt.Receptor>
prm/pocket_docking_3.prm

>  <SCORE>
-1.88339

>  <SCORE.INTER>
6.78191

>  <SCORE.INTER.CONST>
1

>  <SCORE.INTER.POLAR>
0

>  <SCORE.INTER.ROT>
11

>  <SCORE.INTER.SOLV>
3.16737

>  <SCORE.INTER.VDW>
-7.46785

>  <SCORE.INTER.norm>
0.484422

>  <SCORE.INTRA>
-8.6653

>  <SCORE.INTRA.DIHEDRAL>
-19.1254

>  <SCORE.INTRA.DIHEDRAL.0>
20.2131

>  <SCORE.INTRA.POLAR>
0

>  <SCORE.INTRA.POLAR.0>
0

>  <SCORE.INTRA.REPUL>
0

>  <SCORE.INTRA.REPUL.0>
0

>  <SCORE.INTRA.SOLV>
0.122799

>  <SCORE.INTRA.SOLV.lig_0>
-48.2851

>  <SCORE.INTRA.VDW>
0.836

>  <SCORE.INTRA.VDW.0>
-1.08658

>  <SCORE.INTRA.norm>
-0.61895

>  <SCORE.RESTR>
0

>  <SCORE.RESTR.CAVITY>
0

>  <SCORE.RESTR.norm>
0

>  <SCORE.SYSTEM>
0

>  <SCORE.SYSTEM.CONST>
0

>  <SCORE.SYSTEM.DIHEDRAL>
0

>  <SCORE.SYSTEM.SOLV>
0

>  <SCORE.SYSTEM.norm>
0

>  <SCORE.heavy>
14

>  <SCORE.norm>
-0.134528

>  <RMSD>
2.521

$$$$
ligand
 OpenBabel11021811393D
libRbt.so/2013.1/901 2013/11/27
 14 13  0  0  0  0  0  0  0  0999 V2000
   37.0042   20.4547   35.2282 N   0  0  0  0  0  0  0  0  0  0  0  0
   36.9299   19.7815   36.5156 C   0  0  0  0  0  0  0  0  0  0  0  0
   37.9233   18.5877   36.5547 C   0  0  0  0  0  0  0  0  0  0  0  0
   39.4453   18.8898   36.3151 C   0  0  0  0  0  0  0  0  0  0  0  0
   40.3432   17.6793   36.2438 N   0  0  0  0  0  0  0  0  0  0  0  0
   41.7185   17.9775   35.7486 C   0  0  0  0  0  0  0  0  0  0  0  0
   42.6706   18.4635   36.8262 C   0  0  0  0  0  0  0  0  0  0  0  0
   43.9980   18.9360   36.2617 C   0  0  0  0  0  0  0  0  0  0  0  0
   43.7683   20.2635   35.6475 C   0  0  0  0  0  0  0  0  0  0  0  0
   44.9668   20.9125   35.0639 N   0  0  0  0  0  0  0  0  0  0  0  0
   44.7131   22.2835   34.5542 C   0  0  0  0  0  0  0  0  0  0  0  0
   44.9777   23.4433   35.5598 C   0  0  0  0  0  0  0  0  0  0  0  0
   44.6543   24.7728   34.8556 C   0  0  0  0  0  0  0  0  0  0  0  0
   44.8219   25.8965   35.7736 N   0  0  0  0  0  0  0  0  0  0  0  0
  1  2  1  0  0  0  0
  2  3  1  0  0  0  0
  3  4  1  0  0  0  0
  4  5  1  0  0  0  0
  5  6  1  0  0  0  0
  6  7  1  0  0  0  0
  7  8  1  0  0  0  0
  8  9  1  0  0  0  0
  9 10  1  0  0  0  0
 10 11  1  0  0  0  0
 11 12  1  0  0  0  0
 12 13  1  0  0  0  0
 13 14  1  0  0  0  0
M  END
>  <CHROM.1>
58.34798732,-174.82941063,168.41103540,84.41097958,-172.19043872,75.60952351
178.56462965,-175.51586171,92.35077458,-179.72722290,177.23594364,41.99544894
20.59559997,35.79639700,2.50111982,-0.04511829,3.00514343

>  <Name>
ligand

>  <RI>
0

>  <Rbt.Current_Directory>
/home/itssahil/PROJECTS/Mol_Feturizer/New_Systems/rnas/1EVV

>  <Rbt.Executable>
rbdock ($Id: //depot/dev/client3/rdock/2013.1/src/exe/rbdock.cxx#4 $)

>  <Rbt.Library>
libRbt.so (2013.1, Build901 2013/11/27)

>  <Rbt.Parameter_File>
/export/apps/rDock/src/rDock_2013.1_src/data/scripts/dock_solv.prm

>  <Rbt.Receptor>
prm/pocket_docking_3.prm

>  <SCORE>
-1.55854

>  <SCORE.INTER>
6.83477

>  <SCORE.INTER.CONST>
1

>  <SCORE.INTER.POLAR>
0

>  <SCORE.INTER.ROT>
11

>  <SCORE.INTER.SOLV>
5.71549

>  <SCORE.INTER.VDW>
-8.28198

>  <SCORE.INTER.norm>
0.488198

>  <SCORE.INTRA>
-8.39332

>  <SCORE.INTRA.DIHEDRAL>
-17.6473

>  <SCORE.INTRA.DIHEDRAL.0>
20.2131

>  <SCORE.INTRA.POLAR>
0

>  <SCORE.INTRA.POLAR.0>
0

>  <SCORE.INTRA.REPUL>
0

>  <SCORE.INTRA.REPUL.0>
0

>  <SCORE.INTRA.SOLV>
-0.479426

>  <SCORE.INTRA.SOLV.lig_0>
-48.2851

>  <SCORE.INTRA.VDW>
0.670029

>  <SCORE.INTRA.VDW.0>
-1.08658

>  <SCORE.INTRA.norm>
-0.599523

>  <SCORE.RESTR>
0

>  <SCORE.RESTR.CAVITY>
0

>  <SCORE.RESTR.norm>
0

>  <SCORE.SYSTEM>
0

>  <SCORE.SYSTEM.CONST>
0

>  <SCORE.SYSTEM.DIHEDRAL>
0

>  <SCORE.SYSTEM.SOLV>
0

>  <SCORE.SYSTEM.norm>
0

>  <SCORE.heavy>
14

>  <SCORE.norm>
-0.111325

>  <RMSD>
2.553

$$$$
ligand
 OpenBabel11021811393D
libRbt.so/2013.1/901 2013/11/27
 14 13  0  0  0  0  0  0  0  0999 V2000
   45.0015   26.1374   34.8739 N   0  0  0  0  0  0  0  0  0  0  0  0
   44.1882   25.0746   35.4441 C   0  0  0  0  0  0  0  0  0  0  0  0
   44.5731   23.7078   34.8137 C   0  0  0  0  0  0  0  0  0  0  0  0
   43.7135   22.4520   35.2001 C   0  0  0  0  0  0  0  0  0  0  0  0
   43.7293   22.0805   36.6624 N   0  0  0  0  0  0  0  0  0  0  0  0
   42.5004   21.3667   37.1161 C   0  0  0  0  0  0  0  0  0  0  0  0
   41.3747   22.2891   37.5475 C   0  0  0  0  0  0  0  0  0  0  0  0
   40.1004   21.5361   37.8840 C   0  0  0  0  0  0  0  0  0  0  0  0
   39.4800   21.1254   36.6039 C   0  0  0  0  0  0  0  0  0  0  0  0
   38.1954   20.3947   36.7229 N   0  0  0  0  0  0  0  0  0  0  0  0
   37.5995   20.0209   35.4156 C   0  0  0  0  0  0  0  0  0  0  0  0
   38.0903   18.6750   34.8038 C   0  0  0  0  0  0  0  0  0  0  0  0
   37.7182   17.5415   35.7757 C   0  0  0  0  0  0  0  0  0  0  0  0
   38.5567   17.5910   36.9707 N   0  0  0  0  0  0  0  0  0  0  0  0
  1  2  1  0  0  0  0
  2  3  1  0  0  0  0
  3  4  1  0  0  0  0
  4  5  1  0  0  0  0
  5  6  1  0  0  0  0
  6  7  1  0  0  0  0
  7  8  1  0  0  0  0
  8  9  1  0  0  0  0
  9 10  1  0  0  0  0
 10 11  1  0  0  0  0
 11 12  1  0  0  0  0
 12 13  1  0  0  0  0
 13 14  1  0  0  0  0
M  END
>  <CHROM.1>
-174.34214408,-61.94877356,152.84163440,-86.83503998,174.87324838,-75.68625196
-178.71121962,179.11874898,86.23759199,61.32789089,-71.64054958,41.05852669
21.42799783,36.13095120,0.13591731,-0.71623441,-1.48453406

>  <Name>
ligand

>  <RI>
0

>  <Rbt.Current_Directory>
/home/itssahil/PROJECTS/Mol_Feturizer/New_Systems/rnas/1EVV

>  <Rbt.Executable>
rbdock ($Id: //depot/dev/client3/rdock/2013.1/src/exe/rbdock.cxx#4 $)

>  <Rbt.Library>
libRbt.so (2013.1, Build901 2013/11/27)

>  <Rbt.Parameter_File>
/export/apps/rDock/src/rDock_2013.1_src/data/scripts/dock_solv.prm

>  <Rbt.Receptor>
prm/pocket_docking_3.prm

>  <SCORE>
1.88863

>  <SCORE.INTER>
8.62797

>  <SCORE.INTER.CONST>
1

>  <SCORE.INTER.POLAR>
0

>  <SCORE.INTER.ROT>
11

>  <SCORE.INTER.SOLV>
4.8021

>  <SCORE.INTER.VDW>
-6.78206

>  <SCORE.INTER.norm>
0.616283

>  <SCORE.INTRA>
-6.73933

>  <SCORE.INTRA.DIHEDRAL>
-16.9991

>  <SCORE.INTRA.DIHEDRAL.0>
20.2131

>  <SCORE.INTRA.POLAR>
0

>  <SCORE.INTRA.POLAR.0>
0

>  <SCORE.INTRA.REPUL>
0

>  <SCORE.INTRA.REPUL.0>
0

>  <SCORE.INTRA.SOLV>
2.65981

>  <SCORE.INTRA.SOLV.lig_0>
-48.2851

>  <SCORE.INTRA.VDW>
0.430323

>  <SCORE.INTRA.VDW.0>
-1.08658

>  <SCORE.INTRA.norm>
-0.481381

>  <SCORE.RESTR>
0

>  <SCORE.RESTR.CAVITY>
0

>  <SCORE.RESTR.norm>
0

>  <SCORE.SYSTEM>
0

>  <SCORE.SYSTEM.CONST>
0

>  <SCORE.SYSTEM.DIHEDRAL>
0

>  <SCORE.SYSTEM.SOLV>
0

>  <SCORE.SYSTEM.norm>
0

>  <SCORE.heavy>
14

>  <SCORE.norm>
0.134902

>  <RMSD>
2.556

$$$$
ligand
 OpenBabel11021811393D
libRbt.so/2013.1/901 2013/11/27
 14 13  0  0  0  0  0  0  0  0999 V2000
   37.0168   20.4197   35.2156 N   0  0  0  0  0  0  0  0  0  0  0  0
   36.8939   19.7840   36.5182 C   0  0  0  0  0  0  0  0  0  0  0  0
   38.1959   19.0090   36.8617 C   0  0  0  0  0  0  0  0  0  0  0  0
   39.5154   19.8379   37.0550 C   0  0  0  0  0  0  0  0  0  0  0  0
   40.7541   19.0265   37.3445 N   0  0  0  0  0  0  0  0  0  0  0  0
   41.5531   18.6925   36.1297 C   0  0  0  0  0  0  0  0  0  0  0  0
   43.0042   18.3541   36.4194 C   0  0  0  0  0  0  0  0  0  0  0  0
   43.7589   19.5119   37.0470 C   0  0  0  0  0  0  0  0  0  0  0  0
   44.0079   20.5065   35.9787 C   0  0  0  0  0  0  0  0  0  0  0  0
   44.7375   21.7264   36.4002 N   0  0  0  0  0  0  0  0  0  0  0  0
   45.0777   22.6350   35.2767 C   0  0  0  0  0  0  0  0  0  0  0  0
   45.9682   23.8609   35.6383 C   0  0  0  0  0  0  0  0  0  0  0  0
   45.1611   24.7830   36.5692 C   0  0  0  0  0  0  0  0  0  0  0  0
   44.0274   25.3685   35.8584 N   0  0  0  0  0  0  0  0  0  0  0  0
  1  2  1  0  0  0  0
  2  3  1  0  0  0  0
  3  4  1  0  0  0  0
  4  5  1  0  0  0  0
  5  6  1  0  0  0  0
  6  7  1  0  0  0  0
  7  8  1  0  0  0  0
  8  9  1  0  0  0  0
  9 10  1  0  0  0  0
 10 11  1  0  0  0  0
 11 12  1  0  0  0  0
 12 13  1  0  0  0  0
 13 14  1  0  0  0  0
M  END
>  <CHROM.1>
64.80827491,-178.17893180,94.03354560,158.40673647,-61.89806525,-74.12984233
179.77431984,174.53587190,-174.07949358,-65.99040724,-66.71251073,42.11963721
20.96514844,36.30808760,2.58839221,0.02424036,2.98651391

>  <Name>
ligand

>  <RI>
0

>  <Rbt.Current_Directory>
/home/itssahil/PROJECTS/Mol_Feturizer/New_Systems/rnas/1EVV

>  <Rbt.Executable>
rbdock ($Id: //depot/dev/client3/rdock/2013.1/src/exe/rbdock.cxx#4 $)

>  <Rbt.Library>
libRbt.so (2013.1, Build901 2013/11/27)

>  <Rbt.Parameter_File>
/export/apps/rDock/src/rDock_2013.1_src/data/scripts/dock_solv.prm

>  <Rbt.Receptor>
prm/pocket_docking_3.prm

>  <SCORE>
-1.14395

>  <SCORE.INTER>
6.342

>  <SCORE.INTER.CONST>
1

>  <SCORE.INTER.POLAR>
0

>  <SCORE.INTER.ROT>
11

>  <SCORE.INTER.SOLV>
6.30483

>  <SCORE.INTER.VDW>
-8.80694

>  <SCORE.INTER.norm>
0.453

>  <SCORE.INTRA>
-7.48995

>  <SCORE.INTRA.DIHEDRAL>
-17.8733

>  <SCORE.INTRA.DIHEDRAL.0>
20.2131

>  <SCORE.INTRA.POLAR>
0

>  <SCORE.INTRA.POLAR.0>
0

>  <SCORE.INTRA.REPUL>
0

>  <SCORE.INTRA.REPUL.0>
0

>  <SCORE.INTRA.SOLV>
1.6469

>  <SCORE.INTRA.SOLV.lig_0>
-48.2851

>  <SCORE.INTRA.VDW>
0.623279

>  <SCORE.INTRA.VDW.0>
-1.08658

>  <SCORE.INTRA.norm>
-0.534996

>  <SCORE.RESTR>
0.00399156

>  <SCORE.RESTR.CAVITY>
0.00399156

>  <SCORE.RESTR.norm>
0.000285111

>  <SCORE.SYSTEM>
0

>  <SCORE.SYSTEM.CONST>
0

>  <SCORE.SYSTEM.DIHEDRAL>
0

>  <SCORE.SYSTEM.SOLV>
0

>  <SCORE.SYSTEM.norm>
0

>  <SCORE.heavy>
14

>  <SCORE.norm>
-0.0817108

>  <RMSD>
2.558

$$$$
ligand
 OpenBabel11021811393D
libRbt.so/2013.1/901 2013/11/27
 14 13  0  0  0  0  0  0  0  0999 V2000
   43.8502   24.2886   32.6810 N   0  0  0  0  0  0  0  0  0  0  0  0
   42.9369   23.3686   33.3409 C   0  0  0  0  0  0  0  0  0  0  0  0
   43.6403   22.6875   34.5471 C   0  0  0  0  0  0  0  0  0  0  0  0
   42.7995   21.6902   35.4211 C   0  0  0  0  0  0  0  0  0  0  0  0
   41.5649   22.2731   36.0634 N   0  0  0  0  0  0  0  0  0  0  0  0
   40.9145   21.3653   37.0525 C   0  0  0  0  0  0  0  0  0  0  0  0
   39.6134   21.9025   37.6207 C   0  0  0  0  0  0  0  0  0  0  0  0
   38.5020   21.9507   36.5879 C   0  0  0  0  0  0  0  0  0  0  0  0
   38.0443   20.5599   36.3679 C   0  0  0  0  0  0  0  0  0  0  0  0
   36.9178   20.4018   35.4169 N   0  0  0  0  0  0  0  0  0  0  0  0
   37.3392   20.3752   33.9937 C   0  0  0  0  0  0  0  0  0  0  0  0
   36.4098   21.1265   32.9945 C   0  0  0  0  0  0  0  0  0  0  0  0
   36.5058   22.6337   33.2896 C   0  0  0  0  0  0  0  0  0  0  0  0
   37.7999   23.1608   32.8646 N   0  0  0  0  0  0  0  0  0  0  0  0
  1  2  1  0  0  0  0
  2  3  1  0  0  0  0
  3  4  1  0  0  0  0
  4  5  1  0  0  0  0
  5  6  1  0  0  0  0
  6  7  1  0  0  0  0
  7  8  1  0  0  0  0
  8  9  1  0  0  0  0
  9 10  1  0  0  0  0
 10 11  1  0  0  0  0
 11 12  1  0  0  0  0
 12 13  1  0  0  0  0
 13 14  1  0  0  0  0
M  END
>  <CHROM.1>
178.00008817,-59.04106372,-170.82988545,-175.48046120,68.63503055,74.37411317
177.95123541,82.97888828,-140.74337190,67.99549394,71.77025304,39.77406816
21.98438247,34.87466643,0.11992452,-0.24845438,-1.18462556

>  <Name>
ligand

>  <RI>
0

>  <Rbt.Current_Directory>
/home/itssahil/PROJECTS/Mol_Feturizer/New_Systems/rnas/1EVV

>  <Rbt.Executable>
rbdock ($Id: //depot/dev/client3/rdock/2013.1/src/exe/rbdock.cxx#4 $)

>  <Rbt.Library>
libRbt.so (2013.1, Build901 2013/11/27)

>  <Rbt.Parameter_File>
/export/apps/rDock/src/rDock_2013.1_src/data/scripts/dock_solv.prm

>  <Rbt.Receptor>
prm/pocket_docking_3.prm

>  <SCORE>
0.600247

>  <SCORE.INTER>
7.86621

>  <SCORE.INTER.CONST>
1

>  <SCORE.INTER.POLAR>
0

>  <SCORE.INTER.ROT>
11

>  <SCORE.INTER.SOLV>
3.33844

>  <SCORE.INTER.VDW>
-6.80201

>  <SCORE.INTER.norm>
0.561872

>  <SCORE.INTRA>
-7.26596

>  <SCORE.INTRA.DIHEDRAL>
-16.9802

>  <SCORE.INTRA.DIHEDRAL.0>
20.2131

>  <SCORE.INTRA.POLAR>
0

>  <SCORE.INTRA.POLAR.0>
0

>  <SCORE.INTRA.REPUL>
0

>  <SCORE.INTRA.REPUL.0>
0

>  <SCORE.INTRA.SOLV>
1.82019

>  <SCORE.INTRA.SOLV.lig_0>
-48.2851

>  <SCORE.INTRA.VDW>
0.314065

>  <SCORE.INTRA.VDW.0>
-1.08658

>  <SCORE.INTRA.norm>
-0.518997

>  <SCORE.RESTR>
0

>  <SCORE.RESTR.CAVITY>
0

>  <SCORE.RESTR.norm>
0

>  <SCORE.SYSTEM>
0

>  <SCORE.SYSTEM.CONST>
0

>  <SCORE.SYSTEM.DIHEDRAL>
0

>  <SCORE.SYSTEM.SOLV>
0

>  <SCORE.SYSTEM.norm>
0

>  <SCORE.heavy>
14

>  <SCORE.norm>
0.0428748

>  <RMSD>
2.615

$$$$
ligand
 OpenBabel11021811393D
libRbt.so/2013.1/901 2013/11/27
 14 13  0  0  0  0  0  0  0  0999 V2000
   36.8845   21.5645   32.3329 N   0  0  0  0  0  0  0  0  0  0  0  0
   36.6238   20.9692   33.6344 C   0  0  0  0  0  0  0  0  0  0  0  0
   37.7099   21.4113   34.6535 C   0  0  0  0  0  0  0  0  0  0  0  0
   37.6160   20.8510   36.1172 C   0  0  0  0  0  0  0  0  0  0  0  0
   38.6458   21.3839   37.0827 N   0  0  0  0  0  0  0  0  0  0  0  0
   38.4163   22.8015   37.4868 C   0  0  0  0  0  0  0  0  0  0  0  0
   39.5213   23.3840   38.3491 C   0  0  0  0  0  0  0  0  0  0  0  0
   40.8821   23.3121   37.6804 C   0  0  0  0  0  0  0  0  0  0  0  0
   41.8656   23.9001   38.6181 C   0  0  0  0  0  0  0  0  0  0  0  0
   43.2796   23.8482   38.1752 N   0  0  0  0  0  0  0  0  0  0  0  0
   43.7860   25.1395   37.6464 C   0  0  0  0  0  0  0  0  0  0  0  0
   43.4008   25.4700   36.1737 C   0  0  0  0  0  0  0  0  0  0  0  0
   44.0322   26.8239   35.8043 C   0  0  0  0  0  0  0  0  0  0  0  0
   43.7129   27.1824   34.4248 N   0  0  0  0  0  0  0  0  0  0  0  0
  1  2  1  0  0  0  0
  2  3  1  0  0  0  0
  3  4  1  0  0  0  0
  4  5  1  0  0  0  0
  5  6  1  0  0  0  0
  6  7  1  0  0  0  0
  7  8  1  0  0  0  0
  8  9  1  0  0  0  0
  9 10  1  0  0  0  0
 10 11  1  0  0  0  0
 11 12  1  0  0  0  0
 12 13  1  0  0  0  0
 13 14  1  0  0  0  0
M  END
>  <CHROM.1>
-178.98152232,-176.26568175,72.31421200,-174.33986072,57.07575111,-179.70706337
176.49937701,102.13902688,-80.49224495,-179.04625659,179.53941802,40.45542187
23.43153010,36.29886386,-3.05744545,0.65246513,1.85024116

>  <Name>
ligand

>  <RI>
0

>  <Rbt.Current_Directory>
/home/itssahil/PROJECTS/Mol_Feturizer/New_Systems/rnas/1EVV

>  <Rbt.Executable>
rbdock ($Id: //depot/dev/client3/rdock/2013.1/src/exe/rbdock.cxx#4 $)

>  <Rbt.Library>
libRbt.so (2013.1, Build901 2013/11/27)

>  <Rbt.Parameter_File>
/export/apps/rDock/src/rDock_2013.1_src/data/scripts/dock_solv.prm

>  <Rbt.Receptor>
prm/pocket_docking_4.prm

>  <SCORE>
-4.10653

>  <SCORE.INTER>
5.488

>  <SCORE.INTER.CONST>
1

>  <SCORE.INTER.POLAR>
0

>  <SCORE.INTER.ROT>
11

>  <SCORE.INTER.SOLV>
3.27323

>  <SCORE.INTER.VDW>
-8.36575

>  <SCORE.INTER.norm>
0.392

>  <SCORE.INTRA>
-9.5954

>  <SCORE.INTRA.DIHEDRAL>
-18.6572

>  <SCORE.INTRA.DIHEDRAL.0>
20.2131

>  <SCORE.INTRA.POLAR>
0

>  <SCORE.INTRA.POLAR.0>
0

>  <SCORE.INTRA.REPUL>
0

>  <SCORE.INTRA.REPUL.0>
0

>  <SCORE.INTRA.SOLV>
-0.982643

>  <SCORE.INTRA.SOLV.lig_0>
-48.2851

>  <SCORE.INTRA.VDW>
0.224526

>  <SCORE.INTRA.VDW.0>
-1.08658

>  <SCORE.INTRA.norm>
-0.685385

>  <SCORE.RESTR>
0.000873999

>  <SCORE.RESTR.CAVITY>
0.000873999

>  <SCORE.RESTR.norm>
6.24285e-05

>  <SCORE.SYSTEM>
0

>  <SCORE.SYSTEM.CONST>
0

>  <SCORE.SYSTEM.DIHEDRAL>
0

>  <SCORE.SYSTEM.SOLV>
0

>  <SCORE.SYSTEM.norm>
0

>  <SCORE.heavy>
14

>  <SCORE.norm>
-0.293323

>  <RMSD>
2.622

$$$$
ligand
 OpenBabel11021811393D
libRbt.so/2013.1/901 2013/11/27
 14 13  0  0  0  0  0  0  0  0999 V2000
   45.1538   25.0548   36.0963 N   0  0  0  0  0  0  0  0  0  0  0  0
   44.8971   23.9724   37.0338 C   0  0  0  0  0  0  0  0  0  0  0  0
   43.4285   24.0356   37.5367 C   0  0  0  0  0  0  0  0  0  0  0  0
   42.2815   23.8389   36.4826 C   0  0  0  0  0  0  0  0  0  0  0  0
   40.8796   24.0323   37.0062 N   0  0  0  0  0  0  0  0  0  0  0  0
   40.4308   22.9573   37.9380 C   0  0  0  0  0  0  0  0  0  0  0  0
   39.3214   22.0827   37.3827 C   0  0  0  0  0  0  0  0  0  0  0  0
   39.7771   21.2408   36.2047 C   0  0  0  0  0  0  0  0  0  0  0  0
   38.5631   20.6864   35.5635 C   0  0  0  0  0  0  0  0  0  0  0  0
   37.6734   21.6799   34.9156 N   0  0  0  0  0  0  0  0  0  0  0  0
   36.4223   21.0941   34.3722 C   0  0  0  0  0  0  0  0  0  0  0  0
   36.3333   20.9993   32.8199 C   0  0  0  0  0  0  0  0  0  0  0  0
   37.3268   19.9237   32.3466 C   0  0  0  0  0  0  0  0  0  0  0  0
   37.1712   19.6719   30.9163 N   0  0  0  0  0  0  0  0  0  0  0  0
  1  2  1  0  0  0  0
  2  3  1  0  0  0  0
  3  4  1  0  0  0  0
  4  5  1  0  0  0  0
  5  6  1  0  0  0  0
  6  7  1  0  0  0  0
  7  8  1  0  0  0  0
  8  9  1  0  0  0  0
  9 10  1  0  0  0  0
 10 11  1  0  0  0  0
 11 12  1  0  0  0  0
 12 13  1  0  0  0  0
 13 14  1  0  0  0  0
M  END
>  <CHROM.1>
63.34415928,-174.78264261,-69.97735835,-112.06508419,66.85650624,-167.07289333
66.70584547,-175.82112994,-107.92716442,70.01008235,172.98412904,39.97559721
22.23342172,35.47279726,-0.59304869,-0.38457955,-1.80508497

>  <Name>
ligand

>  <RI>
0

>  <Rbt.Current_Directory>
/home/itssahil/PROJECTS/Mol_Feturizer/New_Systems/rnas/1EVV

>  <Rbt.Executable>
rbdock ($Id: //depot/dev/client3/rdock/2013.1/src/exe/rbdock.cxx#4 $)

>  <Rbt.Library>
libRbt.so (2013.1, Build901 2013/11/27)

>  <Rbt.Parameter_File>
/export/apps/rDock/src/rDock_2013.1_src/data/scripts/dock_solv.prm

>  <Rbt.Receptor>
prm/pocket_docking_3.prm

>  <SCORE>
0.637626

>  <SCORE.INTER>
8.50216

>  <SCORE.INTER.CONST>
1

>  <SCORE.INTER.POLAR>
0

>  <SCORE.INTER.ROT>
11

>  <SCORE.INTER.SOLV>
2.67811

>  <SCORE.INTER.VDW>
-6.15793

>  <SCORE.INTER.norm>
0.607297

>  <SCORE.INTRA>
-7.86454

>  <SCORE.INTRA.DIHEDRAL>
-16.1676

>  <SCORE.INTRA.DIHEDRAL.0>
20.2131

>  <SCORE.INTRA.POLAR>
0

>  <SCORE.INTRA.POLAR.0>
0

>  <SCORE.INTRA.REPUL>
0

>  <SCORE.INTRA.REPUL.0>
0

>  <SCORE.INTRA.SOLV>
0.417344

>  <SCORE.INTRA.SOLV.lig_0>
-48.2851

>  <SCORE.INTRA.VDW>
0.0106147

>  <SCORE.INTRA.VDW.0>
-1.08658

>  <SCORE.INTRA.norm>
-0.561753

>  <SCORE.RESTR>
0

>  <SCORE.RESTR.CAVITY>
0

>  <SCORE.RESTR.norm>
0

>  <SCORE.SYSTEM>
0

>  <SCORE.SYSTEM.CONST>
0

>  <SCORE.SYSTEM.DIHEDRAL>
0

>  <SCORE.SYSTEM.SOLV>
0

>  <SCORE.SYSTEM.norm>
0

>  <SCORE.heavy>
14

>  <SCORE.norm>
0.0455447

>  <RMSD>
2.710

$$$$
ligand
 OpenBabel11021811393D
libRbt.so/2013.1/901 2013/11/27
 14 13  0  0  0  0  0  0  0  0999 V2000
   37.1264   21.9016   33.9874 N   0  0  0  0  0  0  0  0  0  0  0  0
   37.2584   20.5165   34.4119 C   0  0  0  0  0  0  0  0  0  0  0  0
   37.0978   20.4105   35.9535 C   0  0  0  0  0  0  0  0  0  0  0  0
   37.2863   18.9999   36.6169 C   0  0  0  0  0  0  0  0  0  0  0  0
   38.6501   18.3784   36.4422 N   0  0  0  0  0  0  0  0  0  0  0  0
   38.8817   17.1819   37.3026 C   0  0  0  0  0  0  0  0  0  0  0  0
   40.3089   16.6660   37.2710 C   0  0  0  0  0  0  0  0  0  0  0  0
   41.2983   17.6510   37.8668 C   0  0  0  0  0  0  0  0  0  0  0  0
   41.5539   18.6915   36.8449 C   0  0  0  0  0  0  0  0  0  0  0  0
   42.5496   19.7238   37.2206 N   0  0  0  0  0  0  0  0  0  0  0  0
   42.4781   20.9512   36.3886 C   0  0  0  0  0  0  0  0  0  0  0  0
   43.5417   22.0464   36.6983 C   0  0  0  0  0  0  0  0  0  0  0  0
   43.2795   23.2463   35.7712 C   0  0  0  0  0  0  0  0  0  0  0  0
   44.2617   24.3020   36.0041 N   0  0  0  0  0  0  0  0  0  0  0  0
  1  2  1  0  0  0  0
  2  3  1  0  0  0  0
  3  4  1  0  0  0  0
  4  5  1  0  0  0  0
  5  6  1  0  0  0  0
  6  7  1  0  0  0  0
  7  8  1  0  0  0  0
  8  9  1  0  0  0  0
  9 10  1  0  0  0  0
 10 11  1  0  0  0  0
 11 12  1  0  0  0  0
 12 13  1  0  0  0  0
 13 14  1  0  0  0  0
M  END
>  <CHROM.1>
-176.73298112,61.44616888,168.44269104,-172.18453421,65.55435702,-78.45036988
-177.47903855,-162.10699694,-177.46677389,-178.28797783,-179.21104572,40.39792838
20.04724117,36.34160804,2.59594673,0.28601630,2.72716423

>  <Name>
ligand

>  <RI>
0

>  <Rbt.Current_Directory>
/home/itssahil/PROJECTS/Mol_Feturizer/New_Systems/rnas/1EVV

>  <Rbt.Executable>
rbdock ($Id: //depot/dev/client3/rdock/2013.1/src/exe/rbdock.cxx#4 $)

>  <Rbt.Library>
libRbt.so (2013.1, Build901 2013/11/27)

>  <Rbt.Parameter_File>
/export/apps/rDock/src/rDock_2013.1_src/data/scripts/dock_solv.prm

>  <Rbt.Receptor>
prm/pocket_docking_3.prm

>  <SCORE>
-2.84925

>  <SCORE.INTER>
6.03669

>  <SCORE.INTER.CONST>
1

>  <SCORE.INTER.POLAR>
0

>  <SCORE.INTER.ROT>
11

>  <SCORE.INTER.SOLV>
5.82486

>  <SCORE.INTER.VDW>
-8.85049

>  <SCORE.INTER.norm>
0.431192

>  <SCORE.INTRA>
-8.89909

>  <SCORE.INTRA.DIHEDRAL>
-18.2854

>  <SCORE.INTRA.DIHEDRAL.0>
20.2131

>  <SCORE.INTRA.POLAR>
0

>  <SCORE.INTRA.POLAR.0>
0

>  <SCORE.INTRA.REPUL>
0

>  <SCORE.INTRA.REPUL.0>
0

>  <SCORE.INTRA.SOLV>
0.031137

>  <SCORE.INTRA.SOLV.lig_0>
-48.2851

>  <SCORE.INTRA.VDW>
0.228029

>  <SCORE.INTRA.VDW.0>
-1.08658

>  <SCORE.INTRA.norm>
-0.63565

>  <SCORE.RESTR>
0.0131498

>  <SCORE.RESTR.CAVITY>
0.0131498

>  <SCORE.RESTR.norm>
0.000939269

>  <SCORE.SYSTEM>
0

>  <SCORE.SYSTEM.CONST>
0

>  <SCORE.SYSTEM.DIHEDRAL>
0

>  <SCORE.SYSTEM.SOLV>
0

>  <SCORE.SYSTEM.norm>
0

>  <SCORE.heavy>
14

>  <SCORE.norm>
-0.203518

>  <RMSD>
2.719

$$$$
ligand
 OpenBabel11021811393D
libRbt.so/2013.1/901 2013/11/27
 14 13  0  0  0  0  0  0  0  0999 V2000
   37.7853   17.5124   35.4487 N   0  0  0  0  0  0  0  0  0  0  0  0
   38.4073   18.8209   35.5796 C   0  0  0  0  0  0  0  0  0  0  0  0
   37.5023   19.7631   36.4204 C   0  0  0  0  0  0  0  0  0  0  0  0
   37.9951   21.2345   36.6601 C   0  0  0  0  0  0  0  0  0  0  0  0
   39.3185   21.3671   37.3726 N   0  0  0  0  0  0  0  0  0  0  0  0
   40.4830   21.5323   36.4549 C   0  0  0  0  0  0  0  0  0  0  0  0
   40.6235   22.9308   35.8817 C   0  0  0  0  0  0  0  0  0  0  0  0
   41.7433   23.0333   34.8621 C   0  0  0  0  0  0  0  0  0  0  0  0
   43.0199   23.0672   35.6115 C   0  0  0  0  0  0  0  0  0  0  0  0
   44.2397   23.2398   34.7865 N   0  0  0  0  0  0  0  0  0  0  0  0
   45.4918   23.3059   35.5812 C   0  0  0  0  0  0  0  0  0  0  0  0
   45.7725   24.6603   36.2977 C   0  0  0  0  0  0  0  0  0  0  0  0
   45.9474   25.7460   35.2213 C   0  0  0  0  0  0  0  0  0  0  0  0
   44.6756   26.0258   34.5599 N   0  0  0  0  0  0  0  0  0  0  0  0
  1  2  1  0  0  0  0
  2  3  1  0  0  0  0
  3  4  1  0  0  0  0
  4  5  1  0  0  0  0
  5  6  1  0  0  0  0
  6  7  1  0  0  0  0
  7  8  1  0  0  0  0
  8  9  1  0  0  0  0
  9 10  1  0  0  0  0
 10 11  1  0  0  0  0
 11 12  1  0  0  0  0
 12 13  1  0  0  0  0
 13 14  1  0  0  0  0
M  END
>  <CHROM.1>
-179.25677202,-59.64620926,95.64691573,77.53427556,-175.04548532,-76.57781807
-176.86794575,178.39824645,-77.25158876,-63.33154706,69.66922216,41.64328579
22.30292706,35.76711172,-2.55008582,0.27926856,0.22939862

>  <Name>
ligand

>  <RI>
0

>  <Rbt.Current_Directory>
/home/itssahil/PROJECTS/Mol_Feturizer/New_Systems/rnas/1EVV

>  <Rbt.Executable>
rbdock ($Id: //depot/dev/client3/rdock/2013.1/src/exe/rbdock.cxx#4 $)

>  <Rbt.Library>
libRbt.so (2013.1, Build901 2013/11/27)

>  <Rbt.Parameter_File>
/export/apps/rDock/src/rDock_2013.1_src/data/scripts/dock_solv.prm

>  <Rbt.Receptor>
prm/pocket_docking_3.prm

>  <SCORE>
2.2951

>  <SCORE.INTER>
8.8912

>  <SCORE.INTER.CONST>
1

>  <SCORE.INTER.POLAR>
0

>  <SCORE.INTER.ROT>
11

>  <SCORE.INTER.SOLV>
4.7967

>  <SCORE.INTER.VDW>
-6.60476

>  <SCORE.INTER.norm>
0.635086

>  <SCORE.INTRA>
-6.5961

>  <SCORE.INTRA.DIHEDRAL>
-17.3698

>  <SCORE.INTRA.DIHEDRAL.0>
20.2131

>  <SCORE.INTRA.POLAR>
0

>  <SCORE.INTRA.POLAR.0>
0

>  <SCORE.INTRA.REPUL>
0

>  <SCORE.INTRA.REPUL.0>
0

>  <SCORE.INTRA.SOLV>
2.83435

>  <SCORE.INTRA.SOLV.lig_0>
-48.2851

>  <SCORE.INTRA.VDW>
0.67161

>  <SCORE.INTRA.VDW.0>
-1.08658

>  <SCORE.INTRA.norm>
-0.47115

>  <SCORE.RESTR>
0

>  <SCORE.RESTR.CAVITY>
0

>  <SCORE.RESTR.norm>
0

>  <SCORE.SYSTEM>
0

>  <SCORE.SYSTEM.CONST>
0

>  <SCORE.SYSTEM.DIHEDRAL>
0

>  <SCORE.SYSTEM.SOLV>
0

>  <SCORE.SYSTEM.norm>
0

>  <SCORE.heavy>
14

>  <SCORE.norm>
0.163936

>  <RMSD>
2.869

$$$$
ligand
 OpenBabel11021811393D
libRbt.so/2013.1/901 2013/11/27
 14 13  0  0  0  0  0  0  0  0999 V2000
   36.7204   22.4747   33.5284 N   0  0  0  0  0  0  0  0  0  0  0  0
   37.9287   21.6809   33.6895 C   0  0  0  0  0  0  0  0  0  0  0  0
   38.0385   21.1615   35.1496 C   0  0  0  0  0  0  0  0  0  0  0  0
   36.9047   20.2134   35.6797 C   0  0  0  0  0  0  0  0  0  0  0  0
   37.2000   19.5164   36.9849 N   0  0  0  0  0  0  0  0  0  0  0  0
   37.8794   18.1981   36.8238 C   0  0  0  0  0  0  0  0  0  0  0  0
   39.3094   18.2978   36.3246 C   0  0  0  0  0  0  0  0  0  0  0  0
   40.2009   19.0901   37.2636 C   0  0  0  0  0  0  0  0  0  0  0  0
   41.4670   19.3611   36.5453 C   0  0  0  0  0  0  0  0  0  0  0  0
   42.4377   20.2199   37.2652 N   0  0  0  0  0  0  0  0  0  0  0  0
   41.9437   21.5974   37.5147 C   0  0  0  0  0  0  0  0  0  0  0  0
   42.8885   22.5201   38.3411 C   0  0  0  0  0  0  0  0  0  0  0  0
   42.1684   23.8600   38.5736 C   0  0  0  0  0  0  0  0  0  0  0  0
   41.9719   24.5657   37.3099 N   0  0  0  0  0  0  0  0  0  0  0  0
  1  2  1  0  0  0  0
  2  3  1  0  0  0  0
  3  4  1  0  0  0  0
  4  5  1  0  0  0  0
  5  6  1  0  0  0  0
  6  7  1  0  0  0  0
  7  8  1  0  0  0  0
  8  9  1  0  0  0  0
  9 10  1  0  0  0  0
 10 11  1  0  0  0  0
 11 12  1  0  0  0  0
 12 13  1  0  0  0  0
 13 14  1  0  0  0  0
M  END
>  <CHROM.1>
61.59632022,167.86331630,-89.63403166,69.35749708,60.39156901,-168.19193077
175.54005174,-63.50250119,176.55736113,-176.23648193,-65.79074158,39.79003188
20.91090792,36.49965889,2.85851857,0.56472598,2.88608479

>  <Name>
ligand

>  <RI>
0

>  <Rbt.Current_Directory>
/home/itssahil/PROJECTS/Mol_Feturizer/New_Systems/rnas/1EVV

>  <Rbt.Executable>
rbdock ($Id: //depot/dev/client3/rdock/2013.1/src/exe/rbdock.cxx#4 $)

>  <Rbt.Library>
libRbt.so (2013.1, Build901 2013/11/27)

>  <Rbt.Parameter_File>
/export/apps/rDock/src/rDock_2013.1_src/data/scripts/dock_solv.prm

>  <Rbt.Receptor>
prm/pocket_docking_3.prm

>  <SCORE>
-2.15074

>  <SCORE.INTER>
5.90909

>  <SCORE.INTER.CONST>
1

>  <SCORE.INTER.POLAR>
0

>  <SCORE.INTER.ROT>
11

>  <SCORE.INTER.SOLV>
5.98257

>  <SCORE.INTER.VDW>
-8.98813

>  <SCORE.INTER.norm>
0.422078

>  <SCORE.INTRA>
-8.05984

>  <SCORE.INTRA.DIHEDRAL>
-18.1646

>  <SCORE.INTRA.DIHEDRAL.0>
20.2131

>  <SCORE.INTRA.POLAR>
0

>  <SCORE.INTRA.POLAR.0>
0

>  <SCORE.INTRA.REPUL>
0

>  <SCORE.INTRA.REPUL.0>
0

>  <SCORE.INTRA.SOLV>
0.460069

>  <SCORE.INTRA.SOLV.lig_0>
-48.2851

>  <SCORE.INTRA.VDW>
0.792423

>  <SCORE.INTRA.VDW.0>
-1.08658

>  <SCORE.INTRA.norm>
-0.575703

>  <SCORE.RESTR>
0

>  <SCORE.RESTR.CAVITY>
0

>  <SCORE.RESTR.norm>
0

>  <SCORE.SYSTEM>
0

>  <SCORE.SYSTEM.CONST>
0

>  <SCORE.SYSTEM.DIHEDRAL>
0

>  <SCORE.SYSTEM.SOLV>
0

>  <SCORE.SYSTEM.norm>
0

>  <SCORE.heavy>
14

>  <SCORE.norm>
-0.153624

>  <RMSD>
2.882

$$$$
ligand
 OpenBabel11021811393D
libRbt.so/2013.1/901 2013/11/27
 14 13  0  0  0  0  0  0  0  0999 V2000
   43.2378   24.3333   38.2840 N   0  0  0  0  0  0  0  0  0  0  0  0
   42.0673   23.5787   37.8637 C   0  0  0  0  0  0  0  0  0  0  0  0
   42.3238   22.0553   38.0284 C   0  0  0  0  0  0  0  0  0  0  0  0
   43.4684   21.4058   37.1719 C   0  0  0  0  0  0  0  0  0  0  0  0
   43.5803   19.9044   37.2715 N   0  0  0  0  0  0  0  0  0  0  0  0
   42.4807   19.1710   36.5797 C   0  0  0  0  0  0  0  0  0  0  0  0
   41.9241   18.0024   37.3725 C   0  0  0  0  0  0  0  0  0  0  0  0
   40.6618   17.4277   36.7557 C   0  0  0  0  0  0  0  0  0  0  0  0
   39.5790   18.4153   36.9669 C   0  0  0  0  0  0  0  0  0  0  0  0
   38.2871   18.0952   36.3136 N   0  0  0  0  0  0  0  0  0  0  0  0
   37.1840   19.0131   36.6935 C   0  0  0  0  0  0  0  0  0  0  0  0
   37.3020   20.4741   36.1661 C   0  0  0  0  0  0  0  0  0  0  0  0
   37.1394   20.4470   34.6361 C   0  0  0  0  0  0  0  0  0  0  0  0
   37.2738   21.7908   34.0795 N   0  0  0  0  0  0  0  0  0  0  0  0
  1  2  1  0  0  0  0
  2  3  1  0  0  0  0
  3  4  1  0  0  0  0
  4  5  1  0  0  0  0
  5  6  1  0  0  0  0
  6  7  1  0  0  0  0
  7  8  1  0  0  0  0
  8  9  1  0  0  0  0
  9 10  1  0  0  0  0
 10 11  1  0  0  0  0
 11 12  1  0  0  0  0
 12 13  1  0  0  0  0
 13 14  1  0  0  0  0
M  END
>  <CHROM.1>
-63.04598504,-174.17811789,72.05405727,-136.78962487,170.24226306,-71.12001418
174.17316642,172.45540935,69.04515472,67.77979968,-178.62246464,40.46490903
20.29357309,36.72746131,0.41588667,-0.36567145,-0.01016192

>  <Name>
ligand

>  <RI>
0

>  <Rbt.Current_Directory>
/home/itssahil/PROJECTS/Mol_Feturizer/New_Systems/rnas/1EVV

>  <Rbt.Executable>
rbdock ($Id: //depot/dev/client3/rdock/2013.1/src/exe/rbdock.cxx#4 $)

>  <Rbt.Library>
libRbt.so (2013.1, Build901 2013/11/27)

>  <Rbt.Parameter_File>
/export/apps/rDock/src/rDock_2013.1_src/data/scripts/dock_solv.prm

>  <Rbt.Receptor>
prm/pocket_docking_3.prm

>  <SCORE>
-2.88646

>  <SCORE.INTER>
5.02192

>  <SCORE.INTER.CONST>
1

>  <SCORE.INTER.POLAR>
0

>  <SCORE.INTER.ROT>
11

>  <SCORE.INTER.SOLV>
5.94022

>  <SCORE.INTER.VDW>
-9.56546

>  <SCORE.INTER.norm>
0.358708

>  <SCORE.INTRA>
-7.90838

>  <SCORE.INTRA.DIHEDRAL>
-17.6232

>  <SCORE.INTRA.DIHEDRAL.0>
20.2131

>  <SCORE.INTRA.POLAR>
0

>  <SCORE.INTRA.POLAR.0>
0

>  <SCORE.INTRA.REPUL>
0

>  <SCORE.INTRA.REPUL.0>
0

>  <SCORE.INTRA.SOLV>
-0.158281

>  <SCORE.INTRA.SOLV.lig_0>
-48.2851

>  <SCORE.INTRA.VDW>
0.982362

>  <SCORE.INTRA.VDW.0>
-1.08658

>  <SCORE.INTRA.norm>
-0.564884

>  <SCORE.RESTR>
0

>  <SCORE.RESTR.CAVITY>
0

>  <SCORE.RESTR.norm>
0

>  <SCORE.SYSTEM>
0

>  <SCORE.SYSTEM.CONST>
0

>  <SCORE.SYSTEM.DIHEDRAL>
0

>  <SCORE.SYSTEM.SOLV>
0

>  <SCORE.SYSTEM.norm>
0

>  <SCORE.heavy>
14

>  <SCORE.norm>
-0.206176

>  <RMSD>
2.934

$$$$
ligand
 OpenBabel11021811393D
libRbt.so/2013.1/901 2013/11/27
 14 13  0  0  0  0  0  0  0  0999 V2000
   45.3901   26.8525   33.6371 N   0  0  0  0  0  0  0  0  0  0  0  0
   45.3321   25.5204   34.2187 C   0  0  0  0  0  0  0  0  0  0  0  0
   45.8038   25.5604   35.6984 C   0  0  0  0  0  0  0  0  0  0  0  0
   45.7453   24.2266   36.5249 C   0  0  0  0  0  0  0  0  0  0  0  0
   44.3815   23.5905   36.6335 N   0  0  0  0  0  0  0  0  0  0  0  0
   44.1022   22.9883   37.9695 C   0  0  0  0  0  0  0  0  0  0  0  0
   42.8116   22.1915   38.0296 C   0  0  0  0  0  0  0  0  0  0  0  0
   41.5896   23.0364   37.7181 C   0  0  0  0  0  0  0  0  0  0  0  0
   40.4155   22.1344   37.7302 C   0  0  0  0  0  0  0  0  0  0  0  0
   40.4325   21.0512   36.7180 N   0  0  0  0  0  0  0  0  0  0  0  0
   39.3735   20.0307   36.9197 C   0  0  0  0  0  0  0  0  0  0  0  0
   38.0073   20.3222   36.2304 C   0  0  0  0  0  0  0  0  0  0  0  0
   37.0410   19.1753   36.5752 C   0  0  0  0  0  0  0  0  0  0  0  0
   37.5390   17.9063   36.0507 N   0  0  0  0  0  0  0  0  0  0  0  0
  1  2  1  0  0  0  0
  2  3  1  0  0  0  0
  3  4  1  0  0  0  0
  4  5  1  0  0  0  0
  5  6  1  0  0  0  0
  6  7  1  0  0  0  0
  7  8  1  0  0  0  0
  8  9  1  0  0  0  0
  9 10  1  0  0  0  0
 10 11  1  0  0  0  0
 11 12  1  0  0  0  0
 12 13  1  0  0  0  0
 13 14  1  0  0  0  0
M  END
>  <CHROM.1>
177.00630834,-58.41820062,-141.63815893,-172.41942624,-60.61092341,176.72079092
-62.05052667,169.49087761,88.60752719,-178.93013952,-62.32657317,41.99751640
22.47051708,36.47558184,0.39189054,-0.57761528,-1.12976527

>  <Name>
ligand

>  <RI>
0

>  <Rbt.Current_Directory>
/home/itssahil/PROJECTS/Mol_Feturizer/New_Systems/rnas/1EVV

>  <Rbt.Executable>
rbdock ($Id: //depot/dev/client3/rdock/2013.1/src/exe/rbdock.cxx#4 $)

>  <Rbt.Library>
libRbt.so (2013.1, Build901 2013/11/27)

>  <Rbt.Parameter_File>
/export/apps/rDock/src/rDock_2013.1_src/data/scripts/dock_solv.prm

>  <Rbt.Receptor>
prm/pocket_docking_3.prm

>  <SCORE>
-3.36622

>  <SCORE.INTER>
5.39334

>  <SCORE.INTER.CONST>
1

>  <SCORE.INTER.POLAR>
0

>  <SCORE.INTER.ROT>
11

>  <SCORE.INTER.SOLV>
6.32801

>  <SCORE.INTER.VDW>
-9.44711

>  <SCORE.INTER.norm>
0.385239

>  <SCORE.INTRA>
-8.76158

>  <SCORE.INTRA.DIHEDRAL>
-18.5369

>  <SCORE.INTRA.DIHEDRAL.0>
20.2131

>  <SCORE.INTRA.POLAR>
0

>  <SCORE.INTRA.POLAR.0>
0

>  <SCORE.INTRA.REPUL>
0

>  <SCORE.INTRA.REPUL.0>
0

>  <SCORE.INTRA.SOLV>
0.589006

>  <SCORE.INTRA.SOLV.lig_0>
-48.2851

>  <SCORE.INTRA.VDW>
0.212353

>  <SCORE.INTRA.VDW.0>
-1.08658

>  <SCORE.INTRA.norm>
-0.625827

>  <SCORE.RESTR>
0.00202516

>  <SCORE.RESTR.CAVITY>
0.00202516

>  <SCORE.RESTR.norm>
0.000144654

>  <SCORE.SYSTEM>
0

>  <SCORE.SYSTEM.CONST>
0

>  <SCORE.SYSTEM.DIHEDRAL>
0

>  <SCORE.SYSTEM.SOLV>
0

>  <SCORE.SYSTEM.norm>
0

>  <SCORE.heavy>
14

>  <SCORE.norm>
-0.240444

>  <RMSD>
2.984

$$$$
ligand
 OpenBabel11021811393D
libRbt.so/2013.1/901 2013/11/27
 14 13  0  0  0  0  0  0  0  0999 V2000
   37.8463   17.5151   35.2040 N   0  0  0  0  0  0  0  0  0  0  0  0
   37.7020   17.9456   36.5860 C   0  0  0  0  0  0  0  0  0  0  0  0
   38.9154   18.8211   37.0043 C   0  0  0  0  0  0  0  0  0  0  0  0
   40.3468   18.1811   36.9220 C   0  0  0  0  0  0  0  0  0  0  0  0
   41.4863   19.0882   37.3160 N   0  0  0  0  0  0  0  0  0  0  0  0
   42.8237   18.6075   36.8624 C   0  0  0  0  0  0  0  0  0  0  0  0
   43.9306   19.6361   37.0064 C   0  0  0  0  0  0  0  0  0  0  0  0
   43.6481   20.9093   36.2297 C   0  0  0  0  0  0  0  0  0  0  0  0
   44.7770   21.8353   36.4757 C   0  0  0  0  0  0  0  0  0  0  0  0
   44.6797   23.1529   35.8029 N   0  0  0  0  0  0  0  0  0  0  0  0
   45.9242   23.9578   35.8866 C   0  0  0  0  0  0  0  0  0  0  0  0
   45.8318   25.4131   35.3386 C   0  0  0  0  0  0  0  0  0  0  0  0
   44.8175   26.1868   36.1992 C   0  0  0  0  0  0  0  0  0  0  0  0
   44.6042   27.5287   35.6631 N   0  0  0  0  0  0  0  0  0  0  0  0
  1  2  1  0  0  0  0
  2  3  1  0  0  0  0
  3  4  1  0  0  0  0
  4  5  1  0  0  0  0
  5  6  1  0  0  0  0
  6  7  1  0  0  0  0
  7  8  1  0  0  0  0
  8  9  1  0  0  0  0
  9 10  1  0  0  0  0
 10 11  1  0  0  0  0
 11 12  1  0  0  0  0
 12 13  1  0  0  0  0
 13 14  1  0  0  0  0
M  END
>  <CHROM.1>
-59.38101989,178.88821297,-163.25781227,168.39921732,-58.73794575,178.70828710
-179.57749948,-170.28440475,-173.38382832,63.23385480,-175.24579495,42.66689579
21.34113452,36.32133772,2.26386497,0.11275068,2.95316490

>  <Name>
ligand

>  <RI>
0

>  <Rbt.Current_Directory>
/home/itssahil/PROJECTS/Mol_Feturizer/New_Systems/rnas/1EVV

>  <Rbt.Executable>
rbdock ($Id: //depot/dev/client3/rdock/2013.1/src/exe/rbdock.cxx#4 $)

>  <Rbt.Library>
libRbt.so (2013.1, Build901 2013/11/27)

>  <Rbt.Parameter_File>
/export/apps/rDock/src/rDock_2013.1_src/data/scripts/dock_solv.prm

>  <Rbt.Receptor>
prm/pocket_docking_3.prm

>  <SCORE>
-2.37066

>  <SCORE.INTER>
7.50833

>  <SCORE.INTER.CONST>
1

>  <SCORE.INTER.POLAR>
0

>  <SCORE.INTER.ROT>
11

>  <SCORE.INTER.SOLV>
5.6313

>  <SCORE.INTER.VDW>
-7.80488

>  <SCORE.INTER.norm>
0.536309

>  <SCORE.INTRA>
-9.87899

>  <SCORE.INTRA.DIHEDRAL>
-19.6337

>  <SCORE.INTRA.DIHEDRAL.0>
20.2131

>  <SCORE.INTRA.POLAR>
0

>  <SCORE.INTRA.POLAR.0>
0

>  <SCORE.INTRA.REPUL>
0

>  <SCORE.INTRA.REPUL.0>
0

>  <SCORE.INTRA.SOLV>
0.0545259

>  <SCORE.INTRA.SOLV.lig_0>
-48.2851

>  <SCORE.INTRA.VDW>
-0.0894098

>  <SCORE.INTRA.VDW.0>
-1.08658

>  <SCORE.INTRA.norm>
-0.705642

>  <SCORE.RESTR>
0

>  <SCORE.RESTR.CAVITY>
0

>  <SCORE.RESTR.norm>
0

>  <SCORE.SYSTEM>
0

>  <SCORE.SYSTEM.CONST>
0

>  <SCORE.SYSTEM.DIHEDRAL>
0

>  <SCORE.SYSTEM.SOLV>
0

>  <SCORE.SYSTEM.norm>
0

>  <SCORE.heavy>
14

>  <SCORE.norm>
-0.169333

>  <RMSD>
3.039

$$$$
ligand
 OpenBabel11021811393D
libRbt.so/2013.1/901 2013/11/27
 14 13  0  0  0  0  0  0  0  0999 V2000
   38.3438   18.4503   35.7871 N   0  0  0  0  0  0  0  0  0  0  0  0
   38.1856   18.1854   37.2087 C   0  0  0  0  0  0  0  0  0  0  0  0
   39.2328   17.1386   37.6789 C   0  0  0  0  0  0  0  0  0  0  0  0
   40.7502   17.5374   37.6161 C   0  0  0  0  0  0  0  0  0  0  0  0
   41.2798   17.8581   36.2401 N   0  0  0  0  0  0  0  0  0  0  0  0
   42.7614   18.0244   36.1884 C   0  0  0  0  0  0  0  0  0  0  0  0
   43.2628   19.2975   36.8455 C   0  0  0  0  0  0  0  0  0  0  0  0
   42.6406   20.5463   36.2477 C   0  0  0  0  0  0  0  0  0  0  0  0
   43.2296   21.7105   36.9478 C   0  0  0  0  0  0  0  0  0  0  0  0
   44.6823   21.9158   36.7337 N   0  0  0  0  0  0  0  0  0  0  0  0
   44.9959   22.7936   35.5784 C   0  0  0  0  0  0  0  0  0  0  0  0
   44.8696   24.3252   35.8332 C   0  0  0  0  0  0  0  0  0  0  0  0
   45.1746   25.0581   34.5149 C   0  0  0  0  0  0  0  0  0  0  0  0
   45.0346   26.5022   34.6837 N   0  0  0  0  0  0  0  0  0  0  0  0
  1  2  1  0  0  0  0
  2  3  1  0  0  0  0
  3  4  1  0  0  0  0
  4  5  1  0  0  0  0
  5  6  1  0  0  0  0
  6  7  1  0  0  0  0
  7  8  1  0  0  0  0
  8  9  1  0  0  0  0
  9 10  1  0  0  0  0
 10 11  1  0  0  0  0
 11 12  1  0  0  0  0
 12 13  1  0  0  0  0
 13 14  1  0  0  0  0
M  END
>  <CHROM.1>
64.88184709,-61.25278218,-171.01948730,-71.52819819,-57.12514479,-178.74813357
65.38849541,90.57539057,80.05704269,-177.67888363,178.41223175,42.46030947
20.66717173,36.29333269,2.21893529,0.09287071,2.83527771

>  <Name>
ligand

>  <RI>
0

>  <Rbt.Current_Directory>
/home/itssahil/PROJECTS/Mol_Feturizer/New_Systems/rnas/1EVV

>  <Rbt.Executable>
rbdock ($Id: //depot/dev/client3/rdock/2013.1/src/exe/rbdock.cxx#4 $)

>  <Rbt.Library>
libRbt.so (2013.1, Build901 2013/11/27)

>  <Rbt.Parameter_File>
/export/apps/rDock/src/rDock_2013.1_src/data/scripts/dock_solv.prm

>  <Rbt.Receptor>
prm/pocket_docking_3.prm

>  <SCORE>
-0.484719

>  <SCORE.INTER>
7.65262

>  <SCORE.INTER.CONST>
1

>  <SCORE.INTER.POLAR>
0

>  <SCORE.INTER.ROT>
11

>  <SCORE.INTER.SOLV>
4.98604

>  <SCORE.INTER.VDW>
-7.4936

>  <SCORE.INTER.norm>
0.546616

>  <SCORE.INTRA>
-8.1389

>  <SCORE.INTRA.DIHEDRAL>
-18.85

>  <SCORE.INTRA.DIHEDRAL.0>
20.2131

>  <SCORE.INTRA.POLAR>
0

>  <SCORE.INTRA.POLAR.0>
0

>  <SCORE.INTRA.REPUL>
0

>  <SCORE.INTRA.REPUL.0>
0

>  <SCORE.INTRA.SOLV>
1.93815

>  <SCORE.INTRA.SOLV.lig_0>
-48.2851

>  <SCORE.INTRA.VDW>
0.317002

>  <SCORE.INTRA.VDW.0>
-1.08658

>  <SCORE.INTRA.norm>
-0.58135

>  <SCORE.RESTR>
0.00156366

>  <SCORE.RESTR.CAVITY>
0.00156366

>  <SCORE.RESTR.norm>
0.00011169

>  <SCORE.SYSTEM>
0

>  <SCORE.SYSTEM.CONST>
0

>  <SCORE.SYSTEM.DIHEDRAL>
0

>  <SCORE.SYSTEM.SOLV>
0

>  <SCORE.SYSTEM.norm>
0

>  <SCORE.heavy>
14

>  <SCORE.norm>
-0.0346228

>  <RMSD>
3.055

$$$$
ligand
 OpenBabel11021811393D
libRbt.so/2013.1/901 2013/11/27
 14 13  0  0  0  0  0  0  0  0999 V2000
   38.2430   24.5857   32.9990 N   0  0  0  0  0  0  0  0  0  0  0  0
   38.1192   23.1396   32.9007 C   0  0  0  0  0  0  0  0  0  0  0  0
   36.7440   22.6800   33.4585 C   0  0  0  0  0  0  0  0  0  0  0  0
   36.4316   21.1413   33.4677 C   0  0  0  0  0  0  0  0  0  0  0  0
   37.3706   20.2940   34.2904 N   0  0  0  0  0  0  0  0  0  0  0  0
   36.9918   20.1993   35.7302 C   0  0  0  0  0  0  0  0  0  0  0  0
   38.1726   20.2427   36.6831 C   0  0  0  0  0  0  0  0  0  0  0  0
   38.8251   21.6121   36.7410 C   0  0  0  0  0  0  0  0  0  0  0  0
   39.9446   21.5263   37.7063 C   0  0  0  0  0  0  0  0  0  0  0  0
   40.6631   22.7973   37.9645 N   0  0  0  0  0  0  0  0  0  0  0  0
   42.1393   22.6781   37.8635 C   0  0  0  0  0  0  0  0  0  0  0  0
   42.7170   22.5794   36.4202 C   0  0  0  0  0  0  0  0  0  0  0  0
   44.2521   22.5354   36.5192 C   0  0  0  0  0  0  0  0  0  0  0  0
   44.7751   23.8149   36.9911 N   0  0  0  0  0  0  0  0  0  0  0  0
  1  2  1  0  0  0  0
  2  3  1  0  0  0  0
  3  4  1  0  0  0  0
  4  5  1  0  0  0  0
  5  6  1  0  0  0  0
  6  7  1  0  0  0  0
  7  8  1  0  0  0  0
  8  9  1  0  0  0  0
  9 10  1  0  0  0  0
 10 11  1  0  0  0  0
 11 12  1  0  0  0  0
 12 13  1  0  0  0  0
 13 14  1  0  0  0  0
M  END
>  <CHROM.1>
-178.71604685,60.72840385,86.16929230,-140.63099389,70.19602661,179.46422171
-176.50133595,-130.72679672,75.13793989,177.17292377,-68.05182929,39.67041554
22.13013086,35.69543106,-2.88620261,0.43694811,2.22193322

>  <Name>
ligand

>  <RI>
0

>  <Rbt.Current_Directory>
/home/itssahil/PROJECTS/Mol_Feturizer/New_Systems/rnas/1EVV

>  <Rbt.Executable>
rbdock ($Id: //depot/dev/client3/rdock/2013.1/src/exe/rbdock.cxx#4 $)

>  <Rbt.Library>
libRbt.so (2013.1, Build901 2013/11/27)

>  <Rbt.Parameter_File>
/export/apps/rDock/src/rDock_2013.1_src/data/scripts/dock_solv.prm

>  <Rbt.Receptor>
prm/pocket_docking_3.prm

>  <SCORE>
-1.62463

>  <SCORE.INTER>
7.06491

>  <SCORE.INTER.CONST>
1

>  <SCORE.INTER.POLAR>
0

>  <SCORE.INTER.ROT>
11

>  <SCORE.INTER.SOLV>
3.71718

>  <SCORE.INTER.VDW>
-7.46245

>  <SCORE.INTER.norm>
0.504636

>  <SCORE.INTRA>
-8.68954

>  <SCORE.INTRA.DIHEDRAL>
-16.8518

>  <SCORE.INTRA.DIHEDRAL.0>
20.2131

>  <SCORE.INTRA.POLAR>
0

>  <SCORE.INTRA.POLAR.0>
0

>  <SCORE.INTRA.REPUL>
0

>  <SCORE.INTRA.REPUL.0>
0

>  <SCORE.INTRA.SOLV>
-0.0121713

>  <SCORE.INTRA.SOLV.lig_0>
-48.2851

>  <SCORE.INTRA.VDW>
-0.257536

>  <SCORE.INTRA.VDW.0>
-1.08658

>  <SCORE.INTRA.norm>
-0.620681

>  <SCORE.RESTR>
0

>  <SCORE.RESTR.CAVITY>
0

>  <SCORE.RESTR.norm>
0

>  <SCORE.SYSTEM>
0

>  <SCORE.SYSTEM.CONST>
0

>  <SCORE.SYSTEM.DIHEDRAL>
0

>  <SCORE.SYSTEM.SOLV>
0

>  <SCORE.SYSTEM.norm>
0

>  <SCORE.heavy>
14

>  <SCORE.norm>
-0.116045

>  <RMSD>
3.098

$$$$
ligand
 OpenBabel11021811393D
libRbt.so/2013.1/901 2013/11/27
 14 13  0  0  0  0  0  0  0  0999 V2000
   43.1033   23.7754   38.1543 N   0  0  0  0  0  0  0  0  0  0  0  0
   43.7384   22.5377   38.5794 C   0  0  0  0  0  0  0  0  0  0  0  0
   43.6244   21.4650   37.4613 C   0  0  0  0  0  0  0  0  0  0  0  0
   42.1917   20.9427   37.0872 C   0  0  0  0  0  0  0  0  0  0  0  0
   42.1387   19.9554   35.9474 N   0  0  0  0  0  0  0  0  0  0  0  0
   42.7448   18.6308   36.2689 C   0  0  0  0  0  0  0  0  0  0  0  0
   41.7375   17.4999   36.3719 C   0  0  0  0  0  0  0  0  0  0  0  0
   40.8780   17.5963   37.6193 C   0  0  0  0  0  0  0  0  0  0  0  0
   39.7870   18.5545   37.3298 C   0  0  0  0  0  0  0  0  0  0  0  0
   38.7769   18.0935   36.3473 N   0  0  0  0  0  0  0  0  0  0  0  0
   37.4216   18.6530   36.5792 C   0  0  0  0  0  0  0  0  0  0  0  0
   37.2272   20.1490   36.1905 C   0  0  0  0  0  0  0  0  0  0  0  0
   37.4423   20.2827   34.6727 C   0  0  0  0  0  0  0  0  0  0  0  0
   37.3265   21.6781   34.2566 N   0  0  0  0  0  0  0  0  0  0  0  0
  1  2  1  0  0  0  0
  2  3  1  0  0  0  0
  3  4  1  0  0  0  0
  4  5  1  0  0  0  0
  5  6  1  0  0  0  0
  6  7  1  0  0  0  0
  7  8  1  0  0  0  0
  8  9  1  0  0  0  0
  9 10  1  0  0  0  0
 10 11  1  0  0  0  0
 11 12  1  0  0  0  0
 12 13  1  0  0  0  0
 13 14  1  0  0  0  0
M  END
>  <CHROM.1>
-65.30466919,176.99318887,68.69089280,110.69074513,-71.65612767,82.12677367
69.15141552,149.64374207,74.25416681,63.19904975,-177.66322398,40.58139755
19.98635560,36.63345631,0.35853071,-0.35660415,-0.02287088

>  <Name>
ligand

>  <RI>
0

>  <Rbt.Current_Directory>
/home/itssahil/PROJECTS/Mol_Feturizer/New_Systems/rnas/1EVV

>  <Rbt.Executable>
rbdock ($Id: //depot/dev/client3/rdock/2013.1/src/exe/rbdock.cxx#4 $)

>  <Rbt.Library>
libRbt.so (2013.1, Build901 2013/11/27)

>  <Rbt.Parameter_File>
/export/apps/rDock/src/rDock_2013.1_src/data/scripts/dock_solv.prm

>  <Rbt.Receptor>
prm/pocket_docking_4.prm

>  <SCORE>
-2.34827

>  <SCORE.INTER>
4.14995

>  <SCORE.INTER.CONST>
1

>  <SCORE.INTER.POLAR>
0

>  <SCORE.INTER.ROT>
11

>  <SCORE.INTER.SOLV>
5.30355

>  <SCORE.INTER.VDW>
-9.93455

>  <SCORE.INTER.norm>
0.296425

>  <SCORE.INTRA>
-6.49823

>  <SCORE.INTRA.DIHEDRAL>
-15.409

>  <SCORE.INTRA.DIHEDRAL.0>
20.2131

>  <SCORE.INTRA.POLAR>
0

>  <SCORE.INTRA.POLAR.0>
0

>  <SCORE.INTRA.REPUL>
0

>  <SCORE.INTRA.REPUL.0>
0

>  <SCORE.INTRA.SOLV>
1.35428

>  <SCORE.INTRA.SOLV.lig_0>
-48.2851

>  <SCORE.INTRA.VDW>
0.529146

>  <SCORE.INTRA.VDW.0>
-1.08658

>  <SCORE.INTRA.norm>
-0.464159

>  <SCORE.RESTR>
0

>  <SCORE.RESTR.CAVITY>
0

>  <SCORE.RESTR.norm>
0

>  <SCORE.SYSTEM>
0

>  <SCORE.SYSTEM.CONST>
0

>  <SCORE.SYSTEM.DIHEDRAL>
0

>  <SCORE.SYSTEM.SOLV>
0

>  <SCORE.SYSTEM.norm>
0

>  <SCORE.heavy>
14

>  <SCORE.norm>
-0.167734

>  <RMSD>
3.106

$$$$
ligand
 OpenBabel11021811393D
libRbt.so/2013.1/901 2013/11/27
 14 13  0  0  0  0  0  0  0  0999 V2000
   37.3149   21.2114   32.9371 N   0  0  0  0  0  0  0  0  0  0  0  0
   37.1618   21.2232   34.3837 C   0  0  0  0  0  0  0  0  0  0  0  0
   37.5333   19.8348   34.9735 C   0  0  0  0  0  0  0  0  0  0  0  0
   37.5839   19.6897   36.5361 C   0  0  0  0  0  0  0  0  0  0  0  0
   38.0191   18.3387   37.0481 N   0  0  0  0  0  0  0  0  0  0  0  0
   39.3741   17.9251   36.5806 C   0  0  0  0  0  0  0  0  0  0  0  0
   40.4458   17.9983   37.6530 C   0  0  0  0  0  0  0  0  0  0  0  0
   41.8053   17.5472   37.1505 C   0  0  0  0  0  0  0  0  0  0  0  0
   42.3417   18.6317   36.2970 C   0  0  0  0  0  0  0  0  0  0  0  0
   42.7587   19.8607   37.0138 N   0  0  0  0  0  0  0  0  0  0  0  0
   41.7005   20.8997   37.0799 C   0  0  0  0  0  0  0  0  0  0  0  0
   42.0434   22.1682   37.9166 C   0  0  0  0  0  0  0  0  0  0  0  0
   40.8113   23.0901   37.9182 C   0  0  0  0  0  0  0  0  0  0  0  0
   40.5777   23.6407   36.5857 N   0  0  0  0  0  0  0  0  0  0  0  0
  1  2  1  0  0  0  0
  2  3  1  0  0  0  0
  3  4  1  0  0  0  0
  4  5  1  0  0  0  0
  5  6  1  0  0  0  0
  6  7  1  0  0  0  0
  7  8  1  0  0  0  0
  8  9  1  0  0  0  0
  9 10  1  0  0  0  0
 10 11  1  0  0  0  0
 11 12  1  0  0  0  0
 12 13  1  0  0  0  0
 13 14  1  0  0  0  0
M  END
>  <CHROM.1>
173.43957022,-176.98335145,58.58924964,106.40040644,178.96556081,74.83823417
70.85990147,-93.88778808,175.40919361,-177.48465612,-68.31777054,39.96236389
20.14685169,36.43405728,-3.05695766,0.51974789,3.05345064

>  <Name>
ligand

>  <RI>
0

>  <Rbt.Current_Directory>
/home/itssahil/PROJECTS/Mol_Feturizer/New_Systems/rnas/1EVV

>  <Rbt.Executable>
rbdock ($Id: //depot/dev/client3/rdock/2013.1/src/exe/rbdock.cxx#4 $)

>  <Rbt.Library>
libRbt.so (2013.1, Build901 2013/11/27)

>  <Rbt.Parameter_File>
/export/apps/rDock/src/rDock_2013.1_src/data/scripts/dock_solv.prm

>  <Rbt.Receptor>
prm/pocket_docking_3.prm

>  <SCORE>
-2.04983

>  <SCORE.INTER>
5.28783

>  <SCORE.INTER.CONST>
1

>  <SCORE.INTER.POLAR>
0

>  <SCORE.INTER.ROT>
11

>  <SCORE.INTER.SOLV>
6.21677

>  <SCORE.INTER.VDW>
-9.48037

>  <SCORE.INTER.norm>
0.377702

>  <SCORE.INTRA>
-7.33766

>  <SCORE.INTRA.DIHEDRAL>
-16.6253

>  <SCORE.INTRA.DIHEDRAL.0>
20.2131

>  <SCORE.INTRA.POLAR>
0

>  <SCORE.INTRA.POLAR.0>
0

>  <SCORE.INTRA.REPUL>
0

>  <SCORE.INTRA.REPUL.0>
0

>  <SCORE.INTRA.SOLV>
0.0755315

>  <SCORE.INTRA.SOLV.lig_0>
-48.2851

>  <SCORE.INTRA.VDW>
0.937203

>  <SCORE.INTRA.VDW.0>
-1.08658

>  <SCORE.INTRA.norm>
-0.524119

>  <SCORE.RESTR>
0

>  <SCORE.RESTR.CAVITY>
0

>  <SCORE.RESTR.norm>
0

>  <SCORE.SYSTEM>
0

>  <SCORE.SYSTEM.CONST>
0

>  <SCORE.SYSTEM.DIHEDRAL>
0

>  <SCORE.SYSTEM.SOLV>
0

>  <SCORE.SYSTEM.norm>
0

>  <SCORE.heavy>
14

>  <SCORE.norm>
-0.146417

>  <RMSD>
3.142

$$$$
ligand
 OpenBabel11021811393D
libRbt.so/2013.1/901 2013/11/27
 14 13  0  0  0  0  0  0  0  0999 V2000
   38.6356   20.5905   34.7019 N   0  0  0  0  0  0  0  0  0  0  0  0
   37.8152   21.0353   35.8178 C   0  0  0  0  0  0  0  0  0  0  0  0
   36.9358   19.8644   36.3370 C   0  0  0  0  0  0  0  0  0  0  0  0
   37.6597   18.6418   37.0054 C   0  0  0  0  0  0  0  0  0  0  0  0
   38.6380   17.9061   36.1232 N   0  0  0  0  0  0  0  0  0  0  0  0
   39.4111   16.8464   36.8337 C   0  0  0  0  0  0  0  0  0  0  0  0
   40.8777   16.7881   36.4469 C   0  0  0  0  0  0  0  0  0  0  0  0
   41.6170   18.0744   36.7680 C   0  0  0  0  0  0  0  0  0  0  0  0
   43.0001   17.9261   36.2608 C   0  0  0  0  0  0  0  0  0  0  0  0
   43.8978   19.0798   36.5089 N   0  0  0  0  0  0  0  0  0  0  0  0
   43.7765   20.1577   35.4955 C   0  0  0  0  0  0  0  0  0  0  0  0
   44.8140   21.3145   35.6047 C   0  0  0  0  0  0  0  0  0  0  0  0
   44.5809   22.2812   34.4303 C   0  0  0  0  0  0  0  0  0  0  0  0
   43.3048   22.9760   34.5801 N   0  0  0  0  0  0  0  0  0  0  0  0
  1  2  1  0  0  0  0
  2  3  1  0  0  0  0
  3  4  1  0  0  0  0
  4  5  1  0  0  0  0
  5  6  1  0  0  0  0
  6  7  1  0  0  0  0
  7  8  1  0  0  0  0
  8  9  1  0  0  0  0
  9 10  1  0  0  0  0
 10 11  1  0  0  0  0
 11 12  1  0  0  0  0
 12 13  1  0  0  0  0
 13 14  1  0  0  0  0
M  END
>  <CHROM.1>
66.31977234,-60.23674420,173.79244827,-138.92060715,61.30574783,-176.10866567
-178.67226035,-83.90006239,-172.84058822,176.72409133,68.09564074,41.06884914
19.53421000,35.92261665,2.72654974,-0.03042748,2.78939719

>  <Name>
ligand

>  <RI>
0

>  <Rbt.Current_Directory>
/home/itssahil/PROJECTS/Mol_Feturizer/New_Systems/rnas/1EVV

>  <Rbt.Executable>
rbdock ($Id: //depot/dev/client3/rdock/2013.1/src/exe/rbdock.cxx#4 $)

>  <Rbt.Library>
libRbt.so (2013.1, Build901 2013/11/27)

>  <Rbt.Parameter_File>
/export/apps/rDock/src/rDock_2013.1_src/data/scripts/dock_solv.prm

>  <Rbt.Receptor>
prm/pocket_docking_3.prm

>  <SCORE>
-2.34107

>  <SCORE.INTER>
5.78291

>  <SCORE.INTER.CONST>
1

>  <SCORE.INTER.POLAR>
0

>  <SCORE.INTER.ROT>
11

>  <SCORE.INTER.SOLV>
4.07843

>  <SCORE.INTER.VDW>
-8.43753

>  <SCORE.INTER.norm>
0.413065

>  <SCORE.INTRA>
-8.12398

>  <SCORE.INTRA.DIHEDRAL>
-18.2885

>  <SCORE.INTRA.DIHEDRAL.0>
20.2131

>  <SCORE.INTRA.POLAR>
0

>  <SCORE.INTRA.POLAR.0>
0

>  <SCORE.INTRA.REPUL>
0

>  <SCORE.INTRA.REPUL.0>
0

>  <SCORE.INTRA.SOLV>
2.44741

>  <SCORE.INTRA.SOLV.lig_0>
-48.2851

>  <SCORE.INTRA.VDW>
-0.203461

>  <SCORE.INTRA.VDW.0>
-1.08658

>  <SCORE.INTRA.norm>
-0.580285

>  <SCORE.RESTR>
0

>  <SCORE.RESTR.CAVITY>
0

>  <SCORE.RESTR.norm>
0

>  <SCORE.SYSTEM>
0

>  <SCORE.SYSTEM.CONST>
0

>  <SCORE.SYSTEM.DIHEDRAL>
0

>  <SCORE.SYSTEM.SOLV>
0

>  <SCORE.SYSTEM.norm>
0

>  <SCORE.heavy>
14

>  <SCORE.norm>
-0.167219

>  <RMSD>
3.185

$$$$
ligand
 OpenBabel11021811393D
libRbt.so/2013.1/901 2013/11/27
 14 13  0  0  0  0  0  0  0  0999 V2000
   38.9030   16.5265   35.6326 N   0  0  0  0  0  0  0  0  0  0  0  0
   38.5136   17.9240   35.5255 C   0  0  0  0  0  0  0  0  0  0  0  0
   37.3709   18.2407   36.5293 C   0  0  0  0  0  0  0  0  0  0  0  0
   36.7777   19.6945   36.5330 C   0  0  0  0  0  0  0  0  0  0  0  0
   37.7601   20.7948   36.8504 N   0  0  0  0  0  0  0  0  0  0  0  0
   38.4291   21.3706   35.6478 C   0  0  0  0  0  0  0  0  0  0  0  0
   39.8422   21.8622   35.9038 C   0  0  0  0  0  0  0  0  0  0  0  0
   39.9129   22.8694   37.0373 C   0  0  0  0  0  0  0  0  0  0  0  0
   41.2990   23.3883   37.0799 C   0  0  0  0  0  0  0  0  0  0  0  0
   42.3417   22.3946   37.4314 N   0  0  0  0  0  0  0  0  0  0  0  0
   43.7233   22.9345   37.3716 C   0  0  0  0  0  0  0  0  0  0  0  0
   44.3357   23.0811   35.9467 C   0  0  0  0  0  0  0  0  0  0  0  0
   45.6913   23.7975   36.0779 C   0  0  0  0  0  0  0  0  0  0  0  0
   45.5079   25.1629   36.5633 N   0  0  0  0  0  0  0  0  0  0  0  0
  1  2  1  0  0  0  0
  2  3  1  0  0  0  0
  3  4  1  0  0  0  0
  4  5  1  0  0  0  0
  5  6  1  0  0  0  0
  6  7  1  0  0  0  0
  7  8  1  0  0  0  0
  8  9  1  0  0  0  0
  9 10  1  0  0  0  0
 10 11  1  0  0  0  0
 11 12  1  0  0  0  0
 12 13  1  0  0  0  0
 13 14  1  0  0  0  0
M  END
>  <CHROM.1>
-178.04020848,-60.28989147,90.86680593,-148.62498961,-55.22354712,-173.35900168
-65.09039769,176.03666255,-77.46919525,173.65160695,-65.01192977,40.74329906
21.43162227,36.43781653,-2.49045440,0.10121242,0.22331121

>  <Name>
ligand

>  <RI>
0

>  <Rbt.Current_Directory>
/home/itssahil/PROJECTS/Mol_Feturizer/New_Systems/rnas/1EVV

>  <Rbt.Executable>
rbdock ($Id: //depot/dev/client3/rdock/2013.1/src/exe/rbdock.cxx#4 $)

>  <Rbt.Library>
libRbt.so (2013.1, Build901 2013/11/27)

>  <Rbt.Parameter_File>
/export/apps/rDock/src/rDock_2013.1_src/data/scripts/dock_solv.prm

>  <Rbt.Receptor>
prm/pocket_docking_3.prm

>  <SCORE>
-1.08581

>  <SCORE.INTER>
7.39685

>  <SCORE.INTER.CONST>
1

>  <SCORE.INTER.POLAR>
0

>  <SCORE.INTER.ROT>
11

>  <SCORE.INTER.SOLV>
4.37031

>  <SCORE.INTER.VDW>
-7.45887

>  <SCORE.INTER.norm>
0.528346

>  <SCORE.INTRA>
-8.5025

>  <SCORE.INTRA.DIHEDRAL>
-18.069

>  <SCORE.INTRA.DIHEDRAL.0>
20.2131

>  <SCORE.INTRA.POLAR>
0

>  <SCORE.INTRA.POLAR.0>
0

>  <SCORE.INTRA.REPUL>
0

>  <SCORE.INTRA.REPUL.0>
0

>  <SCORE.INTRA.SOLV>
0.652989

>  <SCORE.INTRA.SOLV.lig_0>
-48.2851

>  <SCORE.INTRA.VDW>
0.205533

>  <SCORE.INTRA.VDW.0>
-1.08658

>  <SCORE.INTRA.norm>
-0.607321

>  <SCORE.RESTR>
0.0198414

>  <SCORE.RESTR.CAVITY>
0.0198414

>  <SCORE.RESTR.norm>
0.00141725

>  <SCORE.SYSTEM>
0

>  <SCORE.SYSTEM.CONST>
0

>  <SCORE.SYSTEM.DIHEDRAL>
0

>  <SCORE.SYSTEM.SOLV>
0

>  <SCORE.SYSTEM.norm>
0

>  <SCORE.heavy>
14

>  <SCORE.norm>
-0.0775577

>  <RMSD>
3.191

$$$$
ligand
 OpenBabel11021811393D
libRbt.so/2013.1/901 2013/11/27
 14 13  0  0  0  0  0  0  0  0999 V2000
   44.0158   23.8010   38.1320 N   0  0  0  0  0  0  0  0  0  0  0  0
   43.7200   22.6027   38.9019 C   0  0  0  0  0  0  0  0  0  0  0  0
   44.7791   21.5038   38.6116 C   0  0  0  0  0  0  0  0  0  0  0  0
   44.9233   20.9941   37.1335 C   0  0  0  0  0  0  0  0  0  0  0  0
   43.6579   20.4666   36.5032 N   0  0  0  0  0  0  0  0  0  0  0  0
   43.2090   19.1567   37.0583 C   0  0  0  0  0  0  0  0  0  0  0  0
   41.7485   18.8412   36.7911 C   0  0  0  0  0  0  0  0  0  0  0  0
   41.3117   17.5287   37.4162 C   0  0  0  0  0  0  0  0  0  0  0  0
   39.8960   17.3115   37.0408 C   0  0  0  0  0  0  0  0  0  0  0  0
   38.9461   18.3509   37.5049 N   0  0  0  0  0  0  0  0  0  0  0  0
   37.6176   18.2807   36.8461 C   0  0  0  0  0  0  0  0  0  0  0  0
   37.0163   19.6400   36.3800 C   0  0  0  0  0  0  0  0  0  0  0  0
   37.9855   20.2712   35.3650 C   0  0  0  0  0  0  0  0  0  0  0  0
   37.4496   21.5306   34.8548 N   0  0  0  0  0  0  0  0  0  0  0  0
  1  2  1  0  0  0  0
  2  3  1  0  0  0  0
  3  4  1  0  0  0  0
  4  5  1  0  0  0  0
  5  6  1  0  0  0  0
  6  7  1  0  0  0  0
  7  8  1  0  0  0  0
  8  9  1  0  0  0  0
  9 10  1  0  0  0  0
 10 11  1  0  0  0  0
 11 12  1  0  0  0  0
 12 13  1  0  0  0  0
 13 14  1  0  0  0  0
M  END
>  <CHROM.1>
-60.28594106,-55.88375209,-71.18548856,160.72213710,-177.71727785,-177.79164742
-60.76010849,166.04712142,-135.74370768,60.03793111,177.97610812,41.16266288
20.01957423,37.03865240,0.35395492,-0.28707953,-0.08113933

>  <Name>
ligand

>  <RI>
0

>  <Rbt.Current_Directory>
/home/itssahil/PROJECTS/Mol_Feturizer/New_Systems/rnas/1EVV

>  <Rbt.Executable>
rbdock ($Id: //depot/dev/client3/rdock/2013.1/src/exe/rbdock.cxx#4 $)

>  <Rbt.Library>
libRbt.so (2013.1, Build901 2013/11/27)

>  <Rbt.Parameter_File>
/export/apps/rDock/src/rDock_2013.1_src/data/scripts/dock_solv.prm

>  <Rbt.Receptor>
prm/pocket_docking_4.prm

>  <SCORE>
-4.12766

>  <SCORE.INTER>
4.70083

>  <SCORE.INTER.CONST>
1

>  <SCORE.INTER.POLAR>
0

>  <SCORE.INTER.ROT>
11

>  <SCORE.INTER.SOLV>
6.0601

>  <SCORE.INTER.VDW>
-9.81948

>  <SCORE.INTER.norm>
0.335774

>  <SCORE.INTRA>
-8.82849

>  <SCORE.INTRA.DIHEDRAL>
-18.5501

>  <SCORE.INTRA.DIHEDRAL.0>
20.2131

>  <SCORE.INTRA.POLAR>
0

>  <SCORE.INTRA.POLAR.0>
0

>  <SCORE.INTRA.REPUL>
0

>  <SCORE.INTRA.REPUL.0>
0

>  <SCORE.INTRA.SOLV>
1.0519

>  <SCORE.INTRA.SOLV.lig_0>
-48.2851

>  <SCORE.INTRA.VDW>
-0.0794029

>  <SCORE.INTRA.VDW.0>
-1.08658

>  <SCORE.INTRA.norm>
-0.630606

>  <SCORE.RESTR>
0

>  <SCORE.RESTR.CAVITY>
0

>  <SCORE.RESTR.norm>
0

>  <SCORE.SYSTEM>
0

>  <SCORE.SYSTEM.CONST>
0

>  <SCORE.SYSTEM.DIHEDRAL>
0

>  <SCORE.SYSTEM.SOLV>
0

>  <SCORE.SYSTEM.norm>
0

>  <SCORE.heavy>
14

>  <SCORE.norm>
-0.294833

>  <RMSD>
3.203

$$$$
ligand
 OpenBabel11021811393D
libRbt.so/2013.1/901 2013/11/27
 14 13  0  0  0  0  0  0  0  0999 V2000
   37.1246   21.6406   32.5570 N   0  0  0  0  0  0  0  0  0  0  0  0
   37.0270   20.5420   33.5055 C   0  0  0  0  0  0  0  0  0  0  0  0
   37.1957   21.0700   34.9568 C   0  0  0  0  0  0  0  0  0  0  0  0
   37.1544   20.0256   36.1285 C   0  0  0  0  0  0  0  0  0  0  0  0
   38.2226   18.9608   36.0858 N   0  0  0  0  0  0  0  0  0  0  0  0
   38.0054   17.8501   37.0578 C   0  0  0  0  0  0  0  0  0  0  0  0
   39.1692   16.8808   37.1573 C   0  0  0  0  0  0  0  0  0  0  0  0
   40.3899   17.5005   37.8131 C   0  0  0  0  0  0  0  0  0  0  0  0
   40.9860   18.4397   36.8360 C   0  0  0  0  0  0  0  0  0  0  0  0
   42.2451   19.0939   37.2662 N   0  0  0  0  0  0  0  0  0  0  0  0
   42.4525   20.4372   36.6695 C   0  0  0  0  0  0  0  0  0  0  0  0
   41.9904   21.6459   37.5368 C   0  0  0  0  0  0  0  0  0  0  0  0
   42.2633   22.9372   36.7454 C   0  0  0  0  0  0  0  0  0  0  0  0
   41.8793   24.1108   37.5256 N   0  0  0  0  0  0  0  0  0  0  0  0
  1  2  1  0  0  0  0
  2  3  1  0  0  0  0
  3  4  1  0  0  0  0
  4  5  1  0  0  0  0
  5  6  1  0  0  0  0
  6  7  1  0  0  0  0
  7  8  1  0  0  0  0
  8  9  1  0  0  0  0
  9 10  1  0  0  0  0
 10 11  1  0  0  0  0
 11 12  1  0  0  0  0
 12 13  1  0  0  0  0
 13 14  1  0  0  0  0
M  END
>  <CHROM.1>
-178.60040575,60.69406019,-169.30895598,-171.88156675,69.47892063,-73.25095317
-176.64921467,-150.96082141,95.33440887,-179.03957053,-178.58365108,39.72174961
20.08071702,36.27455234,3.06139968,0.54194809,2.77567138

>  <Name>
ligand

>  <RI>
0

>  <Rbt.Current_Directory>
/home/itssahil/PROJECTS/Mol_Feturizer/New_Systems/rnas/1EVV

>  <Rbt.Executable>
rbdock ($Id: //depot/dev/client3/rdock/2013.1/src/exe/rbdock.cxx#4 $)

>  <Rbt.Library>
libRbt.so (2013.1, Build901 2013/11/27)

>  <Rbt.Parameter_File>
/export/apps/rDock/src/rDock_2013.1_src/data/scripts/dock_solv.prm

>  <Rbt.Receptor>
prm/pocket_docking_3.prm

>  <SCORE>
-2.85737

>  <SCORE.INTER>
5.51893

>  <SCORE.INTER.CONST>
1

>  <SCORE.INTER.POLAR>
0

>  <SCORE.INTER.ROT>
11

>  <SCORE.INTER.SOLV>
4.66709

>  <SCORE.INTER.VDW>
-8.80974

>  <SCORE.INTER.norm>
0.394209

>  <SCORE.INTRA>
-8.3763

>  <SCORE.INTRA.DIHEDRAL>
-17.6298

>  <SCORE.INTRA.DIHEDRAL.0>
20.2131

>  <SCORE.INTRA.POLAR>
0

>  <SCORE.INTRA.POLAR.0>
0

>  <SCORE.INTRA.REPUL>
0

>  <SCORE.INTRA.REPUL.0>
0

>  <SCORE.INTRA.SOLV>
0.0850758

>  <SCORE.INTRA.SOLV.lig_0>
-48.2851

>  <SCORE.INTRA.VDW>
0.396063

>  <SCORE.INTRA.VDW.0>
-1.08658

>  <SCORE.INTRA.norm>
-0.598307

>  <SCORE.RESTR>
0

>  <SCORE.RESTR.CAVITY>
0

>  <SCORE.RESTR.norm>
0

>  <SCORE.SYSTEM>
0

>  <SCORE.SYSTEM.CONST>
0

>  <SCORE.SYSTEM.DIHEDRAL>
0

>  <SCORE.SYSTEM.SOLV>
0

>  <SCORE.SYSTEM.norm>
0

>  <SCORE.heavy>
14

>  <SCORE.norm>
-0.204098

>  <RMSD>
3.216

$$$$
ligand
 OpenBabel11021811393D
libRbt.so/2013.1/901 2013/11/27
 14 13  0  0  0  0  0  0  0  0999 V2000
   37.9223   20.3529   34.0353 N   0  0  0  0  0  0  0  0  0  0  0  0
   37.7911   20.9478   35.3563 C   0  0  0  0  0  0  0  0  0  0  0  0
   36.8138   20.1106   36.2267 C   0  0  0  0  0  0  0  0  0  0  0  0
   37.2057   18.6249   36.5500 C   0  0  0  0  0  0  0  0  0  0  0  0
   38.4474   18.4499   37.3891 N   0  0  0  0  0  0  0  0  0  0  0  0
   38.9391   17.0428   37.4515 C   0  0  0  0  0  0  0  0  0  0  0  0
   40.3088   16.8955   38.0887 C   0  0  0  0  0  0  0  0  0  0  0  0
   41.4015   17.5794   37.2872 C   0  0  0  0  0  0  0  0  0  0  0  0
   41.2852   19.0344   37.5357 C   0  0  0  0  0  0  0  0  0  0  0  0
   42.3276   19.8756   36.9000 N   0  0  0  0  0  0  0  0  0  0  0  0
   42.3569   21.2711   37.4053 C   0  0  0  0  0  0  0  0  0  0  0  0
   41.2103   22.2000   36.9061 C   0  0  0  0  0  0  0  0  0  0  0  0
   41.4521   23.6094   37.4745 C   0  0  0  0  0  0  0  0  0  0  0  0
   40.4474   24.5455   36.9765 N   0  0  0  0  0  0  0  0  0  0  0  0
  1  2  1  0  0  0  0
  2  3  1  0  0  0  0
  3  4  1  0  0  0  0
  4  5  1  0  0  0  0
  5  6  1  0  0  0  0
  6  7  1  0  0  0  0
  7  8  1  0  0  0  0
  8  9  1  0  0  0  0
  9 10  1  0  0  0  0
 10 11  1  0  0  0  0
 11 12  1  0  0  0  0
 12 13  1  0  0  0  0
 13 14  1  0  0  0  0
M  END
>  <CHROM.1>
62.41325003,64.40234161,-168.61508164,170.02425856,-64.28317297,76.20368526
176.37154314,-167.33292245,-74.72138570,-177.11651154,176.75000137,39.85066708
20.03825448,36.82756246,2.05502358,0.38478261,2.95443274

>  <Name>
ligand

>  <RI>
0

>  <Rbt.Current_Directory>
/home/itssahil/PROJECTS/Mol_Feturizer/New_Systems/rnas/1EVV

>  <Rbt.Executable>
rbdock ($Id: //depot/dev/client3/rdock/2013.1/src/exe/rbdock.cxx#4 $)

>  <Rbt.Library>
libRbt.so (2013.1, Build901 2013/11/27)

>  <Rbt.Parameter_File>
/export/apps/rDock/src/rDock_2013.1_src/data/scripts/dock_solv.prm

>  <Rbt.Receptor>
prm/pocket_docking_3.prm

>  <SCORE>
-3.82426

>  <SCORE.INTER>
4.53461

>  <SCORE.INTER.CONST>
1

>  <SCORE.INTER.POLAR>
0

>  <SCORE.INTER.ROT>
11

>  <SCORE.INTER.SOLV>
7.1958

>  <SCORE.INTER.VDW>
-10.3089

>  <SCORE.INTER.norm>
0.323901

>  <SCORE.INTRA>
-8.36342

>  <SCORE.INTRA.DIHEDRAL>
-18.411

>  <SCORE.INTRA.DIHEDRAL.0>
20.2131

>  <SCORE.INTRA.POLAR>
0

>  <SCORE.INTRA.POLAR.0>
0

>  <SCORE.INTRA.REPUL>
0

>  <SCORE.INTRA.REPUL.0>
0

>  <SCORE.INTRA.SOLV>
1.23625

>  <SCORE.INTRA.SOLV.lig_0>
-48.2851

>  <SCORE.INTRA.VDW>
0.223947

>  <SCORE.INTRA.VDW.0>
-1.08658

>  <SCORE.INTRA.norm>
-0.597387

>  <SCORE.RESTR>
0.00454824

>  <SCORE.RESTR.CAVITY>
0.00454824

>  <SCORE.RESTR.norm>
0.000324875

>  <SCORE.SYSTEM>
0

>  <SCORE.SYSTEM.CONST>
0

>  <SCORE.SYSTEM.DIHEDRAL>
0

>  <SCORE.SYSTEM.SOLV>
0

>  <SCORE.SYSTEM.norm>
0

>  <SCORE.heavy>
14

>  <SCORE.norm>
-0.273161

>  <RMSD>
3.246

$$$$
ligand
 OpenBabel11021811393D
libRbt.so/2013.1/901 2013/11/27
 14 13  0  0  0  0  0  0  0  0999 V2000
   37.4209   21.6071   32.9750 N   0  0  0  0  0  0  0  0  0  0  0  0
   36.6125   21.2632   34.1345 C   0  0  0  0  0  0  0  0  0  0  0  0
   37.3993   20.3064   35.0720 C   0  0  0  0  0  0  0  0  0  0  0  0
   36.7033   19.8424   36.4008 C   0  0  0  0  0  0  0  0  0  0  0  0
   37.4894   18.8626   37.2366 N   0  0  0  0  0  0  0  0  0  0  0  0
   37.7181   17.5484   36.5687 C   0  0  0  0  0  0  0  0  0  0  0  0
   39.0274   16.8819   36.9503 C   0  0  0  0  0  0  0  0  0  0  0  0
   40.2393   17.6921   36.5271 C   0  0  0  0  0  0  0  0  0  0  0  0
   40.3808   18.8085   37.4892 C   0  0  0  0  0  0  0  0  0  0  0  0
   41.3959   19.8300   37.1364 N   0  0  0  0  0  0  0  0  0  0  0  0
   41.1265   21.1657   37.7255 C   0  0  0  0  0  0  0  0  0  0  0  0
   42.3101   22.1778   37.6872 C   0  0  0  0  0  0  0  0  0  0  0  0
   41.8169   23.5158   38.2657 C   0  0  0  0  0  0  0  0  0  0  0  0
   42.8661   24.5290   38.1878 N   0  0  0  0  0  0  0  0  0  0  0  0
  1  2  1  0  0  0  0
  2  3  1  0  0  0  0
  3  4  1  0  0  0  0
  4  5  1  0  0  0  0
  5  6  1  0  0  0  0
  6  7  1  0  0  0  0
  7  8  1  0  0  0  0
  8  9  1  0  0  0  0
  9 10  1  0  0  0  0
 10 11  1  0  0  0  0
 11 12  1  0  0  0  0
 12 13  1  0  0  0  0
 13 14  1  0  0  0  0
M  END
>  <CHROM.1>
178.74014847,177.18195537,-64.15639185,148.10506255,-63.28762724,76.90837100
-171.62124362,154.50907528,165.68094496,176.86801144,-176.89174639,39.46461011
20.28755664,36.59699227,2.65834885,0.61511508,2.85537104

>  <Name>
ligand

>  <RI>
0

>  <Rbt.Current_Directory>
/home/itssahil/PROJECTS/Mol_Feturizer/New_Systems/rnas/1EVV

>  <Rbt.Executable>
rbdock ($Id: //depot/dev/client3/rdock/2013.1/src/exe/rbdock.cxx#4 $)

>  <Rbt.Library>
libRbt.so (2013.1, Build901 2013/11/27)

>  <Rbt.Parameter_File>
/export/apps/rDock/src/rDock_2013.1_src/data/scripts/dock_solv.prm

>  <Rbt.Receptor>
prm/pocket_docking_3.prm

>  <SCORE>
-4.72504

>  <SCORE.INTER>
3.38474

>  <SCORE.INTER.CONST>
1

>  <SCORE.INTER.POLAR>
0

>  <SCORE.INTER.ROT>
11

>  <SCORE.INTER.SOLV>
6.25923

>  <SCORE.INTER.VDW>
-10.7633

>  <SCORE.INTER.norm>
0.241767

>  <SCORE.INTRA>
-8.11033

>  <SCORE.INTRA.DIHEDRAL>
-17.3845

>  <SCORE.INTRA.DIHEDRAL.0>
20.2131

>  <SCORE.INTRA.POLAR>
0

>  <SCORE.INTRA.POLAR.0>
0

>  <SCORE.INTRA.REPUL>
0

>  <SCORE.INTRA.REPUL.0>
0

>  <SCORE.INTRA.SOLV>
0.0912022

>  <SCORE.INTRA.SOLV.lig_0>
-48.2851

>  <SCORE.INTRA.VDW>
0.536303

>  <SCORE.INTRA.VDW.0>
-1.08658

>  <SCORE.INTRA.norm>
-0.579309

>  <SCORE.RESTR>
0.000555704

>  <SCORE.RESTR.CAVITY>
0.000555704

>  <SCORE.RESTR.norm>
3.96932e-05

>  <SCORE.SYSTEM>
0

>  <SCORE.SYSTEM.CONST>
0

>  <SCORE.SYSTEM.DIHEDRAL>
0

>  <SCORE.SYSTEM.SOLV>
0

>  <SCORE.SYSTEM.norm>
0

>  <SCORE.heavy>
14

>  <SCORE.norm>
-0.337503

>  <RMSD>
3.269

$$$$
ligand
 OpenBabel11021811393D
libRbt.so/2013.1/901 2013/11/27
 14 13  0  0  0  0  0  0  0  0999 V2000
   37.6362   21.9294   33.7813 N   0  0  0  0  0  0  0  0  0  0  0  0
   36.8753   20.9117   34.4894 C   0  0  0  0  0  0  0  0  0  0  0  0
   37.7294   20.3049   35.6366 C   0  0  0  0  0  0  0  0  0  0  0  0
   37.0646   19.2147   36.5503 C   0  0  0  0  0  0  0  0  0  0  0  0
   37.9669   18.6071   37.5959 N   0  0  0  0  0  0  0  0  0  0  0  0
   38.8852   17.5588   37.0638 C   0  0  0  0  0  0  0  0  0  0  0  0
   40.3036   18.0441   36.8256 C   0  0  0  0  0  0  0  0  0  0  0  0
   41.1771   16.9918   36.1671 C   0  0  0  0  0  0  0  0  0  0  0  0
   42.5049   17.6041   35.9339 C   0  0  0  0  0  0  0  0  0  0  0  0
   42.5223   18.7516   34.9951 N   0  0  0  0  0  0  0  0  0  0  0  0
   43.6981   19.6418   35.1644 C   0  0  0  0  0  0  0  0  0  0  0  0
   43.6952   20.9433   34.3083 C   0  0  0  0  0  0  0  0  0  0  0  0
   44.9428   21.7645   34.6786 C   0  0  0  0  0  0  0  0  0  0  0  0
   44.8820   22.1940   36.0733 N   0  0  0  0  0  0  0  0  0  0  0  0
  1  2  1  0  0  0  0
  2  3  1  0  0  0  0
  3  4  1  0  0  0  0
  4  5  1  0  0  0  0
  5  6  1  0  0  0  0
  6  7  1  0  0  0  0
  7  8  1  0  0  0  0
  8  9  1  0  0  0  0
  9 10  1  0  0  0  0
 10 11  1  0  0  0  0
 11 12  1  0  0  0  0
 12 13  1  0  0  0  0
 13 14  1  0  0  0  0
M  END
>  <CHROM.1>
178.13766942,176.67369328,-79.26422354,100.83504803,-174.75903825,177.43832657
-63.60133640,158.19702791,-173.86913888,176.82984734,-64.03342321,40.70594476
19.60410700,35.66172031,2.93343599,-0.02861714,2.66652245

>  <Name>
ligand

>  <RI>
0

>  <Rbt.Current_Directory>
/home/itssahil/PROJECTS/Mol_Feturizer/New_Systems/rnas/1EVV

>  <Rbt.Executable>
rbdock ($Id: //depot/dev/client3/rdock/2013.1/src/exe/rbdock.cxx#4 $)

>  <Rbt.Library>
libRbt.so (2013.1, Build901 2013/11/27)

>  <Rbt.Parameter_File>
/export/apps/rDock/src/rDock_2013.1_src/data/scripts/dock_solv.prm

>  <Rbt.Receptor>
prm/pocket_docking_3.prm

>  <SCORE>
-3.17122

>  <SCORE.INTER>
5.93784

>  <SCORE.INTER.CONST>
1

>  <SCORE.INTER.POLAR>
0

>  <SCORE.INTER.ROT>
11

>  <SCORE.INTER.SOLV>
6.4198

>  <SCORE.INTER.VDW>
-9.1147

>  <SCORE.INTER.norm>
0.424132

>  <SCORE.INTRA>
-9.10907

>  <SCORE.INTRA.DIHEDRAL>
-18.2957

>  <SCORE.INTRA.DIHEDRAL.0>
20.2131

>  <SCORE.INTRA.POLAR>
0

>  <SCORE.INTRA.POLAR.0>
0

>  <SCORE.INTRA.REPUL>
0

>  <SCORE.INTRA.REPUL.0>
0

>  <SCORE.INTRA.SOLV>
-0.171106

>  <SCORE.INTRA.SOLV.lig_0>
-48.2851

>  <SCORE.INTRA.VDW>
0.124354

>  <SCORE.INTRA.VDW.0>
-1.08658

>  <SCORE.INTRA.norm>
-0.650648

>  <SCORE.RESTR>
0

>  <SCORE.RESTR.CAVITY>
0

>  <SCORE.RESTR.norm>
0

>  <SCORE.SYSTEM>
0

>  <SCORE.SYSTEM.CONST>
0

>  <SCORE.SYSTEM.DIHEDRAL>
0

>  <SCORE.SYSTEM.SOLV>
0

>  <SCORE.SYSTEM.norm>
0

>  <SCORE.heavy>
14

>  <SCORE.norm>
-0.226516

>  <RMSD>
3.292

$$$$
ligand
 OpenBabel11021811393D
libRbt.so/2013.1/901 2013/11/27
 14 13  0  0  0  0  0  0  0  0999 V2000
   37.0370   22.0255   34.1528 N   0  0  0  0  0  0  0  0  0  0  0  0
   37.8686   21.1519   34.9661 C   0  0  0  0  0  0  0  0  0  0  0  0
   36.9790   20.2400   35.8553 C   0  0  0  0  0  0  0  0  0  0  0  0
   37.6955   19.2205   36.8107 C   0  0  0  0  0  0  0  0  0  0  0  0
   38.6032   18.2242   36.1324 N   0  0  0  0  0  0  0  0  0  0  0  0
   39.2259   17.2426   37.0674 C   0  0  0  0  0  0  0  0  0  0  0  0
   40.3412   16.4211   36.4466 C   0  0  0  0  0  0  0  0  0  0  0  0
   41.5024   17.2771   35.9742 C   0  0  0  0  0  0  0  0  0  0  0  0
   42.2068   17.7686   37.1802 C   0  0  0  0  0  0  0  0  0  0  0  0
   43.2503   18.7932   36.9364 N   0  0  0  0  0  0  0  0  0  0  0  0
   42.7048   20.1504   36.6829 C   0  0  0  0  0  0  0  0  0  0  0  0
   43.7394   21.3147   36.7041 C   0  0  0  0  0  0  0  0  0  0  0  0
   43.0041   22.6174   36.3430 C   0  0  0  0  0  0  0  0  0  0  0  0
   42.0628   22.9871   37.3969 N   0  0  0  0  0  0  0  0  0  0  0  0
  1  2  1  0  0  0  0
  2  3  1  0  0  0  0
  3  4  1  0  0  0  0
  4  5  1  0  0  0  0
  5  6  1  0  0  0  0
  6  7  1  0  0  0  0
  7  8  1  0  0  0  0
  8  9  1  0  0  0  0
  9 10  1  0  0  0  0
 10 11  1  0  0  0  0
 11 12  1  0  0  0  0
 12 13  1  0  0  0  0
 13 14  1  0  0  0  0
M  END
>  <CHROM.1>
-179.98431794,-58.63461124,-177.89867126,-168.49853523,61.46477227,71.64814744
-171.01591599,77.20483114,168.18419756,176.76680277,67.57160764,40.44444343
19.67352570,36.33215762,3.05450642,0.23340259,3.00398462

>  <Name>
ligand

>  <RI>
0

>  <Rbt.Current_Directory>
/home/itssahil/PROJECTS/Mol_Feturizer/New_Systems/rnas/1EVV

>  <Rbt.Executable>
rbdock ($Id: //depot/dev/client3/rdock/2013.1/src/exe/rbdock.cxx#4 $)

>  <Rbt.Library>
libRbt.so (2013.1, Build901 2013/11/27)

>  <Rbt.Parameter_File>
/export/apps/rDock/src/rDock_2013.1_src/data/scripts/dock_solv.prm

>  <Rbt.Receptor>
prm/pocket_docking_3.prm

>  <SCORE>
-1.97826

>  <SCORE.INTER>
6.33147

>  <SCORE.INTER.CONST>
1

>  <SCORE.INTER.POLAR>
0

>  <SCORE.INTER.ROT>
11

>  <SCORE.INTER.SOLV>
6.61298

>  <SCORE.INTER.VDW>
-8.91668

>  <SCORE.INTER.norm>
0.452248

>  <SCORE.INTRA>
-8.30973

>  <SCORE.INTRA.DIHEDRAL>
-18.6452

>  <SCORE.INTRA.DIHEDRAL.0>
20.2131

>  <SCORE.INTRA.POLAR>
0

>  <SCORE.INTRA.POLAR.0>
0

>  <SCORE.INTRA.REPUL>
0

>  <SCORE.INTRA.REPUL.0>
0

>  <SCORE.INTRA.SOLV>
0.430676

>  <SCORE.INTRA.SOLV.lig_0>
-48.2851

>  <SCORE.INTRA.VDW>
0.797511

>  <SCORE.INTRA.VDW.0>
-1.08658

>  <SCORE.INTRA.norm>
-0.593552

>  <SCORE.RESTR>
0

>  <SCORE.RESTR.CAVITY>
0

>  <SCORE.RESTR.norm>
0

>  <SCORE.SYSTEM>
0

>  <SCORE.SYSTEM.CONST>
0

>  <SCORE.SYSTEM.DIHEDRAL>
0

>  <SCORE.SYSTEM.SOLV>
0

>  <SCORE.SYSTEM.norm>
0

>  <SCORE.heavy>
14

>  <SCORE.norm>
-0.141305

>  <RMSD>
3.303

$$$$
ligand
 OpenBabel11021811393D
libRbt.so/2013.1/901 2013/11/27
 14 13  0  0  0  0  0  0  0  0999 V2000
   43.2901   23.6449   37.8293 N   0  0  0  0  0  0  0  0  0  0  0  0
   42.8333   22.3096   38.1823 C   0  0  0  0  0  0  0  0  0  0  0  0
   41.4251   22.0481   37.5805 C   0  0  0  0  0  0  0  0  0  0  0  0
   40.7128   20.6951   37.9376 C   0  0  0  0  0  0  0  0  0  0  0  0
   41.3972   19.4490   37.4322 N   0  0  0  0  0  0  0  0  0  0  0  0
   40.7999   18.8990   36.1807 C   0  0  0  0  0  0  0  0  0  0  0  0
   40.2183   17.5055   36.3351 C   0  0  0  0  0  0  0  0  0  0  0  0
   39.1617   17.4317   37.4225 C   0  0  0  0  0  0  0  0  0  0  0  0
   37.9569   18.1262   36.9141 C   0  0  0  0  0  0  0  0  0  0  0  0
   38.0316   19.6070   36.9018 N   0  0  0  0  0  0  0  0  0  0  0  0
   36.9100   20.2539   36.1757 C   0  0  0  0  0  0  0  0  0  0  0  0
   37.1249   20.4744   34.6486 C   0  0  0  0  0  0  0  0  0  0  0  0
   38.3541   21.3814   34.4626 C   0  0  0  0  0  0  0  0  0  0  0  0
   38.0904   22.7203   34.9833 N   0  0  0  0  0  0  0  0  0  0  0  0
  1  2  1  0  0  0  0
  2  3  1  0  0  0  0
  3  4  1  0  0  0  0
  4  5  1  0  0  0  0
  5  6  1  0  0  0  0
  6  7  1  0  0  0  0
  7  8  1  0  0  0  0
  8  9  1  0  0  0  0
  9 10  1  0  0  0  0
 10 11  1  0  0  0  0
 11 12  1  0  0  0  0
 12 13  1  0  0  0  0
 13 14  1  0  0  0  0
M  END
>  <CHROM.1>
-175.66320007,-64.50458314,-99.40099804,-117.51534829,56.90716720,72.29242793
-75.37392621,170.07893186,-88.69100870,-60.25900755,-66.47981094,39.73597819
20.32429980,36.64181688,0.44594283,-0.49900711,-0.22489829

>  <Name>
ligand

>  <RI>
0

>  <Rbt.Current_Directory>
/home/itssahil/PROJECTS/Mol_Feturizer/New_Systems/rnas/1EVV

>  <Rbt.Executable>
rbdock ($Id: //depot/dev/client3/rdock/2013.1/src/exe/rbdock.cxx#4 $)

>  <Rbt.Library>
libRbt.so (2013.1, Build901 2013/11/27)

>  <Rbt.Parameter_File>
/export/apps/rDock/src/rDock_2013.1_src/data/scripts/dock_solv.prm

>  <Rbt.Receptor>
prm/pocket_docking_3.prm

>  <SCORE>
-1.12092

>  <SCORE.INTER>
4.85332

>  <SCORE.INTER.CONST>
1

>  <SCORE.INTER.POLAR>
0

>  <SCORE.INTER.ROT>
11

>  <SCORE.INTER.SOLV>
5.89918

>  <SCORE.INTER.VDW>
-9.66418

>  <SCORE.INTER.norm>
0.346666

>  <SCORE.INTRA>
-5.97423

>  <SCORE.INTRA.DIHEDRAL>
-15.6964

>  <SCORE.INTRA.DIHEDRAL.0>
20.2131

>  <SCORE.INTRA.POLAR>
0

>  <SCORE.INTRA.POLAR.0>
0

>  <SCORE.INTRA.REPUL>
0

>  <SCORE.INTRA.REPUL.0>
0

>  <SCORE.INTRA.SOLV>
3.89168

>  <SCORE.INTRA.SOLV.lig_0>
-48.2851

>  <SCORE.INTRA.VDW>
-0.0718615

>  <SCORE.INTRA.VDW.0>
-1.08658

>  <SCORE.INTRA.norm>
-0.426731

>  <SCORE.RESTR>
0

>  <SCORE.RESTR.CAVITY>
0

>  <SCORE.RESTR.norm>
0

>  <SCORE.SYSTEM>
0

>  <SCORE.SYSTEM.CONST>
0

>  <SCORE.SYSTEM.DIHEDRAL>
0

>  <SCORE.SYSTEM.SOLV>
0

>  <SCORE.SYSTEM.norm>
0

>  <SCORE.heavy>
14

>  <SCORE.norm>
-0.0800654

>  <RMSD>
3.316

$$$$
ligand
 OpenBabel11021811393D
libRbt.so/2013.1/901 2013/11/27
 14 13  0  0  0  0  0  0  0  0999 V2000
   45.3405   27.0015   33.7447 N   0  0  0  0  0  0  0  0  0  0  0  0
   44.9599   25.9085   34.6261 C   0  0  0  0  0  0  0  0  0  0  0  0
   45.3647   26.2345   36.0901 C   0  0  0  0  0  0  0  0  0  0  0  0
   45.0207   25.1788   37.2003 C   0  0  0  0  0  0  0  0  0  0  0  0
   43.5576   24.8372   37.3390 N   0  0  0  0  0  0  0  0  0  0  0  0
   43.2752   23.8089   38.3823 C   0  0  0  0  0  0  0  0  0  0  0  0
   41.9346   23.1159   38.2189 C   0  0  0  0  0  0  0  0  0  0  0  0
   40.7623   24.0516   38.4520 C   0  0  0  0  0  0  0  0  0  0  0  0
   39.5240   23.2614   38.2660 C   0  0  0  0  0  0  0  0  0  0  0  0
   39.3129   22.7175   36.9030 N   0  0  0  0  0  0  0  0  0  0  0  0
   38.1596   21.7880   36.8046 C   0  0  0  0  0  0  0  0  0  0  0  0
   38.5090   20.2986   36.5109 C   0  0  0  0  0  0  0  0  0  0  0  0
   37.1942   19.5024   36.4371 C   0  0  0  0  0  0  0  0  0  0  0  0
   37.4594   18.0947   36.1513 N   0  0  0  0  0  0  0  0  0  0  0  0
  1  2  1  0  0  0  0
  2  3  1  0  0  0  0
  3  4  1  0  0  0  0
  4  5  1  0  0  0  0
  5  6  1  0  0  0  0
  6  7  1  0  0  0  0
  7  8  1  0  0  0  0
  8  9  1  0  0  0  0
  9 10  1  0  0  0  0
 10 11  1  0  0  0  0
 11 12  1  0  0  0  0
 12 13  1  0  0  0  0
 13 14  1  0  0  0  0
M  END
>  <CHROM.1>
179.26221895,-58.68420303,178.69425702,-160.05570666,-67.16027759,-179.93640826
-63.43481583,172.38762309,-112.60832067,-179.62369950,179.51173001,41.45535054
23.27143530,36.79505026,-0.00644327,-0.69695466,-1.73654265

>  <Name>
ligand

>  <RI>
0

>  <Rbt.Current_Directory>
/home/itssahil/PROJECTS/Mol_Feturizer/New_Systems/rnas/1EVV

>  <Rbt.Executable>
rbdock ($Id: //depot/dev/client3/rdock/2013.1/src/exe/rbdock.cxx#4 $)

>  <Rbt.Library>
libRbt.so (2013.1, Build901 2013/11/27)

>  <Rbt.Parameter_File>
/export/apps/rDock/src/rDock_2013.1_src/data/scripts/dock_solv.prm

>  <Rbt.Receptor>
prm/pocket_docking_4.prm

>  <SCORE>
-5.0354

>  <SCORE.INTER>
4.49706

>  <SCORE.INTER.CONST>
1

>  <SCORE.INTER.POLAR>
0

>  <SCORE.INTER.ROT>
11

>  <SCORE.INTER.SOLV>
6.58145

>  <SCORE.INTER.VDW>
-10.1291

>  <SCORE.INTER.norm>
0.321219

>  <SCORE.INTRA>
-9.53246

>  <SCORE.INTRA.DIHEDRAL>
-18.4643

>  <SCORE.INTRA.DIHEDRAL.0>
20.2131

>  <SCORE.INTRA.POLAR>
0

>  <SCORE.INTRA.POLAR.0>
0

>  <SCORE.INTRA.REPUL>
0

>  <SCORE.INTRA.REPUL.0>
0

>  <SCORE.INTRA.SOLV>
-0.310393

>  <SCORE.INTRA.SOLV.lig_0>
-48.2851

>  <SCORE.INTRA.VDW>
-0.145112

>  <SCORE.INTRA.VDW.0>
-1.08658

>  <SCORE.INTRA.norm>
-0.68089

>  <SCORE.RESTR>
0

>  <SCORE.RESTR.CAVITY>
0

>  <SCORE.RESTR.norm>
0

>  <SCORE.SYSTEM>
0

>  <SCORE.SYSTEM.CONST>
0

>  <SCORE.SYSTEM.DIHEDRAL>
0

>  <SCORE.SYSTEM.SOLV>
0

>  <SCORE.SYSTEM.norm>
0

>  <SCORE.heavy>
14

>  <SCORE.norm>
-0.359672

>  <RMSD>
3.357

$$$$
ligand
 OpenBabel11021811393D
libRbt.so/2013.1/901 2013/11/27
 14 13  0  0  0  0  0  0  0  0999 V2000
   38.5743   17.0467   32.2809 N   0  0  0  0  0  0  0  0  0  0  0  0
   39.0818   17.5385   33.5524 C   0  0  0  0  0  0  0  0  0  0  0  0
   37.9365   17.5964   34.6006 C   0  0  0  0  0  0  0  0  0  0  0  0
   38.2780   18.1407   36.0333 C   0  0  0  0  0  0  0  0  0  0  0  0
   38.8429   19.5391   36.0779 N   0  0  0  0  0  0  0  0  0  0  0  0
   37.8380   20.5840   36.4298 C   0  0  0  0  0  0  0  0  0  0  0  0
   38.4298   21.9679   36.6265 C   0  0  0  0  0  0  0  0  0  0  0  0
   39.4494   22.0117   37.7502 C   0  0  0  0  0  0  0  0  0  0  0  0
   39.6708   23.4360   38.0890 C   0  0  0  0  0  0  0  0  0  0  0  0
   40.2946   24.2559   37.0228 N   0  0  0  0  0  0  0  0  0  0  0  0
   41.0584   25.4204   37.5370 C   0  0  0  0  0  0  0  0  0  0  0  0
   42.5990   25.2241   37.6583 C   0  0  0  0  0  0  0  0  0  0  0  0
   43.2088   26.5307   38.1960 C   0  0  0  0  0  0  0  0  0  0  0  0
   44.6613   26.4174   38.2992 N   0  0  0  0  0  0  0  0  0  0  0  0
  1  2  1  0  0  0  0
  2  3  1  0  0  0  0
  3  4  1  0  0  0  0
  4  5  1  0  0  0  0
  5  6  1  0  0  0  0
  6  7  1  0  0  0  0
  7  8  1  0  0  0  0
  8  9  1  0  0  0  0
  9 10  1  0  0  0  0
 10 11  1  0  0  0  0
 11 12  1  0  0  0  0
 12 13  1  0  0  0  0
 13 14  1  0  0  0  0
M  END
>  <CHROM.1>
-178.40066479,58.01366063,99.61321064,173.58405253,-60.62387100,-164.80384056
-65.17502198,-153.21155071,98.02950541,179.69170699,-178.56505626,39.99428653
21.83639216,36.43977909,-2.08523490,0.45426511,0.67955975

>  <Name>
ligand

>  <RI>
0

>  <Rbt.Current_Directory>
/home/itssahil/PROJECTS/Mol_Feturizer/New_Systems/rnas/1EVV

>  <Rbt.Executable>
rbdock ($Id: //depot/dev/client3/rdock/2013.1/src/exe/rbdock.cxx#4 $)

>  <Rbt.Library>
libRbt.so (2013.1, Build901 2013/11/27)

>  <Rbt.Parameter_File>
/export/apps/rDock/src/rDock_2013.1_src/data/scripts/dock_solv.prm

>  <Rbt.Receptor>
prm/pocket_docking_4.prm

>  <SCORE>
-1.99385

>  <SCORE.INTER>
6.6712

>  <SCORE.INTER.CONST>
1

>  <SCORE.INTER.POLAR>
0

>  <SCORE.INTER.ROT>
11

>  <SCORE.INTER.SOLV>
2.04714

>  <SCORE.INTER.VDW>
-7.16825

>  <SCORE.INTER.norm>
0.476514

>  <SCORE.INTRA>
-8.66505

>  <SCORE.INTRA.DIHEDRAL>
-16.8922

>  <SCORE.INTRA.DIHEDRAL.0>
20.2131

>  <SCORE.INTRA.POLAR>
0

>  <SCORE.INTRA.POLAR.0>
0

>  <SCORE.INTRA.REPUL>
0

>  <SCORE.INTRA.REPUL.0>
0

>  <SCORE.INTRA.SOLV>
-0.327126

>  <SCORE.INTRA.SOLV.lig_0>
-48.2851

>  <SCORE.INTRA.VDW>
-0.0553788

>  <SCORE.INTRA.VDW.0>
-1.08658

>  <SCORE.INTRA.norm>
-0.618932

>  <SCORE.RESTR>
0

>  <SCORE.RESTR.CAVITY>
0

>  <SCORE.RESTR.norm>
0

>  <SCORE.SYSTEM>
0

>  <SCORE.SYSTEM.CONST>
0

>  <SCORE.SYSTEM.DIHEDRAL>
0

>  <SCORE.SYSTEM.SOLV>
0

>  <SCORE.SYSTEM.norm>
0

>  <SCORE.heavy>
14

>  <SCORE.norm>
-0.142418

>  <RMSD>
3.361

$$$$
ligand
 OpenBabel11021811393D
libRbt.so/2013.1/901 2013/11/27
 14 13  0  0  0  0  0  0  0  0999 V2000
   39.3935   22.2086   34.8521 N   0  0  0  0  0  0  0  0  0  0  0  0
   38.9614   21.1797   35.7854 C   0  0  0  0  0  0  0  0  0  0  0  0
   37.4715   20.8188   35.5336 C   0  0  0  0  0  0  0  0  0  0  0  0
   36.7970   19.7719   36.4898 C   0  0  0  0  0  0  0  0  0  0  0  0
   37.3187   18.3606   36.3772 N   0  0  0  0  0  0  0  0  0  0  0  0
   38.3677   18.0238   37.3829 C   0  0  0  0  0  0  0  0  0  0  0  0
   39.7789   18.0161   36.8237 C   0  0  0  0  0  0  0  0  0  0  0  0
   40.8137   17.6112   37.8579 C   0  0  0  0  0  0  0  0  0  0  0  0
   42.1412   17.6889   37.2068 C   0  0  0  0  0  0  0  0  0  0  0  0
   42.5750   19.0478   36.8025 N   0  0  0  0  0  0  0  0  0  0  0  0
   44.0495   19.2162   36.7662 C   0  0  0  0  0  0  0  0  0  0  0  0
   44.5732   20.6715   36.9516 C   0  0  0  0  0  0  0  0  0  0  0  0
   44.0264   21.5295   35.7971 C   0  0  0  0  0  0  0  0  0  0  0  0
   44.4809   22.9120   35.9221 N   0  0  0  0  0  0  0  0  0  0  0  0
  1  2  1  0  0  0  0
  2  3  1  0  0  0  0
  3  4  1  0  0  0  0
  4  5  1  0  0  0  0
  5  6  1  0  0  0  0
  6  7  1  0  0  0  0
  7  8  1  0  0  0  0
  8  9  1  0  0  0  0
  9 10  1  0  0  0  0
 10 11  1  0  0  0  0
 11 12  1  0  0  0  0
 12 13  1  0  0  0  0
 13 14  1  0  0  0  0
M  END
>  <CHROM.1>
-177.09725766,-67.65776308,95.93851588,-103.10500869,-177.50640523,-178.04180403
65.39624934,152.67468062,-155.02586198,-61.49953840,179.71666945,40.76767552
19.78941468,36.46797791,2.93428400,0.10163251,2.73010878

>  <Name>
ligand

>  <RI>
0

>  <Rbt.Current_Directory>
/home/itssahil/PROJECTS/Mol_Feturizer/New_Systems/rnas/1EVV

>  <Rbt.Executable>
rbdock ($Id: //depot/dev/client3/rdock/2013.1/src/exe/rbdock.cxx#4 $)

>  <Rbt.Library>
libRbt.so (2013.1, Build901 2013/11/27)

>  <Rbt.Parameter_File>
/export/apps/rDock/src/rDock_2013.1_src/data/scripts/dock_solv.prm

>  <Rbt.Receptor>
prm/pocket_docking_3.prm

>  <SCORE>
-3.95568

>  <SCORE.INTER>
5.1549

>  <SCORE.INTER.CONST>
1

>  <SCORE.INTER.POLAR>
0

>  <SCORE.INTER.ROT>
11

>  <SCORE.INTER.SOLV>
6.01092

>  <SCORE.INTER.VDW>
-9.50038

>  <SCORE.INTER.norm>
0.368207

>  <SCORE.INTRA>
-9.11281

>  <SCORE.INTRA.DIHEDRAL>
-17.0807

>  <SCORE.INTRA.DIHEDRAL.0>
20.2131

>  <SCORE.INTRA.POLAR>
0

>  <SCORE.INTRA.POLAR.0>
0

>  <SCORE.INTRA.REPUL>
0

>  <SCORE.INTRA.REPUL.0>
0

>  <SCORE.INTRA.SOLV>
-0.224409

>  <SCORE.INTRA.SOLV.lig_0>
-48.2851

>  <SCORE.INTRA.VDW>
-0.460244

>  <SCORE.INTRA.VDW.0>
-1.08658

>  <SCORE.INTRA.norm>
-0.650915

>  <SCORE.RESTR>
0.00222674

>  <SCORE.RESTR.CAVITY>
0.00222674

>  <SCORE.RESTR.norm>
0.000159053

>  <SCORE.SYSTEM>
0

>  <SCORE.SYSTEM.CONST>
0

>  <SCORE.SYSTEM.DIHEDRAL>
0

>  <SCORE.SYSTEM.SOLV>
0

>  <SCORE.SYSTEM.norm>
0

>  <SCORE.heavy>
14

>  <SCORE.norm>
-0.282549

>  <RMSD>
3.379

$$$$
ligand
 OpenBabel11021811393D
libRbt.so/2013.1/901 2013/11/27
 14 13  0  0  0  0  0  0  0  0999 V2000
   45.8927   28.1336   33.3586 N   0  0  0  0  0  0  0  0  0  0  0  0
   45.3975   26.7661   33.3293 C   0  0  0  0  0  0  0  0  0  0  0  0
   45.4709   26.1388   34.7487 C   0  0  0  0  0  0  0  0  0  0  0  0
   45.0574   24.6325   34.9089 C   0  0  0  0  0  0  0  0  0  0  0  0
   43.6207   24.3155   34.5743 N   0  0  0  0  0  0  0  0  0  0  0  0
   43.3967   22.8998   34.1606 C   0  0  0  0  0  0  0  0  0  0  0  0
   42.0669   22.6623   33.4682 C   0  0  0  0  0  0  0  0  0  0  0  0
   40.8847   22.8145   34.4081 C   0  0  0  0  0  0  0  0  0  0  0  0
   39.6551   22.6518   33.5995 C   0  0  0  0  0  0  0  0  0  0  0  0
   38.3818   22.7011   34.3575 N   0  0  0  0  0  0  0  0  0  0  0  0
   37.9192   21.3728   34.8320 C   0  0  0  0  0  0  0  0  0  0  0  0
   38.4140   20.9447   36.2457 C   0  0  0  0  0  0  0  0  0  0  0  0
   37.8368   19.5522   36.5554 C   0  0  0  0  0  0  0  0  0  0  0  0
   36.3772   19.5950   36.5886 N   0  0  0  0  0  0  0  0  0  0  0  0
  1  2  1  0  0  0  0
  2  3  1  0  0  0  0
  3  4  1  0  0  0  0
  4  5  1  0  0  0  0
  5  6  1  0  0  0  0
  6  7  1  0  0  0  0
  7  8  1  0  0  0  0
  8  9  1  0  0  0  0
  9 10  1  0  0  0  0
 10 11  1  0  0  0  0
 11 12  1  0  0  0  0
 12 13  1  0  0  0  0
 13 14  1  0  0  0  0
M  END
>  <CHROM.1>
-176.50559475,-62.86748703,154.90032015,-164.14580261,-68.72305200,176.20435535
177.09577633,-90.68913326,90.46735638,-179.88718381,-62.16973770,41.45527121
23.22700267,34.65249104,0.60332284,-0.29593362,-0.70849196

>  <Name>
ligand

>  <RI>
0

>  <Rbt.Current_Directory>
/home/itssahil/PROJECTS/Mol_Feturizer/New_Systems/rnas/1EVV

>  <Rbt.Executable>
rbdock ($Id: //depot/dev/client3/rdock/2013.1/src/exe/rbdock.cxx#4 $)

>  <Rbt.Library>
libRbt.so (2013.1, Build901 2013/11/27)

>  <Rbt.Parameter_File>
/export/apps/rDock/src/rDock_2013.1_src/data/scripts/dock_solv.prm

>  <Rbt.Receptor>
prm/pocket_docking_3.prm

>  <SCORE>
2.04686

>  <SCORE.INTER>
10.8893

>  <SCORE.INTER.CONST>
1

>  <SCORE.INTER.POLAR>
0

>  <SCORE.INTER.ROT>
11

>  <SCORE.INTER.SOLV>
9.28629

>  <SCORE.INTER.VDW>
-6.76926

>  <SCORE.INTER.norm>
0.777804

>  <SCORE.INTRA>
-8.84759

>  <SCORE.INTRA.DIHEDRAL>
-17.864

>  <SCORE.INTRA.DIHEDRAL.0>
20.2131

>  <SCORE.INTRA.POLAR>
0

>  <SCORE.INTRA.POLAR.0>
0

>  <SCORE.INTRA.REPUL>
0

>  <SCORE.INTRA.REPUL.0>
0

>  <SCORE.INTRA.SOLV>
0.0838338

>  <SCORE.INTRA.SOLV.lig_0>
-48.2851

>  <SCORE.INTRA.VDW>
0.0424957

>  <SCORE.INTRA.VDW.0>
-1.08658

>  <SCORE.INTRA.norm>
-0.63197

>  <SCORE.RESTR>
0.00518258

>  <SCORE.RESTR.CAVITY>
0.00518258

>  <SCORE.RESTR.norm>
0.000370184

>  <SCORE.SYSTEM>
0

>  <SCORE.SYSTEM.CONST>
0

>  <SCORE.SYSTEM.DIHEDRAL>
0

>  <SCORE.SYSTEM.SOLV>
0

>  <SCORE.SYSTEM.norm>
0

>  <SCORE.heavy>
14

>  <SCORE.norm>
0.146204

>  <RMSD>
3.380

$$$$
ligand
 OpenBabel11021811393D
libRbt.so/2013.1/901 2013/11/27
 14 13  0  0  0  0  0  0  0  0999 V2000
   43.4318   24.3231   38.1591 N   0  0  0  0  0  0  0  0  0  0  0  0
   43.2083   23.0110   38.7464 C   0  0  0  0  0  0  0  0  0  0  0  0
   42.2109   22.1971   37.8767 C   0  0  0  0  0  0  0  0  0  0  0  0
   40.7580   22.7652   37.6983 C   0  0  0  0  0  0  0  0  0  0  0  0
   39.8574   21.9677   36.7874 N   0  0  0  0  0  0  0  0  0  0  0  0
   39.4722   20.6353   37.3366 C   0  0  0  0  0  0  0  0  0  0  0  0
   38.5940   19.8158   36.4087 C   0  0  0  0  0  0  0  0  0  0  0  0
   38.1593   18.4999   37.0282 C   0  0  0  0  0  0  0  0  0  0  0  0
   37.4662   17.7244   35.9745 C   0  0  0  0  0  0  0  0  0  0  0  0
   38.2843   17.3942   34.7829 N   0  0  0  0  0  0  0  0  0  0  0  0
   37.6091   17.6937   33.4952 C   0  0  0  0  0  0  0  0  0  0  0  0
   37.7427   19.1581   32.9811 C   0  0  0  0  0  0  0  0  0  0  0  0
   36.9481   19.2809   31.6690 C   0  0  0  0  0  0  0  0  0  0  0  0
   37.0616   20.6305   31.1219 N   0  0  0  0  0  0  0  0  0  0  0  0
  1  2  1  0  0  0  0
  2  3  1  0  0  0  0
  3  4  1  0  0  0  0
  4  5  1  0  0  0  0
  5  6  1  0  0  0  0
  6  7  1  0  0  0  0
  7  8  1  0  0  0  0
  8  9  1  0  0  0  0
  9 10  1  0  0  0  0
 10 11  1  0  0  0  0
 11 12  1  0  0  0  0
 12 13  1  0  0  0  0
 13 14  1  0  0  0  0
M  END
>  <CHROM.1>
-61.82270098,177.03611626,68.73430609,-178.58102535,-176.88787784,-172.75850381
60.74836728,-131.87225453,84.98560619,-178.30958936,-178.73958731,39.34301439
20.36377519,35.71920906,-0.21518168,-0.91284586,-0.98410912

>  <Name>
ligand

>  <RI>
0

>  <Rbt.Current_Directory>
/home/itssahil/PROJECTS/Mol_Feturizer/New_Systems/rnas/1EVV

>  <Rbt.Executable>
rbdock ($Id: //depot/dev/client3/rdock/2013.1/src/exe/rbdock.cxx#4 $)

>  <Rbt.Library>
libRbt.so (2013.1, Build901 2013/11/27)

>  <Rbt.Parameter_File>
/export/apps/rDock/src/rDock_2013.1_src/data/scripts/dock_solv.prm

>  <Rbt.Receptor>
prm/pocket_docking_3.prm

>  <SCORE>
-2.9766

>  <SCORE.INTER>
6.13901

>  <SCORE.INTER.CONST>
1

>  <SCORE.INTER.POLAR>
0

>  <SCORE.INTER.ROT>
11

>  <SCORE.INTER.SOLV>
2.78539

>  <SCORE.INTER.VDW>
-7.76912

>  <SCORE.INTER.norm>
0.438501

>  <SCORE.INTRA>
-9.12138

>  <SCORE.INTRA.DIHEDRAL>
-18.2992

>  <SCORE.INTRA.DIHEDRAL.0>
20.2131

>  <SCORE.INTRA.POLAR>
0

>  <SCORE.INTRA.POLAR.0>
0

>  <SCORE.INTRA.REPUL>
0

>  <SCORE.INTRA.REPUL.0>
0

>  <SCORE.INTRA.SOLV>
-0.297525

>  <SCORE.INTRA.SOLV.lig_0>
-48.2851

>  <SCORE.INTRA.VDW>
0.177

>  <SCORE.INTRA.VDW.0>
-1.08658

>  <SCORE.INTRA.norm>
-0.651527

>  <SCORE.RESTR>
0.00577658

>  <SCORE.RESTR.CAVITY>
0.00577658

>  <SCORE.RESTR.norm>
0.000412613

>  <SCORE.SYSTEM>
0

>  <SCORE.SYSTEM.CONST>
0

>  <SCORE.SYSTEM.DIHEDRAL>
0

>  <SCORE.SYSTEM.SOLV>
0

>  <SCORE.SYSTEM.norm>
0

>  <SCORE.heavy>
14

>  <SCORE.norm>
-0.212614

>  <RMSD>
3.468

$$$$
ligand
 OpenBabel11021811393D
libRbt.so/2013.1/901 2013/11/27
 14 13  0  0  0  0  0  0  0  0999 V2000
   40.5507   17.9562   30.7914 N   0  0  0  0  0  0  0  0  0  0  0  0
   40.1205   17.8685   32.1782 C   0  0  0  0  0  0  0  0  0  0  0  0
   38.5693   17.8916   32.2610 C   0  0  0  0  0  0  0  0  0  0  0  0
   37.9107   18.0170   33.6808 C   0  0  0  0  0  0  0  0  0  0  0  0
   38.2431   19.2774   34.4407 N   0  0  0  0  0  0  0  0  0  0  0  0
   37.4907   19.4257   35.7203 C   0  0  0  0  0  0  0  0  0  0  0  0
   37.7637   20.7289   36.4492 C   0  0  0  0  0  0  0  0  0  0  0  0
   39.2073   20.8526   36.9016 C   0  0  0  0  0  0  0  0  0  0  0  0
   39.3701   22.2007   37.4919 C   0  0  0  0  0  0  0  0  0  0  0  0
   40.7352   22.5275   37.9694 N   0  0  0  0  0  0  0  0  0  0  0  0
   40.9344   23.9690   38.2630 C   0  0  0  0  0  0  0  0  0  0  0  0
   42.4118   24.4294   38.4420 C   0  0  0  0  0  0  0  0  0  0  0  0
   42.4282   25.9653   38.5358 C   0  0  0  0  0  0  0  0  0  0  0  0
   43.8001   26.4636   38.5925 N   0  0  0  0  0  0  0  0  0  0  0  0
  1  2  1  0  0  0  0
  2  3  1  0  0  0  0
  3  4  1  0  0  0  0
  4  5  1  0  0  0  0
  5  6  1  0  0  0  0
  6  7  1  0  0  0  0
  7  8  1  0  0  0  0
  8  9  1  0  0  0  0
  9 10  1  0  0  0  0
 10 11  1  0  0  0  0
 11 12  1  0  0  0  0
 12 13  1  0  0  0  0
 13 14  1  0  0  0  0
M  END
>  <CHROM.1>
-171.27177418,61.40326472,174.03207555,-176.73277335,-63.82111345,175.36983221
-178.65340083,166.81046357,-166.16933873,172.02133930,-175.25603845,39.96649309
21.25512343,35.83714659,-1.98755952,0.52100463,0.90842524

>  <Name>
ligand

>  <RI>
0

>  <Rbt.Current_Directory>
/home/itssahil/PROJECTS/Mol_Feturizer/New_Systems/rnas/1EVV

>  <Rbt.Executable>
rbdock ($Id: //depot/dev/client3/rdock/2013.1/src/exe/rbdock.cxx#4 $)

>  <Rbt.Library>
libRbt.so (2013.1, Build901 2013/11/27)

>  <Rbt.Parameter_File>
/export/apps/rDock/src/rDock_2013.1_src/data/scripts/dock_solv.prm

>  <Rbt.Receptor>
prm/pocket_docking_4.prm

>  <SCORE>
-4.28291

>  <SCORE.INTER>
5.8818

>  <SCORE.INTER.CONST>
1

>  <SCORE.INTER.POLAR>
0

>  <SCORE.INTER.ROT>
11

>  <SCORE.INTER.SOLV>
3.89832

>  <SCORE.INTER.VDW>
-8.31157

>  <SCORE.INTER.norm>
0.420129

>  <SCORE.INTRA>
-10.1647

>  <SCORE.INTRA.DIHEDRAL>
-19.1231

>  <SCORE.INTRA.DIHEDRAL.0>
20.2131

>  <SCORE.INTRA.POLAR>
0

>  <SCORE.INTRA.POLAR.0>
0

>  <SCORE.INTRA.REPUL>
0

>  <SCORE.INTRA.REPUL.0>
0

>  <SCORE.INTRA.SOLV>
-0.715808

>  <SCORE.INTRA.SOLV.lig_0>
-48.2851

>  <SCORE.INTRA.VDW>
-0.245247

>  <SCORE.INTRA.VDW.0>
-1.08658

>  <SCORE.INTRA.norm>
-0.726051

>  <SCORE.RESTR>
0

>  <SCORE.RESTR.CAVITY>
0

>  <SCORE.RESTR.norm>
0

>  <SCORE.SYSTEM>
0

>  <SCORE.SYSTEM.CONST>
0

>  <SCORE.SYSTEM.DIHEDRAL>
0

>  <SCORE.SYSTEM.SOLV>
0

>  <SCORE.SYSTEM.norm>
0

>  <SCORE.heavy>
14

>  <SCORE.norm>
-0.305922

>  <RMSD>
3.470

$$$$
ligand
 OpenBabel11021811393D
libRbt.so/2013.1/901 2013/11/27
 14 13  0  0  0  0  0  0  0  0999 V2000
   43.5062   23.2175   37.8275 N   0  0  0  0  0  0  0  0  0  0  0  0
   43.8115   21.8002   37.9461 C   0  0  0  0  0  0  0  0  0  0  0  0
   42.9885   20.9859   36.9100 C   0  0  0  0  0  0  0  0  0  0  0  0
   43.1521   19.4243   36.9052 C   0  0  0  0  0  0  0  0  0  0  0  0
   42.3183   18.6883   35.8855 N   0  0  0  0  0  0  0  0  0  0  0  0
   41.8421   17.3522   36.3476 C   0  0  0  0  0  0  0  0  0  0  0  0
   40.5336   17.3952   37.1156 C   0  0  0  0  0  0  0  0  0  0  0  0
   39.3896   17.9520   36.2878 C   0  0  0  0  0  0  0  0  0  0  0  0
   38.1910   17.9825   37.1565 C   0  0  0  0  0  0  0  0  0  0  0  0
   36.9389   18.4303   36.5007 N   0  0  0  0  0  0  0  0  0  0  0  0
   36.7025   19.8922   36.6036 C   0  0  0  0  0  0  0  0  0  0  0  0
   37.5336   20.7859   35.6353 C   0  0  0  0  0  0  0  0  0  0  0  0
   37.0789   20.4865   34.1960 C   0  0  0  0  0  0  0  0  0  0  0  0
   37.8775   21.2433   33.2352 N   0  0  0  0  0  0  0  0  0  0  0  0
  1  2  1  0  0  0  0
  2  3  1  0  0  0  0
  3  4  1  0  0  0  0
  4  5  1  0  0  0  0
  5  6  1  0  0  0  0
  6  7  1  0  0  0  0
  7  8  1  0  0  0  0
  8  9  1  0  0  0  0
  9 10  1  0  0  0  0
 10 11  1  0  0  0  0
 11 12  1  0  0  0  0
 12 13  1  0  0  0  0
 13 14  1  0  0  0  0
M  END
>  <CHROM.1>
-178.46453312,179.47350846,-145.77463754,87.00917875,60.67664724,-178.19076479
-176.75162496,-91.19032218,77.54694213,66.13716624,-176.83748793,40.13314711
19.68800577,36.32538311,0.14544931,-0.32260793,-0.19583684

>  <Name>
ligand

>  <RI>
0

>  <Rbt.Current_Directory>
/home/itssahil/PROJECTS/Mol_Feturizer/New_Systems/rnas/1EVV

>  <Rbt.Executable>
rbdock ($Id: //depot/dev/client3/rdock/2013.1/src/exe/rbdock.cxx#4 $)

>  <Rbt.Library>
libRbt.so (2013.1, Build901 2013/11/27)

>  <Rbt.Parameter_File>
/export/apps/rDock/src/rDock_2013.1_src/data/scripts/dock_solv.prm

>  <Rbt.Receptor>
prm/pocket_docking_3.prm

>  <SCORE>
-4.974

>  <SCORE.INTER>
4.31645

>  <SCORE.INTER.CONST>
1

>  <SCORE.INTER.POLAR>
0

>  <SCORE.INTER.ROT>
11

>  <SCORE.INTER.SOLV>
6.07353

>  <SCORE.INTER.VDW>
-10.0802

>  <SCORE.INTER.norm>
0.308318

>  <SCORE.INTRA>
-9.29044

>  <SCORE.INTRA.DIHEDRAL>
-17.8575

>  <SCORE.INTRA.DIHEDRAL.0>
20.2131

>  <SCORE.INTRA.POLAR>
0

>  <SCORE.INTRA.POLAR.0>
0

>  <SCORE.INTRA.REPUL>
0

>  <SCORE.INTRA.REPUL.0>
0

>  <SCORE.INTRA.SOLV>
-0.687232

>  <SCORE.INTRA.SOLV.lig_0>
-48.2851

>  <SCORE.INTRA.VDW>
-0.0180794

>  <SCORE.INTRA.VDW.0>
-1.08658

>  <SCORE.INTRA.norm>
-0.663603

>  <SCORE.RESTR>
0

>  <SCORE.RESTR.CAVITY>
0

>  <SCORE.RESTR.norm>
0

>  <SCORE.SYSTEM>
0

>  <SCORE.SYSTEM.CONST>
0

>  <SCORE.SYSTEM.DIHEDRAL>
0

>  <SCORE.SYSTEM.SOLV>
0

>  <SCORE.SYSTEM.norm>
0

>  <SCORE.heavy>
14

>  <SCORE.norm>
-0.355285

>  <RMSD>
3.518

$$$$
ligand
 OpenBabel11021811393D
libRbt.so/2013.1/901 2013/11/27
 14 13  0  0  0  0  0  0  0  0999 V2000
   36.2286   23.8432   31.7794 N   0  0  0  0  0  0  0  0  0  0  0  0
   36.8059   22.6046   32.2780 C   0  0  0  0  0  0  0  0  0  0  0  0
   36.0731   22.1541   33.5717 C   0  0  0  0  0  0  0  0  0  0  0  0
   36.5969   20.8673   34.3032 C   0  0  0  0  0  0  0  0  0  0  0  0
   37.9915   20.9665   34.8706 N   0  0  0  0  0  0  0  0  0  0  0  0
   38.0476   21.5853   36.2268 C   0  0  0  0  0  0  0  0  0  0  0  0
   39.3859   22.2188   36.5612 C   0  0  0  0  0  0  0  0  0  0  0  0
   39.3956   22.8723   37.9312 C   0  0  0  0  0  0  0  0  0  0  0  0
   40.7685   23.3721   38.1714 C   0  0  0  0  0  0  0  0  0  0  0  0
   41.8260   22.3339   38.2198 N   0  0  0  0  0  0  0  0  0  0  0  0
   43.1701   22.8680   38.5539 C   0  0  0  0  0  0  0  0  0  0  0  0
   44.3286   21.8269   38.5819 C   0  0  0  0  0  0  0  0  0  0  0  0
   45.6254   22.5615   38.9650 C   0  0  0  0  0  0  0  0  0  0  0  0
   46.0178   23.4968   37.9139 N   0  0  0  0  0  0  0  0  0  0  0  0
  1  2  1  0  0  0  0
  2  3  1  0  0  0  0
  3  4  1  0  0  0  0
  4  5  1  0  0  0  0
  5  6  1  0  0  0  0
  6  7  1  0  0  0  0
  7  8  1  0  0  0  0
  8  9  1  0  0  0  0
  9 10  1  0  0  0  0
 10 11  1  0  0  0  0
 11 12  1  0  0  0  0
 12 13  1  0  0  0  0
 13 14  1  0  0  0  0
M  END
>  <CHROM.1>
-177.18371504,64.53620961,84.61749055,-155.56937788,178.38638371,176.46537635
-62.67983273,-176.06475787,-178.44612915,-179.13464810,-66.72256784,40.16138238
22.39785448,36.28080647,-2.61789304,0.28202875,1.92596364

>  <Name>
ligand

>  <RI>
0

>  <Rbt.Current_Directory>
/home/itssahil/PROJECTS/Mol_Feturizer/New_Systems/rnas/1EVV

>  <Rbt.Executable>
rbdock ($Id: //depot/dev/client3/rdock/2013.1/src/exe/rbdock.cxx#4 $)

>  <Rbt.Library>
libRbt.so (2013.1, Build901 2013/11/27)

>  <Rbt.Parameter_File>
/export/apps/rDock/src/rDock_2013.1_src/data/scripts/dock_solv.prm

>  <Rbt.Receptor>
prm/pocket_docking_4.prm

>  <SCORE>
-3.32409

>  <SCORE.INTER>
6.04906

>  <SCORE.INTER.CONST>
1

>  <SCORE.INTER.POLAR>
0

>  <SCORE.INTER.ROT>
11

>  <SCORE.INTER.SOLV>
4.15215

>  <SCORE.INTER.VDW>
-8.28468

>  <SCORE.INTER.norm>
0.432075

>  <SCORE.INTRA>
-9.37315

>  <SCORE.INTRA.DIHEDRAL>
-18.9691

>  <SCORE.INTRA.DIHEDRAL.0>
20.2131

>  <SCORE.INTRA.POLAR>
0

>  <SCORE.INTRA.POLAR.0>
0

>  <SCORE.INTRA.REPUL>
0

>  <SCORE.INTRA.REPUL.0>
0

>  <SCORE.INTRA.SOLV>
0.0606811

>  <SCORE.INTRA.SOLV.lig_0>
-48.2851

>  <SCORE.INTRA.VDW>
0.0810661

>  <SCORE.INTRA.VDW.0>
-1.08658

>  <SCORE.INTRA.norm>
-0.669511

>  <SCORE.RESTR>
0

>  <SCORE.RESTR.CAVITY>
0

>  <SCORE.RESTR.norm>
0

>  <SCORE.SYSTEM>
0

>  <SCORE.SYSTEM.CONST>
0

>  <SCORE.SYSTEM.DIHEDRAL>
0

>  <SCORE.SYSTEM.SOLV>
0

>  <SCORE.SYSTEM.norm>
0

>  <SCORE.heavy>
14

>  <SCORE.norm>
-0.237435

>  <RMSD>
3.555

$$$$
ligand
 OpenBabel11021811393D
libRbt.so/2013.1/901 2013/11/27
 14 13  0  0  0  0  0  0  0  0999 V2000
   44.8965   21.1003   36.7190 N   0  0  0  0  0  0  0  0  0  0  0  0
   45.7601   21.2662   37.8777 C   0  0  0  0  0  0  0  0  0  0  0  0
   44.9520   21.8490   39.0698 C   0  0  0  0  0  0  0  0  0  0  0  0
   44.3302   23.2814   38.9059 C   0  0  0  0  0  0  0  0  0  0  0  0
   43.2303   23.3973   37.8796 N   0  0  0  0  0  0  0  0  0  0  0  0
   41.8713   23.5714   38.4698 C   0  0  0  0  0  0  0  0  0  0  0  0
   40.7463   23.0539   37.5920 C   0  0  0  0  0  0  0  0  0  0  0  0
   39.3955   23.1092   38.2822 C   0  0  0  0  0  0  0  0  0  0  0  0
   38.3978   22.5463   37.3441 C   0  0  0  0  0  0  0  0  0  0  0  0
   38.6269   21.1388   36.9380 N   0  0  0  0  0  0  0  0  0  0  0  0
   37.4057   20.4556   36.4424 C   0  0  0  0  0  0  0  0  0  0  0  0
   37.0288   20.7287   34.9558 C   0  0  0  0  0  0  0  0  0  0  0  0
   38.1373   20.1426   34.0638 C   0  0  0  0  0  0  0  0  0  0  0  0
   37.8575   20.4049   32.6544 N   0  0  0  0  0  0  0  0  0  0  0  0
  1  2  1  0  0  0  0
  2  3  1  0  0  0  0
  3  4  1  0  0  0  0
  4  5  1  0  0  0  0
  5  6  1  0  0  0  0
  6  7  1  0  0  0  0
  7  8  1  0  0  0  0
  8  9  1  0  0  0  0
  9 10  1  0  0  0  0
 10 11  1  0  0  0  0
 11 12  1  0  0  0  0
 12 13  1  0  0  0  0
 13 14  1  0  0  0  0
M  END
>  <CHROM.1>
-63.06109124,66.74320563,107.79184522,-152.78735977,173.82685666,-178.43008224
60.47246486,158.28153021,81.78191248,65.07550910,-178.28461261,40.90248207
21.86053575,36.94282303,-0.47737085,0.10839948,-2.21632573

>  <Name>
ligand

>  <RI>
0

>  <Rbt.Current_Directory>
/home/itssahil/PROJECTS/Mol_Feturizer/New_Systems/rnas/1EVV

>  <Rbt.Executable>
rbdock ($Id: //depot/dev/client3/rdock/2013.1/src/exe/rbdock.cxx#4 $)

>  <Rbt.Library>
libRbt.so (2013.1, Build901 2013/11/27)

>  <Rbt.Parameter_File>
/export/apps/rDock/src/rDock_2013.1_src/data/scripts/dock_solv.prm

>  <Rbt.Receptor>
prm/pocket_docking_4.prm

>  <SCORE>
-4.40254

>  <SCORE.INTER>
3.43746

>  <SCORE.INTER.CONST>
1

>  <SCORE.INTER.POLAR>
0

>  <SCORE.INTER.ROT>
11

>  <SCORE.INTER.SOLV>
3.66911

>  <SCORE.INTER.VDW>
-9.86473

>  <SCORE.INTER.norm>
0.245533

>  <SCORE.INTRA>
-7.84453

>  <SCORE.INTRA.DIHEDRAL>
-17.4535

>  <SCORE.INTRA.DIHEDRAL.0>
20.2131

>  <SCORE.INTRA.POLAR>
0

>  <SCORE.INTRA.POLAR.0>
0

>  <SCORE.INTRA.REPUL>
0

>  <SCORE.INTRA.REPUL.0>
0

>  <SCORE.INTRA.SOLV>
1.96683

>  <SCORE.INTRA.SOLV.lig_0>
-48.2851

>  <SCORE.INTRA.VDW>
-0.101199

>  <SCORE.INTRA.VDW.0>
-1.08658

>  <SCORE.INTRA.norm>
-0.560324

>  <SCORE.RESTR>
0.00453165

>  <SCORE.RESTR.CAVITY>
0.00453165

>  <SCORE.RESTR.norm>
0.000323689

>  <SCORE.SYSTEM>
0

>  <SCORE.SYSTEM.CONST>
0

>  <SCORE.SYSTEM.DIHEDRAL>
0

>  <SCORE.SYSTEM.SOLV>
0

>  <SCORE.SYSTEM.norm>
0

>  <SCORE.heavy>
14

>  <SCORE.norm>
-0.314467

>  <RMSD>
3.631

$$$$
ligand
 OpenBabel11021811393D
libRbt.so/2013.1/901 2013/11/27
 14 13  0  0  0  0  0  0  0  0999 V2000
   38.3813   16.6417   36.2408 N   0  0  0  0  0  0  0  0  0  0  0  0
   37.9259   17.9008   35.6722 C   0  0  0  0  0  0  0  0  0  0  0  0
   37.3623   18.8211   36.7898 C   0  0  0  0  0  0  0  0  0  0  0  0
   36.8390   20.2428   36.3771 C   0  0  0  0  0  0  0  0  0  0  0  0
   37.8671   21.1575   35.7581 N   0  0  0  0  0  0  0  0  0  0  0  0
   38.9304   21.5985   36.7070 C   0  0  0  0  0  0  0  0  0  0  0  0
   38.5251   22.7656   37.5889 C   0  0  0  0  0  0  0  0  0  0  0  0
   38.3304   24.0499   36.8034 C   0  0  0  0  0  0  0  0  0  0  0  0
   39.6632   24.6742   36.6421 C   0  0  0  0  0  0  0  0  0  0  0  0
   40.6173   23.9293   35.7860 N   0  0  0  0  0  0  0  0  0  0  0  0
   42.0204   24.3979   35.9103 C   0  0  0  0  0  0  0  0  0  0  0  0
   43.0198   23.8425   34.8523 C   0  0  0  0  0  0  0  0  0  0  0  0
   42.5250   24.2628   33.4571 C   0  0  0  0  0  0  0  0  0  0  0  0
   43.4248   23.7653   32.4195 N   0  0  0  0  0  0  0  0  0  0  0  0
  1  2  1  0  0  0  0
  2  3  1  0  0  0  0
  3  4  1  0  0  0  0
  4  5  1  0  0  0  0
  5  6  1  0  0  0  0
  6  7  1  0  0  0  0
  7  8  1  0  0  0  0
  8  9  1  0  0  0  0
  9 10  1  0  0  0  0
 10 11  1  0  0  0  0
 11 12  1  0  0  0  0
 12 13  1  0  0  0  0
 13 14  1  0  0  0  0
M  END
>  <CHROM.1>
179.04339275,-61.20241729,-67.91475643,-81.85793632,-67.22047804,-83.89319698
66.98462299,-165.96475628,-169.03117114,59.78864543,-179.86012470,39.67355203
22.00381909,35.78634020,-2.44504863,0.63840413,0.29320840

>  <Name>
ligand

>  <RI>
0

>  <Rbt.Current_Directory>
/home/itssahil/PROJECTS/Mol_Feturizer/New_Systems/rnas/1EVV

>  <Rbt.Executable>
rbdock ($Id: //depot/dev/client3/rdock/2013.1/src/exe/rbdock.cxx#4 $)

>  <Rbt.Library>
libRbt.so (2013.1, Build901 2013/11/27)

>  <Rbt.Parameter_File>
/export/apps/rDock/src/rDock_2013.1_src/data/scripts/dock_solv.prm

>  <Rbt.Receptor>
prm/pocket_docking_4.prm

>  <SCORE>
-2.6988

>  <SCORE.INTER>
4.80268

>  <SCORE.INTER.CONST>
1

>  <SCORE.INTER.POLAR>
0

>  <SCORE.INTER.ROT>
11

>  <SCORE.INTER.SOLV>
2.37585

>  <SCORE.INTER.VDW>
-8.52349

>  <SCORE.INTER.norm>
0.343049

>  <SCORE.INTRA>
-7.50149

>  <SCORE.INTRA.DIHEDRAL>
-17.0746

>  <SCORE.INTRA.DIHEDRAL.0>
20.2131

>  <SCORE.INTRA.POLAR>
0

>  <SCORE.INTRA.POLAR.0>
0

>  <SCORE.INTRA.REPUL>
0

>  <SCORE.INTRA.REPUL.0>
0

>  <SCORE.INTRA.SOLV>
0.915919

>  <SCORE.INTRA.SOLV.lig_0>
-48.2851

>  <SCORE.INTRA.VDW>
0.577851

>  <SCORE.INTRA.VDW.0>
-1.08658

>  <SCORE.INTRA.norm>
-0.53582

>  <SCORE.RESTR>
0

>  <SCORE.RESTR.CAVITY>
0

>  <SCORE.RESTR.norm>
0

>  <SCORE.SYSTEM>
0

>  <SCORE.SYSTEM.CONST>
0

>  <SCORE.SYSTEM.DIHEDRAL>
0

>  <SCORE.SYSTEM.SOLV>
0

>  <SCORE.SYSTEM.norm>
0

>  <SCORE.heavy>
14

>  <SCORE.norm>
-0.192772

>  <RMSD>
3.710

$$$$
ligand
 OpenBabel11021811393D
libRbt.so/2013.1/901 2013/11/27
 14 13  0  0  0  0  0  0  0  0999 V2000
   44.3296   24.0732   39.5231 N   0  0  0  0  0  0  0  0  0  0  0  0
   43.2917   23.7869   38.5449 C   0  0  0  0  0  0  0  0  0  0  0  0
   41.9084   24.2491   39.0801 C   0  0  0  0  0  0  0  0  0  0  0  0
   40.6415   23.9417   38.2049 C   0  0  0  0  0  0  0  0  0  0  0  0
   40.4443   22.4919   37.8364 N   0  0  0  0  0  0  0  0  0  0  0  0
   39.1482   22.2152   37.1516 C   0  0  0  0  0  0  0  0  0  0  0  0
   38.8689   20.7394   36.9321 C   0  0  0  0  0  0  0  0  0  0  0  0
   37.5115   20.4904   36.3000 C   0  0  0  0  0  0  0  0  0  0  0  0
   37.2678   19.0306   36.3400 C   0  0  0  0  0  0  0  0  0  0  0  0
   38.2782   18.1958   35.6467 N   0  0  0  0  0  0  0  0  0  0  0  0
   37.7754   17.5640   34.4010 C   0  0  0  0  0  0  0  0  0  0  0  0
   37.7452   18.4768   33.1390 C   0  0  0  0  0  0  0  0  0  0  0  0
   37.0572   17.7014   32.0017 C   0  0  0  0  0  0  0  0  0  0  0  0
   36.9433   18.5329   30.8063 N   0  0  0  0  0  0  0  0  0  0  0  0
  1  2  1  0  0  0  0
  2  3  1  0  0  0  0
  3  4  1  0  0  0  0
  4  5  1  0  0  0  0
  5  6  1  0  0  0  0
  6  7  1  0  0  0  0
  7  8  1  0  0  0  0
  8  9  1  0  0  0  0
  9 10  1  0  0  0  0
 10 11  1  0  0  0  0
 11 12  1  0  0  0  0
 12 13  1  0  0  0  0
 13 14  1  0  0  0  0
M  END
>  <CHROM.1>
-176.12544019,55.25264992,172.85896742,-172.88249623,176.98762024,-171.03535940
-58.49061677,-109.79902491,80.24143007,-173.87439814,177.34191415,39.37198324
20.82066055,36.13633148,-0.86419569,-0.60105790,-1.90060650

>  <Name>
ligand

>  <RI>
0

>  <Rbt.Current_Directory>
/home/itssahil/PROJECTS/Mol_Feturizer/New_Systems/rnas/1EVV

>  <Rbt.Executable>
rbdock ($Id: //depot/dev/client3/rdock/2013.1/src/exe/rbdock.cxx#4 $)

>  <Rbt.Library>
libRbt.so (2013.1, Build901 2013/11/27)

>  <Rbt.Parameter_File>
/export/apps/rDock/src/rDock_2013.1_src/data/scripts/dock_solv.prm

>  <Rbt.Receptor>
prm/pocket_docking_5.prm

>  <SCORE>
-5.83415

>  <SCORE.INTER>
3.46498

>  <SCORE.INTER.CONST>
1

>  <SCORE.INTER.POLAR>
0

>  <SCORE.INTER.ROT>
11

>  <SCORE.INTER.SOLV>
4.61726

>  <SCORE.INTER.VDW>
-10.1624

>  <SCORE.INTER.norm>
0.247498

>  <SCORE.INTRA>
-9.29913

>  <SCORE.INTRA.DIHEDRAL>
-18.0248

>  <SCORE.INTRA.DIHEDRAL.0>
20.2131

>  <SCORE.INTRA.POLAR>
0

>  <SCORE.INTRA.POLAR.0>
0

>  <SCORE.INTRA.REPUL>
0

>  <SCORE.INTRA.REPUL.0>
0

>  <SCORE.INTRA.SOLV>
-0.662712

>  <SCORE.INTRA.SOLV.lig_0>
-48.2851

>  <SCORE.INTRA.VDW>
0.0446174

>  <SCORE.INTRA.VDW.0>
-1.08658

>  <SCORE.INTRA.norm>
-0.664224

>  <SCORE.RESTR>
0

>  <SCORE.RESTR.CAVITY>
0

>  <SCORE.RESTR.norm>
0

>  <SCORE.SYSTEM>
0

>  <SCORE.SYSTEM.CONST>
0

>  <SCORE.SYSTEM.DIHEDRAL>
0

>  <SCORE.SYSTEM.SOLV>
0

>  <SCORE.SYSTEM.norm>
0

>  <SCORE.heavy>
14

>  <SCORE.norm>
-0.416725

>  <RMSD>
3.743

$$$$
ligand
 OpenBabel11021811393D
libRbt.so/2013.1/901 2013/11/27
 14 13  0  0  0  0  0  0  0  0999 V2000
   36.8076   21.8752   31.2905 N   0  0  0  0  0  0  0  0  0  0  0  0
   36.3636   20.5564   31.7145 C   0  0  0  0  0  0  0  0  0  0  0  0
   37.0136   20.1836   33.0754 C   0  0  0  0  0  0  0  0  0  0  0  0
   36.6465   21.0554   34.3287 C   0  0  0  0  0  0  0  0  0  0  0  0
   37.2757   20.6191   35.6288 N   0  0  0  0  0  0  0  0  0  0  0  0
   38.7479   20.8515   35.6935 C   0  0  0  0  0  0  0  0  0  0  0  0
   39.2218   21.4448   37.0079 C   0  0  0  0  0  0  0  0  0  0  0  0
   38.5796   22.7873   37.3068 C   0  0  0  0  0  0  0  0  0  0  0  0
   39.2168   23.3172   38.5338 C   0  0  0  0  0  0  0  0  0  0  0  0
   40.6656   23.6122   38.4239 N   0  0  0  0  0  0  0  0  0  0  0  0
   41.1238   24.6937   39.3316 C   0  0  0  0  0  0  0  0  0  0  0  0
   42.6662   24.8326   39.5008 C   0  0  0  0  0  0  0  0  0  0  0  0
   42.9392   25.9694   40.5014 C   0  0  0  0  0  0  0  0  0  0  0  0
   44.3727   26.2287   40.6085 N   0  0  0  0  0  0  0  0  0  0  0  0
  1  2  1  0  0  0  0
  2  3  1  0  0  0  0
  3  4  1  0  0  0  0
  4  5  1  0  0  0  0
  5  6  1  0  0  0  0
  6  7  1  0  0  0  0
  7  8  1  0  0  0  0
  8  9  1  0  0  0  0
  9 10  1  0  0  0  0
 10 11  1  0  0  0  0
 11 12  1  0  0  0  0
 12 13  1  0  0  0  0
 13 14  1  0  0  0  0
M  END
>  <CHROM.1>
64.20143806,178.21360077,69.95399255,135.78884433,-59.56150696,-174.55001466
63.82509355,151.64636503,166.72135915,-178.36842801,-174.82185124,39.40274179
22.71606525,36.63907224,-2.52761962,0.79300351,1.78705808

>  <Name>
ligand

>  <RI>
0

>  <Rbt.Current_Directory>
/home/itssahil/PROJECTS/Mol_Feturizer/New_Systems/rnas/1EVV

>  <Rbt.Executable>
rbdock ($Id: //depot/dev/client3/rdock/2013.1/src/exe/rbdock.cxx#4 $)

>  <Rbt.Library>
libRbt.so (2013.1, Build901 2013/11/27)

>  <Rbt.Parameter_File>
/export/apps/rDock/src/rDock_2013.1_src/data/scripts/dock_solv.prm

>  <Rbt.Receptor>
prm/pocket_docking_6.prm

>  <SCORE>
-6.11967

>  <SCORE.INTER>
2.6517

>  <SCORE.INTER.CONST>
1

>  <SCORE.INTER.POLAR>
0

>  <SCORE.INTER.ROT>
11

>  <SCORE.INTER.SOLV>
5.60322

>  <SCORE.INTER.VDW>
-11.0333

>  <SCORE.INTER.norm>
0.189407

>  <SCORE.INTRA>
-8.77138

>  <SCORE.INTRA.DIHEDRAL>
-18.0704

>  <SCORE.INTRA.DIHEDRAL.0>
20.2131

>  <SCORE.INTRA.POLAR>
0

>  <SCORE.INTRA.POLAR.0>
0

>  <SCORE.INTRA.REPUL>
0

>  <SCORE.INTRA.REPUL.0>
0

>  <SCORE.INTRA.SOLV>
0.098368

>  <SCORE.INTRA.SOLV.lig_0>
-48.2851

>  <SCORE.INTRA.VDW>
0.214623

>  <SCORE.INTRA.VDW.0>
-1.08658

>  <SCORE.INTRA.norm>
-0.626527

>  <SCORE.RESTR>
0

>  <SCORE.RESTR.CAVITY>
0

>  <SCORE.RESTR.norm>
0

>  <SCORE.SYSTEM>
0

>  <SCORE.SYSTEM.CONST>
0

>  <SCORE.SYSTEM.DIHEDRAL>
0

>  <SCORE.SYSTEM.SOLV>
0

>  <SCORE.SYSTEM.norm>
0

>  <SCORE.heavy>
14

>  <SCORE.norm>
-0.43712

>  <RMSD>
3.754

$$$$
ligand
 OpenBabel11021811393D
libRbt.so/2013.1/901 2013/11/27
 14 13  0  0  0  0  0  0  0  0999 V2000
   43.0600   23.9077   34.6480 N   0  0  0  0  0  0  0  0  0  0  0  0
   42.4235   24.4622   35.8327 C   0  0  0  0  0  0  0  0  0  0  0  0
   42.4536   23.4277   36.9914 C   0  0  0  0  0  0  0  0  0  0  0  0
   41.8049   23.8388   38.3610 C   0  0  0  0  0  0  0  0  0  0  0  0
   40.3558   24.2536   38.2934 N   0  0  0  0  0  0  0  0  0  0  0  0
   39.3974   23.1173   38.4190 C   0  0  0  0  0  0  0  0  0  0  0  0
   39.1769   22.3504   37.1278 C   0  0  0  0  0  0  0  0  0  0  0  0
   38.6164   23.2233   36.0195 C   0  0  0  0  0  0  0  0  0  0  0  0
   38.3816   22.3502   34.8470 C   0  0  0  0  0  0  0  0  0  0  0  0
   37.2678   21.3814   34.9857 N   0  0  0  0  0  0  0  0  0  0  0  0
   37.7135   20.0048   35.3173 C   0  0  0  0  0  0  0  0  0  0  0  0
   37.0387   19.3517   36.5601 C   0  0  0  0  0  0  0  0  0  0  0  0
   37.6745   17.9677   36.7800 C   0  0  0  0  0  0  0  0  0  0  0  0
   37.4087   17.0916   35.6420 N   0  0  0  0  0  0  0  0  0  0  0  0
  1  2  1  0  0  0  0
  2  3  1  0  0  0  0
  3  4  1  0  0  0  0
  4  5  1  0  0  0  0
  5  6  1  0  0  0  0
  6  7  1  0  0  0  0
  7  8  1  0  0  0  0
  8  9  1  0  0  0  0
  9 10  1  0  0  0  0
 10 11  1  0  0  0  0
 11 12  1  0  0  0  0
 12 13  1  0  0  0  0
 13 14  1  0  0  0  0
M  END
>  <CHROM.1>
-179.71355739,56.86058714,87.62851786,-81.36490970,-60.26142075,-177.08206809
69.99781080,-100.42800985,127.24994546,-177.32309820,-63.15035981,39.48378842
21.90927210,36.41628444,-0.36022402,-0.80433544,-1.88706152

>  <Name>
ligand

>  <RI>
0

>  <Rbt.Current_Directory>
/home/itssahil/PROJECTS/Mol_Feturizer/New_Systems/rnas/1EVV

>  <Rbt.Executable>
rbdock ($Id: //depot/dev/client3/rdock/2013.1/src/exe/rbdock.cxx#4 $)

>  <Rbt.Library>
libRbt.so (2013.1, Build901 2013/11/27)

>  <Rbt.Parameter_File>
/export/apps/rDock/src/rDock_2013.1_src/data/scripts/dock_solv.prm

>  <Rbt.Receptor>
prm/pocket_docking_4.prm

>  <SCORE>
-4.16864

>  <SCORE.INTER>
4.18905

>  <SCORE.INTER.CONST>
1

>  <SCORE.INTER.POLAR>
0

>  <SCORE.INTER.ROT>
11

>  <SCORE.INTER.SOLV>
5.12574

>  <SCORE.INTER.VDW>
-9.84921

>  <SCORE.INTER.norm>
0.299218

>  <SCORE.INTRA>
-8.36034

>  <SCORE.INTRA.DIHEDRAL>
-16.7732

>  <SCORE.INTRA.DIHEDRAL.0>
20.2131

>  <SCORE.INTRA.POLAR>
0

>  <SCORE.INTRA.POLAR.0>
0

>  <SCORE.INTRA.REPUL>
0

>  <SCORE.INTRA.REPUL.0>
0

>  <SCORE.INTRA.SOLV>
0.504422

>  <SCORE.INTRA.SOLV.lig_0>
-48.2851

>  <SCORE.INTRA.VDW>
-0.225972

>  <SCORE.INTRA.VDW.0>
-1.08658

>  <SCORE.INTRA.norm>
-0.597167

>  <SCORE.RESTR>
0.00264807

>  <SCORE.RESTR.CAVITY>
0.00264807

>  <SCORE.RESTR.norm>
0.000189148

>  <SCORE.SYSTEM>
0

>  <SCORE.SYSTEM.CONST>
0

>  <SCORE.SYSTEM.DIHEDRAL>
0

>  <SCORE.SYSTEM.SOLV>
0

>  <SCORE.SYSTEM.norm>
0

>  <SCORE.heavy>
14

>  <SCORE.norm>
-0.29776

>  <RMSD>
3.774

$$$$
ligand
 OpenBabel11021811393D
libRbt.so/2013.1/901 2013/11/27
 14 13  0  0  0  0  0  0  0  0999 V2000
   44.1128   22.7757   37.2220 N   0  0  0  0  0  0  0  0  0  0  0  0
   43.3346   21.5756   37.4872 C   0  0  0  0  0  0  0  0  0  0  0  0
   41.8180   21.9121   37.5013 C   0  0  0  0  0  0  0  0  0  0  0  0
   40.8111   20.7542   37.8342 C   0  0  0  0  0  0  0  0  0  0  0  0
   40.8425   19.5767   36.8912 N   0  0  0  0  0  0  0  0  0  0  0  0
   39.7538   18.5850   37.1291 C   0  0  0  0  0  0  0  0  0  0  0  0
   38.4887   18.8551   36.3349 C   0  0  0  0  0  0  0  0  0  0  0  0
   37.8736   20.2045   36.6591 C   0  0  0  0  0  0  0  0  0  0  0  0
   36.6273   20.3221   35.8683 C   0  0  0  0  0  0  0  0  0  0  0  0
   36.8082   20.3876   34.3982 N   0  0  0  0  0  0  0  0  0  0  0  0
   36.3386   21.6608   33.7965 C   0  0  0  0  0  0  0  0  0  0  0  0
   37.4524   22.6462   33.3328 C   0  0  0  0  0  0  0  0  0  0  0  0
   38.2641   23.0700   34.5695 C   0  0  0  0  0  0  0  0  0  0  0  0
   39.2761   24.0592   34.2078 N   0  0  0  0  0  0  0  0  0  0  0  0
  1  2  1  0  0  0  0
  2  3  1  0  0  0  0
  3  4  1  0  0  0  0
  4  5  1  0  0  0  0
  5  6  1  0  0  0  0
  6  7  1  0  0  0  0
  7  8  1  0  0  0  0
  8  9  1  0  0  0  0
  9 10  1  0  0  0  0
 10 11  1  0  0  0  0
 11 12  1  0  0  0  0
 12 13  1  0  0  0  0
 13 14  1  0  0  0  0
M  END
>  <CHROM.1>
-177.40895689,-60.22602412,-172.24937321,90.45039958,-60.35041969,-177.70109747
-66.03961472,-117.22305323,106.57608709,-62.62983614,-176.60583643,39.41407856
21.17012192,35.94525067,-0.24020092,-0.43505350,-0.54047486

>  <Name>
ligand

>  <RI>
0

>  <Rbt.Current_Directory>
/home/itssahil/PROJECTS/Mol_Feturizer/New_Systems/rnas/1EVV

>  <Rbt.Executable>
rbdock ($Id: //depot/dev/client3/rdock/2013.1/src/exe/rbdock.cxx#4 $)

>  <Rbt.Library>
libRbt.so (2013.1, Build901 2013/11/27)

>  <Rbt.Parameter_File>
/export/apps/rDock/src/rDock_2013.1_src/data/scripts/dock_solv.prm

>  <Rbt.Receptor>
prm/pocket_docking_3.prm

>  <SCORE>
-2.81497

>  <SCORE.INTER>
5.87974

>  <SCORE.INTER.CONST>
1

>  <SCORE.INTER.POLAR>
0

>  <SCORE.INTER.ROT>
11

>  <SCORE.INTER.SOLV>
4.66791

>  <SCORE.INTER.VDW>
-8.56948

>  <SCORE.INTER.norm>
0.419982

>  <SCORE.INTRA>
-8.69471

>  <SCORE.INTRA.DIHEDRAL>
-17.0442

>  <SCORE.INTRA.DIHEDRAL.0>
20.2131

>  <SCORE.INTRA.POLAR>
0

>  <SCORE.INTRA.POLAR.0>
0

>  <SCORE.INTRA.REPUL>
0

>  <SCORE.INTRA.REPUL.0>
0

>  <SCORE.INTRA.SOLV>
0.0527555

>  <SCORE.INTRA.SOLV.lig_0>
-48.2851

>  <SCORE.INTRA.VDW>
-0.198999

>  <SCORE.INTRA.VDW.0>
-1.08658

>  <SCORE.INTRA.norm>
-0.621051

>  <SCORE.RESTR>
0

>  <SCORE.RESTR.CAVITY>
0

>  <SCORE.RESTR.norm>
0

>  <SCORE.SYSTEM>
0

>  <SCORE.SYSTEM.CONST>
0

>  <SCORE.SYSTEM.DIHEDRAL>
0

>  <SCORE.SYSTEM.SOLV>
0

>  <SCORE.SYSTEM.norm>
0

>  <SCORE.heavy>
14

>  <SCORE.norm>
-0.201069

>  <RMSD>
3.778

$$$$
ligand
 OpenBabel11021811393D
libRbt.so/2013.1/901 2013/11/27
 14 13  0  0  0  0  0  0  0  0999 V2000
   40.2601   17.9693   30.4225 N   0  0  0  0  0  0  0  0  0  0  0  0
   40.0755   17.8965   31.8636 C   0  0  0  0  0  0  0  0  0  0  0  0
   38.5611   17.8670   32.2093 C   0  0  0  0  0  0  0  0  0  0  0  0
   38.1535   17.8529   33.7256 C   0  0  0  0  0  0  0  0  0  0  0  0
   38.5945   19.0530   34.5267 N   0  0  0  0  0  0  0  0  0  0  0  0
   38.2269   18.9817   35.9707 C   0  0  0  0  0  0  0  0  0  0  0  0
   38.6960   20.1728   36.7864 C   0  0  0  0  0  0  0  0  0  0  0  0
   38.0442   21.4721   36.3492 C   0  0  0  0  0  0  0  0  0  0  0  0
   38.4452   22.5150   37.3206 C   0  0  0  0  0  0  0  0  0  0  0  0
   39.8895   22.8500   37.3373 N   0  0  0  0  0  0  0  0  0  0  0  0
   40.2773   23.7593   38.4447 C   0  0  0  0  0  0  0  0  0  0  0  0
   41.7374   24.3007   38.4012 C   0  0  0  0  0  0  0  0  0  0  0  0
   42.6965   23.1100   38.5748 C   0  0  0  0  0  0  0  0  0  0  0  0
   44.0865   23.5533   38.5049 N   0  0  0  0  0  0  0  0  0  0  0  0
  1  2  1  0  0  0  0
  2  3  1  0  0  0  0
  3  4  1  0  0  0  0
  4  5  1  0  0  0  0
  5  6  1  0  0  0  0
  6  7  1  0  0  0  0
  7  8  1  0  0  0  0
  8  9  1  0  0  0  0
  9 10  1  0  0  0  0
 10 11  1  0  0  0  0
 11 12  1  0  0  0  0
 12 13  1  0  0  0  0
 13 14  1  0  0  0  0
M  END
>  <CHROM.1>
-177.34561355,61.31500005,-178.12411734,178.70154970,63.97165865,172.89997341
65.58493896,-172.12785012,-171.97543778,-64.83604618,178.42254855,39.83852154
20.81095089,35.74576270,-1.88822984,0.27127858,0.90821262

>  <Name>
ligand

>  <RI>
0

>  <Rbt.Current_Directory>
/home/itssahil/PROJECTS/Mol_Feturizer/New_Systems/rnas/1EVV

>  <Rbt.Executable>
rbdock ($Id: //depot/dev/client3/rdock/2013.1/src/exe/rbdock.cxx#4 $)

>  <Rbt.Library>
libRbt.so (2013.1, Build901 2013/11/27)

>  <Rbt.Parameter_File>
/export/apps/rDock/src/rDock_2013.1_src/data/scripts/dock_solv.prm

>  <Rbt.Receptor>
prm/pocket_docking_4.prm

>  <SCORE>
-4.2591

>  <SCORE.INTER>
5.70968

>  <SCORE.INTER.CONST>
1

>  <SCORE.INTER.POLAR>
0

>  <SCORE.INTER.ROT>
11

>  <SCORE.INTER.SOLV>
3.47716

>  <SCORE.INTER.VDW>
-8.28593

>  <SCORE.INTER.norm>
0.407834

>  <SCORE.INTRA>
-9.97416

>  <SCORE.INTRA.DIHEDRAL>
-19.5902

>  <SCORE.INTRA.DIHEDRAL.0>
20.2131

>  <SCORE.INTRA.POLAR>
0

>  <SCORE.INTRA.POLAR.0>
0

>  <SCORE.INTRA.REPUL>
0

>  <SCORE.INTRA.REPUL.0>
0

>  <SCORE.INTRA.SOLV>
-0.0388232

>  <SCORE.INTRA.SOLV.lig_0>
-48.2851

>  <SCORE.INTRA.VDW>
-0.159656

>  <SCORE.INTRA.VDW.0>
-1.08658

>  <SCORE.INTRA.norm>
-0.71244

>  <SCORE.RESTR>
0.00537588

>  <SCORE.RESTR.CAVITY>
0.00537588

>  <SCORE.RESTR.norm>
0.000383991

>  <SCORE.SYSTEM>
0

>  <SCORE.SYSTEM.CONST>
0

>  <SCORE.SYSTEM.DIHEDRAL>
0

>  <SCORE.SYSTEM.SOLV>
0

>  <SCORE.SYSTEM.norm>
0

>  <SCORE.heavy>
14

>  <SCORE.norm>
-0.304222

>  <RMSD>
3.799

$$$$
ligand
 OpenBabel11021811393D
libRbt.so/2013.1/901 2013/11/27
 14 13  0  0  0  0  0  0  0  0999 V2000
   44.6018   23.7271   36.4138 N   0  0  0  0  0  0  0  0  0  0  0  0
   43.8707   23.7853   37.6701 C   0  0  0  0  0  0  0  0  0  0  0  0
   42.3409   23.8000   37.4000 C   0  0  0  0  0  0  0  0  0  0  0  0
   41.3772   23.9009   38.6356 C   0  0  0  0  0  0  0  0  0  0  0  0
   39.9037   23.8639   38.3132 N   0  0  0  0  0  0  0  0  0  0  0  0
   39.4241   22.5338   37.8374 C   0  0  0  0  0  0  0  0  0  0  0  0
   39.0902   22.4916   36.3573 C   0  0  0  0  0  0  0  0  0  0  0  0
   38.7793   21.0881   35.8695 C   0  0  0  0  0  0  0  0  0  0  0  0
   37.4765   20.6968   36.4542 C   0  0  0  0  0  0  0  0  0  0  0  0
   37.0000   19.3385   36.0991 N   0  0  0  0  0  0  0  0  0  0  0  0
   37.7099   18.2512   36.8184 C   0  0  0  0  0  0  0  0  0  0  0  0
   37.2404   16.8015   36.4951 C   0  0  0  0  0  0  0  0  0  0  0  0
   37.4806   16.5416   34.9975 C   0  0  0  0  0  0  0  0  0  0  0  0
   38.9108   16.5130   34.7021 N   0  0  0  0  0  0  0  0  0  0  0  0
  1  2  1  0  0  0  0
  2  3  1  0  0  0  0
  3  4  1  0  0  0  0
  4  5  1  0  0  0  0
  5  6  1  0  0  0  0
  6  7  1  0  0  0  0
  7  8  1  0  0  0  0
  8  9  1  0  0  0  0
  9 10  1  0  0  0  0
 10 11  1  0  0  0  0
 11 12  1  0  0  0  0
 12 13  1  0  0  0  0
 13 14  1  0  0  0  0
M  END
>  <CHROM.1>
-178.36349465,-178.02391698,69.85535945,-108.09791994,172.58463884,70.20503876
-179.56222835,75.39301779,179.40598071,61.35768003,67.15524347,39.65740662
20.95242155,36.71895831,-0.91462892,-0.18510007,-2.71859766

>  <Name>
ligand

>  <RI>
0

>  <Rbt.Current_Directory>
/home/itssahil/PROJECTS/Mol_Feturizer/New_Systems/rnas/1EVV

>  <Rbt.Executable>
rbdock ($Id: //depot/dev/client3/rdock/2013.1/src/exe/rbdock.cxx#4 $)

>  <Rbt.Library>
libRbt.so (2013.1, Build901 2013/11/27)

>  <Rbt.Parameter_File>
/export/apps/rDock/src/rDock_2013.1_src/data/scripts/dock_solv.prm

>  <Rbt.Receptor>
prm/pocket_docking_4.prm

>  <SCORE>
-3.79236

>  <SCORE.INTER>
3.60479

>  <SCORE.INTER.CONST>
1

>  <SCORE.INTER.POLAR>
0

>  <SCORE.INTER.ROT>
11

>  <SCORE.INTER.SOLV>
5.06222

>  <SCORE.INTER.VDW>
-10.2175

>  <SCORE.INTER.norm>
0.257485

>  <SCORE.INTRA>
-7.4054

>  <SCORE.INTRA.DIHEDRAL>
-18.007

>  <SCORE.INTRA.DIHEDRAL.0>
20.2131

>  <SCORE.INTRA.POLAR>
0

>  <SCORE.INTRA.POLAR.0>
0

>  <SCORE.INTRA.REPUL>
0

>  <SCORE.INTRA.REPUL.0>
0

>  <SCORE.INTRA.SOLV>
0.564403

>  <SCORE.INTRA.SOLV.lig_0>
-48.2851

>  <SCORE.INTRA.VDW>
1.31587

>  <SCORE.INTRA.VDW.0>
-1.08658

>  <SCORE.INTRA.norm>
-0.528957

>  <SCORE.RESTR>
0.00825768

>  <SCORE.RESTR.CAVITY>
0.00825768

>  <SCORE.RESTR.norm>
0.000589834

>  <SCORE.SYSTEM>
0

>  <SCORE.SYSTEM.CONST>
0

>  <SCORE.SYSTEM.DIHEDRAL>
0

>  <SCORE.SYSTEM.SOLV>
0

>  <SCORE.SYSTEM.norm>
0

>  <SCORE.heavy>
14

>  <SCORE.norm>
-0.270883

>  <RMSD>
3.832

$$$$
ligand
 OpenBabel11021811393D
libRbt.so/2013.1/901 2013/11/27
 14 13  0  0  0  0  0  0  0  0999 V2000
   44.2207   24.2362   37.7039 N   0  0  0  0  0  0  0  0  0  0  0  0
   44.0073   25.6606   37.4998 C   0  0  0  0  0  0  0  0  0  0  0  0
   42.9055   26.1813   38.4635 C   0  0  0  0  0  0  0  0  0  0  0  0
   41.4572   25.5948   38.3094 C   0  0  0  0  0  0  0  0  0  0  0  0
   41.3145   24.1273   38.6300 N   0  0  0  0  0  0  0  0  0  0  0  0
   39.9388   23.5936   38.4106 C   0  0  0  0  0  0  0  0  0  0  0  0
   39.7958   22.7539   37.1542 C   0  0  0  0  0  0  0  0  0  0  0  0
   38.3951   22.1945   36.9830 C   0  0  0  0  0  0  0  0  0  0  0  0
   38.4166   21.3076   35.7976 C   0  0  0  0  0  0  0  0  0  0  0  0
   37.1319   20.6410   35.4760 N   0  0  0  0  0  0  0  0  0  0  0  0
   36.6742   19.6933   36.5229 C   0  0  0  0  0  0  0  0  0  0  0  0
   37.3194   18.2759   36.4871 C   0  0  0  0  0  0  0  0  0  0  0  0
   38.7221   18.3707   37.1128 C   0  0  0  0  0  0  0  0  0  0  0  0
   39.3814   17.0674   37.1000 N   0  0  0  0  0  0  0  0  0  0  0  0
  1  2  1  0  0  0  0
  2  3  1  0  0  0  0
  3  4  1  0  0  0  0
  4  5  1  0  0  0  0
  5  6  1  0  0  0  0
  6  7  1  0  0  0  0
  7  8  1  0  0  0  0
  8  9  1  0  0  0  0
  9 10  1  0  0  0  0
 10 11  1  0  0  0  0
 11 12  1  0  0  0  0
 12 13  1  0  0  0  0
 13 14  1  0  0  0  0
M  END
>  <CHROM.1>
-62.86682703,65.71492568,-177.29196173,104.32966959,178.34489300,-175.20112280
179.02458112,-64.23730015,-81.61192117,78.52633610,-179.68614416,39.97695269
22.12153896,37.26077690,-0.89397990,0.23111909,-3.07641246

>  <Name>
ligand

>  <RI>
0

>  <Rbt.Current_Directory>
/home/itssahil/PROJECTS/Mol_Feturizer/New_Systems/rnas/1EVV

>  <Rbt.Executable>
rbdock ($Id: //depot/dev/client3/rdock/2013.1/src/exe/rbdock.cxx#4 $)

>  <Rbt.Library>
libRbt.so (2013.1, Build901 2013/11/27)

>  <Rbt.Parameter_File>
/export/apps/rDock/src/rDock_2013.1_src/data/scripts/dock_solv.prm

>  <Rbt.Receptor>
prm/pocket_docking_4.prm

>  <SCORE>
-3.59393

>  <SCORE.INTER>
3.92129

>  <SCORE.INTER.CONST>
1

>  <SCORE.INTER.POLAR>
0

>  <SCORE.INTER.ROT>
11

>  <SCORE.INTER.SOLV>
5.00805

>  <SCORE.INTER.VDW>
-9.98849

>  <SCORE.INTER.norm>
0.280092

>  <SCORE.INTRA>
-7.51523

>  <SCORE.INTRA.DIHEDRAL>
-17.3745

>  <SCORE.INTRA.DIHEDRAL.0>
20.2131

>  <SCORE.INTRA.POLAR>
0

>  <SCORE.INTRA.POLAR.0>
0

>  <SCORE.INTRA.REPUL>
0

>  <SCORE.INTRA.REPUL.0>
0

>  <SCORE.INTRA.SOLV>
1.54081

>  <SCORE.INTRA.SOLV.lig_0>
-48.2851

>  <SCORE.INTRA.VDW>
0.4016

>  <SCORE.INTRA.VDW.0>
-1.08658

>  <SCORE.INTRA.norm>
-0.536802

>  <SCORE.RESTR>
0

>  <SCORE.RESTR.CAVITY>
0

>  <SCORE.RESTR.norm>
0

>  <SCORE.SYSTEM>
0

>  <SCORE.SYSTEM.CONST>
0

>  <SCORE.SYSTEM.DIHEDRAL>
0

>  <SCORE.SYSTEM.SOLV>
0

>  <SCORE.SYSTEM.norm>
0

>  <SCORE.heavy>
14

>  <SCORE.norm>
-0.25671

>  <RMSD>
3.846

$$$$
ligand
 OpenBabel11021811393D
libRbt.so/2013.1/901 2013/11/27
 14 13  0  0  0  0  0  0  0  0999 V2000
   42.0333   28.3563   38.5994 N   0  0  0  0  0  0  0  0  0  0  0  0
   42.0793   26.9688   38.1648 C   0  0  0  0  0  0  0  0  0  0  0  0
   41.6995   26.0260   39.3398 C   0  0  0  0  0  0  0  0  0  0  0  0
   41.7984   24.4773   39.1011 C   0  0  0  0  0  0  0  0  0  0  0  0
   40.9410   23.9376   37.9829 N   0  0  0  0  0  0  0  0  0  0  0  0
   39.5746   23.5249   38.4167 C   0  0  0  0  0  0  0  0  0  0  0  0
   39.0359   22.3089   37.6853 C   0  0  0  0  0  0  0  0  0  0  0  0
   38.7462   22.5896   36.2219 C   0  0  0  0  0  0  0  0  0  0  0  0
   38.1409   21.3654   35.6498 C   0  0  0  0  0  0  0  0  0  0  0  0
   37.7686   21.4474   34.2169 N   0  0  0  0  0  0  0  0  0  0  0  0
   37.2514   20.1715   33.6619 C   0  0  0  0  0  0  0  0  0  0  0  0
   36.8849   20.1867   32.1479 C   0  0  0  0  0  0  0  0  0  0  0  0
   36.3775   18.7860   31.7625 C   0  0  0  0  0  0  0  0  0  0  0  0
   36.0453   18.7311   30.3412 N   0  0  0  0  0  0  0  0  0  0  0  0
  1  2  1  0  0  0  0
  2  3  1  0  0  0  0
  3  4  1  0  0  0  0
  4  5  1  0  0  0  0
  5  6  1  0  0  0  0
  6  7  1  0  0  0  0
  7  8  1  0  0  0  0
  8  9  1  0  0  0  0
  9 10  1  0  0  0  0
 10 11  1  0  0  0  0
 11 12  1  0  0  0  0
 12 13  1  0  0  0  0
 13 14  1  0  0  0  0
M  END
>  <CHROM.1>
-175.37242683,-59.44073478,-89.81962498,-144.58208167,-68.22830032,-176.03980061
179.31805224,176.08766410,-178.20452196,179.79658193,-178.73741095,39.16976077
22.77682213,35.94970644,-0.27579944,-1.06242060,-1.09176187

>  <Name>
ligand

>  <RI>
0

>  <Rbt.Current_Directory>
/home/itssahil/PROJECTS/Mol_Feturizer/New_Systems/rnas/1EVV

>  <Rbt.Executable>
rbdock ($Id: //depot/dev/client3/rdock/2013.1/src/exe/rbdock.cxx#4 $)

>  <Rbt.Library>
libRbt.so (2013.1, Build901 2013/11/27)

>  <Rbt.Parameter_File>
/export/apps/rDock/src/rDock_2013.1_src/data/scripts/dock_solv.prm

>  <Rbt.Receptor>
prm/pocket_docking_5.prm

>  <SCORE>
-5.45775

>  <SCORE.INTER>
4.32336

>  <SCORE.INTER.CONST>
1

>  <SCORE.INTER.POLAR>
0

>  <SCORE.INTER.ROT>
11

>  <SCORE.INTER.SOLV>
4.01089

>  <SCORE.INTER.VDW>
-9.38806

>  <SCORE.INTER.norm>
0.308812

>  <SCORE.INTRA>
-9.78112

>  <SCORE.INTRA.DIHEDRAL>
-18.4282

>  <SCORE.INTRA.DIHEDRAL.0>
20.2131

>  <SCORE.INTRA.POLAR>
0

>  <SCORE.INTRA.POLAR.0>
0

>  <SCORE.INTRA.REPUL>
0

>  <SCORE.INTRA.REPUL.0>
0

>  <SCORE.INTRA.SOLV>
-0.755408

>  <SCORE.INTRA.SOLV.lig_0>
-48.2851

>  <SCORE.INTRA.VDW>
-0.189331

>  <SCORE.INTRA.VDW.0>
-1.08658

>  <SCORE.INTRA.norm>
-0.698651

>  <SCORE.RESTR>
0

>  <SCORE.RESTR.CAVITY>
0

>  <SCORE.RESTR.norm>
0

>  <SCORE.SYSTEM>
0

>  <SCORE.SYSTEM.CONST>
0

>  <SCORE.SYSTEM.DIHEDRAL>
0

>  <SCORE.SYSTEM.SOLV>
0

>  <SCORE.SYSTEM.norm>
0

>  <SCORE.heavy>
14

>  <SCORE.norm>
-0.38984

>  <RMSD>
3.848

$$$$
ligand
 OpenBabel11021811393D
libRbt.so/2013.1/901 2013/11/27
 14 13  0  0  0  0  0  0  0  0999 V2000
   37.0796   18.1836   31.2168 N   0  0  0  0  0  0  0  0  0  0  0  0
   37.2642   17.3387   32.3865 C   0  0  0  0  0  0  0  0  0  0  0  0
   38.1879   18.0444   33.4172 C   0  0  0  0  0  0  0  0  0  0  0  0
   37.7113   19.4169   34.0126 C   0  0  0  0  0  0  0  0  0  0  0  0
   38.6138   20.0166   35.0626 N   0  0  0  0  0  0  0  0  0  0  0  0
   37.9977   21.1511   35.8101 C   0  0  0  0  0  0  0  0  0  0  0  0
   38.9117   21.7740   36.8497 C   0  0  0  0  0  0  0  0  0  0  0  0
   38.2421   22.9014   37.6144 C   0  0  0  0  0  0  0  0  0  0  0  0
   39.2142   23.3915   38.6179 C   0  0  0  0  0  0  0  0  0  0  0  0
   40.3489   24.1773   38.0763 N   0  0  0  0  0  0  0  0  0  0  0  0
   41.4111   24.4558   39.0752 C   0  0  0  0  0  0  0  0  0  0  0  0
   42.2908   25.7118   38.8011 C   0  0  0  0  0  0  0  0  0  0  0  0
   41.3992   26.9597   38.9274 C   0  0  0  0  0  0  0  0  0  0  0  0
   42.1741   28.1737   38.6840 N   0  0  0  0  0  0  0  0  0  0  0  0
  1  2  1  0  0  0  0
  2  3  1  0  0  0  0
  3  4  1  0  0  0  0
  4  5  1  0  0  0  0
  5  6  1  0  0  0  0
  6  7  1  0  0  0  0
  7  8  1  0  0  0  0
  8  9  1  0  0  0  0
  9 10  1  0  0  0  0
 10 11  1  0  0  0  0
 11 12  1  0  0  0  0
 12 13  1  0  0  0  0
 13 14  1  0  0  0  0
M  END
>  <CHROM.1>
60.93694760,176.82945880,-167.53670017,-178.91887188,-178.57617148,178.23238259
72.71728323,-170.42600422,-155.29710421,66.29255883,179.81330749,39.34608605
22.26388646,36.32537355,-2.19970680,0.88964672,1.16430430

>  <Name>
ligand

>  <RI>
0

>  <Rbt.Current_Directory>
/home/itssahil/PROJECTS/Mol_Feturizer/New_Systems/rnas/1EVV

>  <Rbt.Executable>
rbdock ($Id: //depot/dev/client3/rdock/2013.1/src/exe/rbdock.cxx#4 $)

>  <Rbt.Library>
libRbt.so (2013.1, Build901 2013/11/27)

>  <Rbt.Parameter_File>
/export/apps/rDock/src/rDock_2013.1_src/data/scripts/dock_solv.prm

>  <Rbt.Receptor>
prm/pocket_docking_7.prm

>  <SCORE>
-6.23015

>  <SCORE.INTER>
3.34432

>  <SCORE.INTER.CONST>
1

>  <SCORE.INTER.POLAR>
0

>  <SCORE.INTER.ROT>
11

>  <SCORE.INTER.SOLV>
5.39728

>  <SCORE.INTER.VDW>
-10.5029

>  <SCORE.INTER.norm>
0.23888

>  <SCORE.INTRA>
-9.57447

>  <SCORE.INTRA.DIHEDRAL>
-18.7791

>  <SCORE.INTRA.DIHEDRAL.0>
20.2131

>  <SCORE.INTRA.POLAR>
0

>  <SCORE.INTRA.POLAR.0>
0

>  <SCORE.INTRA.REPUL>
0

>  <SCORE.INTRA.REPUL.0>
0

>  <SCORE.INTRA.SOLV>
-0.0847905

>  <SCORE.INTRA.SOLV.lig_0>
-48.2851

>  <SCORE.INTRA.VDW>
-0.142507

>  <SCORE.INTRA.VDW.0>
-1.08658

>  <SCORE.INTRA.norm>
-0.683891

>  <SCORE.RESTR>
0

>  <SCORE.RESTR.CAVITY>
0

>  <SCORE.RESTR.norm>
0

>  <SCORE.SYSTEM>
0

>  <SCORE.SYSTEM.CONST>
0

>  <SCORE.SYSTEM.DIHEDRAL>
0

>  <SCORE.SYSTEM.SOLV>
0

>  <SCORE.SYSTEM.norm>
0

>  <SCORE.heavy>
14

>  <SCORE.norm>
-0.445011

>  <RMSD>
3.848

$$$$
ligand
 OpenBabel11021811393D
libRbt.so/2013.1/901 2013/11/27
 14 13  0  0  0  0  0  0  0  0999 V2000
   43.8085   22.0278   34.3590 N   0  0  0  0  0  0  0  0  0  0  0  0
   44.6934   21.2125   33.5415 C   0  0  0  0  0  0  0  0  0  0  0  0
   45.8781   20.6844   34.3966 C   0  0  0  0  0  0  0  0  0  0  0  0
   45.5646   19.6245   35.5118 C   0  0  0  0  0  0  0  0  0  0  0  0
   45.0983   18.2785   35.0143 N   0  0  0  0  0  0  0  0  0  0  0  0
   43.6178   18.1704   34.8670 C   0  0  0  0  0  0  0  0  0  0  0  0
   42.8864   17.8975   36.1687 C   0  0  0  0  0  0  0  0  0  0  0  0
   41.3964   17.6882   35.9677 C   0  0  0  0  0  0  0  0  0  0  0  0
   40.8088   17.3993   37.2957 C   0  0  0  0  0  0  0  0  0  0  0  0
   39.3312   17.2814   37.3276 N   0  0  0  0  0  0  0  0  0  0  0  0
   38.6273   18.5847   37.2297 C   0  0  0  0  0  0  0  0  0  0  0  0
   37.2579   18.5647   36.4875 C   0  0  0  0  0  0  0  0  0  0  0  0
   36.7074   20.0014   36.4563 C   0  0  0  0  0  0  0  0  0  0  0  0
   37.5323   20.8511   35.6013 N   0  0  0  0  0  0  0  0  0  0  0  0
  1  2  1  0  0  0  0
  2  3  1  0  0  0  0
  3  4  1  0  0  0  0
  4  5  1  0  0  0  0
  5  6  1  0  0  0  0
  6  7  1  0  0  0  0
  7  8  1  0  0  0  0
  8  9  1  0  0  0  0
  9 10  1  0  0  0  0
 10 11  1  0  0  0  0
 11 12  1  0  0  0  0
 12 13  1  0  0  0  0
 13 14  1  0  0  0  0
M  END
>  <CHROM.1>
68.50829062,66.74515620,-90.23400729,-80.51794396,-175.61672786,178.59399348
174.82802493,-74.93126645,147.07463942,-178.48568601,67.84775468,41.65783220
19.16168654,35.73039148,0.24997911,0.18886426,-0.44871691

>  <Name>
ligand

>  <RI>
0

>  <Rbt.Current_Directory>
/home/itssahil/PROJECTS/Mol_Feturizer/New_Systems/rnas/1EVV

>  <Rbt.Executable>
rbdock ($Id: //depot/dev/client3/rdock/2013.1/src/exe/rbdock.cxx#4 $)

>  <Rbt.Library>
libRbt.so (2013.1, Build901 2013/11/27)

>  <Rbt.Parameter_File>
/export/apps/rDock/src/rDock_2013.1_src/data/scripts/dock_solv.prm

>  <Rbt.Receptor>
prm/pocket_docking_4.prm

>  <SCORE>
-3.96376

>  <SCORE.INTER>
3.99022

>  <SCORE.INTER.CONST>
1

>  <SCORE.INTER.POLAR>
0

>  <SCORE.INTER.ROT>
11

>  <SCORE.INTER.SOLV>
8.97415

>  <SCORE.INTER.VDW>
-11.2646

>  <SCORE.INTER.norm>
0.285016

>  <SCORE.INTRA>
-7.95398

>  <SCORE.INTRA.DIHEDRAL>
-17.5664

>  <SCORE.INTRA.DIHEDRAL.0>
20.2131

>  <SCORE.INTRA.POLAR>
0

>  <SCORE.INTRA.POLAR.0>
0

>  <SCORE.INTRA.REPUL>
0

>  <SCORE.INTRA.REPUL.0>
0

>  <SCORE.INTRA.SOLV>
1.30243

>  <SCORE.INTRA.SOLV.lig_0>
-48.2851

>  <SCORE.INTRA.VDW>
0.17802

>  <SCORE.INTRA.VDW.0>
-1.08658

>  <SCORE.INTRA.norm>
-0.568142

>  <SCORE.RESTR>
0

>  <SCORE.RESTR.CAVITY>
0

>  <SCORE.RESTR.norm>
0

>  <SCORE.SYSTEM>
0

>  <SCORE.SYSTEM.CONST>
0

>  <SCORE.SYSTEM.DIHEDRAL>
0

>  <SCORE.SYSTEM.SOLV>
0

>  <SCORE.SYSTEM.norm>
0

>  <SCORE.heavy>
14

>  <SCORE.norm>
-0.283126

>  <RMSD>
3.850

$$$$
ligand
 OpenBabel11021811393D
libRbt.so/2013.1/901 2013/11/27
 14 13  0  0  0  0  0  0  0  0999 V2000
   40.4609   17.3633   37.7547 N   0  0  0  0  0  0  0  0  0  0  0  0
   39.6637   18.3413   37.0308 C   0  0  0  0  0  0  0  0  0  0  0  0
   38.1502   18.0518   37.2290 C   0  0  0  0  0  0  0  0  0  0  0  0
   37.1225   18.9424   36.4440 C   0  0  0  0  0  0  0  0  0  0  0  0
   37.1923   20.4215   36.7339 N   0  0  0  0  0  0  0  0  0  0  0  0
   38.2035   21.1493   35.9133 C   0  0  0  0  0  0  0  0  0  0  0  0
   38.6760   22.4533   36.5300 C   0  0  0  0  0  0  0  0  0  0  0  0
   39.3043   22.2575   37.8979 C   0  0  0  0  0  0  0  0  0  0  0  0
   39.5955   23.6019   38.4456 C   0  0  0  0  0  0  0  0  0  0  0  0
   40.7916   24.2743   37.8839 N   0  0  0  0  0  0  0  0  0  0  0  0
   42.0485   23.9559   38.6069 C   0  0  0  0  0  0  0  0  0  0  0  0
   43.2911   24.8127   38.2215 C   0  0  0  0  0  0  0  0  0  0  0  0
   42.9651   26.2886   38.5099 C   0  0  0  0  0  0  0  0  0  0  0  0
   44.0531   27.1540   38.0618 N   0  0  0  0  0  0  0  0  0  0  0  0
  1  2  1  0  0  0  0
  2  3  1  0  0  0  0
  3  4  1  0  0  0  0
  4  5  1  0  0  0  0
  5  6  1  0  0  0  0
  6  7  1  0  0  0  0
  7  8  1  0  0  0  0
  8  9  1  0  0  0  0
  9 10  1  0  0  0  0
 10 11  1  0  0  0  0
 11 12  1  0  0  0  0
 12 13  1  0  0  0  0
 13 14  1  0  0  0  0
M  END
>  <CHROM.1>
-175.89908949,-59.54821604,85.45316099,-157.18541350,59.01799683,-174.41507995
-76.98797690,-88.56326026,-169.98261084,59.77187020,-175.19350330,40.10823783
22.07618534,37.51876688,-2.17504818,-0.31506571,-0.01133239

>  <Name>
ligand

>  <RI>
0

>  <Rbt.Current_Directory>
/home/itssahil/PROJECTS/Mol_Feturizer/New_Systems/rnas/1EVV

>  <Rbt.Executable>
rbdock ($Id: //depot/dev/client3/rdock/2013.1/src/exe/rbdock.cxx#4 $)

>  <Rbt.Library>
libRbt.so (2013.1, Build901 2013/11/27)

>  <Rbt.Parameter_File>
/export/apps/rDock/src/rDock_2013.1_src/data/scripts/dock_solv.prm

>  <Rbt.Receptor>
prm/pocket_docking_4.prm

>  <SCORE>
-4.76922

>  <SCORE.INTER>
4.09616

>  <SCORE.INTER.CONST>
1

>  <SCORE.INTER.POLAR>
0

>  <SCORE.INTER.ROT>
11

>  <SCORE.INTER.SOLV>
6.70398

>  <SCORE.INTER.VDW>
-10.4372

>  <SCORE.INTER.norm>
0.292583

>  <SCORE.INTRA>
-8.86538

>  <SCORE.INTRA.DIHEDRAL>
-17.4329

>  <SCORE.INTRA.DIHEDRAL.0>
20.2131

>  <SCORE.INTRA.POLAR>
0

>  <SCORE.INTRA.POLAR.0>
0

>  <SCORE.INTRA.REPUL>
0

>  <SCORE.INTRA.REPUL.0>
0

>  <SCORE.INTRA.SOLV>
0.0448652

>  <SCORE.INTRA.SOLV.lig_0>
-48.2851

>  <SCORE.INTRA.VDW>
-0.171337

>  <SCORE.INTRA.VDW.0>
-1.08658

>  <SCORE.INTRA.norm>
-0.633241

>  <SCORE.RESTR>
0

>  <SCORE.RESTR.CAVITY>
0

>  <SCORE.RESTR.norm>
0

>  <SCORE.SYSTEM>
0

>  <SCORE.SYSTEM.CONST>
0

>  <SCORE.SYSTEM.DIHEDRAL>
0

>  <SCORE.SYSTEM.SOLV>
0

>  <SCORE.SYSTEM.norm>
0

>  <SCORE.heavy>
14

>  <SCORE.norm>
-0.340659

>  <RMSD>
3.917

$$$$
ligand
 OpenBabel11021811393D
libRbt.so/2013.1/901 2013/11/27
 14 13  0  0  0  0  0  0  0  0999 V2000
   45.5456   23.7311   38.7920 N   0  0  0  0  0  0  0  0  0  0  0  0
   44.4618   23.3423   37.9030 C   0  0  0  0  0  0  0  0  0  0  0  0
   43.3639   22.5817   38.6967 C   0  0  0  0  0  0  0  0  0  0  0  0
   42.1287   22.0308   37.8991 C   0  0  0  0  0  0  0  0  0  0  0  0
   41.2972   23.0721   37.1913 N   0  0  0  0  0  0  0  0  0  0  0  0
   40.4923   23.9275   38.1110 C   0  0  0  0  0  0  0  0  0  0  0  0
   39.2222   23.2667   38.6151 C   0  0  0  0  0  0  0  0  0  0  0  0
   38.2399   22.9634   37.4983 C   0  0  0  0  0  0  0  0  0  0  0  0
   38.6885   21.7130   36.8443 C   0  0  0  0  0  0  0  0  0  0  0  0
   37.7727   21.1680   35.8136 N   0  0  0  0  0  0  0  0  0  0  0  0
   36.8011   20.1785   36.3432 C   0  0  0  0  0  0  0  0  0  0  0  0
   37.3971   18.8090   36.7859 C   0  0  0  0  0  0  0  0  0  0  0  0
   38.0561   18.1531   35.5597 C   0  0  0  0  0  0  0  0  0  0  0  0
   38.6563   16.8714   35.9210 N   0  0  0  0  0  0  0  0  0  0  0  0
  1  2  1  0  0  0  0
  2  3  1  0  0  0  0
  3  4  1  0  0  0  0
  4  5  1  0  0  0  0
  5  6  1  0  0  0  0
  6  7  1  0  0  0  0
  7  8  1  0  0  0  0
  8  9  1  0  0  0  0
  9 10  1  0  0  0  0
 10 11  1  0  0  0  0
 11 12  1  0  0  0  0
 12 13  1  0  0  0  0
 13 14  1  0  0  0  0
M  END
>  <CHROM.1>
-177.81453410,-60.80759282,-71.39934358,-79.01327821,-63.58989233,80.40506349
173.72186645,-92.37743060,-69.68487310,-60.80129923,178.96097566,40.15139664
21.55789503,37.28402420,-0.66408381,0.14239897,-2.84792924

>  <Name>
ligand

>  <RI>
0

>  <Rbt.Current_Directory>
/home/itssahil/PROJECTS/Mol_Feturizer/New_Systems/rnas/1EVV

>  <Rbt.Executable>
rbdock ($Id: //depot/dev/client3/rdock/2013.1/src/exe/rbdock.cxx#4 $)

>  <Rbt.Library>
libRbt.so (2013.1, Build901 2013/11/27)

>  <Rbt.Parameter_File>
/export/apps/rDock/src/rDock_2013.1_src/data/scripts/dock_solv.prm

>  <Rbt.Receptor>
prm/pocket_docking_5.prm

>  <SCORE>
-6.49499

>  <SCORE.INTER>
0.888677

>  <SCORE.INTER.CONST>
1

>  <SCORE.INTER.POLAR>
0

>  <SCORE.INTER.ROT>
11

>  <SCORE.INTER.SOLV>
3.59534

>  <SCORE.INTER.VDW>
-11.5393

>  <SCORE.INTER.norm>
0.0634769

>  <SCORE.INTRA>
-7.38367

>  <SCORE.INTRA.DIHEDRAL>
-17.2759

>  <SCORE.INTRA.DIHEDRAL.0>
20.2131

>  <SCORE.INTRA.POLAR>
0

>  <SCORE.INTRA.POLAR.0>
0

>  <SCORE.INTRA.REPUL>
0

>  <SCORE.INTRA.REPUL.0>
0

>  <SCORE.INTRA.SOLV>
0.343638

>  <SCORE.INTRA.SOLV.lig_0>
-48.2851

>  <SCORE.INTRA.VDW>
1.08244

>  <SCORE.INTRA.VDW.0>
-1.08658

>  <SCORE.INTRA.norm>
-0.527405

>  <SCORE.RESTR>
0

>  <SCORE.RESTR.CAVITY>
0

>  <SCORE.RESTR.norm>
0

>  <SCORE.SYSTEM>
0

>  <SCORE.SYSTEM.CONST>
0

>  <SCORE.SYSTEM.DIHEDRAL>
0

>  <SCORE.SYSTEM.SOLV>
0

>  <SCORE.SYSTEM.norm>
0

>  <SCORE.heavy>
14

>  <SCORE.norm>
-0.463928

>  <RMSD>
3.930

$$$$
ligand
 OpenBabel11021811393D
libRbt.so/2013.1/901 2013/11/27
 14 13  0  0  0  0  0  0  0  0999 V2000
   45.8643   24.8670   36.8819 N   0  0  0  0  0  0  0  0  0  0  0  0
   44.7993   25.0428   37.8572 C   0  0  0  0  0  0  0  0  0  0  0  0
   44.0471   23.7014   38.0774 C   0  0  0  0  0  0  0  0  0  0  0  0
   42.7869   23.7106   39.0140 C   0  0  0  0  0  0  0  0  0  0  0  0
   41.6541   24.6019   38.5681 N   0  0  0  0  0  0  0  0  0  0  0  0
   40.6643   23.9215   37.6833 C   0  0  0  0  0  0  0  0  0  0  0  0
   39.4346   23.4104   38.4117 C   0  0  0  0  0  0  0  0  0  0  0  0
   38.4685   22.6889   37.4895 C   0  0  0  0  0  0  0  0  0  0  0  0
   39.0620   21.3695   37.1745 C   0  0  0  0  0  0  0  0  0  0  0  0
   38.1938   20.4467   36.4045 N   0  0  0  0  0  0  0  0  0  0  0  0
   38.1982   19.0549   36.9207 C   0  0  0  0  0  0  0  0  0  0  0  0
   37.3669   18.0227   36.1020 C   0  0  0  0  0  0  0  0  0  0  0  0
   37.4847   16.6536   36.7946 C   0  0  0  0  0  0  0  0  0  0  0  0
   38.8460   16.1356   36.6844 N   0  0  0  0  0  0  0  0  0  0  0  0
  1  2  1  0  0  0  0
  2  3  1  0  0  0  0
  3  4  1  0  0  0  0
  4  5  1  0  0  0  0
  5  6  1  0  0  0  0
  6  7  1  0  0  0  0
  7  8  1  0  0  0  0
  8  9  1  0  0  0  0
  9 10  1  0  0  0  0
 10 11  1  0  0  0  0
 11 12  1  0  0  0  0
 12 13  1  0  0  0  0
 13 14  1  0  0  0  0
M  END
>  <CHROM.1>
-175.32313578,60.77524185,90.17332447,97.10201278,-178.33593116,74.12006299
173.32274971,-135.53012761,-176.65483472,-179.53056027,-68.00618538,40.49050060
21.68775656,37.43324311,-0.85118945,-0.05072778,-2.90261201

>  <Name>
ligand

>  <RI>
0

>  <Rbt.Current_Directory>
/home/itssahil/PROJECTS/Mol_Feturizer/New_Systems/rnas/1EVV

>  <Rbt.Executable>
rbdock ($Id: //depot/dev/client3/rdock/2013.1/src/exe/rbdock.cxx#4 $)

>  <Rbt.Library>
libRbt.so (2013.1, Build901 2013/11/27)

>  <Rbt.Parameter_File>
/export/apps/rDock/src/rDock_2013.1_src/data/scripts/dock_solv.prm

>  <Rbt.Receptor>
prm/pocket_docking_4.prm

>  <SCORE>
-4.47387

>  <SCORE.INTER>
3.19101

>  <SCORE.INTER.CONST>
1

>  <SCORE.INTER.POLAR>
0

>  <SCORE.INTER.ROT>
11

>  <SCORE.INTER.SOLV>
4.70194

>  <SCORE.INTER.VDW>
-10.3733

>  <SCORE.INTER.norm>
0.227929

>  <SCORE.INTRA>
-7.66488

>  <SCORE.INTRA.DIHEDRAL>
-16.4674

>  <SCORE.INTRA.DIHEDRAL.0>
20.2131

>  <SCORE.INTRA.POLAR>
0

>  <SCORE.INTRA.POLAR.0>
0

>  <SCORE.INTRA.REPUL>
0

>  <SCORE.INTRA.REPUL.0>
0

>  <SCORE.INTRA.SOLV>
-0.166683

>  <SCORE.INTRA.SOLV.lig_0>
-48.2851

>  <SCORE.INTRA.VDW>
0.652171

>  <SCORE.INTRA.VDW.0>
-1.08658

>  <SCORE.INTRA.norm>
-0.547491

>  <SCORE.RESTR>
0

>  <SCORE.RESTR.CAVITY>
0

>  <SCORE.RESTR.norm>
0

>  <SCORE.SYSTEM>
0

>  <SCORE.SYSTEM.CONST>
0

>  <SCORE.SYSTEM.DIHEDRAL>
0

>  <SCORE.SYSTEM.SOLV>
0

>  <SCORE.SYSTEM.norm>
0

>  <SCORE.heavy>
14

>  <SCORE.norm>
-0.319562

>  <RMSD>
3.936

$$$$
ligand
 OpenBabel11021811393D
libRbt.so/2013.1/901 2013/11/27
 14 13  0  0  0  0  0  0  0  0999 V2000
   37.8051   16.9654   34.9735 N   0  0  0  0  0  0  0  0  0  0  0  0
   37.1758   17.1347   36.2741 C   0  0  0  0  0  0  0  0  0  0  0  0
   37.5735   18.5054   36.8879 C   0  0  0  0  0  0  0  0  0  0  0  0
   37.1221   19.8069   36.1344 C   0  0  0  0  0  0  0  0  0  0  0  0
   37.5042   21.1064   36.7992 N   0  0  0  0  0  0  0  0  0  0  0  0
   38.9698   21.3840   36.7818 C   0  0  0  0  0  0  0  0  0  0  0  0
   39.3873   22.5511   37.6579 C   0  0  0  0  0  0  0  0  0  0  0  0
   40.8837   22.8028   37.6199 C   0  0  0  0  0  0  0  0  0  0  0  0
   41.1600   23.9527   38.5108 C   0  0  0  0  0  0  0  0  0  0  0  0
   42.5800   24.3717   38.5900 N   0  0  0  0  0  0  0  0  0  0  0  0
   43.4181   23.4800   39.4303 C   0  0  0  0  0  0  0  0  0  0  0  0
   44.1166   22.3027   38.6869 C   0  0  0  0  0  0  0  0  0  0  0  0
   45.1175   22.8966   37.6802 C   0  0  0  0  0  0  0  0  0  0  0  0
   45.7223   21.8416   36.8711 N   0  0  0  0  0  0  0  0  0  0  0  0
  1  2  1  0  0  0  0
  2  3  1  0  0  0  0
  3  4  1  0  0  0  0
  4  5  1  0  0  0  0
  5  6  1  0  0  0  0
  6  7  1  0  0  0  0
  7  8  1  0  0  0  0
  8  9  1  0  0  0  0
  9 10  1  0  0  0  0
 10 11  1  0  0  0  0
 11 12  1  0  0  0  0
 12 13  1  0  0  0  0
 13 14  1  0  0  0  0
M  END
>  <CHROM.1>
63.52066818,178.34166012,68.99431167,-169.56095467,179.82864518,-179.81798912
-178.97239694,-76.48629357,91.04492637,64.24397019,-175.17190634,40.60959683
21.36455884,37.35006996,-2.47791567,-0.01680476,0.40773797

>  <Name>
ligand

>  <RI>
0

>  <Rbt.Current_Directory>
/home/itssahil/PROJECTS/Mol_Feturizer/New_Systems/rnas/1EVV

>  <Rbt.Executable>
rbdock ($Id: //depot/dev/client3/rdock/2013.1/src/exe/rbdock.cxx#4 $)

>  <Rbt.Library>
libRbt.so (2013.1, Build901 2013/11/27)

>  <Rbt.Parameter_File>
/export/apps/rDock/src/rDock_2013.1_src/data/scripts/dock_solv.prm

>  <Rbt.Receptor>
prm/pocket_docking_4.prm

>  <SCORE>
-6.88096

>  <SCORE.INTER>
2.4573

>  <SCORE.INTER.CONST>
1

>  <SCORE.INTER.POLAR>
0

>  <SCORE.INTER.ROT>
11

>  <SCORE.INTER.SOLV>
5.38033

>  <SCORE.INTER.VDW>
-11.0886

>  <SCORE.INTER.norm>
0.175522

>  <SCORE.INTRA>
-9.3453

>  <SCORE.INTRA.DIHEDRAL>
-19.0006

>  <SCORE.INTRA.DIHEDRAL.0>
20.2131

>  <SCORE.INTRA.POLAR>
0

>  <SCORE.INTRA.POLAR.0>
0

>  <SCORE.INTRA.REPUL>
0

>  <SCORE.INTRA.REPUL.0>
0

>  <SCORE.INTRA.SOLV>
-0.435677

>  <SCORE.INTRA.SOLV.lig_0>
-48.2851

>  <SCORE.INTRA.VDW>
0.372836

>  <SCORE.INTRA.VDW.0>
-1.08658

>  <SCORE.INTRA.norm>
-0.667522

>  <SCORE.RESTR>
0.00703401

>  <SCORE.RESTR.CAVITY>
0.00703401

>  <SCORE.RESTR.norm>
0.000502429

>  <SCORE.SYSTEM>
0

>  <SCORE.SYSTEM.CONST>
0

>  <SCORE.SYSTEM.DIHEDRAL>
0

>  <SCORE.SYSTEM.SOLV>
0

>  <SCORE.SYSTEM.norm>
0

>  <SCORE.heavy>
14

>  <SCORE.norm>
-0.491497

>  <RMSD>
3.941

$$$$
ligand
 OpenBabel11021811393D
libRbt.so/2013.1/901 2013/11/27
 14 13  0  0  0  0  0  0  0  0999 V2000
   37.6604   17.7161   31.2974 N   0  0  0  0  0  0  0  0  0  0  0  0
   37.6596   16.9480   32.5328 C   0  0  0  0  0  0  0  0  0  0  0  0
   37.9029   17.8858   33.7473 C   0  0  0  0  0  0  0  0  0  0  0  0
   37.8640   17.2531   35.1838 C   0  0  0  0  0  0  0  0  0  0  0  0
   38.0118   18.2281   36.3259 N   0  0  0  0  0  0  0  0  0  0  0  0
   36.8729   19.1830   36.4541 C   0  0  0  0  0  0  0  0  0  0  0  0
   37.2973   20.6249   36.6661 C   0  0  0  0  0  0  0  0  0  0  0  0
   38.3190   21.0883   35.6436 C   0  0  0  0  0  0  0  0  0  0  0  0
   38.5867   22.5207   35.9061 C   0  0  0  0  0  0  0  0  0  0  0  0
   39.0483   22.8426   37.2778 N   0  0  0  0  0  0  0  0  0  0  0  0
   40.4788   22.5245   37.5149 C   0  0  0  0  0  0  0  0  0  0  0  0
   41.2888   23.5873   38.3155 C   0  0  0  0  0  0  0  0  0  0  0  0
   42.7259   23.0652   38.4893 C   0  0  0  0  0  0  0  0  0  0  0  0
   43.4132   23.0090   37.2017 N   0  0  0  0  0  0  0  0  0  0  0  0
  1  2  1  0  0  0  0
  2  3  1  0  0  0  0
  3  4  1  0  0  0  0
  4  5  1  0  0  0  0
  5  6  1  0  0  0  0
  6  7  1  0  0  0  0
  7  8  1  0  0  0  0
  8  9  1  0  0  0  0
  9 10  1  0  0  0  0
 10 11  1  0  0  0  0
 11 12  1  0  0  0  0
 12 13  1  0  0  0  0
 13 14  1  0  0  0  0
M  END
>  <CHROM.1>
176.92772114,-175.92965977,66.15475061,-134.20168798,50.85691491,176.64441847
56.51500415,77.60660923,137.77679498,178.51776186,67.18186181,39.08050908
20.46261921,35.89702145,-2.12788410,0.33098916,0.86270990

>  <Name>
ligand

>  <RI>
0

>  <Rbt.Current_Directory>
/home/itssahil/PROJECTS/Mol_Feturizer/New_Systems/rnas/1EVV

>  <Rbt.Executable>
rbdock ($Id: //depot/dev/client3/rdock/2013.1/src/exe/rbdock.cxx#4 $)

>  <Rbt.Library>
libRbt.so (2013.1, Build901 2013/11/27)

>  <Rbt.Parameter_File>
/export/apps/rDock/src/rDock_2013.1_src/data/scripts/dock_solv.prm

>  <Rbt.Receptor>
prm/pocket_docking_4.prm

>  <SCORE>
-2.96103

>  <SCORE.INTER>
4.86355

>  <SCORE.INTER.CONST>
1

>  <SCORE.INTER.POLAR>
0

>  <SCORE.INTER.ROT>
11

>  <SCORE.INTER.SOLV>
6.05407

>  <SCORE.INTER.VDW>
-9.70899

>  <SCORE.INTER.norm>
0.347396

>  <SCORE.INTRA>
-7.82457

>  <SCORE.INTRA.DIHEDRAL>
-17.2425

>  <SCORE.INTRA.DIHEDRAL.0>
20.2131

>  <SCORE.INTRA.POLAR>
0

>  <SCORE.INTRA.POLAR.0>
0

>  <SCORE.INTRA.REPUL>
0

>  <SCORE.INTRA.REPUL.0>
0

>  <SCORE.INTRA.SOLV>
0.253553

>  <SCORE.INTRA.SOLV.lig_0>
-48.2851

>  <SCORE.INTRA.VDW>
0.669877

>  <SCORE.INTRA.VDW.0>
-1.08658

>  <SCORE.INTRA.norm>
-0.558898

>  <SCORE.RESTR>
0

>  <SCORE.RESTR.CAVITY>
0

>  <SCORE.RESTR.norm>
0

>  <SCORE.SYSTEM>
0

>  <SCORE.SYSTEM.CONST>
0

>  <SCORE.SYSTEM.DIHEDRAL>
0

>  <SCORE.SYSTEM.SOLV>
0

>  <SCORE.SYSTEM.norm>
0

>  <SCORE.heavy>
14

>  <SCORE.norm>
-0.211502

>  <RMSD>
3.970

$$$$
ligand
 OpenBabel11021811393D
libRbt.so/2013.1/901 2013/11/27
 14 13  0  0  0  0  0  0  0  0999 V2000
   45.6794   22.6398   39.1932 N   0  0  0  0  0  0  0  0  0  0  0  0
   44.6835   23.6344   38.8258 C   0  0  0  0  0  0  0  0  0  0  0  0
   43.4439   23.5208   39.7553 C   0  0  0  0  0  0  0  0  0  0  0  0
   42.2476   24.5076   39.5092 C   0  0  0  0  0  0  0  0  0  0  0  0
   41.6189   24.4353   38.1395 N   0  0  0  0  0  0  0  0  0  0  0  0
   40.6132   23.3429   37.9950 C   0  0  0  0  0  0  0  0  0  0  0  0
   41.2212   21.9688   37.7803 C   0  0  0  0  0  0  0  0  0  0  0  0
   40.1710   20.8813   37.6440 C   0  0  0  0  0  0  0  0  0  0  0  0
   40.8855   19.5876   37.5529 C   0  0  0  0  0  0  0  0  0  0  0  0
   41.7424   19.4149   36.3554 N   0  0  0  0  0  0  0  0  0  0  0  0
   42.1807   18.0141   36.1336 C   0  0  0  0  0  0  0  0  0  0  0  0
   42.9953   17.7538   34.8315 C   0  0  0  0  0  0  0  0  0  0  0  0
   42.0871   18.0598   33.6275 C   0  0  0  0  0  0  0  0  0  0  0  0
   41.8792   19.4991   33.4913 N   0  0  0  0  0  0  0  0  0  0  0  0
  1  2  1  0  0  0  0
  2  3  1  0  0  0  0
  3  4  1  0  0  0  0
  4  5  1  0  0  0  0
  5  6  1  0  0  0  0
  6  7  1  0  0  0  0
  7  8  1  0  0  0  0
  8  9  1  0  0  0  0
  9 10  1  0  0  0  0
 10 11  1  0  0  0  0
 11 12  1  0  0  0  0
 12 13  1  0  0  0  0
 13 14  1  0  0  0  0
M  END
>  <CHROM.1>
-179.52114517,59.22321695,82.70195180,-79.01062755,179.72925001,-175.41392891
-64.42849306,-166.35546037,175.60902311,-63.49197150,72.22938248,42.24615345
21.23276478,37.20262716,-1.42206413,0.12081681,-2.48656965

>  <Name>
ligand

>  <RI>
0

>  <Rbt.Current_Directory>
/home/itssahil/PROJECTS/Mol_Feturizer/New_Systems/rnas/1EVV

>  <Rbt.Executable>
rbdock ($Id: //depot/dev/client3/rdock/2013.1/src/exe/rbdock.cxx#4 $)

>  <Rbt.Library>
libRbt.so (2013.1, Build901 2013/11/27)

>  <Rbt.Parameter_File>
/export/apps/rDock/src/rDock_2013.1_src/data/scripts/dock_solv.prm

>  <Rbt.Receptor>
prm/pocket_docking_5.prm

>  <SCORE>
-4.32784

>  <SCORE.INTER>
3.89101

>  <SCORE.INTER.CONST>
1

>  <SCORE.INTER.POLAR>
0

>  <SCORE.INTER.ROT>
11

>  <SCORE.INTER.SOLV>
5.29898

>  <SCORE.INTER.VDW>
-10.1057

>  <SCORE.INTER.norm>
0.277929

>  <SCORE.INTRA>
-8.21885

>  <SCORE.INTRA.DIHEDRAL>
-18.643

>  <SCORE.INTRA.DIHEDRAL.0>
20.2131

>  <SCORE.INTRA.POLAR>
0

>  <SCORE.INTRA.POLAR.0>
0

>  <SCORE.INTRA.REPUL>
0

>  <SCORE.INTRA.REPUL.0>
0

>  <SCORE.INTRA.SOLV>
2.15924

>  <SCORE.INTRA.SOLV.lig_0>
-48.2851

>  <SCORE.INTRA.VDW>
0.0230414

>  <SCORE.INTRA.VDW.0>
-1.08658

>  <SCORE.INTRA.norm>
-0.587061

>  <SCORE.RESTR>
0

>  <SCORE.RESTR.CAVITY>
0

>  <SCORE.RESTR.norm>
0

>  <SCORE.SYSTEM>
0

>  <SCORE.SYSTEM.CONST>
0

>  <SCORE.SYSTEM.DIHEDRAL>
0

>  <SCORE.SYSTEM.SOLV>
0

>  <SCORE.SYSTEM.norm>
0

>  <SCORE.heavy>
14

>  <SCORE.norm>
-0.309131

>  <RMSD>
3.979

$$$$
ligand
 OpenBabel11021811393D
libRbt.so/2013.1/901 2013/11/27
 14 13  0  0  0  0  0  0  0  0999 V2000
   43.9085   28.5739   38.0341 N   0  0  0  0  0  0  0  0  0  0  0  0
   44.1245   27.1358   38.0709 C   0  0  0  0  0  0  0  0  0  0  0  0
   42.8610   26.4177   38.6199 C   0  0  0  0  0  0  0  0  0  0  0  0
   42.9093   24.8552   38.7676 C   0  0  0  0  0  0  0  0  0  0  0  0
   41.6344   24.2100   39.2523 N   0  0  0  0  0  0  0  0  0  0  0  0
   40.5549   24.1615   38.2239 C   0  0  0  0  0  0  0  0  0  0  0  0
   39.3144   23.4070   38.6665 C   0  0  0  0  0  0  0  0  0  0  0  0
   38.1853   23.4972   37.6559 C   0  0  0  0  0  0  0  0  0  0  0  0
   38.5216   22.5876   36.5371 C   0  0  0  0  0  0  0  0  0  0  0  0
   38.6019   21.1490   36.8864 N   0  0  0  0  0  0  0  0  0  0  0  0
   37.8508   20.2677   35.9575 C   0  0  0  0  0  0  0  0  0  0  0  0
   37.1384   19.0439   36.6067 C   0  0  0  0  0  0  0  0  0  0  0  0
   38.2116   18.1515   37.2547 C   0  0  0  0  0  0  0  0  0  0  0  0
   39.0586   17.5399   36.2339 N   0  0  0  0  0  0  0  0  0  0  0  0
  1  2  1  0  0  0  0
  2  3  1  0  0  0  0
  3  4  1  0  0  0  0
  4  5  1  0  0  0  0
  5  6  1  0  0  0  0
  6  7  1  0  0  0  0
  7  8  1  0  0  0  0
  8  9  1  0  0  0  0
  9 10  1  0  0  0  0
 10 11  1  0  0  0  0
 11 12  1  0  0  0  0
 12 13  1  0  0  0  0
 13 14  1  0  0  0  0
M  END
>  <CHROM.1>
-178.63053435,-177.61760671,73.95643680,174.95944469,174.13256975,75.88293937
63.62175360,131.69656721,-143.28033018,-61.44604415,-67.67271512,40.20513821
22.92843367,37.62624996,0.97465297,-0.16840256,0.12185346

>  <Name>
ligand

>  <RI>
0

>  <Rbt.Current_Directory>
/home/itssahil/PROJECTS/Mol_Feturizer/New_Systems/rnas/1EVV

>  <Rbt.Executable>
rbdock ($Id: //depot/dev/client3/rdock/2013.1/src/exe/rbdock.cxx#4 $)

>  <Rbt.Library>
libRbt.so (2013.1, Build901 2013/11/27)

>  <Rbt.Parameter_File>
/export/apps/rDock/src/rDock_2013.1_src/data/scripts/dock_solv.prm

>  <Rbt.Receptor>
prm/pocket_docking_5.prm

>  <SCORE>
-4.72907

>  <SCORE.INTER>
2.25853

>  <SCORE.INTER.CONST>
1

>  <SCORE.INTER.POLAR>
0

>  <SCORE.INTER.ROT>
11

>  <SCORE.INTER.SOLV>
5.07874

>  <SCORE.INTER.VDW>
-11.1206

>  <SCORE.INTER.norm>
0.161324

>  <SCORE.INTRA>
-6.9876

>  <SCORE.INTRA.DIHEDRAL>
-16.708

>  <SCORE.INTRA.DIHEDRAL.0>
20.2131

>  <SCORE.INTRA.POLAR>
0

>  <SCORE.INTRA.POLAR.0>
0

>  <SCORE.INTRA.REPUL>
0

>  <SCORE.INTRA.REPUL.0>
0

>  <SCORE.INTRA.SOLV>
1.0002

>  <SCORE.INTRA.SOLV.lig_0>
-48.2851

>  <SCORE.INTRA.VDW>
0.866286

>  <SCORE.INTRA.VDW.0>
-1.08658

>  <SCORE.INTRA.norm>
-0.499114

>  <SCORE.RESTR>
0

>  <SCORE.RESTR.CAVITY>
0

>  <SCORE.RESTR.norm>
0

>  <SCORE.SYSTEM>
0

>  <SCORE.SYSTEM.CONST>
0

>  <SCORE.SYSTEM.DIHEDRAL>
0

>  <SCORE.SYSTEM.SOLV>
0

>  <SCORE.SYSTEM.norm>
0

>  <SCORE.heavy>
14

>  <SCORE.norm>
-0.337791

>  <RMSD>
3.987

$$$$
ligand
 OpenBabel11021811393D
libRbt.so/2013.1/901 2013/11/27
 14 13  0  0  0  0  0  0  0  0999 V2000
   44.1933   26.6863   36.6864 N   0  0  0  0  0  0  0  0  0  0  0  0
   43.0451   26.4795   37.5553 C   0  0  0  0  0  0  0  0  0  0  0  0
   43.3015   25.2776   38.5058 C   0  0  0  0  0  0  0  0  0  0  0  0
   42.2249   24.9677   39.6059 C   0  0  0  0  0  0  0  0  0  0  0  0
   40.8444   24.6453   39.0894 N   0  0  0  0  0  0  0  0  0  0  0  0
   40.7946   23.4362   38.2170 C   0  0  0  0  0  0  0  0  0  0  0  0
   39.3883   22.9550   37.9089 C   0  0  0  0  0  0  0  0  0  0  0  0
   39.3747   21.7223   37.0232 C   0  0  0  0  0  0  0  0  0  0  0  0
   37.9580   21.4010   36.7368 C   0  0  0  0  0  0  0  0  0  0  0  0
   37.7359   20.2525   35.8258 N   0  0  0  0  0  0  0  0  0  0  0  0
   37.3226   19.0095   36.5243 C   0  0  0  0  0  0  0  0  0  0  0  0
   37.7047   17.6737   35.8198 C   0  0  0  0  0  0  0  0  0  0  0  0
   37.2001   16.5098   36.6908 C   0  0  0  0  0  0  0  0  0  0  0  0
   37.6465   15.2290   36.1488 N   0  0  0  0  0  0  0  0  0  0  0  0
  1  2  1  0  0  0  0
  2  3  1  0  0  0  0
  3  4  1  0  0  0  0
  4  5  1  0  0  0  0
  5  6  1  0  0  0  0
  6  7  1  0  0  0  0
  7  8  1  0  0  0  0
  8  9  1  0  0  0  0
  9 10  1  0  0  0  0
 10 11  1  0  0  0  0
 11 12  1  0  0  0  0
 12 13  1  0  0  0  0
 13 14  1  0  0  0  0
M  END
>  <CHROM.1>
175.00102199,60.21780573,61.00413224,169.08880045,-179.84057090,-176.92184776
177.30274905,102.88300399,-152.38185960,179.81193923,-174.31850031,39.90953903
21.87474640,37.31002492,-0.93761946,-0.45900869,-2.60460610

>  <Name>
ligand

>  <RI>
0

>  <Rbt.Current_Directory>
/home/itssahil/PROJECTS/Mol_Feturizer/New_Systems/rnas/1EVV

>  <Rbt.Executable>
rbdock ($Id: //depot/dev/client3/rdock/2013.1/src/exe/rbdock.cxx#4 $)

>  <Rbt.Library>
libRbt.so (2013.1, Build901 2013/11/27)

>  <Rbt.Parameter_File>
/export/apps/rDock/src/rDock_2013.1_src/data/scripts/dock_solv.prm

>  <Rbt.Receptor>
prm/pocket_docking_5.prm

>  <SCORE>
-6.51679

>  <SCORE.INTER>
3.01573

>  <SCORE.INTER.CONST>
1

>  <SCORE.INTER.POLAR>
0

>  <SCORE.INTER.ROT>
11

>  <SCORE.INTER.SOLV>
6.40069

>  <SCORE.INTER.VDW>
-11.0564

>  <SCORE.INTER.norm>
0.215409

>  <SCORE.INTRA>
-9.53845

>  <SCORE.INTRA.DIHEDRAL>
-18.3342

>  <SCORE.INTRA.DIHEDRAL.0>
20.2131

>  <SCORE.INTRA.POLAR>
0

>  <SCORE.INTRA.POLAR.0>
0

>  <SCORE.INTRA.REPUL>
0

>  <SCORE.INTRA.REPUL.0>
0

>  <SCORE.INTRA.SOLV>
-1.11392

>  <SCORE.INTRA.SOLV.lig_0>
-48.2851

>  <SCORE.INTRA.VDW>
0.185583

>  <SCORE.INTRA.VDW.0>
-1.08658

>  <SCORE.INTRA.norm>
-0.681318

>  <SCORE.RESTR>
0.00592829

>  <SCORE.RESTR.CAVITY>
0.00592829

>  <SCORE.RESTR.norm>
0.00042345

>  <SCORE.SYSTEM>
0

>  <SCORE.SYSTEM.CONST>
0

>  <SCORE.SYSTEM.DIHEDRAL>
0

>  <SCORE.SYSTEM.SOLV>
0

>  <SCORE.SYSTEM.norm>
0

>  <SCORE.heavy>
14

>  <SCORE.norm>
-0.465485

>  <RMSD>
4.011

$$$$
ligand
 OpenBabel11021811393D
libRbt.so/2013.1/901 2013/11/27
 14 13  0  0  0  0  0  0  0  0999 V2000
   39.2089   16.7886   34.2427 N   0  0  0  0  0  0  0  0  0  0  0  0
   37.9749   17.3743   33.7423 C   0  0  0  0  0  0  0  0  0  0  0  0
   37.9838   18.9123   33.9619 C   0  0  0  0  0  0  0  0  0  0  0  0
   38.0513   19.4437   35.4378 C   0  0  0  0  0  0  0  0  0  0  0  0
   38.0409   20.9451   35.5874 N   0  0  0  0  0  0  0  0  0  0  0  0
   38.6010   21.4254   36.8840 C   0  0  0  0  0  0  0  0  0  0  0  0
   38.3397   22.8944   37.1628 C   0  0  0  0  0  0  0  0  0  0  0  0
   38.9039   23.3438   38.4984 C   0  0  0  0  0  0  0  0  0  0  0  0
   40.3378   23.6491   38.2909 C   0  0  0  0  0  0  0  0  0  0  0  0
   41.1938   22.4886   37.9464 N   0  0  0  0  0  0  0  0  0  0  0  0
   42.6464   22.7539   38.0986 C   0  0  0  0  0  0  0  0  0  0  0  0
   43.5936   21.5583   37.7824 C   0  0  0  0  0  0  0  0  0  0  0  0
   43.3984   21.1681   36.3067 C   0  0  0  0  0  0  0  0  0  0  0  0
   44.2589   20.0420   35.9530 N   0  0  0  0  0  0  0  0  0  0  0  0
  1  2  1  0  0  0  0
  2  3  1  0  0  0  0
  3  4  1  0  0  0  0
  4  5  1  0  0  0  0
  5  6  1  0  0  0  0
  6  7  1  0  0  0  0
  7  8  1  0  0  0  0
  8  9  1  0  0  0  0
  9 10  1  0  0  0  0
 10 11  1  0  0  0  0
 11 12  1  0  0  0  0
 12 13  1  0  0  0  0
 13 14  1  0  0  0  0
M  END
>  <CHROM.1>
-62.33203423,-179.32102441,-158.49330336,-168.22311298,179.10733647,83.00953707
-66.06299685,-164.68528667,178.61158136,61.77688326,-179.66475977,40.18074549
20.91374255,36.42130139,-2.18236193,-0.09523597,0.61740780

>  <Name>
ligand

>  <RI>
0

>  <Rbt.Current_Directory>
/home/itssahil/PROJECTS/Mol_Feturizer/New_Systems/rnas/1EVV

>  <Rbt.Executable>
rbdock ($Id: //depot/dev/client3/rdock/2013.1/src/exe/rbdock.cxx#4 $)

>  <Rbt.Library>
libRbt.so (2013.1, Build901 2013/11/27)

>  <Rbt.Parameter_File>
/export/apps/rDock/src/rDock_2013.1_src/data/scripts/dock_solv.prm

>  <Rbt.Receptor>
prm/pocket_docking_5.prm

>  <SCORE>
-3.40657

>  <SCORE.INTER>
4.69891

>  <SCORE.INTER.CONST>
1

>  <SCORE.INTER.POLAR>
0

>  <SCORE.INTER.ROT>
11

>  <SCORE.INTER.SOLV>
3.50663

>  <SCORE.INTER.VDW>
-8.9696

>  <SCORE.INTER.norm>
0.335636

>  <SCORE.INTRA>
-8.10548

>  <SCORE.INTRA.DIHEDRAL>
-17.436

>  <SCORE.INTRA.DIHEDRAL.0>
20.2131

>  <SCORE.INTRA.POLAR>
0

>  <SCORE.INTRA.POLAR.0>
0

>  <SCORE.INTRA.REPUL>
0

>  <SCORE.INTRA.REPUL.0>
0

>  <SCORE.INTRA.SOLV>
0.653752

>  <SCORE.INTRA.SOLV.lig_0>
-48.2851

>  <SCORE.INTRA.VDW>
0.285637

>  <SCORE.INTRA.VDW.0>
-1.08658

>  <SCORE.INTRA.norm>
-0.578963

>  <SCORE.RESTR>
0

>  <SCORE.RESTR.CAVITY>
0

>  <SCORE.RESTR.norm>
0

>  <SCORE.SYSTEM>
0

>  <SCORE.SYSTEM.CONST>
0

>  <SCORE.SYSTEM.DIHEDRAL>
0

>  <SCORE.SYSTEM.SOLV>
0

>  <SCORE.SYSTEM.norm>
0

>  <SCORE.heavy>
14

>  <SCORE.norm>
-0.243327

>  <RMSD>
4.012

$$$$
ligand
 OpenBabel11021811393D
libRbt.so/2013.1/901 2013/11/27
 14 13  0  0  0  0  0  0  0  0999 V2000
   43.1206   28.7375   36.8513 N   0  0  0  0  0  0  0  0  0  0  0  0
   41.7957   29.0152   37.3840 C   0  0  0  0  0  0  0  0  0  0  0  0
   41.4248   27.9691   38.4711 C   0  0  0  0  0  0  0  0  0  0  0  0
   41.4773   26.4500   38.0777 C   0  0  0  0  0  0  0  0  0  0  0  0
   41.1783   25.4803   39.1944 N   0  0  0  0  0  0  0  0  0  0  0  0
   41.5007   24.0619   38.8633 C   0  0  0  0  0  0  0  0  0  0  0  0
   40.5170   23.4126   37.9068 C   0  0  0  0  0  0  0  0  0  0  0  0
   39.1130   23.3344   38.4785 C   0  0  0  0  0  0  0  0  0  0  0  0
   38.2405   22.7627   37.4277 C   0  0  0  0  0  0  0  0  0  0  0  0
   38.5303   21.3578   37.0525 N   0  0  0  0  0  0  0  0  0  0  0  0
   37.3698   20.6488   36.4573 C   0  0  0  0  0  0  0  0  0  0  0  0
   37.3759   19.0972   36.5960 C   0  0  0  0  0  0  0  0  0  0  0  0
   38.5614   18.5470   35.7837 C   0  0  0  0  0  0  0  0  0  0  0  0
   38.5834   17.0872   35.8279 N   0  0  0  0  0  0  0  0  0  0  0  0
  1  2  1  0  0  0  0
  2  3  1  0  0  0  0
  3  4  1  0  0  0  0
  4  5  1  0  0  0  0
  5  6  1  0  0  0  0
  6  7  1  0  0  0  0
  7  8  1  0  0  0  0
  8  9  1  0  0  0  0
  9 10  1  0  0  0  0
 10 11  1  0  0  0  0
 11 12  1  0  0  0  0
 12 13  1  0  0  0  0
 13 14  1  0  0  0  0
M  END
>  <CHROM.1>
-55.60848470,176.87937613,-168.41163996,-74.22444971,-62.40731400,176.62508679
65.64621659,156.27821654,-154.98735935,-65.36726895,-177.48259936,39.91330308
23.42594713,37.45525139,-1.04842376,-0.63949782,-2.62985896

>  <Name>
ligand

>  <RI>
0

>  <Rbt.Current_Directory>
/home/itssahil/PROJECTS/Mol_Feturizer/New_Systems/rnas/1EVV

>  <Rbt.Executable>
rbdock ($Id: //depot/dev/client3/rdock/2013.1/src/exe/rbdock.cxx#4 $)

>  <Rbt.Library>
libRbt.so (2013.1, Build901 2013/11/27)

>  <Rbt.Parameter_File>
/export/apps/rDock/src/rDock_2013.1_src/data/scripts/dock_solv.prm

>  <Rbt.Receptor>
prm/pocket_docking_5.prm

>  <SCORE>
-5.53593

>  <SCORE.INTER>
3.31686

>  <SCORE.INTER.CONST>
1

>  <SCORE.INTER.POLAR>
0

>  <SCORE.INTER.ROT>
11

>  <SCORE.INTER.SOLV>
5.28004

>  <SCORE.INTER.VDW>
-10.4821

>  <SCORE.INTER.norm>
0.236919

>  <SCORE.INTRA>
-8.85279

>  <SCORE.INTRA.DIHEDRAL>
-18.6649

>  <SCORE.INTRA.DIHEDRAL.0>
20.2131

>  <SCORE.INTRA.POLAR>
0

>  <SCORE.INTRA.POLAR.0>
0

>  <SCORE.INTRA.REPUL>
0

>  <SCORE.INTRA.REPUL.0>
0

>  <SCORE.INTRA.SOLV>
0.431294

>  <SCORE.INTRA.SOLV.lig_0>
-48.2851

>  <SCORE.INTRA.VDW>
0.264008

>  <SCORE.INTRA.VDW.0>
-1.08658

>  <SCORE.INTRA.norm>
-0.632342

>  <SCORE.RESTR>
0

>  <SCORE.RESTR.CAVITY>
0

>  <SCORE.RESTR.norm>
0

>  <SCORE.SYSTEM>
0

>  <SCORE.SYSTEM.CONST>
0

>  <SCORE.SYSTEM.DIHEDRAL>
0

>  <SCORE.SYSTEM.SOLV>
0

>  <SCORE.SYSTEM.norm>
0

>  <SCORE.heavy>
14

>  <SCORE.norm>
-0.395423

>  <RMSD>
4.047

$$$$
ligand
 OpenBabel11021811393D
libRbt.so/2013.1/901 2013/11/27
 14 13  0  0  0  0  0  0  0  0999 V2000
   39.2616   15.8273   33.2758 N   0  0  0  0  0  0  0  0  0  0  0  0
   38.4321   16.6911   34.1016 C   0  0  0  0  0  0  0  0  0  0  0  0
   37.7936   15.8745   35.2589 C   0  0  0  0  0  0  0  0  0  0  0  0
   36.8295   16.6262   36.2442 C   0  0  0  0  0  0  0  0  0  0  0  0
   37.4401   17.7879   36.9887 N   0  0  0  0  0  0  0  0  0  0  0  0
   37.4898   19.0515   36.1974 C   0  0  0  0  0  0  0  0  0  0  0  0
   38.3888   20.1188   36.7947 C   0  0  0  0  0  0  0  0  0  0  0  0
   39.8174   19.6407   36.9807 C   0  0  0  0  0  0  0  0  0  0  0  0
   40.5124   20.6442   37.8187 C   0  0  0  0  0  0  0  0  0  0  0  0
   40.6073   22.0050   37.2378 N   0  0  0  0  0  0  0  0  0  0  0  0
   39.9030   23.0423   38.0324 C   0  0  0  0  0  0  0  0  0  0  0  0
   40.6077   24.4290   38.1184 C   0  0  0  0  0  0  0  0  0  0  0  0
   41.8946   24.2633   38.9457 C   0  0  0  0  0  0  0  0  0  0  0  0
   42.5968   25.5382   39.0675 N   0  0  0  0  0  0  0  0  0  0  0  0
  1  2  1  0  0  0  0
  2  3  1  0  0  0  0
  3  4  1  0  0  0  0
  4  5  1  0  0  0  0
  5  6  1  0  0  0  0
  6  7  1  0  0  0  0
  7  8  1  0  0  0  0
  8  9  1  0  0  0  0
  9 10  1  0  0  0  0
 10 11  1  0  0  0  0
 11 12  1  0  0  0  0
 12 13  1  0  0  0  0
 13 14  1  0  0  0  0
M  END
>  <CHROM.1>
-178.48182543,-59.53425364,81.55494628,-166.00723062,57.22375300,-168.24031421
-61.97251632,117.45740572,141.96924949,-67.96592391,-179.66445075,39.39794658
20.10992164,36.79025413,-2.01913215,0.48880367,0.65071191

>  <Name>
ligand

>  <RI>
0

>  <Rbt.Current_Directory>
/home/itssahil/PROJECTS/Mol_Feturizer/New_Systems/rnas/1EVV

>  <Rbt.Executable>
rbdock ($Id: //depot/dev/client3/rdock/2013.1/src/exe/rbdock.cxx#4 $)

>  <Rbt.Library>
libRbt.so (2013.1, Build901 2013/11/27)

>  <Rbt.Parameter_File>
/export/apps/rDock/src/rDock_2013.1_src/data/scripts/dock_solv.prm

>  <Rbt.Receptor>
prm/pocket_docking_7.prm

>  <SCORE>
-6.27282

>  <SCORE.INTER>
2.13374

>  <SCORE.INTER.CONST>
1

>  <SCORE.INTER.POLAR>
0

>  <SCORE.INTER.ROT>
11

>  <SCORE.INTER.SOLV>
6.18791

>  <SCORE.INTER.VDW>
-11.5735

>  <SCORE.INTER.norm>
0.15241

>  <SCORE.INTRA>
-8.40656

>  <SCORE.INTRA.DIHEDRAL>
-16.8239

>  <SCORE.INTRA.DIHEDRAL.0>
20.2131

>  <SCORE.INTRA.POLAR>
0

>  <SCORE.INTRA.POLAR.0>
0

>  <SCORE.INTRA.REPUL>
0

>  <SCORE.INTRA.REPUL.0>
0

>  <SCORE.INTRA.SOLV>
0.0926346

>  <SCORE.INTRA.SOLV.lig_0>
-48.2851

>  <SCORE.INTRA.VDW>
-0.0409033

>  <SCORE.INTRA.VDW.0>
-1.08658

>  <SCORE.INTRA.norm>
-0.600468

>  <SCORE.RESTR>
0

>  <SCORE.RESTR.CAVITY>
0

>  <SCORE.RESTR.norm>
0

>  <SCORE.SYSTEM>
0

>  <SCORE.SYSTEM.CONST>
0

>  <SCORE.SYSTEM.DIHEDRAL>
0

>  <SCORE.SYSTEM.SOLV>
0

>  <SCORE.SYSTEM.norm>
0

>  <SCORE.heavy>
14

>  <SCORE.norm>
-0.448059

>  <RMSD>
4.068

$$$$
ligand
 OpenBabel11021811393D
libRbt.so/2013.1/901 2013/11/27
 14 13  0  0  0  0  0  0  0  0999 V2000
   42.8588   20.7100   36.9161 N   0  0  0  0  0  0  0  0  0  0  0  0
   44.1067   20.5145   36.1945 C   0  0  0  0  0  0  0  0  0  0  0  0
   44.3603   18.9994   35.9626 C   0  0  0  0  0  0  0  0  0  0  0  0
   43.4138   18.2398   34.9663 C   0  0  0  0  0  0  0  0  0  0  0  0
   41.9550   18.2132   35.3507 N   0  0  0  0  0  0  0  0  0  0  0  0
   41.6326   17.2287   36.4241 C   0  0  0  0  0  0  0  0  0  0  0  0
   40.4119   17.5933   37.2494 C   0  0  0  0  0  0  0  0  0  0  0  0
   39.1794   17.8284   36.3951 C   0  0  0  0  0  0  0  0  0  0  0  0
   38.1013   18.2958   37.2960 C   0  0  0  0  0  0  0  0  0  0  0  0
   36.8552   18.7368   36.6246 N   0  0  0  0  0  0  0  0  0  0  0  0
   36.8884   20.1519   36.1771 C   0  0  0  0  0  0  0  0  0  0  0  0
   37.5144   20.4075   34.7738 C   0  0  0  0  0  0  0  0  0  0  0  0
   37.5818   21.9281   34.5476 C   0  0  0  0  0  0  0  0  0  0  0  0
   38.5811   22.5357   35.4226 N   0  0  0  0  0  0  0  0  0  0  0  0
  1  2  1  0  0  0  0
  2  3  1  0  0  0  0
  3  4  1  0  0  0  0
  4  5  1  0  0  0  0
  5  6  1  0  0  0  0
  6  7  1  0  0  0  0
  7  8  1  0  0  0  0
  8  9  1  0  0  0  0
  9 10  1  0  0  0  0
 10 11  1  0  0  0  0
 11 12  1  0  0  0  0
 12 13  1  0  0  0  0
 13 14  1  0  0  0  0
M  END
>  <CHROM.1>
68.87575843,-61.57589667,-77.37103832,153.43871210,54.66319946,-174.81630107
172.97989827,-85.04342590,86.08018942,-174.66668451,69.82026632,40.24583080
19.38424681,36.02145149,-0.21143894,0.02967229,-0.31615390

>  <Name>
ligand

>  <RI>
0

>  <Rbt.Current_Directory>
/home/itssahil/PROJECTS/Mol_Feturizer/New_Systems/rnas/1EVV

>  <Rbt.Executable>
rbdock ($Id: //depot/dev/client3/rdock/2013.1/src/exe/rbdock.cxx#4 $)

>  <Rbt.Library>
libRbt.so (2013.1, Build901 2013/11/27)

>  <Rbt.Parameter_File>
/export/apps/rDock/src/rDock_2013.1_src/data/scripts/dock_solv.prm

>  <Rbt.Receptor>
prm/pocket_docking_3.prm

>  <SCORE>
-2.25499

>  <SCORE.INTER>
4.93264

>  <SCORE.INTER.CONST>
1

>  <SCORE.INTER.POLAR>
0

>  <SCORE.INTER.ROT>
11

>  <SCORE.INTER.SOLV>
7.92077

>  <SCORE.INTER.VDW>
-10.2852

>  <SCORE.INTER.norm>
0.352332

>  <SCORE.INTRA>
-7.1912

>  <SCORE.INTRA.DIHEDRAL>
-17.3959

>  <SCORE.INTRA.DIHEDRAL.0>
20.2131

>  <SCORE.INTRA.POLAR>
0

>  <SCORE.INTRA.POLAR.0>
0

>  <SCORE.INTRA.REPUL>
0

>  <SCORE.INTRA.REPUL.0>
0

>  <SCORE.INTRA.SOLV>
3.24491

>  <SCORE.INTRA.SOLV.lig_0>
-48.2851

>  <SCORE.INTRA.VDW>
-0.115681

>  <SCORE.INTRA.VDW.0>
-1.08658

>  <SCORE.INTRA.norm>
-0.513657

>  <SCORE.RESTR>
0.00357315

>  <SCORE.RESTR.CAVITY>
0.00357315

>  <SCORE.RESTR.norm>
0.000255225

>  <SCORE.SYSTEM>
0

>  <SCORE.SYSTEM.CONST>
0

>  <SCORE.SYSTEM.DIHEDRAL>
0

>  <SCORE.SYSTEM.SOLV>
0

>  <SCORE.SYSTEM.norm>
0

>  <SCORE.heavy>
14

>  <SCORE.norm>
-0.16107

>  <RMSD>
4.094

$$$$
ligand
 OpenBabel11021811393D
libRbt.so/2013.1/901 2013/11/27
 14 13  0  0  0  0  0  0  0  0999 V2000
   43.1456   23.6841   37.9381 N   0  0  0  0  0  0  0  0  0  0  0  0
   42.0249   22.7741   38.1176 C   0  0  0  0  0  0  0  0  0  0  0  0
   40.6822   23.5374   37.9496 C   0  0  0  0  0  0  0  0  0  0  0  0
   39.3501   22.7123   38.0501 C   0  0  0  0  0  0  0  0  0  0  0  0
   39.2350   21.5483   37.0969 N   0  0  0  0  0  0  0  0  0  0  0  0
   37.8575   21.3407   36.5630 C   0  0  0  0  0  0  0  0  0  0  0  0
   37.6578   20.0028   35.8744 C   0  0  0  0  0  0  0  0  0  0  0  0
   37.8582   18.8277   36.8140 C   0  0  0  0  0  0  0  0  0  0  0  0
   37.6169   17.5930   36.0333 C   0  0  0  0  0  0  0  0  0  0  0  0
   38.6120   17.3040   34.9728 N   0  0  0  0  0  0  0  0  0  0  0  0
   38.0895   16.4392   33.8853 C   0  0  0  0  0  0  0  0  0  0  0  0
   37.1644   17.1382   32.8449 C   0  0  0  0  0  0  0  0  0  0  0  0
   38.0029   18.1745   32.0762 C   0  0  0  0  0  0  0  0  0  0  0  0
   37.1592   18.9526   31.1729 N   0  0  0  0  0  0  0  0  0  0  0  0
  1  2  1  0  0  0  0
  2  3  1  0  0  0  0
  3  4  1  0  0  0  0
  4  5  1  0  0  0  0
  5  6  1  0  0  0  0
  6  7  1  0  0  0  0
  7  8  1  0  0  0  0
  8  9  1  0  0  0  0
  9 10  1  0  0  0  0
 10 11  1  0  0  0  0
 11 12  1  0  0  0  0
 12 13  1  0  0  0  0
 13 14  1  0  0  0  0
M  END
>  <CHROM.1>
177.57998764,-56.02319504,-143.03435579,-166.40264107,62.31352519,179.15309793
67.38754462,-156.25001848,77.11957981,65.48318727,-174.59719687,38.88946239
20.00190276,35.67081152,-0.71244753,-0.94650964,-1.67252342

>  <Name>
ligand

>  <RI>
0

>  <Rbt.Current_Directory>
/home/itssahil/PROJECTS/Mol_Feturizer/New_Systems/rnas/1EVV

>  <Rbt.Executable>
rbdock ($Id: //depot/dev/client3/rdock/2013.1/src/exe/rbdock.cxx#4 $)

>  <Rbt.Library>
libRbt.so (2013.1, Build901 2013/11/27)

>  <Rbt.Parameter_File>
/export/apps/rDock/src/rDock_2013.1_src/data/scripts/dock_solv.prm

>  <Rbt.Receptor>
prm/pocket_docking_4.prm

>  <SCORE>
-6.63509

>  <SCORE.INTER>
2.65321

>  <SCORE.INTER.CONST>
1

>  <SCORE.INTER.POLAR>
0

>  <SCORE.INTER.ROT>
11

>  <SCORE.INTER.SOLV>
4.90979

>  <SCORE.INTER.VDW>
-10.8011

>  <SCORE.INTER.norm>
0.189515

>  <SCORE.INTRA>
-9.28831

>  <SCORE.INTRA.DIHEDRAL>
-18.0893

>  <SCORE.INTRA.DIHEDRAL.0>
20.2131

>  <SCORE.INTRA.POLAR>
0

>  <SCORE.INTRA.POLAR.0>
0

>  <SCORE.INTRA.REPUL>
0

>  <SCORE.INTRA.REPUL.0>
0

>  <SCORE.INTRA.SOLV>
0.0144766

>  <SCORE.INTRA.SOLV.lig_0>
-48.2851

>  <SCORE.INTRA.VDW>
-0.250876

>  <SCORE.INTRA.VDW.0>
-1.08658

>  <SCORE.INTRA.norm>
-0.663451

>  <SCORE.RESTR>
0

>  <SCORE.RESTR.CAVITY>
0

>  <SCORE.RESTR.norm>
0

>  <SCORE.SYSTEM>
0

>  <SCORE.SYSTEM.CONST>
0

>  <SCORE.SYSTEM.DIHEDRAL>
0

>  <SCORE.SYSTEM.SOLV>
0

>  <SCORE.SYSTEM.norm>
0

>  <SCORE.heavy>
14

>  <SCORE.norm>
-0.473935

>  <RMSD>
4.094

$$$$
ligand
 OpenBabel11021811393D
libRbt.so/2013.1/901 2013/11/27
 14 13  0  0  0  0  0  0  0  0999 V2000
   45.0558   24.7271   42.0079 N   0  0  0  0  0  0  0  0  0  0  0  0
   43.7539   25.0855   41.4667 C   0  0  0  0  0  0  0  0  0  0  0  0
   43.4321   24.2133   40.2219 C   0  0  0  0  0  0  0  0  0  0  0  0
   42.0507   24.4320   39.5084 C   0  0  0  0  0  0  0  0  0  0  0  0
   41.7532   23.4891   38.3687 N   0  0  0  0  0  0  0  0  0  0  0  0
   40.3088   23.4250   38.0010 C   0  0  0  0  0  0  0  0  0  0  0  0
   39.8551   22.0595   37.5176 C   0  0  0  0  0  0  0  0  0  0  0  0
   38.4448   22.0786   36.9565 C   0  0  0  0  0  0  0  0  0  0  0  0
   38.1423   20.7104   36.4782 C   0  0  0  0  0  0  0  0  0  0  0  0
   36.8576   20.5571   35.7541 N   0  0  0  0  0  0  0  0  0  0  0  0
   36.9586   20.8273   34.2979 C   0  0  0  0  0  0  0  0  0  0  0  0
   35.8774   21.7796   33.7056 C   0  0  0  0  0  0  0  0  0  0  0  0
   36.1806   21.9796   32.2103 C   0  0  0  0  0  0  0  0  0  0  0  0
   35.2238   22.9055   31.6096 N   0  0  0  0  0  0  0  0  0  0  0  0
  1  2  1  0  0  0  0
  2  3  1  0  0  0  0
  3  4  1  0  0  0  0
  4  5  1  0  0  0  0
  5  6  1  0  0  0  0
  6  7  1  0  0  0  0
  7  8  1  0  0  0  0
  8  9  1  0  0  0  0
  9 10  1  0  0  0  0
 10 11  1  0  0  0  0
 11 12  1  0  0  0  0
 12 13  1  0  0  0  0
 13 14  1  0  0  0  0
M  END
>  <CHROM.1>
178.84170902,-175.74656513,161.70807214,-146.56870786,-171.35008077,177.97754096
-173.47995960,87.37456868,-131.74798459,177.77295111,-177.95917974,39.56384382
22.73345995,37.00747670,-0.21613659,-0.79481798,-0.66521336

>  <Name>
ligand

>  <RI>
0

>  <Rbt.Current_Directory>
/home/itssahil/PROJECTS/Mol_Feturizer/New_Systems/rnas/1EVV

>  <Rbt.Executable>
rbdock ($Id: //depot/dev/client3/rdock/2013.1/src/exe/rbdock.cxx#4 $)

>  <Rbt.Library>
libRbt.so (2013.1, Build901 2013/11/27)

>  <Rbt.Parameter_File>
/export/apps/rDock/src/rDock_2013.1_src/data/scripts/dock_solv.prm

>  <Rbt.Receptor>
prm/pocket_docking_7.prm

>  <SCORE>
-6.97323

>  <SCORE.INTER>
2.39525

>  <SCORE.INTER.CONST>
1

>  <SCORE.INTER.POLAR>
0

>  <SCORE.INTER.ROT>
11

>  <SCORE.INTER.SOLV>
6.91123

>  <SCORE.INTER.VDW>
-11.6402

>  <SCORE.INTER.norm>
0.171089

>  <SCORE.INTRA>
-9.36848

>  <SCORE.INTRA.DIHEDRAL>
-17.0809

>  <SCORE.INTRA.DIHEDRAL.0>
20.2131

>  <SCORE.INTRA.POLAR>
0

>  <SCORE.INTRA.POLAR.0>
0

>  <SCORE.INTRA.REPUL>
0

>  <SCORE.INTRA.REPUL.0>
0

>  <SCORE.INTRA.SOLV>
-1.43684

>  <SCORE.INTRA.SOLV.lig_0>
-48.2851

>  <SCORE.INTRA.VDW>
-0.109602

>  <SCORE.INTRA.VDW.0>
-1.08658

>  <SCORE.INTRA.norm>
-0.669177

>  <SCORE.RESTR>
0

>  <SCORE.RESTR.CAVITY>
0

>  <SCORE.RESTR.norm>
0

>  <SCORE.SYSTEM>
0

>  <SCORE.SYSTEM.CONST>
0

>  <SCORE.SYSTEM.DIHEDRAL>
0

>  <SCORE.SYSTEM.SOLV>
0

>  <SCORE.SYSTEM.norm>
0

>  <SCORE.heavy>
14

>  <SCORE.norm>
-0.498088

>  <RMSD>
4.112

$$$$
ligand
 OpenBabel11021811393D
libRbt.so/2013.1/901 2013/11/27
 14 13  0  0  0  0  0  0  0  0999 V2000
   37.5436   16.4322   35.0473 N   0  0  0  0  0  0  0  0  0  0  0  0
   36.8759   16.8388   36.2741 C   0  0  0  0  0  0  0  0  0  0  0  0
   37.8853   17.5337   37.2290 C   0  0  0  0  0  0  0  0  0  0  0  0
   38.5297   18.8863   36.7595 C   0  0  0  0  0  0  0  0  0  0  0  0
   37.5574   20.0075   36.4868 N   0  0  0  0  0  0  0  0  0  0  0  0
   38.1503   21.1487   35.7309 C   0  0  0  0  0  0  0  0  0  0  0  0
   39.1413   21.9721   36.5334 C   0  0  0  0  0  0  0  0  0  0  0  0
   38.4799   22.7450   37.6600 C   0  0  0  0  0  0  0  0  0  0  0  0
   39.5569   23.4002   38.4366 C   0  0  0  0  0  0  0  0  0  0  0  0
   40.4081   24.3455   37.6750 N   0  0  0  0  0  0  0  0  0  0  0  0
   41.1611   25.2937   38.5339 C   0  0  0  0  0  0  0  0  0  0  0  0
   41.4500   26.6927   37.9126 C   0  0  0  0  0  0  0  0  0  0  0  0
   42.3318   27.4822   38.8961 C   0  0  0  0  0  0  0  0  0  0  0  0
   42.6598   28.7977   38.3527 N   0  0  0  0  0  0  0  0  0  0  0  0
  1  2  1  0  0  0  0
  2  3  1  0  0  0  0
  3  4  1  0  0  0  0
  4  5  1  0  0  0  0
  5  6  1  0  0  0  0
  6  7  1  0  0  0  0
  7  8  1  0  0  0  0
  8  9  1  0  0  0  0
  9 10  1  0  0  0  0
 10 11  1  0  0  0  0
 11 12  1  0  0  0  0
 12 13  1  0  0  0  0
 13 14  1  0  0  0  0
M  END
>  <CHROM.1>
64.16594491,60.03572833,-165.61313282,-70.62202399,-68.00140280,174.85473731
59.69414342,161.13027776,-149.32642420,-175.34075861,178.81708131,39.40931236
22.25538767,37.25213329,2.69168111,1.10369394,2.30264066

>  <Name>
ligand

>  <RI>
0

>  <Rbt.Current_Directory>
/home/itssahil/PROJECTS/Mol_Feturizer/New_Systems/rnas/1EVV

>  <Rbt.Executable>
rbdock ($Id: //depot/dev/client3/rdock/2013.1/src/exe/rbdock.cxx#4 $)

>  <Rbt.Library>
libRbt.so (2013.1, Build901 2013/11/27)

>  <Rbt.Parameter_File>
/export/apps/rDock/src/rDock_2013.1_src/data/scripts/dock_solv.prm

>  <Rbt.Receptor>
prm/pocket_docking_5.prm

>  <SCORE>
-6.15586

>  <SCORE.INTER>
2.41742

>  <SCORE.INTER.CONST>
1

>  <SCORE.INTER.POLAR>
0

>  <SCORE.INTER.ROT>
11

>  <SCORE.INTER.SOLV>
5.5922

>  <SCORE.INTER.VDW>
-11.1858

>  <SCORE.INTER.norm>
0.172673

>  <SCORE.INTRA>
-8.57328

>  <SCORE.INTRA.DIHEDRAL>
-18.5676

>  <SCORE.INTRA.DIHEDRAL.0>
20.2131

>  <SCORE.INTRA.POLAR>
0

>  <SCORE.INTRA.POLAR.0>
0

>  <SCORE.INTRA.REPUL>
0

>  <SCORE.INTRA.REPUL.0>
0

>  <SCORE.INTRA.SOLV>
0.917935

>  <SCORE.INTRA.SOLV.lig_0>
-48.2851

>  <SCORE.INTRA.VDW>
0.251542

>  <SCORE.INTRA.VDW.0>
-1.08658

>  <SCORE.INTRA.norm>
-0.612377

>  <SCORE.RESTR>
0

>  <SCORE.RESTR.CAVITY>
0

>  <SCORE.RESTR.norm>
0

>  <SCORE.SYSTEM>
0

>  <SCORE.SYSTEM.CONST>
0

>  <SCORE.SYSTEM.DIHEDRAL>
0

>  <SCORE.SYSTEM.SOLV>
0

>  <SCORE.SYSTEM.norm>
0

>  <SCORE.heavy>
14

>  <SCORE.norm>
-0.439704

>  <RMSD>
4.172

$$$$
ligand
 OpenBabel11021811393D
libRbt.so/2013.1/901 2013/11/27
 14 13  0  0  0  0  0  0  0  0999 V2000
   36.9997   19.5156   30.7413 N   0  0  0  0  0  0  0  0  0  0  0  0
   36.6559   18.3131   31.4842 C   0  0  0  0  0  0  0  0  0  0  0  0
   37.6049   18.1460   32.7028 C   0  0  0  0  0  0  0  0  0  0  0  0
   37.3739   16.9161   33.6511 C   0  0  0  0  0  0  0  0  0  0  0  0
   38.2497   16.8706   34.8790 N   0  0  0  0  0  0  0  0  0  0  0  0
   37.5299   17.1947   36.1448 C   0  0  0  0  0  0  0  0  0  0  0  0
   37.8672   18.5608   36.7141 C   0  0  0  0  0  0  0  0  0  0  0  0
   37.3673   19.6965   35.8397 C   0  0  0  0  0  0  0  0  0  0  0  0
   37.7632   20.9640   36.4946 C   0  0  0  0  0  0  0  0  0  0  0  0
   39.2037   21.3043   36.4075 N   0  0  0  0  0  0  0  0  0  0  0  0
   39.9865   20.8909   37.5991 C   0  0  0  0  0  0  0  0  0  0  0  0
   41.4800   21.3333   37.6193 C   0  0  0  0  0  0  0  0  0  0  0  0
   41.5250   22.8698   37.6920 C   0  0  0  0  0  0  0  0  0  0  0  0
   42.9057   23.3460   37.6845 N   0  0  0  0  0  0  0  0  0  0  0  0
  1  2  1  0  0  0  0
  2  3  1  0  0  0  0
  3  4  1  0  0  0  0
  4  5  1  0  0  0  0
  5  6  1  0  0  0  0
  6  7  1  0  0  0  0
  7  8  1  0  0  0  0
  8  9  1  0  0  0  0
  9 10  1  0  0  0  0
 10 11  1  0  0  0  0
 11 12  1  0  0  0  0
 12 13  1  0  0  0  0
 13 14  1  0  0  0  0
M  END
>  <CHROM.1>
178.75094688,-175.05511779,106.87382194,-106.88963934,67.44742600,-179.65883667
73.65864545,-95.89940435,-174.81870536,64.99888735,-178.76884432,38.75066724
19.70848321,35.40404269,-2.79856506,0.95321049,1.99894647

>  <Name>
ligand

>  <RI>
0

>  <Rbt.Current_Directory>
/home/itssahil/PROJECTS/Mol_Feturizer/New_Systems/rnas/1EVV

>  <Rbt.Executable>
rbdock ($Id: //depot/dev/client3/rdock/2013.1/src/exe/rbdock.cxx#4 $)

>  <Rbt.Library>
libRbt.so (2013.1, Build901 2013/11/27)

>  <Rbt.Parameter_File>
/export/apps/rDock/src/rDock_2013.1_src/data/scripts/dock_solv.prm

>  <Rbt.Receptor>
prm/pocket_docking_4.prm

>  <SCORE>
-5.60721

>  <SCORE.INTER>
2.92688

>  <SCORE.INTER.CONST>
1

>  <SCORE.INTER.POLAR>
0

>  <SCORE.INTER.ROT>
11

>  <SCORE.INTER.SOLV>
4.19137

>  <SCORE.INTER.VDW>
-10.3792

>  <SCORE.INTER.norm>
0.209063

>  <SCORE.INTRA>
-8.5341

>  <SCORE.INTRA.DIHEDRAL>
-16.1994

>  <SCORE.INTRA.DIHEDRAL.0>
20.2131

>  <SCORE.INTRA.POLAR>
0

>  <SCORE.INTRA.POLAR.0>
0

>  <SCORE.INTRA.REPUL>
0

>  <SCORE.INTRA.REPUL.0>
0

>  <SCORE.INTRA.SOLV>
-0.37472

>  <SCORE.INTRA.SOLV.lig_0>
-48.2851

>  <SCORE.INTRA.VDW>
-0.247057

>  <SCORE.INTRA.VDW.0>
-1.08658

>  <SCORE.INTRA.norm>
-0.609578

>  <SCORE.RESTR>
0

>  <SCORE.RESTR.CAVITY>
0

>  <SCORE.RESTR.norm>
0

>  <SCORE.SYSTEM>
0

>  <SCORE.SYSTEM.CONST>
0

>  <SCORE.SYSTEM.DIHEDRAL>
0

>  <SCORE.SYSTEM.SOLV>
0

>  <SCORE.SYSTEM.norm>
0

>  <SCORE.heavy>
14

>  <SCORE.norm>
-0.400515

>  <RMSD>
4.193

$$$$
ligand
 OpenBabel11021811393D
libRbt.so/2013.1/901 2013/11/27
 14 13  0  0  0  0  0  0  0  0999 V2000
   44.8961   22.3973   38.6533 N   0  0  0  0  0  0  0  0  0  0  0  0
   43.8634   23.2068   38.0253 C   0  0  0  0  0  0  0  0  0  0  0  0
   42.8047   23.6365   39.0781 C   0  0  0  0  0  0  0  0  0  0  0  0
   41.6335   24.5688   38.6045 C   0  0  0  0  0  0  0  0  0  0  0  0
   40.6951   23.9657   37.5885 N   0  0  0  0  0  0  0  0  0  0  0  0
   39.6066   23.1407   38.1887 C   0  0  0  0  0  0  0  0  0  0  0  0
   39.4520   21.7692   37.5569 C   0  0  0  0  0  0  0  0  0  0  0  0
   40.6432   20.8668   37.8231 C   0  0  0  0  0  0  0  0  0  0  0  0
   40.3271   19.5390   37.2492 C   0  0  0  0  0  0  0  0  0  0  0  0
   41.3550   18.4916   37.4604 N   0  0  0  0  0  0  0  0  0  0  0  0
   41.7302   17.7666   36.2205 C   0  0  0  0  0  0  0  0  0  0  0  0
   43.1482   18.0750   35.6543 C   0  0  0  0  0  0  0  0  0  0  0  0
   43.2111   19.5726   35.3060 C   0  0  0  0  0  0  0  0  0  0  0  0
   44.5166   19.9181   34.7495 N   0  0  0  0  0  0  0  0  0  0  0  0
  1  2  1  0  0  0  0
  2  3  1  0  0  0  0
  3  4  1  0  0  0  0
  4  5  1  0  0  0  0
  5  6  1  0  0  0  0
  6  7  1  0  0  0  0
  7  8  1  0  0  0  0
  8  9  1  0  0  0  0
  9 10  1  0  0  0  0
 10 11  1  0  0  0  0
 11 12  1  0  0  0  0
 12 13  1  0  0  0  0
 13 14  1  0  0  0  0
M  END
>  <CHROM.1>
177.59073003,64.44626177,84.50915343,-130.30341753,67.01511997,175.75302756
-177.47642394,-130.32641079,108.69932750,-61.15182808,-179.15672086,41.99127063
21.20820149,37.29709719,-1.74346964,-0.16431399,-2.71444530

>  <Name>
ligand

>  <RI>
0

>  <Rbt.Current_Directory>
/home/itssahil/PROJECTS/Mol_Feturizer/New_Systems/rnas/1EVV

>  <Rbt.Executable>
rbdock ($Id: //depot/dev/client3/rdock/2013.1/src/exe/rbdock.cxx#4 $)

>  <Rbt.Library>
libRbt.so (2013.1, Build901 2013/11/27)

>  <Rbt.Parameter_File>
/export/apps/rDock/src/rDock_2013.1_src/data/scripts/dock_solv.prm

>  <Rbt.Receptor>
prm/pocket_docking_4.prm

>  <SCORE>
-4.82039

>  <SCORE.INTER>
4.28322

>  <SCORE.INTER.CONST>
1

>  <SCORE.INTER.POLAR>
0

>  <SCORE.INTER.ROT>
11

>  <SCORE.INTER.SOLV>
5.61112

>  <SCORE.INTER.VDW>
-9.94823

>  <SCORE.INTER.norm>
0.305944

>  <SCORE.INTRA>
-9.1081

>  <SCORE.INTRA.DIHEDRAL>
-16.0685

>  <SCORE.INTRA.DIHEDRAL.0>
20.2131

>  <SCORE.INTRA.POLAR>
0

>  <SCORE.INTRA.POLAR.0>
0

>  <SCORE.INTRA.REPUL>
0

>  <SCORE.INTRA.REPUL.0>
0

>  <SCORE.INTRA.SOLV>
-0.315093

>  <SCORE.INTRA.SOLV.lig_0>
-48.2851

>  <SCORE.INTRA.VDW>
-0.916314

>  <SCORE.INTRA.VDW.0>
-1.08658

>  <SCORE.INTRA.norm>
-0.650579

>  <SCORE.RESTR>
0.00448623

>  <SCORE.RESTR.CAVITY>
0.00448623

>  <SCORE.RESTR.norm>
0.000320445

>  <SCORE.SYSTEM>
0

>  <SCORE.SYSTEM.CONST>
0

>  <SCORE.SYSTEM.DIHEDRAL>
0

>  <SCORE.SYSTEM.SOLV>
0

>  <SCORE.SYSTEM.norm>
0

>  <SCORE.heavy>
14

>  <SCORE.norm>
-0.344314

>  <RMSD>
4.198

$$$$
ligand
 OpenBabel11021811393D
libRbt.so/2013.1/901 2013/11/27
 14 13  0  0  0  0  0  0  0  0999 V2000
   45.7379   23.3108   39.9804 N   0  0  0  0  0  0  0  0  0  0  0  0
   44.6714   23.1241   40.9519 C   0  0  0  0  0  0  0  0  0  0  0  0
   43.4469   24.0050   40.5799 C   0  0  0  0  0  0  0  0  0  0  0  0
   42.6943   23.6888   39.2387 C   0  0  0  0  0  0  0  0  0  0  0  0
   41.5014   24.5640   38.9428 N   0  0  0  0  0  0  0  0  0  0  0  0
   40.5376   23.9623   37.9760 C   0  0  0  0  0  0  0  0  0  0  0  0
   39.2838   23.4018   38.6225 C   0  0  0  0  0  0  0  0  0  0  0  0
   38.1976   23.0851   37.6105 C   0  0  0  0  0  0  0  0  0  0  0  0
   38.5990   21.8460   36.9064 C   0  0  0  0  0  0  0  0  0  0  0  0
   37.7011   21.4174   35.8072 N   0  0  0  0  0  0  0  0  0  0  0  0
   37.9833   20.0485   35.3070 C   0  0  0  0  0  0  0  0  0  0  0  0
   37.6813   19.7990   33.7993 C   0  0  0  0  0  0  0  0  0  0  0  0
   38.0234   18.3337   33.4770 C   0  0  0  0  0  0  0  0  0  0  0  0
   37.7550   18.0388   32.0718 N   0  0  0  0  0  0  0  0  0  0  0  0
  1  2  1  0  0  0  0
  2  3  1  0  0  0  0
  3  4  1  0  0  0  0
  4  5  1  0  0  0  0
  5  6  1  0  0  0  0
  6  7  1  0  0  0  0
  7  8  1  0  0  0  0
  8  9  1  0  0  0  0
  9 10  1  0  0  0  0
 10 11  1  0  0  0  0
 11 12  1  0  0  0  0
 12 13  1  0  0  0  0
 13 14  1  0  0  0  0
M  END
>  <CHROM.1>
64.67231309,179.08635481,-158.94657162,103.22232382,167.11172417,74.75508815
-176.17666448,-168.70834080,-148.96226827,-179.51791012,179.80686073,40.27226903
22.04475626,37.23390210,-0.87870274,0.27658542,-2.41182659

>  <Name>
ligand

>  <RI>
0

>  <Rbt.Current_Directory>
/home/itssahil/PROJECTS/Mol_Feturizer/New_Systems/rnas/1EVV

>  <Rbt.Executable>
rbdock ($Id: //depot/dev/client3/rdock/2013.1/src/exe/rbdock.cxx#4 $)

>  <Rbt.Library>
libRbt.so (2013.1, Build901 2013/11/27)

>  <Rbt.Parameter_File>
/export/apps/rDock/src/rDock_2013.1_src/data/scripts/dock_solv.prm

>  <Rbt.Receptor>
prm/pocket_docking_6.prm

>  <SCORE>
-6.96857

>  <SCORE.INTER>
1.0723

>  <SCORE.INTER.CONST>
1

>  <SCORE.INTER.POLAR>
0

>  <SCORE.INTER.ROT>
11

>  <SCORE.INTER.SOLV>
5.31247

>  <SCORE.INTER.VDW>
-11.9893

>  <SCORE.INTER.norm>
0.0765928

>  <SCORE.INTRA>
-8.04087

>  <SCORE.INTRA.DIHEDRAL>
-16.5515

>  <SCORE.INTRA.DIHEDRAL.0>
20.2131

>  <SCORE.INTRA.POLAR>
0

>  <SCORE.INTRA.POLAR.0>
0

>  <SCORE.INTRA.REPUL>
0

>  <SCORE.INTRA.REPUL.0>
0

>  <SCORE.INTRA.SOLV>
-0.573798

>  <SCORE.INTRA.SOLV.lig_0>
-48.2851

>  <SCORE.INTRA.VDW>
0.521776

>  <SCORE.INTRA.VDW.0>
-1.08658

>  <SCORE.INTRA.norm>
-0.574348

>  <SCORE.RESTR>
0

>  <SCORE.RESTR.CAVITY>
0

>  <SCORE.RESTR.norm>
0

>  <SCORE.SYSTEM>
0

>  <SCORE.SYSTEM.CONST>
0

>  <SCORE.SYSTEM.DIHEDRAL>
0

>  <SCORE.SYSTEM.SOLV>
0

>  <SCORE.SYSTEM.norm>
0

>  <SCORE.heavy>
14

>  <SCORE.norm>
-0.497755

>  <RMSD>
4.211

$$$$
ligand
 OpenBabel11021811393D
libRbt.so/2013.1/901 2013/11/27
 14 13  0  0  0  0  0  0  0  0999 V2000
   38.4155   22.6072   35.0761 N   0  0  0  0  0  0  0  0  0  0  0  0
   37.3884   21.9251   34.3041 C   0  0  0  0  0  0  0  0  0  0  0  0
   37.3471   20.4183   34.6802 C   0  0  0  0  0  0  0  0  0  0  0  0
   36.9971   20.0402   36.1634 C   0  0  0  0  0  0  0  0  0  0  0  0
   37.0055   18.5640   36.4755 N   0  0  0  0  0  0  0  0  0  0  0  0
   38.0881   18.1531   37.4159 C   0  0  0  0  0  0  0  0  0  0  0  0
   39.4859   18.2659   36.8350 C   0  0  0  0  0  0  0  0  0  0  0  0
   40.5565   17.7725   37.7914 C   0  0  0  0  0  0  0  0  0  0  0  0
   41.8678   18.0159   37.1485 C   0  0  0  0  0  0  0  0  0  0  0  0
   42.0934   17.3017   35.8689 N   0  0  0  0  0  0  0  0  0  0  0  0
   43.2588   17.8083   35.1014 C   0  0  0  0  0  0  0  0  0  0  0  0
   42.9253   18.6597   33.8403 C   0  0  0  0  0  0  0  0  0  0  0  0
   42.2475   19.9609   34.3047 C   0  0  0  0  0  0  0  0  0  0  0  0
   41.9117   20.8040   33.1602 N   0  0  0  0  0  0  0  0  0  0  0  0
  1  2  1  0  0  0  0
  2  3  1  0  0  0  0
  3  4  1  0  0  0  0
  4  5  1  0  0  0  0
  5  6  1  0  0  0  0
  6  7  1  0  0  0  0
  7  8  1  0  0  0  0
  8  9  1  0  0  0  0
  9 10  1  0  0  0  0
 10 11  1  0  0  0  0
 11 12  1  0  0  0  0
 12 13  1  0  0  0  0
 13 14  1  0  0  0  0
M  END
>  <CHROM.1>
61.75021318,-178.56718498,113.28276087,-68.15804621,-177.02187465,-176.37557959
-61.74242306,166.27335461,-106.03015580,65.84619231,179.93248269,39.97066187
19.30670717,35.58343771,-2.88579844,-0.32541544,2.39839921

>  <Name>
ligand

>  <RI>
0

>  <Rbt.Current_Directory>
/home/itssahil/PROJECTS/Mol_Feturizer/New_Systems/rnas/1EVV

>  <Rbt.Executable>
rbdock ($Id: //depot/dev/client3/rdock/2013.1/src/exe/rbdock.cxx#4 $)

>  <Rbt.Library>
libRbt.so (2013.1, Build901 2013/11/27)

>  <Rbt.Parameter_File>
/export/apps/rDock/src/rDock_2013.1_src/data/scripts/dock_solv.prm

>  <Rbt.Receptor>
prm/pocket_docking_4.prm

>  <SCORE>
-4.49198

>  <SCORE.INTER>
4.42117

>  <SCORE.INTER.CONST>
1

>  <SCORE.INTER.POLAR>
0

>  <SCORE.INTER.ROT>
11

>  <SCORE.INTER.SOLV>
9.4798

>  <SCORE.INTER.VDW>
-11.1458

>  <SCORE.INTER.norm>
0.315798

>  <SCORE.INTRA>
-8.91316

>  <SCORE.INTRA.DIHEDRAL>
-17.5535

>  <SCORE.INTRA.DIHEDRAL.0>
20.2131

>  <SCORE.INTRA.POLAR>
0

>  <SCORE.INTRA.POLAR.0>
0

>  <SCORE.INTRA.REPUL>
0

>  <SCORE.INTRA.REPUL.0>
0

>  <SCORE.INTRA.SOLV>
0.0234059

>  <SCORE.INTRA.SOLV.lig_0>
-48.2851

>  <SCORE.INTRA.VDW>
-0.148128

>  <SCORE.INTRA.VDW.0>
-1.08658

>  <SCORE.INTRA.norm>
-0.636654

>  <SCORE.RESTR>
0

>  <SCORE.RESTR.CAVITY>
0

>  <SCORE.RESTR.norm>
0

>  <SCORE.SYSTEM>
0

>  <SCORE.SYSTEM.CONST>
0

>  <SCORE.SYSTEM.DIHEDRAL>
0

>  <SCORE.SYSTEM.SOLV>
0

>  <SCORE.SYSTEM.norm>
0

>  <SCORE.heavy>
14

>  <SCORE.norm>
-0.320856

>  <RMSD>
4.213

$$$$
ligand
 OpenBabel11021811393D
libRbt.so/2013.1/901 2013/11/27
 14 13  0  0  0  0  0  0  0  0999 V2000
   42.7942   25.7863   39.5818 N   0  0  0  0  0  0  0  0  0  0  0  0
   41.4686   25.1877   39.6014 C   0  0  0  0  0  0  0  0  0  0  0  0
   41.2889   24.2427   38.3813 C   0  0  0  0  0  0  0  0  0  0  0  0
   39.9094   23.5114   38.2149 C   0  0  0  0  0  0  0  0  0  0  0  0
   39.7821   22.6381   36.9911 N   0  0  0  0  0  0  0  0  0  0  0  0
   38.4667   21.9432   36.8809 C   0  0  0  0  0  0  0  0  0  0  0  0
   38.3927   20.9383   35.7456 C   0  0  0  0  0  0  0  0  0  0  0  0
   37.0088   20.3343   35.5908 C   0  0  0  0  0  0  0  0  0  0  0  0
   36.8013   19.4104   36.7291 C   0  0  0  0  0  0  0  0  0  0  0  0
   37.6492   18.1942   36.7264 N   0  0  0  0  0  0  0  0  0  0  0  0
   37.0052   17.0204   36.0852 C   0  0  0  0  0  0  0  0  0  0  0  0
   37.7726   16.3957   34.8821 C   0  0  0  0  0  0  0  0  0  0  0  0
   37.9091   17.4705   33.7892 C   0  0  0  0  0  0  0  0  0  0  0  0
   38.6290   16.9419   32.6334 N   0  0  0  0  0  0  0  0  0  0  0  0
  1  2  1  0  0  0  0
  2  3  1  0  0  0  0
  3  4  1  0  0  0  0
  4  5  1  0  0  0  0
  5  6  1  0  0  0  0
  6  7  1  0  0  0  0
  7  8  1  0  0  0  0
  8  9  1  0  0  0  0
  9 10  1  0  0  0  0
 10 11  1  0  0  0  0
 11 12  1  0  0  0  0
 12 13  1  0  0  0  0
 13 14  1  0  0  0  0
M  END
>  <CHROM.1>
-179.25758147,178.35212414,179.02143241,-173.07996843,-175.28834481,-72.19783070
-67.99728977,-93.42545773,122.01016840,-60.53237147,179.74109927,38.91951627
20.71529137,36.55954852,-1.06653383,-0.56977964,-2.33452529

>  <Name>
ligand

>  <RI>
0

>  <Rbt.Current_Directory>
/home/itssahil/PROJECTS/Mol_Feturizer/New_Systems/rnas/1EVV

>  <Rbt.Executable>
rbdock ($Id: //depot/dev/client3/rdock/2013.1/src/exe/rbdock.cxx#4 $)

>  <Rbt.Library>
libRbt.so (2013.1, Build901 2013/11/27)

>  <Rbt.Parameter_File>
/export/apps/rDock/src/rDock_2013.1_src/data/scripts/dock_solv.prm

>  <Rbt.Receptor>
prm/pocket_docking_5.prm

>  <SCORE>
-7.91528

>  <SCORE.INTER>
0.448397

>  <SCORE.INTER.CONST>
1

>  <SCORE.INTER.POLAR>
0

>  <SCORE.INTER.ROT>
11

>  <SCORE.INTER.SOLV>
5.88845

>  <SCORE.INTER.VDW>
-12.5972

>  <SCORE.INTER.norm>
0.0320284

>  <SCORE.INTRA>
-8.36368

>  <SCORE.INTRA.DIHEDRAL>
-17.3308

>  <SCORE.INTRA.DIHEDRAL.0>
20.2131

>  <SCORE.INTRA.POLAR>
0

>  <SCORE.INTRA.POLAR.0>
0

>  <SCORE.INTRA.REPUL>
0

>  <SCORE.INTRA.REPUL.0>
0

>  <SCORE.INTRA.SOLV>
-0.378156

>  <SCORE.INTRA.SOLV.lig_0>
-48.2851

>  <SCORE.INTRA.VDW>
0.490803

>  <SCORE.INTRA.VDW.0>
-1.08658

>  <SCORE.INTRA.norm>
-0.597406

>  <SCORE.RESTR>
0

>  <SCORE.RESTR.CAVITY>
0

>  <SCORE.RESTR.norm>
0

>  <SCORE.SYSTEM>
0

>  <SCORE.SYSTEM.CONST>
0

>  <SCORE.SYSTEM.DIHEDRAL>
0

>  <SCORE.SYSTEM.SOLV>
0

>  <SCORE.SYSTEM.norm>
0

>  <SCORE.heavy>
14

>  <SCORE.norm>
-0.565377

>  <RMSD>
4.218

$$$$
ligand
 OpenBabel11021811393D
libRbt.so/2013.1/901 2013/11/27
 14 13  0  0  0  0  0  0  0  0999 V2000
   38.3195   16.7661   36.7916 N   0  0  0  0  0  0  0  0  0  0  0  0
   38.5055   18.1101   36.2670 C   0  0  0  0  0  0  0  0  0  0  0  0
   37.3470   19.0334   36.7349 C   0  0  0  0  0  0  0  0  0  0  0  0
   37.3375   20.5178   36.2231 C   0  0  0  0  0  0  0  0  0  0  0  0
   38.5494   21.3380   36.5907 N   0  0  0  0  0  0  0  0  0  0  0  0
   38.2251   22.6002   37.3167 C   0  0  0  0  0  0  0  0  0  0  0  0
   39.3803   23.5818   37.3943 C   0  0  0  0  0  0  0  0  0  0  0  0
   40.6008   22.9932   38.0783 C   0  0  0  0  0  0  0  0  0  0  0  0
   41.5918   24.0833   38.2261 C   0  0  0  0  0  0  0  0  0  0  0  0
   42.8091   23.7385   38.9992 N   0  0  0  0  0  0  0  0  0  0  0  0
   43.9476   23.3002   38.1534 C   0  0  0  0  0  0  0  0  0  0  0  0
   43.9075   21.8192   37.6721 C   0  0  0  0  0  0  0  0  0  0  0  0
   45.2023   21.5326   36.8916 C   0  0  0  0  0  0  0  0  0  0  0  0
   45.2057   20.1631   36.3837 N   0  0  0  0  0  0  0  0  0  0  0  0
  1  2  1  0  0  0  0
  2  3  1  0  0  0  0
  3  4  1  0  0  0  0
  4  5  1  0  0  0  0
  5  6  1  0  0  0  0
  6  7  1  0  0  0  0
  7  8  1  0  0  0  0
  8  9  1  0  0  0  0
  9 10  1  0  0  0  0
 10 11  1  0  0  0  0
 11 12  1  0  0  0  0
 12 13  1  0  0  0  0
 13 14  1  0  0  0  0
M  END
>  <CHROM.1>
-177.61808398,-59.61164949,-124.58947770,-166.02655078,-58.57593249,-173.79089905
174.11255026,94.60867009,-80.46291973,-176.49649241,-178.52909458,40.78045998
21.39875208,37.26592534,-2.61875169,-0.02749461,0.28247000

>  <Name>
ligand

>  <RI>
0

>  <Rbt.Current_Directory>
/home/itssahil/PROJECTS/Mol_Feturizer/New_Systems/rnas/1EVV

>  <Rbt.Executable>
rbdock ($Id: //depot/dev/client3/rdock/2013.1/src/exe/rbdock.cxx#4 $)

>  <Rbt.Library>
libRbt.so (2013.1, Build901 2013/11/27)

>  <Rbt.Parameter_File>
/export/apps/rDock/src/rDock_2013.1_src/data/scripts/dock_solv.prm

>  <Rbt.Receptor>
prm/pocket_docking_4.prm

>  <SCORE>
-5.03259

>  <SCORE.INTER>
4.07224

>  <SCORE.INTER.CONST>
1

>  <SCORE.INTER.POLAR>
0

>  <SCORE.INTER.ROT>
11

>  <SCORE.INTER.SOLV>
4.30083

>  <SCORE.INTER.VDW>
-9.65212

>  <SCORE.INTER.norm>
0.290874

>  <SCORE.INTRA>
-9.10482

>  <SCORE.INTRA.DIHEDRAL>
-17.4462

>  <SCORE.INTRA.DIHEDRAL.0>
20.2131

>  <SCORE.INTRA.POLAR>
0

>  <SCORE.INTRA.POLAR.0>
0

>  <SCORE.INTRA.REPUL>
0

>  <SCORE.INTRA.REPUL.0>
0

>  <SCORE.INTRA.SOLV>
-0.711498

>  <SCORE.INTRA.SOLV.lig_0>
-48.2851

>  <SCORE.INTRA.VDW>
-0.0259777

>  <SCORE.INTRA.VDW.0>
-1.08658

>  <SCORE.INTRA.norm>
-0.650345

>  <SCORE.RESTR>
0

>  <SCORE.RESTR.CAVITY>
0

>  <SCORE.RESTR.norm>
0

>  <SCORE.SYSTEM>
0

>  <SCORE.SYSTEM.CONST>
0

>  <SCORE.SYSTEM.DIHEDRAL>
0

>  <SCORE.SYSTEM.SOLV>
0

>  <SCORE.SYSTEM.norm>
0

>  <SCORE.heavy>
14

>  <SCORE.norm>
-0.35947

>  <RMSD>
4.220

$$$$
ligand
 OpenBabel11021811393D
libRbt.so/2013.1/901 2013/11/27
 14 13  0  0  0  0  0  0  0  0999 V2000
   39.3380   16.4265   35.1755 N   0  0  0  0  0  0  0  0  0  0  0  0
   37.9344   16.0667   35.3036 C   0  0  0  0  0  0  0  0  0  0  0  0
   37.3033   16.7946   36.5225 C   0  0  0  0  0  0  0  0  0  0  0  0
   37.1993   18.3604   36.4704 C   0  0  0  0  0  0  0  0  0  0  0  0
   38.5152   19.0959   36.4063 N   0  0  0  0  0  0  0  0  0  0  0  0
   38.3897   20.5719   36.5825 C   0  0  0  0  0  0  0  0  0  0  0  0
   39.6041   21.2228   37.2194 C   0  0  0  0  0  0  0  0  0  0  0  0
   39.3799   22.6901   37.5371 C   0  0  0  0  0  0  0  0  0  0  0  0
   40.6652   23.2359   38.0293 C   0  0  0  0  0  0  0  0  0  0  0  0
   40.6273   24.6469   38.4831 N   0  0  0  0  0  0  0  0  0  0  0  0
   41.6993   24.9903   39.4509 C   0  0  0  0  0  0  0  0  0  0  0  0
   41.7444   26.4758   39.9178 C   0  0  0  0  0  0  0  0  0  0  0  0
   41.9549   27.3628   38.6781 C   0  0  0  0  0  0  0  0  0  0  0  0
   42.0081   28.7727   39.0560 N   0  0  0  0  0  0  0  0  0  0  0  0
  1  2  1  0  0  0  0
  2  3  1  0  0  0  0
  3  4  1  0  0  0  0
  4  5  1  0  0  0  0
  5  6  1  0  0  0  0
  6  7  1  0  0  0  0
  7  8  1  0  0  0  0
  8  9  1  0  0  0  0
  9 10  1  0  0  0  0
 10 11  1  0  0  0  0
 11 12  1  0  0  0  0
 12 13  1  0  0  0  0
 13 14  1  0  0  0  0
M  END
>  <CHROM.1>
65.24810330,-63.15690288,-170.54225270,150.12613212,-173.07960003,-174.75137364
-175.99787470,156.15205002,177.57679307,-59.83120207,-179.89532233,39.74006801
21.90797153,37.48812494,-1.91895048,0.06000304,0.34610091

>  <Name>
ligand

>  <RI>
0

>  <Rbt.Current_Directory>
/home/itssahil/PROJECTS/Mol_Feturizer/New_Systems/rnas/1EVV

>  <Rbt.Executable>
rbdock ($Id: //depot/dev/client3/rdock/2013.1/src/exe/rbdock.cxx#4 $)

>  <Rbt.Library>
libRbt.so (2013.1, Build901 2013/11/27)

>  <Rbt.Parameter_File>
/export/apps/rDock/src/rDock_2013.1_src/data/scripts/dock_solv.prm

>  <Rbt.Receptor>
prm/pocket_docking_6.prm

>  <SCORE>
-7.04087

>  <SCORE.INTER>
1.85151

>  <SCORE.INTER.CONST>
1

>  <SCORE.INTER.POLAR>
0

>  <SCORE.INTER.ROT>
11

>  <SCORE.INTER.SOLV>
4.4739

>  <SCORE.INTER.VDW>
-11.1903

>  <SCORE.INTER.norm>
0.13225

>  <SCORE.INTRA>
-8.89237

>  <SCORE.INTRA.DIHEDRAL>
-18.6344

>  <SCORE.INTRA.DIHEDRAL.0>
20.2131

>  <SCORE.INTRA.POLAR>
0

>  <SCORE.INTRA.POLAR.0>
0

>  <SCORE.INTRA.REPUL>
0

>  <SCORE.INTRA.REPUL.0>
0

>  <SCORE.INTRA.SOLV>
1.40247

>  <SCORE.INTRA.SOLV.lig_0>
-48.2851

>  <SCORE.INTRA.VDW>
-0.276405

>  <SCORE.INTRA.VDW.0>
-1.08658

>  <SCORE.INTRA.norm>
-0.63517

>  <SCORE.RESTR>
0

>  <SCORE.RESTR.CAVITY>
0

>  <SCORE.RESTR.norm>
0

>  <SCORE.SYSTEM>
0

>  <SCORE.SYSTEM.CONST>
0

>  <SCORE.SYSTEM.DIHEDRAL>
0

>  <SCORE.SYSTEM.SOLV>
0

>  <SCORE.SYSTEM.norm>
0

>  <SCORE.heavy>
14

>  <SCORE.norm>
-0.502919

>  <RMSD>
4.239

$$$$
ligand
 OpenBabel11021811393D
libRbt.so/2013.1/901 2013/11/27
 14 13  0  0  0  0  0  0  0  0999 V2000
   44.9137   23.5227   39.4663 N   0  0  0  0  0  0  0  0  0  0  0  0
   43.4745   23.3162   39.5144 C   0  0  0  0  0  0  0  0  0  0  0  0
   42.7334   24.5885   39.0187 C   0  0  0  0  0  0  0  0  0  0  0  0
   41.1633   24.5723   39.0209 C   0  0  0  0  0  0  0  0  0  0  0  0
   40.5248   23.5055   38.1661 N   0  0  0  0  0  0  0  0  0  0  0  0
   39.0348   23.4870   38.2385 C   0  0  0  0  0  0  0  0  0  0  0  0
   38.3876   22.4272   37.3656 C   0  0  0  0  0  0  0  0  0  0  0  0
   38.7532   22.5760   35.8999 C   0  0  0  0  0  0  0  0  0  0  0  0
   37.9365   21.6018   35.1408 C   0  0  0  0  0  0  0  0  0  0  0  0
   38.2124   20.1744   35.4315 N   0  0  0  0  0  0  0  0  0  0  0  0
   37.2461   19.5615   36.3771 C   0  0  0  0  0  0  0  0  0  0  0  0
   37.6949   18.2238   37.0373 C   0  0  0  0  0  0  0  0  0  0  0  0
   37.6632   17.1232   35.9622 C   0  0  0  0  0  0  0  0  0  0  0  0
   38.7376   17.3191   34.9922 N   0  0  0  0  0  0  0  0  0  0  0  0
  1  2  1  0  0  0  0
  2  3  1  0  0  0  0
  3  4  1  0  0  0  0
  4  5  1  0  0  0  0
  5  6  1  0  0  0  0
  6  7  1  0  0  0  0
  7  8  1  0  0  0  0
  8  9  1  0  0  0  0
  9 10  1  0  0  0  0
 10 11  1  0  0  0  0
 11 12  1  0  0  0  0
 12 13  1  0  0  0  0
 13 14  1  0  0  0  0
M  END
>  <CHROM.1>
-178.89349292,-60.11538955,177.61752913,179.22299041,-58.17325063,-173.10916392
-64.79945485,99.15104424,-163.05268914,-71.38442767,70.63370392,39.74795004
21.57155753,37.25947822,-0.82705733,0.42685683,-2.94945921

>  <Name>
ligand

>  <RI>
0

>  <Rbt.Current_Directory>
/home/itssahil/PROJECTS/Mol_Feturizer/New_Systems/rnas/1EVV

>  <Rbt.Executable>
rbdock ($Id: //depot/dev/client3/rdock/2013.1/src/exe/rbdock.cxx#4 $)

>  <Rbt.Library>
libRbt.so (2013.1, Build901 2013/11/27)

>  <Rbt.Parameter_File>
/export/apps/rDock/src/rDock_2013.1_src/data/scripts/dock_solv.prm

>  <Rbt.Receptor>
prm/pocket_docking_5.prm

>  <SCORE>
-6.72915

>  <SCORE.INTER>
0.968232

>  <SCORE.INTER.CONST>
1

>  <SCORE.INTER.POLAR>
0

>  <SCORE.INTER.ROT>
11

>  <SCORE.INTER.SOLV>
4.04583

>  <SCORE.INTER.VDW>
-11.6365

>  <SCORE.INTER.norm>
0.0691594

>  <SCORE.INTRA>
-7.69739

>  <SCORE.INTRA.DIHEDRAL>
-17.9164

>  <SCORE.INTRA.DIHEDRAL.0>
20.2131

>  <SCORE.INTRA.POLAR>
0

>  <SCORE.INTRA.POLAR.0>
0

>  <SCORE.INTRA.REPUL>
0

>  <SCORE.INTRA.REPUL.0>
0

>  <SCORE.INTRA.SOLV>
2.35432

>  <SCORE.INTRA.SOLV.lig_0>
-48.2851

>  <SCORE.INTRA.VDW>
0.0836447

>  <SCORE.INTRA.VDW.0>
-1.08658

>  <SCORE.INTRA.norm>
-0.549813

>  <SCORE.RESTR>
0

>  <SCORE.RESTR.CAVITY>
0

>  <SCORE.RESTR.norm>
0

>  <SCORE.SYSTEM>
0

>  <SCORE.SYSTEM.CONST>
0

>  <SCORE.SYSTEM.DIHEDRAL>
0

>  <SCORE.SYSTEM.SOLV>
0

>  <SCORE.SYSTEM.norm>
0

>  <SCORE.heavy>
14

>  <SCORE.norm>
-0.480654

>  <RMSD>
4.243

$$$$
ligand
 OpenBabel11021811393D
libRbt.so/2013.1/901 2013/11/27
 14 13  0  0  0  0  0  0  0  0999 V2000
   37.5076   16.7649   35.0072 N   0  0  0  0  0  0  0  0  0  0  0  0
   37.0025   16.9857   36.3533 C   0  0  0  0  0  0  0  0  0  0  0  0
   37.5252   18.3400   36.9068 C   0  0  0  0  0  0  0  0  0  0  0  0
   37.0504   19.6570   36.1959 C   0  0  0  0  0  0  0  0  0  0  0  0
   37.6676   20.9324   36.7146 N   0  0  0  0  0  0  0  0  0  0  0  0
   39.1593   20.9190   36.7255 C   0  0  0  0  0  0  0  0  0  0  0  0
   39.7875   22.2901   36.8975 C   0  0  0  0  0  0  0  0  0  0  0  0
   39.4047   22.9461   38.2117 C   0  0  0  0  0  0  0  0  0  0  0  0
   40.4335   23.9683   38.5102 C   0  0  0  0  0  0  0  0  0  0  0  0
   41.8132   23.4534   38.6827 N   0  0  0  0  0  0  0  0  0  0  0  0
   42.8111   24.5116   38.9794 C   0  0  0  0  0  0  0  0  0  0  0  0
   42.7300   25.1445   40.4005 C   0  0  0  0  0  0  0  0  0  0  0  0
   41.7351   26.3173   40.3480 C   0  0  0  0  0  0  0  0  0  0  0  0
   42.2832   27.4236   39.5675 N   0  0  0  0  0  0  0  0  0  0  0  0
  1  2  1  0  0  0  0
  2  3  1  0  0  0  0
  3  4  1  0  0  0  0
  4  5  1  0  0  0  0
  5  6  1  0  0  0  0
  6  7  1  0  0  0  0
  7  8  1  0  0  0  0
  8  9  1  0  0  0  0
  9 10  1  0  0  0  0
 10 11  1  0  0  0  0
 11 12  1  0  0  0  0
 12 13  1  0  0  0  0
 13 14  1  0  0  0  0
M  END
>  <CHROM.1>
65.17232794,-175.80992417,53.89450620,165.06448688,61.23436411,158.41662267
-61.43307472,179.96608953,71.70153326,-87.68603211,-69.62532665,39.77933255
22.11812086,37.82162239,-2.12639691,-0.34087597,0.23888070

>  <Name>
ligand

>  <RI>
0

>  <Rbt.Current_Directory>
/home/itssahil/PROJECTS/Mol_Feturizer/New_Systems/rnas/1EVV

>  <Rbt.Executable>
rbdock ($Id: //depot/dev/client3/rdock/2013.1/src/exe/rbdock.cxx#4 $)

>  <Rbt.Library>
libRbt.so (2013.1, Build901 2013/11/27)

>  <Rbt.Parameter_File>
/export/apps/rDock/src/rDock_2013.1_src/data/scripts/dock_solv.prm

>  <Rbt.Receptor>
prm/pocket_docking_6.prm

>  <SCORE>
-6.09333

>  <SCORE.INTER>
-0.541121

>  <SCORE.INTER.CONST>
1

>  <SCORE.INTER.POLAR>
0

>  <SCORE.INTER.ROT>
11

>  <SCORE.INTER.SOLV>
7.62266

>  <SCORE.INTER.VDW>
-13.835

>  <SCORE.INTER.norm>
-0.0386515

>  <SCORE.INTRA>
-5.55221

>  <SCORE.INTRA.DIHEDRAL>
-15.1947

>  <SCORE.INTRA.DIHEDRAL.0>
20.2131

>  <SCORE.INTRA.POLAR>
0

>  <SCORE.INTRA.POLAR.0>
0

>  <SCORE.INTRA.REPUL>
0

>  <SCORE.INTRA.REPUL.0>
0

>  <SCORE.INTRA.SOLV>
1.82818

>  <SCORE.INTRA.SOLV.lig_0>
-48.2851

>  <SCORE.INTRA.VDW>
1.13107

>  <SCORE.INTRA.VDW.0>
-1.08658

>  <SCORE.INTRA.norm>
-0.396586

>  <SCORE.RESTR>
0

>  <SCORE.RESTR.CAVITY>
0

>  <SCORE.RESTR.norm>
0

>  <SCORE.SYSTEM>
0

>  <SCORE.SYSTEM.CONST>
0

>  <SCORE.SYSTEM.DIHEDRAL>
0

>  <SCORE.SYSTEM.SOLV>
0

>  <SCORE.SYSTEM.norm>
0

>  <SCORE.heavy>
14

>  <SCORE.norm>
-0.435238

>  <RMSD>
4.249

$$$$
ligand
 OpenBabel11021811393D
libRbt.so/2013.1/901 2013/11/27
 14 13  0  0  0  0  0  0  0  0999 V2000
   38.3454   16.2543   35.7152 N   0  0  0  0  0  0  0  0  0  0  0  0
   37.9107   17.5961   35.3593 C   0  0  0  0  0  0  0  0  0  0  0  0
   37.3455   18.3258   36.6090 C   0  0  0  0  0  0  0  0  0  0  0  0
   36.7665   19.7725   36.4163 C   0  0  0  0  0  0  0  0  0  0  0  0
   37.7421   20.7965   35.8908 N   0  0  0  0  0  0  0  0  0  0  0  0
   38.1741   21.7961   36.9105 C   0  0  0  0  0  0  0  0  0  0  0  0
   39.6518   22.1381   36.8521 C   0  0  0  0  0  0  0  0  0  0  0  0
   40.1147   22.9328   38.0597 C   0  0  0  0  0  0  0  0  0  0  0  0
   41.5630   23.1894   37.8898 C   0  0  0  0  0  0  0  0  0  0  0  0
   42.2387   23.8234   39.0472 N   0  0  0  0  0  0  0  0  0  0  0  0
   41.7933   25.2153   39.3077 C   0  0  0  0  0  0  0  0  0  0  0  0
   42.5455   25.9691   40.4448 C   0  0  0  0  0  0  0  0  0  0  0  0
   41.9548   27.3858   40.5544 C   0  0  0  0  0  0  0  0  0  0  0  0
   42.2480   28.1610   39.3517 N   0  0  0  0  0  0  0  0  0  0  0  0
  1  2  1  0  0  0  0
  2  3  1  0  0  0  0
  3  4  1  0  0  0  0
  4  5  1  0  0  0  0
  5  6  1  0  0  0  0
  6  7  1  0  0  0  0
  7  8  1  0  0  0  0
  8  9  1  0  0  0  0
  9 10  1  0  0  0  0
 10 11  1  0  0  0  0
 11 12  1  0  0  0  0
 12 13  1  0  0  0  0
 13 14  1  0  0  0  0
M  END
>  <CHROM.1>
-177.48437987,-60.09389239,-107.84523869,139.08620837,-168.53938929,179.46512981
-173.26877504,-66.94166614,-175.57228792,179.53510494,-66.28866739,39.88518895
22.38263745,37.74353853,-2.07511039,-0.39189989,0.23079682

>  <Name>
ligand

>  <RI>
0

>  <Rbt.Current_Directory>
/home/itssahil/PROJECTS/Mol_Feturizer/New_Systems/rnas/1EVV

>  <Rbt.Executable>
rbdock ($Id: //depot/dev/client3/rdock/2013.1/src/exe/rbdock.cxx#4 $)

>  <Rbt.Library>
libRbt.so (2013.1, Build901 2013/11/27)

>  <Rbt.Parameter_File>
/export/apps/rDock/src/rDock_2013.1_src/data/scripts/dock_solv.prm

>  <Rbt.Receptor>
prm/pocket_docking_6.prm

>  <SCORE>
-7.24943

>  <SCORE.INTER>
1.18326

>  <SCORE.INTER.CONST>
1

>  <SCORE.INTER.POLAR>
0

>  <SCORE.INTER.ROT>
11

>  <SCORE.INTER.SOLV>
5.49717

>  <SCORE.INTER.VDW>
-11.9769

>  <SCORE.INTER.norm>
0.0845187

>  <SCORE.INTRA>
-8.44596

>  <SCORE.INTRA.DIHEDRAL>
-17.3248

>  <SCORE.INTRA.DIHEDRAL.0>
20.2131

>  <SCORE.INTRA.POLAR>
0

>  <SCORE.INTRA.POLAR.0>
0

>  <SCORE.INTRA.REPUL>
0

>  <SCORE.INTRA.REPUL.0>
0

>  <SCORE.INTRA.SOLV>
-0.352868

>  <SCORE.INTRA.SOLV.lig_0>
-48.2851

>  <SCORE.INTRA.VDW>
0.39286

>  <SCORE.INTRA.VDW.0>
-1.08658

>  <SCORE.INTRA.norm>
-0.603283

>  <SCORE.RESTR>
0.0132634

>  <SCORE.RESTR.CAVITY>
0.0132634

>  <SCORE.RESTR.norm>
0.000947389

>  <SCORE.SYSTEM>
0

>  <SCORE.SYSTEM.CONST>
0

>  <SCORE.SYSTEM.DIHEDRAL>
0

>  <SCORE.SYSTEM.SOLV>
0

>  <SCORE.SYSTEM.norm>
0

>  <SCORE.heavy>
14

>  <SCORE.norm>
-0.517817

>  <RMSD>
4.253

$$$$
ligand
 OpenBabel11021811393D
libRbt.so/2013.1/901 2013/11/27
 14 13  0  0  0  0  0  0  0  0999 V2000
   44.7763   23.5572   38.7337 N   0  0  0  0  0  0  0  0  0  0  0  0
   43.6617   24.4653   38.9553 C   0  0  0  0  0  0  0  0  0  0  0  0
   42.3141   23.7070   38.8046 C   0  0  0  0  0  0  0  0  0  0  0  0
   40.9861   24.5267   38.9771 C   0  0  0  0  0  0  0  0  0  0  0  0
   39.7115   23.7270   38.8657 N   0  0  0  0  0  0  0  0  0  0  0  0
   39.2889   23.4594   37.4602 C   0  0  0  0  0  0  0  0  0  0  0  0
   38.8709   22.0228   37.2045 C   0  0  0  0  0  0  0  0  0  0  0  0
   40.0179   21.0429   37.3731 C   0  0  0  0  0  0  0  0  0  0  0  0
   39.4759   19.6853   37.1373 C   0  0  0  0  0  0  0  0  0  0  0  0
   38.9094   19.4500   35.7875 N   0  0  0  0  0  0  0  0  0  0  0  0
   38.4402   18.0581   35.5727 C   0  0  0  0  0  0  0  0  0  0  0  0
   37.1913   17.6259   36.3974 C   0  0  0  0  0  0  0  0  0  0  0  0
   36.8603   16.1666   36.0386 C   0  0  0  0  0  0  0  0  0  0  0  0
   37.9321   15.2735   36.4711 N   0  0  0  0  0  0  0  0  0  0  0  0
  1  2  1  0  0  0  0
  2  3  1  0  0  0  0
  3  4  1  0  0  0  0
  4  5  1  0  0  0  0
  5  6  1  0  0  0  0
  6  7  1  0  0  0  0
  7  8  1  0  0  0  0
  8  9  1  0  0  0  0
  9 10  1  0  0  0  0
 10 11  1  0  0  0  0
 11 12  1  0  0  0  0
 12 13  1  0  0  0  0
 13 14  1  0  0  0  0
M  END
>  <CHROM.1>
-178.69400434,-178.01954173,-80.86272995,134.18318210,-64.81075383,178.38985701
61.17230730,177.10003048,68.13184968,179.89336208,65.25608880,39.88814423
20.91213891,37.41276849,-1.00526205,0.16972421,-2.89536664

>  <Name>
ligand

>  <RI>
0

>  <Rbt.Current_Directory>
/home/itssahil/PROJECTS/Mol_Feturizer/New_Systems/rnas/1EVV

>  <Rbt.Executable>
rbdock ($Id: //depot/dev/client3/rdock/2013.1/src/exe/rbdock.cxx#4 $)

>  <Rbt.Library>
libRbt.so (2013.1, Build901 2013/11/27)

>  <Rbt.Parameter_File>
/export/apps/rDock/src/rDock_2013.1_src/data/scripts/dock_solv.prm

>  <Rbt.Receptor>
prm/pocket_docking_5.prm

>  <SCORE>
-5.68508

>  <SCORE.INTER>
3.1207

>  <SCORE.INTER.CONST>
1

>  <SCORE.INTER.POLAR>
0

>  <SCORE.INTER.ROT>
11

>  <SCORE.INTER.SOLV>
6.17037

>  <SCORE.INTER.VDW>
-10.9097

>  <SCORE.INTER.norm>
0.222907

>  <SCORE.INTRA>
-8.80578

>  <SCORE.INTRA.DIHEDRAL>
-18.5585

>  <SCORE.INTRA.DIHEDRAL.0>
20.2131

>  <SCORE.INTRA.POLAR>
0

>  <SCORE.INTRA.POLAR.0>
0

>  <SCORE.INTRA.REPUL>
0

>  <SCORE.INTRA.REPUL.0>
0

>  <SCORE.INTRA.SOLV>
0.199427

>  <SCORE.INTRA.SOLV.lig_0>
-48.2851

>  <SCORE.INTRA.VDW>
0.373773

>  <SCORE.INTRA.VDW.0>
-1.08658

>  <SCORE.INTRA.norm>
-0.628984

>  <SCORE.RESTR>
0

>  <SCORE.RESTR.CAVITY>
0

>  <SCORE.RESTR.norm>
0

>  <SCORE.SYSTEM>
0

>  <SCORE.SYSTEM.CONST>
0

>  <SCORE.SYSTEM.DIHEDRAL>
0

>  <SCORE.SYSTEM.SOLV>
0

>  <SCORE.SYSTEM.norm>
0

>  <SCORE.heavy>
14

>  <SCORE.norm>
-0.406077

>  <RMSD>
4.280

$$$$
ligand
 OpenBabel11021811393D
libRbt.so/2013.1/901 2013/11/27
 14 13  0  0  0  0  0  0  0  0999 V2000
   39.6095   16.1126   35.7583 N   0  0  0  0  0  0  0  0  0  0  0  0
   38.8394   16.0213   36.9890 C   0  0  0  0  0  0  0  0  0  0  0  0
   38.3600   17.4326   37.4275 C   0  0  0  0  0  0  0  0  0  0  0  0
   37.4008   18.2159   36.4622 C   0  0  0  0  0  0  0  0  0  0  0  0
   37.0468   19.6169   36.8963 N   0  0  0  0  0  0  0  0  0  0  0  0
   37.4699   20.6721   35.9304 C   0  0  0  0  0  0  0  0  0  0  0  0
   38.2208   21.8270   36.5679 C   0  0  0  0  0  0  0  0  0  0  0  0
   39.5581   21.4037   37.1482 C   0  0  0  0  0  0  0  0  0  0  0  0
   40.2004   22.6160   37.7049 C   0  0  0  0  0  0  0  0  0  0  0  0
   41.5981   22.4419   38.1682 N   0  0  0  0  0  0  0  0  0  0  0  0
   42.1988   23.6791   38.7270 C   0  0  0  0  0  0  0  0  0  0  0  0
   43.5899   23.5127   39.4079 C   0  0  0  0  0  0  0  0  0  0  0  0
   44.5907   23.0284   38.3440 C   0  0  0  0  0  0  0  0  0  0  0  0
   45.9057   22.8022   38.9383 N   0  0  0  0  0  0  0  0  0  0  0  0
  1  2  1  0  0  0  0
  2  3  1  0  0  0  0
  3  4  1  0  0  0  0
  4  5  1  0  0  0  0
  5  6  1  0  0  0  0
  6  7  1  0  0  0  0
  7  8  1  0  0  0  0
  8  9  1  0  0  0  0
  9 10  1  0  0  0  0
 10 11  1  0  0  0  0
 11 12  1  0  0  0  0
 12 13  1  0  0  0  0
 13 14  1  0  0  0  0
M  END
>  <CHROM.1>
61.98095578,-175.91847035,119.28606157,-130.88382408,65.41025466,178.62199557
-172.57922849,-179.59435239,171.86509884,62.41137781,-177.71526003,40.32747933
20.67034178,37.46215244,-2.39231602,-0.26427843,0.11820685

>  <Name>
ligand

>  <RI>
0

>  <Rbt.Current_Directory>
/home/itssahil/PROJECTS/Mol_Feturizer/New_Systems/rnas/1EVV

>  <Rbt.Executable>
rbdock ($Id: //depot/dev/client3/rdock/2013.1/src/exe/rbdock.cxx#4 $)

>  <Rbt.Library>
libRbt.so (2013.1, Build901 2013/11/27)

>  <Rbt.Parameter_File>
/export/apps/rDock/src/rDock_2013.1_src/data/scripts/dock_solv.prm

>  <Rbt.Receptor>
prm/pocket_docking_4.prm

>  <SCORE>
-5.58644

>  <SCORE.INTER>
3.4908

>  <SCORE.INTER.CONST>
1

>  <SCORE.INTER.POLAR>
0

>  <SCORE.INTER.ROT>
11

>  <SCORE.INTER.SOLV>
6.15945

>  <SCORE.INTER.VDW>
-10.6593

>  <SCORE.INTER.norm>
0.249343

>  <SCORE.INTRA>
-9.07724

>  <SCORE.INTRA.DIHEDRAL>
-17.4116

>  <SCORE.INTRA.DIHEDRAL.0>
20.2131

>  <SCORE.INTRA.POLAR>
0

>  <SCORE.INTRA.POLAR.0>
0

>  <SCORE.INTRA.REPUL>
0

>  <SCORE.INTRA.REPUL.0>
0

>  <SCORE.INTRA.SOLV>
-0.0307661

>  <SCORE.INTRA.SOLV.lig_0>
-48.2851

>  <SCORE.INTRA.VDW>
-0.356046

>  <SCORE.INTRA.VDW.0>
-1.08658

>  <SCORE.INTRA.norm>
-0.648374

>  <SCORE.RESTR>
0

>  <SCORE.RESTR.CAVITY>
0

>  <SCORE.RESTR.norm>
0

>  <SCORE.SYSTEM>
0

>  <SCORE.SYSTEM.CONST>
0

>  <SCORE.SYSTEM.DIHEDRAL>
0

>  <SCORE.SYSTEM.SOLV>
0

>  <SCORE.SYSTEM.norm>
0

>  <SCORE.heavy>
14

>  <SCORE.norm>
-0.399031

>  <RMSD>
4.291

$$$$
ligand
 OpenBabel11021811393D
libRbt.so/2013.1/901 2013/11/27
 14 13  0  0  0  0  0  0  0  0999 V2000
   40.0550   16.2683   35.1294 N   0  0  0  0  0  0  0  0  0  0  0  0
   38.6750   15.9170   34.8324 C   0  0  0  0  0  0  0  0  0  0  0  0
   37.7556   17.1563   35.0125 C   0  0  0  0  0  0  0  0  0  0  0  0
   37.6881   17.8213   36.4333 C   0  0  0  0  0  0  0  0  0  0  0  0
   36.7573   19.0027   36.5527 N   0  0  0  0  0  0  0  0  0  0  0  0
   37.3535   20.2889   36.0883 C   0  0  0  0  0  0  0  0  0  0  0  0
   38.5205   20.7684   36.9322 C   0  0  0  0  0  0  0  0  0  0  0  0
   38.8431   22.2338   36.7025 C   0  0  0  0  0  0  0  0  0  0  0  0
   39.8241   22.6364   37.7358 C   0  0  0  0  0  0  0  0  0  0  0  0
   40.2788   24.0460   37.6692 N   0  0  0  0  0  0  0  0  0  0  0  0
   41.0509   24.4798   38.8606 C   0  0  0  0  0  0  0  0  0  0  0  0
   41.5414   25.9583   38.8525 C   0  0  0  0  0  0  0  0  0  0  0  0
   42.2600   26.2333   40.1852 C   0  0  0  0  0  0  0  0  0  0  0  0
   42.7224   27.6175   40.2455 N   0  0  0  0  0  0  0  0  0  0  0  0
  1  2  1  0  0  0  0
  2  3  1  0  0  0  0
  3  4  1  0  0  0  0
  4  5  1  0  0  0  0
  5  6  1  0  0  0  0
  6  7  1  0  0  0  0
  7  8  1  0  0  0  0
  8  9  1  0  0  0  0
  9 10  1  0  0  0  0
 10 11  1  0  0  0  0
 11 12  1  0  0  0  0
 12 13  1  0  0  0  0
 13 14  1  0  0  0  0
M  END
>  <CHROM.1>
-60.54304388,-178.79887295,-82.53776684,-65.45462831,-163.35610804,170.36173806
179.40138174,168.95117927,-179.35916855,177.51422975,-178.95496123,39.52308653
21.45902680,37.23077192,-1.93372256,-0.13435567,0.37133363

>  <Name>
ligand

>  <RI>
0

>  <Rbt.Current_Directory>
/home/itssahil/PROJECTS/Mol_Feturizer/New_Systems/rnas/1EVV

>  <Rbt.Executable>
rbdock ($Id: //depot/dev/client3/rdock/2013.1/src/exe/rbdock.cxx#4 $)

>  <Rbt.Library>
libRbt.so (2013.1, Build901 2013/11/27)

>  <Rbt.Parameter_File>
/export/apps/rDock/src/rDock_2013.1_src/data/scripts/dock_solv.prm

>  <Rbt.Receptor>
prm/pocket_docking_6.prm

>  <SCORE>
-6.48896

>  <SCORE.INTER>
2.63247

>  <SCORE.INTER.CONST>
1

>  <SCORE.INTER.POLAR>
0

>  <SCORE.INTER.ROT>
11

>  <SCORE.INTER.SOLV>
6.04235

>  <SCORE.INTER.VDW>
-11.1925

>  <SCORE.INTER.norm>
0.188033

>  <SCORE.INTRA>
-9.12142

>  <SCORE.INTRA.DIHEDRAL>
-18.3191

>  <SCORE.INTRA.DIHEDRAL.0>
20.2131

>  <SCORE.INTRA.POLAR>
0

>  <SCORE.INTRA.POLAR.0>
0

>  <SCORE.INTRA.REPUL>
0

>  <SCORE.INTRA.REPUL.0>
0

>  <SCORE.INTRA.SOLV>
-0.743758

>  <SCORE.INTRA.SOLV.lig_0>
-48.2851

>  <SCORE.INTRA.VDW>
0.410021

>  <SCORE.INTRA.VDW.0>
-1.08658

>  <SCORE.INTRA.norm>
-0.65153

>  <SCORE.RESTR>
0

>  <SCORE.RESTR.CAVITY>
0

>  <SCORE.RESTR.norm>
0

>  <SCORE.SYSTEM>
0

>  <SCORE.SYSTEM.CONST>
0

>  <SCORE.SYSTEM.DIHEDRAL>
0

>  <SCORE.SYSTEM.SOLV>
0

>  <SCORE.SYSTEM.norm>
0

>  <SCORE.heavy>
14

>  <SCORE.norm>
-0.463497

>  <RMSD>
4.294

$$$$
ligand
 OpenBabel11021811393D
libRbt.so/2013.1/901 2013/11/27
 14 13  0  0  0  0  0  0  0  0999 V2000
   42.9431   18.5926   35.6292 N   0  0  0  0  0  0  0  0  0  0  0  0
   42.4489   17.6436   34.6436 C   0  0  0  0  0  0  0  0  0  0  0  0
   41.4047   16.6929   35.2913 C   0  0  0  0  0  0  0  0  0  0  0  0
   40.1069   17.3325   35.9011 C   0  0  0  0  0  0  0  0  0  0  0  0
   39.2438   18.0991   34.9295 N   0  0  0  0  0  0  0  0  0  0  0  0
   37.8877   18.4275   35.4574 C   0  0  0  0  0  0  0  0  0  0  0  0
   37.8809   19.5364   36.4939 C   0  0  0  0  0  0  0  0  0  0  0  0
   38.4938   20.8242   35.9741 C   0  0  0  0  0  0  0  0  0  0  0  0
   38.4210   21.8197   37.0677 C   0  0  0  0  0  0  0  0  0  0  0  0
   39.2490   23.0352   36.8801 N   0  0  0  0  0  0  0  0  0  0  0  0
   39.8324   23.5588   38.1407 C   0  0  0  0  0  0  0  0  0  0  0  0
   40.9413   24.6411   37.9796 C   0  0  0  0  0  0  0  0  0  0  0  0
   41.4716   24.9975   39.3795 C   0  0  0  0  0  0  0  0  0  0  0  0
   42.5342   25.9956   39.2895 N   0  0  0  0  0  0  0  0  0  0  0  0
  1  2  1  0  0  0  0
  2  3  1  0  0  0  0
  3  4  1  0  0  0  0
  4  5  1  0  0  0  0
  5  6  1  0  0  0  0
  6  7  1  0  0  0  0
  7  8  1  0  0  0  0
  8  9  1  0  0  0  0
  9 10  1  0  0  0  0
 10 11  1  0  0  0  0
 11 12  1  0  0  0  0
 12 13  1  0  0  0  0
 13 14  1  0  0  0  0
M  END
>  <CHROM.1>
60.40362736,60.23987521,167.01410438,74.01485818,57.14230080,179.71155796
166.01571688,-144.40823759,167.65036441,-176.88190484,179.03605915,40.20391752
20.79951518,36.64694142,-1.65708568,-0.05337154,0.43275360

>  <Name>
ligand

>  <RI>
0

>  <Rbt.Current_Directory>
/home/itssahil/PROJECTS/Mol_Feturizer/New_Systems/rnas/1EVV

>  <Rbt.Executable>
rbdock ($Id: //depot/dev/client3/rdock/2013.1/src/exe/rbdock.cxx#4 $)

>  <Rbt.Library>
libRbt.so (2013.1, Build901 2013/11/27)

>  <Rbt.Parameter_File>
/export/apps/rDock/src/rDock_2013.1_src/data/scripts/dock_solv.prm

>  <Rbt.Receptor>
prm/pocket_docking_5.prm

>  <SCORE>
-5.4818

>  <SCORE.INTER>
3.31834

>  <SCORE.INTER.CONST>
1

>  <SCORE.INTER.POLAR>
0

>  <SCORE.INTER.ROT>
11

>  <SCORE.INTER.SOLV>
4.28964

>  <SCORE.INTER.VDW>
-10.151

>  <SCORE.INTER.norm>
0.237024

>  <SCORE.INTRA>
-8.80015

>  <SCORE.INTRA.DIHEDRAL>
-18.2513

>  <SCORE.INTRA.DIHEDRAL.0>
20.2131

>  <SCORE.INTRA.POLAR>
0

>  <SCORE.INTRA.POLAR.0>
0

>  <SCORE.INTRA.REPUL>
0

>  <SCORE.INTRA.REPUL.0>
0

>  <SCORE.INTRA.SOLV>
0.605821

>  <SCORE.INTRA.SOLV.lig_0>
-48.2851

>  <SCORE.INTRA.VDW>
0.0226138

>  <SCORE.INTRA.VDW.0>
-1.08658

>  <SCORE.INTRA.norm>
-0.628582

>  <SCORE.RESTR>
0

>  <SCORE.RESTR.CAVITY>
0

>  <SCORE.RESTR.norm>
0

>  <SCORE.SYSTEM>
0

>  <SCORE.SYSTEM.CONST>
0

>  <SCORE.SYSTEM.DIHEDRAL>
0

>  <SCORE.SYSTEM.SOLV>
0

>  <SCORE.SYSTEM.norm>
0

>  <SCORE.heavy>
14

>  <SCORE.norm>
-0.391557

>  <RMSD>
4.306

$$$$
ligand
 OpenBabel11021811393D
libRbt.so/2013.1/901 2013/11/27
 14 13  0  0  0  0  0  0  0  0999 V2000
   42.5173   27.7494   39.4093 N   0  0  0  0  0  0  0  0  0  0  0  0
   41.9515   27.0648   40.5614 C   0  0  0  0  0  0  0  0  0  0  0  0
   41.8359   25.5419   40.2767 C   0  0  0  0  0  0  0  0  0  0  0  0
   43.1638   24.7296   40.0715 C   0  0  0  0  0  0  0  0  0  0  0  0
   42.9852   23.2829   39.6820 N   0  0  0  0  0  0  0  0  0  0  0  0
   42.7804   23.0735   38.2192 C   0  0  0  0  0  0  0  0  0  0  0  0
   41.4052   22.5420   37.8584 C   0  0  0  0  0  0  0  0  0  0  0  0
   40.3060   23.5628   38.0909 C   0  0  0  0  0  0  0  0  0  0  0  0
   39.0138   22.8819   37.8483 C   0  0  0  0  0  0  0  0  0  0  0  0
   38.8204   22.3497   36.4781 N   0  0  0  0  0  0  0  0  0  0  0  0
   38.0226   21.0987   36.4321 C   0  0  0  0  0  0  0  0  0  0  0  0
   38.8038   19.7822   36.7204 C   0  0  0  0  0  0  0  0  0  0  0  0
   37.8040   18.6129   36.6858 C   0  0  0  0  0  0  0  0  0  0  0  0
   38.4852   17.3446   36.9325 N   0  0  0  0  0  0  0  0  0  0  0  0
  1  2  1  0  0  0  0
  2  3  1  0  0  0  0
  3  4  1  0  0  0  0
  4  5  1  0  0  0  0
  5  6  1  0  0  0  0
  6  7  1  0  0  0  0
  7  8  1  0  0  0  0
  8  9  1  0  0  0  0
  9 10  1  0  0  0  0
 10 11  1  0  0  0  0
 11 12  1  0  0  0  0
 12 13  1  0  0  0  0
 13 14  1  0  0  0  0
M  END
>  <CHROM.1>
64.99826705,-174.96994516,83.81932108,-114.01611050,69.07330114,-173.86117583
-61.09520613,146.43906985,-82.43588246,177.66320084,179.22634070,40.56387844
22.82983578,38.23335988,0.99216563,-0.46744508,0.15864218

>  <Name>
ligand

>  <RI>
0

>  <Rbt.Current_Directory>
/home/itssahil/PROJECTS/Mol_Feturizer/New_Systems/rnas/1EVV

>  <Rbt.Executable>
rbdock ($Id: //depot/dev/client3/rdock/2013.1/src/exe/rbdock.cxx#4 $)

>  <Rbt.Library>
libRbt.so (2013.1, Build901 2013/11/27)

>  <Rbt.Parameter_File>
/export/apps/rDock/src/rDock_2013.1_src/data/scripts/dock_solv.prm

>  <Rbt.Receptor>
prm/pocket_docking_6.prm

>  <SCORE>
-7.82834

>  <SCORE.INTER>
0.774742

>  <SCORE.INTER.CONST>
1

>  <SCORE.INTER.POLAR>
0

>  <SCORE.INTER.ROT>
11

>  <SCORE.INTER.SOLV>
6.78666

>  <SCORE.INTER.VDW>
-12.6791

>  <SCORE.INTER.norm>
0.0553387

>  <SCORE.INTRA>
-8.60947

>  <SCORE.INTRA.DIHEDRAL>
-16.8744

>  <SCORE.INTRA.DIHEDRAL.0>
20.2131

>  <SCORE.INTRA.POLAR>
0

>  <SCORE.INTRA.POLAR.0>
0

>  <SCORE.INTRA.REPUL>
0

>  <SCORE.INTRA.REPUL.0>
0

>  <SCORE.INTRA.SOLV>
0.0327476

>  <SCORE.INTRA.SOLV.lig_0>
-48.2851

>  <SCORE.INTRA.VDW>
-0.188621

>  <SCORE.INTRA.VDW.0>
-1.08658

>  <SCORE.INTRA.norm>
-0.614962

>  <SCORE.RESTR>
0.00638368

>  <SCORE.RESTR.CAVITY>
0.00638368

>  <SCORE.RESTR.norm>
0.000455977

>  <SCORE.SYSTEM>
0

>  <SCORE.SYSTEM.CONST>
0

>  <SCORE.SYSTEM.DIHEDRAL>
0

>  <SCORE.SYSTEM.SOLV>
0

>  <SCORE.SYSTEM.norm>
0

>  <SCORE.heavy>
14

>  <SCORE.norm>
-0.559167

>  <RMSD>
4.311

$$$$
ligand
 OpenBabel11021811393D
libRbt.so/2013.1/901 2013/11/27
 14 13  0  0  0  0  0  0  0  0999 V2000
   43.1870   22.9430   37.2137 N   0  0  0  0  0  0  0  0  0  0  0  0
   42.2824   22.0926   37.9718 C   0  0  0  0  0  0  0  0  0  0  0  0
   41.4659   21.1862   37.0098 C   0  0  0  0  0  0  0  0  0  0  0  0
   40.4416   20.1780   37.6420 C   0  0  0  0  0  0  0  0  0  0  0  0
   39.7089   19.2972   36.6602 N   0  0  0  0  0  0  0  0  0  0  0  0
   38.5902   18.5190   37.2673 C   0  0  0  0  0  0  0  0  0  0  0  0
   37.3037   18.5577   36.4627 C   0  0  0  0  0  0  0  0  0  0  0  0
   36.8271   19.9734   36.1928 C   0  0  0  0  0  0  0  0  0  0  0  0
   37.5296   20.4513   34.9802 C   0  0  0  0  0  0  0  0  0  0  0  0
   37.0968   21.7752   34.4721 N   0  0  0  0  0  0  0  0  0  0  0  0
   35.8373   21.7295   33.6877 C   0  0  0  0  0  0  0  0  0  0  0  0
   35.9972   21.4892   32.1569 C   0  0  0  0  0  0  0  0  0  0  0  0
   36.5122   20.0544   31.9471 C   0  0  0  0  0  0  0  0  0  0  0  0
   36.6786   19.7693   30.5242 N   0  0  0  0  0  0  0  0  0  0  0  0
  1  2  1  0  0  0  0
  2  3  1  0  0  0  0
  3  4  1  0  0  0  0
  4  5  1  0  0  0  0
  5  6  1  0  0  0  0
  6  7  1  0  0  0  0
  7  8  1  0  0  0  0
  8  9  1  0  0  0  0
  9 10  1  0  0  0  0
 10 11  1  0  0  0  0
 11 12  1  0  0  0  0
 12 13  1  0  0  0  0
 13 14  1  0  0  0  0
M  END
>  <CHROM.1>
179.24137768,-178.26871616,-170.37900889,133.69616490,-55.35033431,85.17633965
174.16210292,-79.38208157,-89.56393919,68.04125707,179.84000983,38.53248165
20.57241204,35.29941512,-0.50928741,-0.59863296,-0.92320948

>  <Name>
ligand

>  <RI>
0

>  <Rbt.Current_Directory>
/home/itssahil/PROJECTS/Mol_Feturizer/New_Systems/rnas/1EVV

>  <Rbt.Executable>
rbdock ($Id: //depot/dev/client3/rdock/2013.1/src/exe/rbdock.cxx#4 $)

>  <Rbt.Library>
libRbt.so (2013.1, Build901 2013/11/27)

>  <Rbt.Parameter_File>
/export/apps/rDock/src/rDock_2013.1_src/data/scripts/dock_solv.prm

>  <Rbt.Receptor>
prm/pocket_docking_5.prm

>  <SCORE>
-3.54619

>  <SCORE.INTER>
3.53359

>  <SCORE.INTER.CONST>
1

>  <SCORE.INTER.POLAR>
0

>  <SCORE.INTER.ROT>
11

>  <SCORE.INTER.SOLV>
5.34963

>  <SCORE.INTER.VDW>
-10.3608

>  <SCORE.INTER.norm>
0.252399

>  <SCORE.INTRA>
-7.07978

>  <SCORE.INTRA.DIHEDRAL>
-15.4574

>  <SCORE.INTRA.DIHEDRAL.0>
20.2131

>  <SCORE.INTRA.POLAR>
0

>  <SCORE.INTRA.POLAR.0>
0

>  <SCORE.INTRA.REPUL>
0

>  <SCORE.INTRA.REPUL.0>
0

>  <SCORE.INTRA.SOLV>
0.141412

>  <SCORE.INTRA.SOLV.lig_0>
-48.2851

>  <SCORE.INTRA.VDW>
0.578223

>  <SCORE.INTRA.VDW.0>
-1.08658

>  <SCORE.INTRA.norm>
-0.505699

>  <SCORE.RESTR>
0

>  <SCORE.RESTR.CAVITY>
0

>  <SCORE.RESTR.norm>
0

>  <SCORE.SYSTEM>
0

>  <SCORE.SYSTEM.CONST>
0

>  <SCORE.SYSTEM.DIHEDRAL>
0

>  <SCORE.SYSTEM.SOLV>
0

>  <SCORE.SYSTEM.norm>
0

>  <SCORE.heavy>
14

>  <SCORE.norm>
-0.253299

>  <RMSD>
4.323

$$$$
ligand
 OpenBabel11021811393D
libRbt.so/2013.1/901 2013/11/27
 14 13  0  0  0  0  0  0  0  0999 V2000
   38.7402   18.6657   31.1722 N   0  0  0  0  0  0  0  0  0  0  0  0
   39.0326   17.5169   32.0153 C   0  0  0  0  0  0  0  0  0  0  0  0
   38.1332   17.5386   33.2819 C   0  0  0  0  0  0  0  0  0  0  0  0
   38.4002   16.4603   34.3916 C   0  0  0  0  0  0  0  0  0  0  0  0
   37.5073   16.5439   35.6050 N   0  0  0  0  0  0  0  0  0  0  0  0
   38.1599   17.1698   36.7915 C   0  0  0  0  0  0  0  0  0  0  0  0
   38.3991   18.6620   36.6486 C   0  0  0  0  0  0  0  0  0  0  0  0
   37.1154   19.4389   36.4191 C   0  0  0  0  0  0  0  0  0  0  0  0
   37.4969   20.7992   35.9759 C   0  0  0  0  0  0  0  0  0  0  0  0
   38.1203   21.6566   37.0125 N   0  0  0  0  0  0  0  0  0  0  0  0
   39.6044   21.6307   36.9932 C   0  0  0  0  0  0  0  0  0  0  0  0
   40.3154   22.7248   37.8443 C   0  0  0  0  0  0  0  0  0  0  0  0
   39.9446   24.1010   37.2642 C   0  0  0  0  0  0  0  0  0  0  0  0
   40.7438   25.1544   37.8848 N   0  0  0  0  0  0  0  0  0  0  0  0
  1  2  1  0  0  0  0
  2  3  1  0  0  0  0
  3  4  1  0  0  0  0
  4  5  1  0  0  0  0
  5  6  1  0  0  0  0
  6  7  1  0  0  0  0
  7  8  1  0  0  0  0
  8  9  1  0  0  0  0
  9 10  1  0  0  0  0
 10 11  1  0  0  0  0
 11 12  1  0  0  0  0
 12 13  1  0  0  0  0
 13 14  1  0  0  0  0
M  END
>  <CHROM.1>
-173.83831903,179.21604733,-102.21448938,70.52074168,59.22147641,-166.62960955
-70.09271198,95.05360344,167.59306015,-63.00198244,-171.08444255,38.69375890
19.86137372,35.66440097,-2.14817737,1.16117774,1.09157714

>  <Name>
ligand

>  <RI>
0

>  <Rbt.Current_Directory>
/home/itssahil/PROJECTS/Mol_Feturizer/New_Systems/rnas/1EVV

>  <Rbt.Executable>
rbdock ($Id: //depot/dev/client3/rdock/2013.1/src/exe/rbdock.cxx#4 $)

>  <Rbt.Library>
libRbt.so (2013.1, Build901 2013/11/27)

>  <Rbt.Parameter_File>
/export/apps/rDock/src/rDock_2013.1_src/data/scripts/dock_solv.prm

>  <Rbt.Receptor>
prm/pocket_docking_4.prm

>  <SCORE>
-4.45524

>  <SCORE.INTER>
3.74915

>  <SCORE.INTER.CONST>
1

>  <SCORE.INTER.POLAR>
0

>  <SCORE.INTER.ROT>
11

>  <SCORE.INTER.SOLV>
5.90367

>  <SCORE.INTER.VDW>
-10.4018

>  <SCORE.INTER.norm>
0.267797

>  <SCORE.INTRA>
-8.2044

>  <SCORE.INTRA.DIHEDRAL>
-16.7146

>  <SCORE.INTRA.DIHEDRAL.0>
20.2131

>  <SCORE.INTRA.POLAR>
0

>  <SCORE.INTRA.POLAR.0>
0

>  <SCORE.INTRA.REPUL>
0

>  <SCORE.INTRA.REPUL.0>
0

>  <SCORE.INTRA.SOLV>
-0.269877

>  <SCORE.INTRA.SOLV.lig_0>
-48.2851

>  <SCORE.INTRA.VDW>
0.287833

>  <SCORE.INTRA.VDW.0>
-1.08658

>  <SCORE.INTRA.norm>
-0.586028

>  <SCORE.RESTR>
0

>  <SCORE.RESTR.CAVITY>
0

>  <SCORE.RESTR.norm>
0

>  <SCORE.SYSTEM>
0

>  <SCORE.SYSTEM.CONST>
0

>  <SCORE.SYSTEM.DIHEDRAL>
0

>  <SCORE.SYSTEM.SOLV>
0

>  <SCORE.SYSTEM.norm>
0

>  <SCORE.heavy>
14

>  <SCORE.norm>
-0.318232

>  <RMSD>
4.332

$$$$
ligand
 OpenBabel11021811393D
libRbt.so/2013.1/901 2013/11/27
 14 13  0  0  0  0  0  0  0  0999 V2000
   43.9007   20.7694   36.4047 N   0  0  0  0  0  0  0  0  0  0  0  0
   43.7882   21.7241   37.4965 C   0  0  0  0  0  0  0  0  0  0  0  0
   42.2929   22.0026   37.8132 C   0  0  0  0  0  0  0  0  0  0  0  0
   41.3849   22.5470   36.6536 C   0  0  0  0  0  0  0  0  0  0  0  0
   40.0104   23.0099   37.0694 N   0  0  0  0  0  0  0  0  0  0  0  0
   38.9023   22.3799   36.2943 C   0  0  0  0  0  0  0  0  0  0  0  0
   38.5546   20.9734   36.7470 C   0  0  0  0  0  0  0  0  0  0  0  0
   37.3729   20.3930   35.9913 C   0  0  0  0  0  0  0  0  0  0  0  0
   37.1302   19.0349   36.5287 C   0  0  0  0  0  0  0  0  0  0  0  0
   38.1971   18.0415   36.2580 N   0  0  0  0  0  0  0  0  0  0  0  0
   38.9005   17.5751   37.4792 C   0  0  0  0  0  0  0  0  0  0  0  0
   40.4284   17.8724   37.5401 C   0  0  0  0  0  0  0  0  0  0  0  0
   41.1370   16.9543   36.5286 C   0  0  0  0  0  0  0  0  0  0  0  0
   40.8238   17.3567   35.1598 N   0  0  0  0  0  0  0  0  0  0  0  0
  1  2  1  0  0  0  0
  2  3  1  0  0  0  0
  3  4  1  0  0  0  0
  4  5  1  0  0  0  0
  5  6  1  0  0  0  0
  6  7  1  0  0  0  0
  7  8  1  0  0  0  0
  8  9  1  0  0  0  0
  9 10  1  0  0  0  0
 10 11  1  0  0  0  0
 11 12  1  0  0  0  0
 12 13  1  0  0  0  0
 13 14  1  0  0  0  0
M  END
>  <CHROM.1>
-57.66361235,-170.43153314,-126.66367489,79.12993888,176.72969178,-179.56015728
-66.68076229,114.00967186,-118.68533265,-71.47290896,69.96525419,40.20148767
20.04539123,36.71194337,-0.78683424,0.08761633,-3.07334066

>  <Name>
ligand

>  <RI>
0

>  <Rbt.Current_Directory>
/home/itssahil/PROJECTS/Mol_Feturizer/New_Systems/rnas/1EVV

>  <Rbt.Executable>
rbdock ($Id: //depot/dev/client3/rdock/2013.1/src/exe/rbdock.cxx#4 $)

>  <Rbt.Library>
libRbt.so (2013.1, Build901 2013/11/27)

>  <Rbt.Parameter_File>
/export/apps/rDock/src/rDock_2013.1_src/data/scripts/dock_solv.prm

>  <Rbt.Receptor>
prm/pocket_docking_3.prm

>  <SCORE>
-2.3422

>  <SCORE.INTER>
4.38849

>  <SCORE.INTER.CONST>
1

>  <SCORE.INTER.POLAR>
0

>  <SCORE.INTER.ROT>
11

>  <SCORE.INTER.SOLV>
3.82693

>  <SCORE.INTER.VDW>
-9.28332

>  <SCORE.INTER.norm>
0.313464

>  <SCORE.INTRA>
-6.7307

>  <SCORE.INTRA.DIHEDRAL>
-14.9847

>  <SCORE.INTRA.DIHEDRAL.0>
20.2131

>  <SCORE.INTRA.POLAR>
0

>  <SCORE.INTRA.POLAR.0>
0

>  <SCORE.INTRA.REPUL>
0

>  <SCORE.INTRA.REPUL.0>
0

>  <SCORE.INTRA.SOLV>
2.53422

>  <SCORE.INTRA.SOLV.lig_0>
-48.2851

>  <SCORE.INTRA.VDW>
-0.50544

>  <SCORE.INTRA.VDW.0>
-1.08658

>  <SCORE.INTRA.norm>
-0.480764

>  <SCORE.RESTR>
0

>  <SCORE.RESTR.CAVITY>
0

>  <SCORE.RESTR.norm>
0

>  <SCORE.SYSTEM>
0

>  <SCORE.SYSTEM.CONST>
0

>  <SCORE.SYSTEM.DIHEDRAL>
0

>  <SCORE.SYSTEM.SOLV>
0

>  <SCORE.SYSTEM.norm>
0

>  <SCORE.heavy>
14

>  <SCORE.norm>
-0.1673

>  <RMSD>
4.347

$$$$
ligand
 OpenBabel11021811393D
libRbt.so/2013.1/901 2013/11/27
 14 13  0  0  0  0  0  0  0  0999 V2000
   37.6863   16.9466   36.8244 N   0  0  0  0  0  0  0  0  0  0  0  0
   38.3078   18.2363   36.5665 C   0  0  0  0  0  0  0  0  0  0  0  0
   37.2236   19.3451   36.4736 C   0  0  0  0  0  0  0  0  0  0  0  0
   37.6769   20.7810   36.0286 C   0  0  0  0  0  0  0  0  0  0  0  0
   38.6976   21.4440   36.9203 N   0  0  0  0  0  0  0  0  0  0  0  0
   38.2443   22.7458   37.4908 C   0  0  0  0  0  0  0  0  0  0  0  0
   39.2010   23.3402   38.5084 C   0  0  0  0  0  0  0  0  0  0  0  0
   40.5427   23.7086   37.9016 C   0  0  0  0  0  0  0  0  0  0  0  0
   41.3249   24.4023   38.9500 C   0  0  0  0  0  0  0  0  0  0  0  0
   42.6558   24.9013   38.5280 N   0  0  0  0  0  0  0  0  0  0  0  0
   43.3579   25.6846   39.5755 C   0  0  0  0  0  0  0  0  0  0  0  0
   44.5878   26.5122   39.0969 C   0  0  0  0  0  0  0  0  0  0  0  0
   45.2008   27.2136   40.3217 C   0  0  0  0  0  0  0  0  0  0  0  0
   46.3503   28.0249   39.9294 N   0  0  0  0  0  0  0  0  0  0  0  0
  1  2  1  0  0  0  0
  2  3  1  0  0  0  0
  3  4  1  0  0  0  0
  4  5  1  0  0  0  0
  5  6  1  0  0  0  0
  6  7  1  0  0  0  0
  7  8  1  0  0  0  0
  8  9  1  0  0  0  0
  9 10  1  0  0  0  0
 10 11  1  0  0  0  0
 11 12  1  0  0  0  0
 12 13  1  0  0  0  0
 13 14  1  0  0  0  0
M  END
>  <CHROM.1>
-172.79359312,-60.32682886,-121.23659757,173.50627295,64.29738937,174.12240273
-177.29082297,175.30696252,-166.05491492,-178.30126454,-179.11051087,40.78959389
23.09197974,38.07969840,-2.30739239,-0.26158698,0.14846434

>  <Name>
ligand

>  <RI>
0

>  <Rbt.Current_Directory>
/home/itssahil/PROJECTS/Mol_Feturizer/New_Systems/rnas/1EVV

>  <Rbt.Executable>
rbdock ($Id: //depot/dev/client3/rdock/2013.1/src/exe/rbdock.cxx#4 $)

>  <Rbt.Library>
libRbt.so (2013.1, Build901 2013/11/27)

>  <Rbt.Parameter_File>
/export/apps/rDock/src/rDock_2013.1_src/data/scripts/dock_solv.prm

>  <Rbt.Receptor>
prm/pocket_docking_6.prm

>  <SCORE>
-6.90549

>  <SCORE.INTER>
2.87734

>  <SCORE.INTER.CONST>
1

>  <SCORE.INTER.POLAR>
0

>  <SCORE.INTER.ROT>
11

>  <SCORE.INTER.SOLV>
5.59874

>  <SCORE.INTER.VDW>
-10.8814

>  <SCORE.INTER.norm>
0.205524

>  <SCORE.INTRA>
-9.78283

>  <SCORE.INTRA.DIHEDRAL>
-18.3595

>  <SCORE.INTRA.DIHEDRAL.0>
20.2131

>  <SCORE.INTRA.POLAR>
0

>  <SCORE.INTRA.POLAR.0>
0

>  <SCORE.INTRA.REPUL>
0

>  <SCORE.INTRA.REPUL.0>
0

>  <SCORE.INTRA.SOLV>
-0.742909

>  <SCORE.INTRA.SOLV.lig_0>
-48.2851

>  <SCORE.INTRA.VDW>
-0.231606

>  <SCORE.INTRA.VDW.0>
-1.08658

>  <SCORE.INTRA.norm>
-0.698773

>  <SCORE.RESTR>
0

>  <SCORE.RESTR.CAVITY>
0

>  <SCORE.RESTR.norm>
0

>  <SCORE.SYSTEM>
0

>  <SCORE.SYSTEM.CONST>
0

>  <SCORE.SYSTEM.DIHEDRAL>
0

>  <SCORE.SYSTEM.SOLV>
0

>  <SCORE.SYSTEM.norm>
0

>  <SCORE.heavy>
14

>  <SCORE.norm>
-0.49325

>  <RMSD>
4.349

$$$$
ligand
 OpenBabel11021811393D
libRbt.so/2013.1/901 2013/11/27
 14 13  0  0  0  0  0  0  0  0999 V2000
   44.4608   25.9764   39.4679 N   0  0  0  0  0  0  0  0  0  0  0  0
   43.1111   25.9222   38.9280 C   0  0  0  0  0  0  0  0  0  0  0  0
   42.3720   24.6624   39.4576 C   0  0  0  0  0  0  0  0  0  0  0  0
   40.8912   24.4284   38.9907 C   0  0  0  0  0  0  0  0  0  0  0  0
   40.6939   24.3002   37.5003 N   0  0  0  0  0  0  0  0  0  0  0  0
   39.2808   24.4891   37.0611 C   0  0  0  0  0  0  0  0  0  0  0  0
   38.3980   23.2743   37.2830 C   0  0  0  0  0  0  0  0  0  0  0  0
   38.8583   22.0659   36.4880 C   0  0  0  0  0  0  0  0  0  0  0  0
   37.8404   21.0060   36.6683 C   0  0  0  0  0  0  0  0  0  0  0  0
   38.1910   19.6816   36.1014 N   0  0  0  0  0  0  0  0  0  0  0  0
   37.2928   18.5866   36.5463 C   0  0  0  0  0  0  0  0  0  0  0  0
   37.6351   17.1649   36.0092 C   0  0  0  0  0  0  0  0  0  0  0  0
   39.0423   16.7896   36.5061 C   0  0  0  0  0  0  0  0  0  0  0  0
   39.4246   15.4662   36.0203 N   0  0  0  0  0  0  0  0  0  0  0  0
  1  2  1  0  0  0  0
  2  3  1  0  0  0  0
  3  4  1  0  0  0  0
  4  5  1  0  0  0  0
  5  6  1  0  0  0  0
  6  7  1  0  0  0  0
  7  8  1  0  0  0  0
  8  9  1  0  0  0  0
  9 10  1  0  0  0  0
 10 11  1  0  0  0  0
 11 12  1  0  0  0  0
 12 13  1  0  0  0  0
 13 14  1  0  0  0  0
M  END
>  <CHROM.1>
179.73113343,59.35149203,-162.64777691,-78.64338442,-62.46347785,-173.75253088
-172.79962738,167.70949764,-178.55691263,61.09822314,-179.42361925,39.82051146
21.70113859,37.35918917,-1.07744615,0.37009074,-3.01019944

>  <Name>
ligand

>  <RI>
0

>  <Rbt.Current_Directory>
/home/itssahil/PROJECTS/Mol_Feturizer/New_Systems/rnas/1EVV

>  <Rbt.Executable>
rbdock ($Id: //depot/dev/client3/rdock/2013.1/src/exe/rbdock.cxx#4 $)

>  <Rbt.Library>
libRbt.so (2013.1, Build901 2013/11/27)

>  <Rbt.Parameter_File>
/export/apps/rDock/src/rDock_2013.1_src/data/scripts/dock_solv.prm

>  <Rbt.Receptor>
prm/pocket_docking_5.prm

>  <SCORE>
-6.51123

>  <SCORE.INTER>
3.2902

>  <SCORE.INTER.CONST>
1

>  <SCORE.INTER.POLAR>
0

>  <SCORE.INTER.ROT>
11

>  <SCORE.INTER.SOLV>
2.75525

>  <SCORE.INTER.VDW>
-9.65828

>  <SCORE.INTER.norm>
0.235014

>  <SCORE.INTRA>
-9.80143

>  <SCORE.INTRA.DIHEDRAL>
-19.2098

>  <SCORE.INTRA.DIHEDRAL.0>
20.2131

>  <SCORE.INTRA.POLAR>
0

>  <SCORE.INTRA.POLAR.0>
0

>  <SCORE.INTRA.REPUL>
0

>  <SCORE.INTRA.REPUL.0>
0

>  <SCORE.INTRA.SOLV>
-0.382492

>  <SCORE.INTRA.SOLV.lig_0>
-48.2851

>  <SCORE.INTRA.VDW>
-0.00530473

>  <SCORE.INTRA.VDW.0>
-1.08658

>  <SCORE.INTRA.norm>
-0.700102

>  <SCORE.RESTR>
0

>  <SCORE.RESTR.CAVITY>
0

>  <SCORE.RESTR.norm>
0

>  <SCORE.SYSTEM>
0

>  <SCORE.SYSTEM.CONST>
0

>  <SCORE.SYSTEM.DIHEDRAL>
0

>  <SCORE.SYSTEM.SOLV>
0

>  <SCORE.SYSTEM.norm>
0

>  <SCORE.heavy>
14

>  <SCORE.norm>
-0.465088

>  <RMSD>
4.360

$$$$
ligand
 OpenBabel11021811393D
libRbt.so/2013.1/901 2013/11/27
 14 13  0  0  0  0  0  0  0  0999 V2000
   45.4457   23.9962   38.5177 N   0  0  0  0  0  0  0  0  0  0  0  0
   44.9102   23.5621   39.7987 C   0  0  0  0  0  0  0  0  0  0  0  0
   43.3613   23.4649   39.7272 C   0  0  0  0  0  0  0  0  0  0  0  0
   42.5548   24.7809   39.4389 C   0  0  0  0  0  0  0  0  0  0  0  0
   41.0528   24.6412   39.4723 N   0  0  0  0  0  0  0  0  0  0  0  0
   40.4819   23.9821   38.2618 C   0  0  0  0  0  0  0  0  0  0  0  0
   39.1775   23.2485   38.5159 C   0  0  0  0  0  0  0  0  0  0  0  0
   38.5382   22.7361   37.2381 C   0  0  0  0  0  0  0  0  0  0  0  0
   39.3925   21.6402   36.7267 C   0  0  0  0  0  0  0  0  0  0  0  0
   39.4856   20.4442   37.5980 N   0  0  0  0  0  0  0  0  0  0  0  0
   39.1674   19.1729   36.9006 C   0  0  0  0  0  0  0  0  0  0  0  0
   37.6567   18.8022   36.8168 C   0  0  0  0  0  0  0  0  0  0  0  0
   37.5309   17.4673   36.0617 C   0  0  0  0  0  0  0  0  0  0  0  0
   38.1887   16.3928   36.8009 N   0  0  0  0  0  0  0  0  0  0  0  0
  1  2  1  0  0  0  0
  2  3  1  0  0  0  0
  3  4  1  0  0  0  0
  4  5  1  0  0  0  0
  5  6  1  0  0  0  0
  6  7  1  0  0  0  0
  7  8  1  0  0  0  0
  8  9  1  0  0  0  0
  9 10  1  0  0  0  0
 10 11  1  0  0  0  0
 11 12  1  0  0  0  0
 12 13  1  0  0  0  0
 13 14  1  0  0  0  0
M  END
>  <CHROM.1>
-62.39759411,-176.09966539,-76.11030426,152.24739585,172.97164345,69.39161286
64.06250493,127.18822558,-84.71595074,179.82175091,63.32678730,40.49581211
21.73810259,37.99105261,-0.85657794,0.22046550,-2.90832961

>  <Name>
ligand

>  <RI>
0

>  <Rbt.Current_Directory>
/home/itssahil/PROJECTS/Mol_Feturizer/New_Systems/rnas/1EVV

>  <Rbt.Executable>
rbdock ($Id: //depot/dev/client3/rdock/2013.1/src/exe/rbdock.cxx#4 $)

>  <Rbt.Library>
libRbt.so (2013.1, Build901 2013/11/27)

>  <Rbt.Parameter_File>
/export/apps/rDock/src/rDock_2013.1_src/data/scripts/dock_solv.prm

>  <Rbt.Receptor>
prm/pocket_docking_5.prm

>  <SCORE>
-5.92905

>  <SCORE.INTER>
1.0039

>  <SCORE.INTER.CONST>
1

>  <SCORE.INTER.POLAR>
0

>  <SCORE.INTER.ROT>
11

>  <SCORE.INTER.SOLV>
6.63264

>  <SCORE.INTER.VDW>
-12.4749

>  <SCORE.INTER.norm>
0.0717071

>  <SCORE.INTRA>
-6.93295

>  <SCORE.INTRA.DIHEDRAL>
-17.1578

>  <SCORE.INTRA.DIHEDRAL.0>
20.2131

>  <SCORE.INTRA.POLAR>
0

>  <SCORE.INTRA.POLAR.0>
0

>  <SCORE.INTRA.REPUL>
0

>  <SCORE.INTRA.REPUL.0>
0

>  <SCORE.INTRA.SOLV>
0.829547

>  <SCORE.INTRA.SOLV.lig_0>
-48.2851

>  <SCORE.INTRA.VDW>
1.2312

>  <SCORE.INTRA.VDW.0>
-1.08658

>  <SCORE.INTRA.norm>
-0.49521

>  <SCORE.RESTR>
0

>  <SCORE.RESTR.CAVITY>
0

>  <SCORE.RESTR.norm>
0

>  <SCORE.SYSTEM>
0

>  <SCORE.SYSTEM.CONST>
0

>  <SCORE.SYSTEM.DIHEDRAL>
0

>  <SCORE.SYSTEM.SOLV>
0

>  <SCORE.SYSTEM.norm>
0

>  <SCORE.heavy>
14

>  <SCORE.norm>
-0.423503

>  <RMSD>
4.368

$$$$
ligand
 OpenBabel11021811393D
libRbt.so/2013.1/901 2013/11/27
 14 13  0  0  0  0  0  0  0  0999 V2000
   42.5651   26.2244   39.6096 N   0  0  0  0  0  0  0  0  0  0  0  0
   41.7770   25.3210   38.7857 C   0  0  0  0  0  0  0  0  0  0  0  0
   42.3618   23.8834   38.8557 C   0  0  0  0  0  0  0  0  0  0  0  0
   41.7246   22.7848   37.9325 C   0  0  0  0  0  0  0  0  0  0  0  0
   40.2439   22.5614   38.1178 N   0  0  0  0  0  0  0  0  0  0  0  0
   39.6575   21.5817   37.1576 C   0  0  0  0  0  0  0  0  0  0  0  0
   38.2939   21.9814   36.6238 C   0  0  0  0  0  0  0  0  0  0  0  0
   37.7327   20.9692   35.6415 C   0  0  0  0  0  0  0  0  0  0  0  0
   37.1087   19.8853   36.4339 C   0  0  0  0  0  0  0  0  0  0  0  0
   38.0471   19.0467   37.2179 N   0  0  0  0  0  0  0  0  0  0  0  0
   37.8791   17.5899   36.9873 C   0  0  0  0  0  0  0  0  0  0  0  0
   38.5651   17.0193   35.7103 C   0  0  0  0  0  0  0  0  0  0  0  0
   38.3529   15.4953   35.6914 C   0  0  0  0  0  0  0  0  0  0  0  0
   38.9948   14.9000   34.5221 N   0  0  0  0  0  0  0  0  0  0  0  0
  1  2  1  0  0  0  0
  2  3  1  0  0  0  0
  3  4  1  0  0  0  0
  4  5  1  0  0  0  0
  5  6  1  0  0  0  0
  6  7  1  0  0  0  0
  7  8  1  0  0  0  0
  8  9  1  0  0  0  0
  9 10  1  0  0  0  0
 10 11  1  0  0  0  0
 11 12  1  0  0  0  0
 12 13  1  0  0  0  0
 13 14  1  0  0  0  0
M  END
>  <CHROM.1>
-174.73782431,-57.55567781,175.86117279,-139.46724603,179.50408344,82.39259981
-67.69116948,-128.11461835,81.42355729,176.59685999,-179.13087930,39.52155628
20.66025249,37.09182229,-1.15929616,0.27807058,-2.89200201

>  <Name>
ligand

>  <RI>
0

>  <Rbt.Current_Directory>
/home/itssahil/PROJECTS/Mol_Feturizer/New_Systems/rnas/1EVV

>  <Rbt.Executable>
rbdock ($Id: //depot/dev/client3/rdock/2013.1/src/exe/rbdock.cxx#4 $)

>  <Rbt.Library>
libRbt.so (2013.1, Build901 2013/11/27)

>  <Rbt.Parameter_File>
/export/apps/rDock/src/rDock_2013.1_src/data/scripts/dock_solv.prm

>  <Rbt.Receptor>
prm/pocket_docking_5.prm

>  <SCORE>
-3.56406

>  <SCORE.INTER>
3.86858

>  <SCORE.INTER.CONST>
1

>  <SCORE.INTER.POLAR>
0

>  <SCORE.INTER.ROT>
11

>  <SCORE.INTER.SOLV>
6.8141

>  <SCORE.INTER.VDW>
-10.6256

>  <SCORE.INTER.norm>
0.276327

>  <SCORE.INTRA>
-7.43264

>  <SCORE.INTRA.DIHEDRAL>
-15.5305

>  <SCORE.INTRA.DIHEDRAL.0>
20.2131

>  <SCORE.INTRA.POLAR>
0

>  <SCORE.INTRA.POLAR.0>
0

>  <SCORE.INTRA.REPUL>
0

>  <SCORE.INTRA.REPUL.0>
0

>  <SCORE.INTRA.SOLV>
-0.00836236

>  <SCORE.INTRA.SOLV.lig_0>
-48.2851

>  <SCORE.INTRA.VDW>
0.33678

>  <SCORE.INTRA.VDW.0>
-1.08658

>  <SCORE.INTRA.norm>
-0.530903

>  <SCORE.RESTR>
7.06681e-06

>  <SCORE.RESTR.CAVITY>
7.06681e-06

>  <SCORE.RESTR.norm>
5.04772e-07

>  <SCORE.SYSTEM>
0

>  <SCORE.SYSTEM.CONST>
0

>  <SCORE.SYSTEM.DIHEDRAL>
0

>  <SCORE.SYSTEM.SOLV>
0

>  <SCORE.SYSTEM.norm>
0

>  <SCORE.heavy>
14

>  <SCORE.norm>
-0.254576

>  <RMSD>
4.371

$$$$
ligand
 OpenBabel11021811393D
libRbt.so/2013.1/901 2013/11/27
 14 13  0  0  0  0  0  0  0  0999 V2000
   37.7727   20.0219   34.3139 N   0  0  0  0  0  0  0  0  0  0  0  0
   37.6341   20.4619   35.6935 C   0  0  0  0  0  0  0  0  0  0  0  0
   36.9853   19.3407   36.5513 C   0  0  0  0  0  0  0  0  0  0  0  0
   37.7920   18.0086   36.7515 C   0  0  0  0  0  0  0  0  0  0  0  0
   38.0338   17.2026   35.4990 N   0  0  0  0  0  0  0  0  0  0  0  0
   38.9207   16.0209   35.7048 C   0  0  0  0  0  0  0  0  0  0  0  0
   40.3398   16.2198   35.2042 C   0  0  0  0  0  0  0  0  0  0  0  0
   41.0479   17.3683   35.8996 C   0  0  0  0  0  0  0  0  0  0  0  0
   42.3826   17.5068   35.2739 C   0  0  0  0  0  0  0  0  0  0  0  0
   43.1591   18.7011   35.6848 N   0  0  0  0  0  0  0  0  0  0  0  0
   44.6187   18.5740   35.4454 C   0  0  0  0  0  0  0  0  0  0  0  0
   45.4948   19.7662   35.9330 C   0  0  0  0  0  0  0  0  0  0  0  0
   45.3197   19.8996   37.4560 C   0  0  0  0  0  0  0  0  0  0  0  0
   46.0565   21.0555   37.9604 N   0  0  0  0  0  0  0  0  0  0  0  0
  1  2  1  0  0  0  0
  2  3  1  0  0  0  0
  3  4  1  0  0  0  0
  4  5  1  0  0  0  0
  5  6  1  0  0  0  0
  6  7  1  0  0  0  0
  7  8  1  0  0  0  0
  8  9  1  0  0  0  0
  9 10  1  0  0  0  0
 10 11  1  0  0  0  0
 11 12  1  0  0  0  0
 12 13  1  0  0  0  0
 13 14  1  0  0  0  0
M  END
>  <CHROM.1>
65.32303440,-64.70853709,174.01651933,-103.09537666,60.52640734,-176.84840429
171.68129407,159.37074614,-176.62313549,60.92596565,-176.55590918,41.11120156
18.58171728,35.95513287,2.93442325,0.08041429,-2.89364248

>  <Name>
ligand

>  <RI>
0

>  <Rbt.Current_Directory>
/home/itssahil/PROJECTS/Mol_Feturizer/New_Systems/rnas/1EVV

>  <Rbt.Executable>
rbdock ($Id: //depot/dev/client3/rdock/2013.1/src/exe/rbdock.cxx#4 $)

>  <Rbt.Library>
libRbt.so (2013.1, Build901 2013/11/27)

>  <Rbt.Parameter_File>
/export/apps/rDock/src/rDock_2013.1_src/data/scripts/dock_solv.prm

>  <Rbt.Receptor>
prm/pocket_docking_4.prm

>  <SCORE>
-4.63462

>  <SCORE.INTER>
3.98087

>  <SCORE.INTER.CONST>
1

>  <SCORE.INTER.POLAR>
0

>  <SCORE.INTER.ROT>
11

>  <SCORE.INTER.SOLV>
5.68681

>  <SCORE.INTER.VDW>
-10.175

>  <SCORE.INTER.norm>
0.284348

>  <SCORE.INTRA>
-8.61549

>  <SCORE.INTRA.DIHEDRAL>
-18.3391

>  <SCORE.INTRA.DIHEDRAL.0>
20.2131

>  <SCORE.INTRA.POLAR>
0

>  <SCORE.INTRA.POLAR.0>
0

>  <SCORE.INTRA.REPUL>
0

>  <SCORE.INTRA.REPUL.0>
0

>  <SCORE.INTRA.SOLV>
2.01726

>  <SCORE.INTRA.SOLV.lig_0>
-48.2851

>  <SCORE.INTRA.VDW>
-0.454569

>  <SCORE.INTRA.VDW.0>
-1.08658

>  <SCORE.INTRA.norm>
-0.615392

>  <SCORE.RESTR>
0

>  <SCORE.RESTR.CAVITY>
0

>  <SCORE.RESTR.norm>
0

>  <SCORE.SYSTEM>
0

>  <SCORE.SYSTEM.CONST>
0

>  <SCORE.SYSTEM.DIHEDRAL>
0

>  <SCORE.SYSTEM.SOLV>
0

>  <SCORE.SYSTEM.norm>
0

>  <SCORE.heavy>
14

>  <SCORE.norm>
-0.331044

>  <RMSD>
4.374

$$$$
ligand
 OpenBabel11021811393D
libRbt.so/2013.1/901 2013/11/27
 14 13  0  0  0  0  0  0  0  0999 V2000
   42.2157   25.7071   40.1485 N   0  0  0  0  0  0  0  0  0  0  0  0
   42.9839   24.4720   40.1306 C   0  0  0  0  0  0  0  0  0  0  0  0
   43.0129   23.8793   38.6948 C   0  0  0  0  0  0  0  0  0  0  0  0
   41.7075   23.1926   38.1566 C   0  0  0  0  0  0  0  0  0  0  0  0
   40.4850   24.0755   38.1038 N   0  0  0  0  0  0  0  0  0  0  0  0
   39.2351   23.4019   38.5615 C   0  0  0  0  0  0  0  0  0  0  0  0
   38.4770   22.6904   37.4555 C   0  0  0  0  0  0  0  0  0  0  0  0
   39.3002   21.6016   36.7914 C   0  0  0  0  0  0  0  0  0  0  0  0
   38.4216   20.9187   35.8147 C   0  0  0  0  0  0  0  0  0  0  0  0
   37.5374   19.8695   36.3765 N   0  0  0  0  0  0  0  0  0  0  0  0
   37.7119   18.5398   35.7400 C   0  0  0  0  0  0  0  0  0  0  0  0
   37.0875   17.3332   36.5021 C   0  0  0  0  0  0  0  0  0  0  0  0
   37.1988   16.0884   35.6042 C   0  0  0  0  0  0  0  0  0  0  0  0
   38.5969   15.7050   35.4257 N   0  0  0  0  0  0  0  0  0  0  0  0
  1  2  1  0  0  0  0
  2  3  1  0  0  0  0
  3  4  1  0  0  0  0
  4  5  1  0  0  0  0
  5  6  1  0  0  0  0
  6  7  1  0  0  0  0
  7  8  1  0  0  0  0
  8  9  1  0  0  0  0
  9 10  1  0  0  0  0
 10 11  1  0  0  0  0
 11 12  1  0  0  0  0
 12 13  1  0  0  0  0
 13 14  1  0  0  0  0
M  END
>  <CHROM.1>
-74.25093971,59.31623062,-138.15452545,-89.42470471,60.06815851,175.60902273
-82.68488646,-123.26462542,165.38034121,172.30503131,66.78966197,39.56933314
21.24817286,37.39323382,-1.04178311,0.34254393,-2.89225081

>  <Name>
ligand

>  <RI>
0

>  <Rbt.Current_Directory>
/home/itssahil/PROJECTS/Mol_Feturizer/New_Systems/rnas/1EVV

>  <Rbt.Executable>
rbdock ($Id: //depot/dev/client3/rdock/2013.1/src/exe/rbdock.cxx#4 $)

>  <Rbt.Library>
libRbt.so (2013.1, Build901 2013/11/27)

>  <Rbt.Parameter_File>
/export/apps/rDock/src/rDock_2013.1_src/data/scripts/dock_solv.prm

>  <Rbt.Receptor>
prm/pocket_docking_7.prm

>  <SCORE>
-4.60281

>  <SCORE.INTER>
1.15565

>  <SCORE.INTER.CONST>
1

>  <SCORE.INTER.POLAR>
0

>  <SCORE.INTER.ROT>
11

>  <SCORE.INTER.SOLV>
7.47534

>  <SCORE.INTER.VDW>
-12.6547

>  <SCORE.INTER.norm>
0.0825466

>  <SCORE.INTRA>
-5.75847

>  <SCORE.INTRA.DIHEDRAL>
-14.3861

>  <SCORE.INTRA.DIHEDRAL.0>
20.2131

>  <SCORE.INTRA.POLAR>
0

>  <SCORE.INTRA.POLAR.0>
0

>  <SCORE.INTRA.REPUL>
0

>  <SCORE.INTRA.REPUL.0>
0

>  <SCORE.INTRA.SOLV>
2.618

>  <SCORE.INTRA.SOLV.lig_0>
-48.2851

>  <SCORE.INTRA.VDW>
0.125568

>  <SCORE.INTRA.VDW.0>
-1.08658

>  <SCORE.INTRA.norm>
-0.411319

>  <SCORE.RESTR>
0

>  <SCORE.RESTR.CAVITY>
0

>  <SCORE.RESTR.norm>
0

>  <SCORE.SYSTEM>
0

>  <SCORE.SYSTEM.CONST>
0

>  <SCORE.SYSTEM.DIHEDRAL>
0

>  <SCORE.SYSTEM.SOLV>
0

>  <SCORE.SYSTEM.norm>
0

>  <SCORE.heavy>
14

>  <SCORE.norm>
-0.328772

>  <RMSD>
4.379

$$$$
ligand
 OpenBabel11021811393D
libRbt.so/2013.1/901 2013/11/27
 14 13  0  0  0  0  0  0  0  0999 V2000
   44.3957   20.8391   34.2360 N   0  0  0  0  0  0  0  0  0  0  0  0
   45.1599   19.6816   34.6745 C   0  0  0  0  0  0  0  0  0  0  0  0
   44.2211   18.4575   34.8584 C   0  0  0  0  0  0  0  0  0  0  0  0
   43.1242   18.5343   35.9793 C   0  0  0  0  0  0  0  0  0  0  0  0
   42.2709   17.3000   36.1370 N   0  0  0  0  0  0  0  0  0  0  0  0
   41.2024   17.4340   37.1695 C   0  0  0  0  0  0  0  0  0  0  0  0
   40.4202   16.1570   37.4174 C   0  0  0  0  0  0  0  0  0  0  0  0
   39.3398   16.3299   38.4696 C   0  0  0  0  0  0  0  0  0  0  0  0
   38.1638   16.9299   37.7993 C   0  0  0  0  0  0  0  0  0  0  0  0
   38.3407   18.3245   37.3280 N   0  0  0  0  0  0  0  0  0  0  0  0
   37.1378   18.8856   36.6632 C   0  0  0  0  0  0  0  0  0  0  0  0
   37.1622   20.4198   36.3941 C   0  0  0  0  0  0  0  0  0  0  0  0
   38.3161   20.7184   35.4207 C   0  0  0  0  0  0  0  0  0  0  0  0
   38.3706   22.1441   35.1077 N   0  0  0  0  0  0  0  0  0  0  0  0
  1  2  1  0  0  0  0
  2  3  1  0  0  0  0
  3  4  1  0  0  0  0
  4  5  1  0  0  0  0
  5  6  1  0  0  0  0
  6  7  1  0  0  0  0
  7  8  1  0  0  0  0
  8  9  1  0  0  0  0
  9 10  1  0  0  0  0
 10 11  1  0  0  0  0
 11 12  1  0  0  0  0
 12 13  1  0  0  0  0
 13 14  1  0  0  0  0
M  END
>  <CHROM.1>
-64.85780115,-178.23710132,-177.43920475,-174.94705018,-179.83627867,82.18484997
-67.76153203,-179.97999578,168.65630066,63.04616488,178.78638969,40.54455028
18.72502113,36.26128059,0.21018437,0.23236494,-0.51074414

>  <Name>
ligand

>  <RI>
0

>  <Rbt.Current_Directory>
/home/itssahil/PROJECTS/Mol_Feturizer/New_Systems/rnas/1EVV

>  <Rbt.Executable>
rbdock ($Id: //depot/dev/client3/rdock/2013.1/src/exe/rbdock.cxx#4 $)

>  <Rbt.Library>
libRbt.so (2013.1, Build901 2013/11/27)

>  <Rbt.Parameter_File>
/export/apps/rDock/src/rDock_2013.1_src/data/scripts/dock_solv.prm

>  <Rbt.Receptor>
prm/pocket_docking_4.prm

>  <SCORE>
-5.08782

>  <SCORE.INTER>
3.29895

>  <SCORE.INTER.CONST>
1

>  <SCORE.INTER.POLAR>
0

>  <SCORE.INTER.ROT>
11

>  <SCORE.INTER.SOLV>
9.85456

>  <SCORE.INTER.VDW>
-12.0189

>  <SCORE.INTER.norm>
0.235639

>  <SCORE.INTRA>
-8.38677

>  <SCORE.INTRA.DIHEDRAL>
-17.8756

>  <SCORE.INTRA.DIHEDRAL.0>
20.2131

>  <SCORE.INTRA.POLAR>
0

>  <SCORE.INTRA.POLAR.0>
0

>  <SCORE.INTRA.REPUL>
0

>  <SCORE.INTRA.REPUL.0>
0

>  <SCORE.INTRA.SOLV>
0.626242

>  <SCORE.INTRA.SOLV.lig_0>
-48.2851

>  <SCORE.INTRA.VDW>
0.237893

>  <SCORE.INTRA.VDW.0>
-1.08658

>  <SCORE.INTRA.norm>
-0.599055

>  <SCORE.RESTR>
0

>  <SCORE.RESTR.CAVITY>
0

>  <SCORE.RESTR.norm>
0

>  <SCORE.SYSTEM>
0

>  <SCORE.SYSTEM.CONST>
0

>  <SCORE.SYSTEM.DIHEDRAL>
0

>  <SCORE.SYSTEM.SOLV>
0

>  <SCORE.SYSTEM.norm>
0

>  <SCORE.heavy>
14

>  <SCORE.norm>
-0.363416

>  <RMSD>
4.388

$$$$
ligand
 OpenBabel11021811393D
libRbt.so/2013.1/901 2013/11/27
 14 13  0  0  0  0  0  0  0  0999 V2000
   37.1066   20.6448   31.2985 N   0  0  0  0  0  0  0  0  0  0  0  0
   36.9160   20.4131   32.7220 C   0  0  0  0  0  0  0  0  0  0  0  0
   37.7807   21.4054   33.5473 C   0  0  0  0  0  0  0  0  0  0  0  0
   37.7340   21.2949   35.1128 C   0  0  0  0  0  0  0  0  0  0  0  0
   38.5814   22.2958   35.8590 N   0  0  0  0  0  0  0  0  0  0  0  0
   38.2176   22.4388   37.2987 C   0  0  0  0  0  0  0  0  0  0  0  0
   38.9468   23.5637   38.0107 C   0  0  0  0  0  0  0  0  0  0  0  0
   40.4433   23.3250   38.0985 C   0  0  0  0  0  0  0  0  0  0  0  0
   41.0182   24.4241   38.9070 C   0  0  0  0  0  0  0  0  0  0  0  0
   42.4500   24.2739   39.2614 N   0  0  0  0  0  0  0  0  0  0  0  0
   42.7910   24.8104   40.6029 C   0  0  0  0  0  0  0  0  0  0  0  0
   43.8186   23.9791   41.4274 C   0  0  0  0  0  0  0  0  0  0  0  0
   45.1463   23.9491   40.6500 C   0  0  0  0  0  0  0  0  0  0  0  0
   46.1590   23.1988   41.3882 N   0  0  0  0  0  0  0  0  0  0  0  0
  1  2  1  0  0  0  0
  2  3  1  0  0  0  0
  3  4  1  0  0  0  0
  4  5  1  0  0  0  0
  5  6  1  0  0  0  0
  6  7  1  0  0  0  0
  7  8  1  0  0  0  0
  8  9  1  0  0  0  0
  9 10  1  0  0  0  0
 10 11  1  0  0  0  0
 11 12  1  0  0  0  0
 12 13  1  0  0  0  0
 13 14  1  0  0  0  0
M  END
>  <CHROM.1>
-178.81447909,-179.28582396,162.82426220,-172.77232129,-65.05081446,-175.29231281
172.17145383,-145.11998902,141.21700075,61.95540816,179.06250238,40.50759163
22.85844753,37.44195222,-2.29811835,-0.20958745,1.01109107

>  <Name>
ligand

>  <RI>
0

>  <Rbt.Current_Directory>
/home/itssahil/PROJECTS/Mol_Feturizer/New_Systems/rnas/1EVV

>  <Rbt.Executable>
rbdock ($Id: //depot/dev/client3/rdock/2013.1/src/exe/rbdock.cxx#4 $)

>  <Rbt.Library>
libRbt.so (2013.1, Build901 2013/11/27)

>  <Rbt.Parameter_File>
/export/apps/rDock/src/rDock_2013.1_src/data/scripts/dock_solv.prm

>  <Rbt.Receptor>
prm/pocket_docking_7.prm

>  <SCORE>
-7.96536

>  <SCORE.INTER>
1.4747

>  <SCORE.INTER.CONST>
1

>  <SCORE.INTER.POLAR>
0

>  <SCORE.INTER.ROT>
11

>  <SCORE.INTER.SOLV>
3.92186

>  <SCORE.INTER.VDW>
-11.2575

>  <SCORE.INTER.norm>
0.105336

>  <SCORE.INTRA>
-9.44006

>  <SCORE.INTRA.DIHEDRAL>
-17.8839

>  <SCORE.INTRA.DIHEDRAL.0>
20.2131

>  <SCORE.INTRA.POLAR>
0

>  <SCORE.INTRA.POLAR.0>
0

>  <SCORE.INTRA.REPUL>
0

>  <SCORE.INTRA.REPUL.0>
0

>  <SCORE.INTRA.SOLV>
-0.710929

>  <SCORE.INTRA.SOLV.lig_0>
-48.2851

>  <SCORE.INTRA.VDW>
-0.14264

>  <SCORE.INTRA.VDW.0>
-1.08658

>  <SCORE.INTRA.norm>
-0.67429

>  <SCORE.RESTR>
0

>  <SCORE.RESTR.CAVITY>
0

>  <SCORE.RESTR.norm>
0

>  <SCORE.SYSTEM>
0

>  <SCORE.SYSTEM.CONST>
0

>  <SCORE.SYSTEM.DIHEDRAL>
0

>  <SCORE.SYSTEM.SOLV>
0

>  <SCORE.SYSTEM.norm>
0

>  <SCORE.heavy>
14

>  <SCORE.norm>
-0.568954

>  <RMSD>
4.401

$$$$
ligand
 OpenBabel11021811393D
libRbt.so/2013.1/901 2013/11/27
 14 13  0  0  0  0  0  0  0  0999 V2000
   37.3846   17.7862   31.0709 N   0  0  0  0  0  0  0  0  0  0  0  0
   37.1568   18.0871   32.4758 C   0  0  0  0  0  0  0  0  0  0  0  0
   37.6610   16.9161   33.3636 C   0  0  0  0  0  0  0  0  0  0  0  0
   37.5695   17.0831   34.9221 C   0  0  0  0  0  0  0  0  0  0  0  0
   38.3380   18.2481   35.4956 N   0  0  0  0  0  0  0  0  0  0  0  0
   37.5018   19.1821   36.3042 C   0  0  0  0  0  0  0  0  0  0  0  0
   38.1207   20.5546   36.4974 C   0  0  0  0  0  0  0  0  0  0  0  0
   39.4763   20.4925   37.1775 C   0  0  0  0  0  0  0  0  0  0  0  0
   39.9460   21.8858   37.3522 C   0  0  0  0  0  0  0  0  0  0  0  0
   39.1861   22.6970   38.3334 N   0  0  0  0  0  0  0  0  0  0  0  0
   38.1541   23.5668   37.7152 C   0  0  0  0  0  0  0  0  0  0  0  0
   38.6862   24.7057   36.7951 C   0  0  0  0  0  0  0  0  0  0  0  0
   37.4892   25.5676   36.3566 C   0  0  0  0  0  0  0  0  0  0  0  0
   37.9297   26.6611   35.4943 N   0  0  0  0  0  0  0  0  0  0  0  0
  1  2  1  0  0  0  0
  2  3  1  0  0  0  0
  3  4  1  0  0  0  0
  4  5  1  0  0  0  0
  5  6  1  0  0  0  0
  6  7  1  0  0  0  0
  7  8  1  0  0  0  0
  8  9  1  0  0  0  0
  9 10  1  0  0  0  0
 10 11  1  0  0  0  0
 11 12  1  0  0  0  0
 12 13  1  0  0  0  0
 13 14  1  0  0  0  0
M  END
>  <CHROM.1>
176.95640764,-59.86458898,124.15334946,-160.93481553,-58.59786180,-177.91677527
68.79862243,-97.58305962,-65.52754850,-174.93714417,179.67004146,38.18570681
20.95940317,35.66836032,1.88020205,1.21748230,-2.97465045

>  <Name>
ligand

>  <RI>
0

>  <Rbt.Current_Directory>
/home/itssahil/PROJECTS/Mol_Feturizer/New_Systems/rnas/1EVV

>  <Rbt.Executable>
rbdock ($Id: //depot/dev/client3/rdock/2013.1/src/exe/rbdock.cxx#4 $)

>  <Rbt.Library>
libRbt.so (2013.1, Build901 2013/11/27)

>  <Rbt.Parameter_File>
/export/apps/rDock/src/rDock_2013.1_src/data/scripts/dock_solv.prm

>  <Rbt.Receptor>
prm/pocket_docking_7.prm

>  <SCORE>
-6.58532

>  <SCORE.INTER>
1.91403

>  <SCORE.INTER.CONST>
1

>  <SCORE.INTER.POLAR>
0

>  <SCORE.INTER.ROT>
11

>  <SCORE.INTER.SOLV>
8.73914

>  <SCORE.INTER.VDW>
-12.5704

>  <SCORE.INTER.norm>
0.136717

>  <SCORE.INTRA>
-8.49935

>  <SCORE.INTRA.DIHEDRAL>
-17.4501

>  <SCORE.INTRA.DIHEDRAL.0>
20.2131

>  <SCORE.INTRA.POLAR>
0

>  <SCORE.INTRA.POLAR.0>
0

>  <SCORE.INTRA.REPUL>
0

>  <SCORE.INTRA.REPUL.0>
0

>  <SCORE.INTRA.SOLV>
-0.280078

>  <SCORE.INTRA.SOLV.lig_0>
-48.2851

>  <SCORE.INTRA.VDW>
0.36575

>  <SCORE.INTRA.VDW.0>
-1.08658

>  <SCORE.INTRA.norm>
-0.607097

>  <SCORE.RESTR>
0

>  <SCORE.RESTR.CAVITY>
0

>  <SCORE.RESTR.norm>
0

>  <SCORE.SYSTEM>
0

>  <SCORE.SYSTEM.CONST>
0

>  <SCORE.SYSTEM.DIHEDRAL>
0

>  <SCORE.SYSTEM.SOLV>
0

>  <SCORE.SYSTEM.norm>
0

>  <SCORE.heavy>
14

>  <SCORE.norm>
-0.47038

>  <RMSD>
4.402

$$$$
ligand
 OpenBabel11021811393D
libRbt.so/2013.1/901 2013/11/27
 14 13  0  0  0  0  0  0  0  0999 V2000
   39.3435   15.4018   36.5239 N   0  0  0  0  0  0  0  0  0  0  0  0
   39.0854   16.7919   36.8662 C   0  0  0  0  0  0  0  0  0  0  0  0
   37.6556   17.1987   36.4147 C   0  0  0  0  0  0  0  0  0  0  0  0
   37.2485   18.7103   36.5364 C   0  0  0  0  0  0  0  0  0  0  0  0
   38.0778   19.6726   35.7222 N   0  0  0  0  0  0  0  0  0  0  0  0
   37.8537   21.1056   36.0710 C   0  0  0  0  0  0  0  0  0  0  0  0
   38.8801   21.6742   37.0339 C   0  0  0  0  0  0  0  0  0  0  0  0
   38.4887   23.0421   37.5628 C   0  0  0  0  0  0  0  0  0  0  0  0
   39.5636   23.4841   38.4801 C   0  0  0  0  0  0  0  0  0  0  0  0
   40.8537   23.8250   37.8340 N   0  0  0  0  0  0  0  0  0  0  0  0
   41.8962   22.7809   37.9978 C   0  0  0  0  0  0  0  0  0  0  0  0
   43.3186   23.2923   38.3745 C   0  0  0  0  0  0  0  0  0  0  0  0
   44.2777   22.0889   38.3731 C   0  0  0  0  0  0  0  0  0  0  0  0
   45.6322   22.5089   38.7226 N   0  0  0  0  0  0  0  0  0  0  0  0
  1  2  1  0  0  0  0
  2  3  1  0  0  0  0
  3  4  1  0  0  0  0
  4  5  1  0  0  0  0
  5  6  1  0  0  0  0
  6  7  1  0  0  0  0
  7  8  1  0  0  0  0
  8  9  1  0  0  0  0
  9 10  1  0  0  0  0
 10 11  1  0  0  0  0
 11 12  1  0  0  0  0
 12 13  1  0  0  0  0
 13 14  1  0  0  0  0
M  END
>  <CHROM.1>
-172.68373145,61.30364646,-168.09666687,97.14942858,-169.61128822,-179.86759591
69.83063421,-103.67926951,-135.66621385,-174.94125702,-179.92477010,40.15503828
20.82714997,37.32241903,-2.31054868,-0.23451277,0.13920627

>  <Name>
ligand

>  <RI>
0

>  <Rbt.Current_Directory>
/home/itssahil/PROJECTS/Mol_Feturizer/New_Systems/rnas/1EVV

>  <Rbt.Executable>
rbdock ($Id: //depot/dev/client3/rdock/2013.1/src/exe/rbdock.cxx#4 $)

>  <Rbt.Library>
libRbt.so (2013.1, Build901 2013/11/27)

>  <Rbt.Parameter_File>
/export/apps/rDock/src/rDock_2013.1_src/data/scripts/dock_solv.prm

>  <Rbt.Receptor>
prm/pocket_docking_4.prm

>  <SCORE>
-6.6986

>  <SCORE.INTER>
1.86938

>  <SCORE.INTER.CONST>
1

>  <SCORE.INTER.POLAR>
0

>  <SCORE.INTER.ROT>
11

>  <SCORE.INTER.SOLV>
3.49319

>  <SCORE.INTER.VDW>
-10.8515

>  <SCORE.INTER.norm>
0.133527

>  <SCORE.INTRA>
-8.58422

>  <SCORE.INTRA.DIHEDRAL>
-16.219

>  <SCORE.INTRA.DIHEDRAL.0>
20.2131

>  <SCORE.INTRA.POLAR>
0

>  <SCORE.INTRA.POLAR.0>
0

>  <SCORE.INTRA.REPUL>
0

>  <SCORE.INTRA.REPUL.0>
0

>  <SCORE.INTRA.SOLV>
-0.722947

>  <SCORE.INTRA.SOLV.lig_0>
-48.2851

>  <SCORE.INTRA.VDW>
-0.113255

>  <SCORE.INTRA.VDW.0>
-1.08658

>  <SCORE.INTRA.norm>
-0.613159

>  <SCORE.RESTR>
0.0162403

>  <SCORE.RESTR.CAVITY>
0.0162403

>  <SCORE.RESTR.norm>
0.00116002

>  <SCORE.SYSTEM>
0

>  <SCORE.SYSTEM.CONST>
0

>  <SCORE.SYSTEM.DIHEDRAL>
0

>  <SCORE.SYSTEM.SOLV>
0

>  <SCORE.SYSTEM.norm>
0

>  <SCORE.heavy>
14

>  <SCORE.norm>
-0.478471

>  <RMSD>
4.416

$$$$
ligand
 OpenBabel11021811393D
libRbt.so/2013.1/901 2013/11/27
 14 13  0  0  0  0  0  0  0  0999 V2000
   37.7580   18.0768   32.5666 N   0  0  0  0  0  0  0  0  0  0  0  0
   38.3926   17.4835   33.7334 C   0  0  0  0  0  0  0  0  0  0  0  0
   39.9156   17.7904   33.7295 C   0  0  0  0  0  0  0  0  0  0  0  0
   40.7843   17.2148   34.9040 C   0  0  0  0  0  0  0  0  0  0  0  0
   40.3238   17.5844   36.2925 N   0  0  0  0  0  0  0  0  0  0  0  0
   41.3519   18.3076   37.0959 C   0  0  0  0  0  0  0  0  0  0  0  0
   40.8532   19.5997   37.7170 C   0  0  0  0  0  0  0  0  0  0  0  0
   40.5157   20.6539   36.6783 C   0  0  0  0  0  0  0  0  0  0  0  0
   40.0084   21.8408   37.4036 C   0  0  0  0  0  0  0  0  0  0  0  0
   39.8144   23.0577   36.5791 N   0  0  0  0  0  0  0  0  0  0  0  0
   38.5319   23.0727   35.8318 C   0  0  0  0  0  0  0  0  0  0  0  0
   38.5216   22.2957   34.4817 C   0  0  0  0  0  0  0  0  0  0  0  0
   37.1594   22.5277   33.8044 C   0  0  0  0  0  0  0  0  0  0  0  0
   37.0508   23.9023   33.3226 N   0  0  0  0  0  0  0  0  0  0  0  0
  1  2  1  0  0  0  0
  2  3  1  0  0  0  0
  3  4  1  0  0  0  0
  4  5  1  0  0  0  0
  5  6  1  0  0  0  0
  6  7  1  0  0  0  0
  7  8  1  0  0  0  0
  8  9  1  0  0  0  0
  9 10  1  0  0  0  0
 10 11  1  0  0  0  0
 11 12  1  0  0  0  0
 12 13  1  0  0  0  0
 13 14  1  0  0  0  0
M  END
>  <CHROM.1>
-179.15905500,-55.29699662,-121.60359812,128.57633458,-66.14012679,178.39219135
171.16648507,81.99811545,-82.89710257,-175.16060387,70.74034476,39.35606934
20.24324882,35.29599074,0.94487540,0.90351480,-2.72668313

>  <Name>
ligand

>  <RI>
0

>  <Rbt.Current_Directory>
/home/itssahil/PROJECTS/Mol_Feturizer/New_Systems/rnas/1EVV

>  <Rbt.Executable>
rbdock ($Id: //depot/dev/client3/rdock/2013.1/src/exe/rbdock.cxx#4 $)

>  <Rbt.Library>
libRbt.so (2013.1, Build901 2013/11/27)

>  <Rbt.Parameter_File>
/export/apps/rDock/src/rDock_2013.1_src/data/scripts/dock_solv.prm

>  <Rbt.Receptor>
prm/pocket_docking_3.prm

>  <SCORE>
0.129702

>  <SCORE.INTER>
8.45192

>  <SCORE.INTER.CONST>
1

>  <SCORE.INTER.POLAR>
0

>  <SCORE.INTER.ROT>
11

>  <SCORE.INTER.SOLV>
2.69343

>  <SCORE.INTER.VDW>
-6.19653

>  <SCORE.INTER.norm>
0.603708

>  <SCORE.INTRA>
-8.32222

>  <SCORE.INTRA.DIHEDRAL>
-16.0955

>  <SCORE.INTRA.DIHEDRAL.0>
20.2131

>  <SCORE.INTRA.POLAR>
0

>  <SCORE.INTRA.POLAR.0>
0

>  <SCORE.INTRA.REPUL>
0

>  <SCORE.INTRA.REPUL.0>
0

>  <SCORE.INTRA.SOLV>
0.026761

>  <SCORE.INTRA.SOLV.lig_0>
-48.2851

>  <SCORE.INTRA.VDW>
-0.287838

>  <SCORE.INTRA.VDW.0>
-1.08658

>  <SCORE.INTRA.norm>
-0.594444

>  <SCORE.RESTR>
0

>  <SCORE.RESTR.CAVITY>
0

>  <SCORE.RESTR.norm>
0

>  <SCORE.SYSTEM>
0

>  <SCORE.SYSTEM.CONST>
0

>  <SCORE.SYSTEM.DIHEDRAL>
0

>  <SCORE.SYSTEM.SOLV>
0

>  <SCORE.SYSTEM.norm>
0

>  <SCORE.heavy>
14

>  <SCORE.norm>
0.00926441

>  <RMSD>
4.430

$$$$
ligand
 OpenBabel11021811393D
libRbt.so/2013.1/901 2013/11/27
 14 13  0  0  0  0  0  0  0  0999 V2000
   45.8945   21.0418   38.0127 N   0  0  0  0  0  0  0  0  0  0  0  0
   44.5486   21.5867   38.1013 C   0  0  0  0  0  0  0  0  0  0  0  0
   44.5219   22.7934   39.0795 C   0  0  0  0  0  0  0  0  0  0  0  0
   43.1341   23.4611   39.3853 C   0  0  0  0  0  0  0  0  0  0  0  0
   42.4211   24.0499   38.1930 N   0  0  0  0  0  0  0  0  0  0  0  0
   40.9339   24.0235   38.3068 C   0  0  0  0  0  0  0  0  0  0  0  0
   40.2726   22.9221   37.4983 C   0  0  0  0  0  0  0  0  0  0  0  0
   38.7584   22.9528   37.6002 C   0  0  0  0  0  0  0  0  0  0  0  0
   38.2358   21.8816   36.7218 C   0  0  0  0  0  0  0  0  0  0  0  0
   38.6531   20.5041   37.0779 N   0  0  0  0  0  0  0  0  0  0  0  0
   37.7930   19.4492   36.4852 C   0  0  0  0  0  0  0  0  0  0  0  0
   37.9966   18.0103   37.0461 C   0  0  0  0  0  0  0  0  0  0  0  0
   39.4430   17.5783   36.7469 C   0  0  0  0  0  0  0  0  0  0  0  0
   39.6774   16.2107   37.2029 N   0  0  0  0  0  0  0  0  0  0  0  0
  1  2  1  0  0  0  0
  2  3  1  0  0  0  0
  3  4  1  0  0  0  0
  4  5  1  0  0  0  0
  5  6  1  0  0  0  0
  6  7  1  0  0  0  0
  7  8  1  0  0  0  0
  8  9  1  0  0  0  0
  9 10  1  0  0  0  0
 10 11  1  0  0  0  0
 11 12  1  0  0  0  0
 12 13  1  0  0  0  0
 13 14  1  0  0  0  0
M  END
>  <CHROM.1>
-175.98361194,-60.94987192,149.93676667,-102.39047273,-178.10218305,177.23536067
61.48034183,161.21623607,-168.07529580,-61.79538040,-177.68240917,40.87711555
21.17640499,37.67558466,-0.69100644,0.19993454,-3.00350588

>  <Name>
ligand

>  <RI>
0

>  <Rbt.Current_Directory>
/home/itssahil/PROJECTS/Mol_Feturizer/New_Systems/rnas/1EVV

>  <Rbt.Executable>
rbdock ($Id: //depot/dev/client3/rdock/2013.1/src/exe/rbdock.cxx#4 $)

>  <Rbt.Library>
libRbt.so (2013.1, Build901 2013/11/27)

>  <Rbt.Parameter_File>
/export/apps/rDock/src/rDock_2013.1_src/data/scripts/dock_solv.prm

>  <Rbt.Receptor>
prm/pocket_docking_4.prm

>  <SCORE>
-6.09763

>  <SCORE.INTER>
3.25447

>  <SCORE.INTER.CONST>
1

>  <SCORE.INTER.POLAR>
0

>  <SCORE.INTER.ROT>
11

>  <SCORE.INTER.SOLV>
4.67851

>  <SCORE.INTER.VDW>
-10.3232

>  <SCORE.INTER.norm>
0.232462

>  <SCORE.INTRA>
-9.35209

>  <SCORE.INTRA.DIHEDRAL>
-18.1173

>  <SCORE.INTRA.DIHEDRAL.0>
20.2131

>  <SCORE.INTRA.POLAR>
0

>  <SCORE.INTRA.POLAR.0>
0

>  <SCORE.INTRA.REPUL>
0

>  <SCORE.INTRA.REPUL.0>
0

>  <SCORE.INTRA.SOLV>
-0.368235

>  <SCORE.INTRA.SOLV.lig_0>
-48.2851

>  <SCORE.INTRA.VDW>
-0.109333

>  <SCORE.INTRA.VDW.0>
-1.08658

>  <SCORE.INTRA.norm>
-0.668007

>  <SCORE.RESTR>
0

>  <SCORE.RESTR.CAVITY>
0

>  <SCORE.RESTR.norm>
0

>  <SCORE.SYSTEM>
0

>  <SCORE.SYSTEM.CONST>
0

>  <SCORE.SYSTEM.DIHEDRAL>
0

>  <SCORE.SYSTEM.SOLV>
0

>  <SCORE.SYSTEM.norm>
0

>  <SCORE.heavy>
14

>  <SCORE.norm>
-0.435545

>  <RMSD>
4.431

$$$$
ligand
 OpenBabel11021811393D
libRbt.so/2013.1/901 2013/11/27
 14 13  0  0  0  0  0  0  0  0999 V2000
   40.5708   16.7987   31.4784 N   0  0  0  0  0  0  0  0  0  0  0  0
   39.7939   16.1846   32.5440 C   0  0  0  0  0  0  0  0  0  0  0  0
   38.5429   17.0492   32.8622 C   0  0  0  0  0  0  0  0  0  0  0  0
   37.6345   16.6126   34.0661 C   0  0  0  0  0  0  0  0  0  0  0  0
   38.3155   16.5758   35.4121 N   0  0  0  0  0  0  0  0  0  0  0  0
   37.4642   17.0729   36.5318 C   0  0  0  0  0  0  0  0  0  0  0  0
   37.7938   18.4861   36.9771 C   0  0  0  0  0  0  0  0  0  0  0  0
   37.5318   19.5153   35.8925 C   0  0  0  0  0  0  0  0  0  0  0  0
   37.8366   20.8463   36.4651 C   0  0  0  0  0  0  0  0  0  0  0  0
   39.2531   21.0694   36.8423 N   0  0  0  0  0  0  0  0  0  0  0  0
   39.4714   22.3078   37.6312 C   0  0  0  0  0  0  0  0  0  0  0  0
   40.9386   22.8279   37.6895 C   0  0  0  0  0  0  0  0  0  0  0  0
   40.9530   24.1348   38.5019 C   0  0  0  0  0  0  0  0  0  0  0  0
   42.2855   24.7330   38.4924 N   0  0  0  0  0  0  0  0  0  0  0  0
  1  2  1  0  0  0  0
  2  3  1  0  0  0  0
  3  4  1  0  0  0  0
  4  5  1  0  0  0  0
  5  6  1  0  0  0  0
  6  7  1  0  0  0  0
  7  8  1  0  0  0  0
  8  9  1  0  0  0  0
  9 10  1  0  0  0  0
 10 11  1  0  0  0  0
 11 12  1  0  0  0  0
 12 13  1  0  0  0  0
 13 14  1  0  0  0  0
M  END
>  <CHROM.1>
-175.21922932,60.29356950,140.72416092,-101.92945133,64.12796596,177.71753100
64.37447072,-169.52231681,-162.14384353,177.97738398,-175.04234308,39.17002224
19.58664773,35.81343229,-1.87289378,0.62893002,0.77013518

>  <Name>
ligand

>  <RI>
0

>  <Rbt.Current_Directory>
/home/itssahil/PROJECTS/Mol_Feturizer/New_Systems/rnas/1EVV

>  <Rbt.Executable>
rbdock ($Id: //depot/dev/client3/rdock/2013.1/src/exe/rbdock.cxx#4 $)

>  <Rbt.Library>
libRbt.so (2013.1, Build901 2013/11/27)

>  <Rbt.Parameter_File>
/export/apps/rDock/src/rDock_2013.1_src/data/scripts/dock_solv.prm

>  <Rbt.Receptor>
prm/pocket_docking_5.prm

>  <SCORE>
-7.15799

>  <SCORE.INTER>
2.09212

>  <SCORE.INTER.CONST>
1

>  <SCORE.INTER.POLAR>
0

>  <SCORE.INTER.ROT>
11

>  <SCORE.INTER.SOLV>
6.60268

>  <SCORE.INTER.VDW>
-11.7395

>  <SCORE.INTER.norm>
0.149437

>  <SCORE.INTRA>
-9.25011

>  <SCORE.INTRA.DIHEDRAL>
-17.698

>  <SCORE.INTRA.DIHEDRAL.0>
20.2131

>  <SCORE.INTRA.POLAR>
0

>  <SCORE.INTRA.POLAR.0>
0

>  <SCORE.INTRA.REPUL>
0

>  <SCORE.INTRA.REPUL.0>
0

>  <SCORE.INTRA.SOLV>
-0.317208

>  <SCORE.INTRA.SOLV.lig_0>
-48.2851

>  <SCORE.INTRA.VDW>
-0.242484

>  <SCORE.INTRA.VDW.0>
-1.08658

>  <SCORE.INTRA.norm>
-0.660722

>  <SCORE.RESTR>
0

>  <SCORE.RESTR.CAVITY>
0

>  <SCORE.RESTR.norm>
0

>  <SCORE.SYSTEM>
0

>  <SCORE.SYSTEM.CONST>
0

>  <SCORE.SYSTEM.DIHEDRAL>
0

>  <SCORE.SYSTEM.SOLV>
0

>  <SCORE.SYSTEM.norm>
0

>  <SCORE.heavy>
14

>  <SCORE.norm>
-0.511285

>  <RMSD>
4.435

$$$$
ligand
 OpenBabel11021811393D
libRbt.so/2013.1/901 2013/11/27
 14 13  0  0  0  0  0  0  0  0999 V2000
   43.5371   25.2721   38.8386 N   0  0  0  0  0  0  0  0  0  0  0  0
   42.4087   24.6457   39.5096 C   0  0  0  0  0  0  0  0  0  0  0  0
   41.4236   24.0546   38.4637 C   0  0  0  0  0  0  0  0  0  0  0  0
   40.7309   25.0471   37.4634 C   0  0  0  0  0  0  0  0  0  0  0  0
   39.7356   24.4234   36.5163 N   0  0  0  0  0  0  0  0  0  0  0  0
   38.4669   23.9932   37.1728 C   0  0  0  0  0  0  0  0  0  0  0  0
   38.3790   22.4992   37.4261 C   0  0  0  0  0  0  0  0  0  0  0  0
   38.2862   21.6946   36.1423 C   0  0  0  0  0  0  0  0  0  0  0  0
   38.0979   20.2763   36.5237 C   0  0  0  0  0  0  0  0  0  0  0  0
   37.9384   19.3279   35.3953 N   0  0  0  0  0  0  0  0  0  0  0  0
   38.3161   17.9324   35.7322 C   0  0  0  0  0  0  0  0  0  0  0  0
   37.9552   16.8537   34.6678 C   0  0  0  0  0  0  0  0  0  0  0  0
   38.5988   15.5229   35.0953 C   0  0  0  0  0  0  0  0  0  0  0  0
   38.0247   15.0534   36.3536 N   0  0  0  0  0  0  0  0  0  0  0  0
  1  2  1  0  0  0  0
  2  3  1  0  0  0  0
  3  4  1  0  0  0  0
  4  5  1  0  0  0  0
  5  6  1  0  0  0  0
  6  7  1  0  0  0  0
  7  8  1  0  0  0  0
  8  9  1  0  0  0  0
  9 10  1  0  0  0  0
 10 11  1  0  0  0  0
 11 12  1  0  0  0  0
 12 13  1  0  0  0  0
 13 14  1  0  0  0  0
M  END
>  <CHROM.1>
-62.31325629,-177.16485511,71.58371531,-102.16185129,-67.44697835,-175.57737292
178.02247961,155.75756915,170.48381767,171.92316815,64.31916507,39.42120116
21.18552973,36.80721228,-1.14821291,0.48958086,-3.02144935

>  <Name>
ligand

>  <RI>
0

>  <Rbt.Current_Directory>
/home/itssahil/PROJECTS/Mol_Feturizer/New_Systems/rnas/1EVV

>  <Rbt.Executable>
rbdock ($Id: //depot/dev/client3/rdock/2013.1/src/exe/rbdock.cxx#4 $)

>  <Rbt.Library>
libRbt.so (2013.1, Build901 2013/11/27)

>  <Rbt.Parameter_File>
/export/apps/rDock/src/rDock_2013.1_src/data/scripts/dock_solv.prm

>  <Rbt.Receptor>
prm/pocket_docking_5.prm

>  <SCORE>
-4.51973

>  <SCORE.INTER>
4.1141

>  <SCORE.INTER.CONST>
1

>  <SCORE.INTER.POLAR>
0

>  <SCORE.INTER.ROT>
11

>  <SCORE.INTER.SOLV>
3.20607

>  <SCORE.INTER.VDW>
-9.25929

>  <SCORE.INTER.norm>
0.293864

>  <SCORE.INTRA>
-8.63383

>  <SCORE.INTRA.DIHEDRAL>
-17.9869

>  <SCORE.INTRA.DIHEDRAL.0>
20.2131

>  <SCORE.INTRA.POLAR>
0

>  <SCORE.INTRA.POLAR.0>
0

>  <SCORE.INTRA.REPUL>
0

>  <SCORE.INTRA.REPUL.0>
0

>  <SCORE.INTRA.SOLV>
0.364093

>  <SCORE.INTRA.SOLV.lig_0>
-48.2851

>  <SCORE.INTRA.VDW>
0.177582

>  <SCORE.INTRA.VDW.0>
-1.08658

>  <SCORE.INTRA.norm>
-0.616702

>  <SCORE.RESTR>
0

>  <SCORE.RESTR.CAVITY>
0

>  <SCORE.RESTR.norm>
0

>  <SCORE.SYSTEM>
0

>  <SCORE.SYSTEM.CONST>
0

>  <SCORE.SYSTEM.DIHEDRAL>
0

>  <SCORE.SYSTEM.SOLV>
0

>  <SCORE.SYSTEM.norm>
0

>  <SCORE.heavy>
14

>  <SCORE.norm>
-0.322838

>  <RMSD>
4.439

$$$$
ligand
 OpenBabel11021811393D
libRbt.so/2013.1/901 2013/11/27
 14 13  0  0  0  0  0  0  0  0999 V2000
   42.3538   23.1991   37.5420 N   0  0  0  0  0  0  0  0  0  0  0  0
   41.1423   22.3959   37.5983 C   0  0  0  0  0  0  0  0  0  0  0  0
   39.8893   23.3060   37.4739 C   0  0  0  0  0  0  0  0  0  0  0  0
   38.4763   22.6249   37.5434 C   0  0  0  0  0  0  0  0  0  0  0  0
   38.1954   21.6034   36.4690 N   0  0  0  0  0  0  0  0  0  0  0  0
   38.7065   20.2384   36.7870 C   0  0  0  0  0  0  0  0  0  0  0  0
   37.6935   19.1313   36.5585 C   0  0  0  0  0  0  0  0  0  0  0  0
   38.2242   17.7648   36.9524 C   0  0  0  0  0  0  0  0  0  0  0  0
   37.2108   16.7647   36.5463 C   0  0  0  0  0  0  0  0  0  0  0  0
   36.9028   16.7208   35.0967 N   0  0  0  0  0  0  0  0  0  0  0  0
   38.0206   16.2076   34.2655 C   0  0  0  0  0  0  0  0  0  0  0  0
   37.8954   16.4498   32.7318 C   0  0  0  0  0  0  0  0  0  0  0  0
   37.8399   17.9683   32.4883 C   0  0  0  0  0  0  0  0  0  0  0  0
   37.7070   18.2572   31.0627 N   0  0  0  0  0  0  0  0  0  0  0  0
  1  2  1  0  0  0  0
  2  3  1  0  0  0  0
  3  4  1  0  0  0  0
  4  5  1  0  0  0  0
  5  6  1  0  0  0  0
  6  7  1  0  0  0  0
  7  8  1  0  0  0  0
  8  9  1  0  0  0  0
  9 10  1  0  0  0  0
 10 11  1  0  0  0  0
 11 12  1  0  0  0  0
 12 13  1  0  0  0  0
 13 14  1  0  0  0  0
M  END
>  <CHROM.1>
-178.73766658,-60.69286556,84.75065632,132.16196232,-177.33682525,-173.88727602
60.23568231,68.65493851,-165.99614821,60.86549502,-179.37455347,38.58975435
19.47352940,35.65137614,-0.70328684,-1.06879482,-1.73538293

>  <Name>
ligand

>  <RI>
0

>  <Rbt.Current_Directory>
/home/itssahil/PROJECTS/Mol_Feturizer/New_Systems/rnas/1EVV

>  <Rbt.Executable>
rbdock ($Id: //depot/dev/client3/rdock/2013.1/src/exe/rbdock.cxx#4 $)

>  <Rbt.Library>
libRbt.so (2013.1, Build901 2013/11/27)

>  <Rbt.Parameter_File>
/export/apps/rDock/src/rDock_2013.1_src/data/scripts/dock_solv.prm

>  <Rbt.Receptor>
prm/pocket_docking_7.prm

>  <SCORE>
-6.65968

>  <SCORE.INTER>
2.29254

>  <SCORE.INTER.CONST>
1

>  <SCORE.INTER.POLAR>
0

>  <SCORE.INTER.ROT>
11

>  <SCORE.INTER.SOLV>
7.55861

>  <SCORE.INTER.VDW>
-11.9245

>  <SCORE.INTER.norm>
0.163753

>  <SCORE.INTRA>
-8.95222

>  <SCORE.INTRA.DIHEDRAL>
-18.2843

>  <SCORE.INTRA.DIHEDRAL.0>
20.2131

>  <SCORE.INTRA.POLAR>
0

>  <SCORE.INTRA.POLAR.0>
0

>  <SCORE.INTRA.REPUL>
0

>  <SCORE.INTRA.REPUL.0>
0

>  <SCORE.INTRA.SOLV>
-0.299329

>  <SCORE.INTRA.SOLV.lig_0>
-48.2851

>  <SCORE.INTRA.VDW>
0.339582

>  <SCORE.INTRA.VDW.0>
-1.08658

>  <SCORE.INTRA.norm>
-0.639444

>  <SCORE.RESTR>
0

>  <SCORE.RESTR.CAVITY>
0

>  <SCORE.RESTR.norm>
0

>  <SCORE.SYSTEM>
0

>  <SCORE.SYSTEM.CONST>
0

>  <SCORE.SYSTEM.DIHEDRAL>
0

>  <SCORE.SYSTEM.SOLV>
0

>  <SCORE.SYSTEM.norm>
0

>  <SCORE.heavy>
14

>  <SCORE.norm>
-0.475692

>  <RMSD>
4.449

$$$$
ligand
 OpenBabel11021811393D
libRbt.so/2013.1/901 2013/11/27
 14 13  0  0  0  0  0  0  0  0999 V2000
   40.5483   27.4909   35.9156 N   0  0  0  0  0  0  0  0  0  0  0  0
   40.4015   26.1794   36.5275 C   0  0  0  0  0  0  0  0  0  0  0  0
   38.9343   25.6865   36.3936 C   0  0  0  0  0  0  0  0  0  0  0  0
   38.5790   24.2703   36.9711 C   0  0  0  0  0  0  0  0  0  0  0  0
   39.3636   23.1186   36.3925 N   0  0  0  0  0  0  0  0  0  0  0  0
   39.5701   21.9905   37.3465 C   0  0  0  0  0  0  0  0  0  0  0  0
   39.0664   20.6520   36.8377 C   0  0  0  0  0  0  0  0  0  0  0  0
   37.5711   20.6525   36.5768 C   0  0  0  0  0  0  0  0  0  0  0  0
   37.1623   19.2472   36.3528 C   0  0  0  0  0  0  0  0  0  0  0  0
   37.7814   18.5816   35.1815 N   0  0  0  0  0  0  0  0  0  0  0  0
   37.9902   17.1236   35.3664 C   0  0  0  0  0  0  0  0  0  0  0  0
   38.8807   16.4225   34.2976 C   0  0  0  0  0  0  0  0  0  0  0  0
   39.1002   14.9642   34.7370 C   0  0  0  0  0  0  0  0  0  0  0  0
   39.8101   14.9114   36.0124 N   0  0  0  0  0  0  0  0  0  0  0  0
  1  2  1  0  0  0  0
  2  3  1  0  0  0  0
  3  4  1  0  0  0  0
  4  5  1  0  0  0  0
  5  6  1  0  0  0  0
  6  7  1  0  0  0  0
  7  8  1  0  0  0  0
  8  9  1  0  0  0  0
  9 10  1  0  0  0  0
 10 11  1  0  0  0  0
 11 12  1  0  0  0  0
 12 13  1  0  0  0  0
 13 14  1  0  0  0  0
M  END
>  <CHROM.1>
178.82909686,-58.49121181,149.59605114,123.78942592,-61.48662787,-168.89678282
-62.05443031,148.09627095,-168.51683390,174.12552204,-62.15654005,38.91117741
20.80642602,36.06499457,-1.46521222,-0.25852508,-2.98686461

>  <Name>
ligand

>  <RI>
0

>  <Rbt.Current_Directory>
/home/itssahil/PROJECTS/Mol_Feturizer/New_Systems/rnas/1EVV

>  <Rbt.Executable>
rbdock ($Id: //depot/dev/client3/rdock/2013.1/src/exe/rbdock.cxx#4 $)

>  <Rbt.Library>
libRbt.so (2013.1, Build901 2013/11/27)

>  <Rbt.Parameter_File>
/export/apps/rDock/src/rDock_2013.1_src/data/scripts/dock_solv.prm

>  <Rbt.Receptor>
prm/pocket_docking_5.prm

>  <SCORE>
-3.84176

>  <SCORE.INTER>
4.3488

>  <SCORE.INTER.CONST>
1

>  <SCORE.INTER.POLAR>
0

>  <SCORE.INTER.ROT>
11

>  <SCORE.INTER.SOLV>
3.01774

>  <SCORE.INTER.VDW>
-9.04005

>  <SCORE.INTER.norm>
0.310629

>  <SCORE.INTRA>
-8.19055

>  <SCORE.INTRA.DIHEDRAL>
-16.9594

>  <SCORE.INTRA.DIHEDRAL.0>
20.2131

>  <SCORE.INTRA.POLAR>
0

>  <SCORE.INTRA.POLAR.0>
0

>  <SCORE.INTRA.REPUL>
0

>  <SCORE.INTRA.REPUL.0>
0

>  <SCORE.INTRA.SOLV>
0.58422

>  <SCORE.INTRA.SOLV.lig_0>
-48.2851

>  <SCORE.INTRA.VDW>
-0.00298405

>  <SCORE.INTRA.VDW.0>
-1.08658

>  <SCORE.INTRA.norm>
-0.58504

>  <SCORE.RESTR>
0

>  <SCORE.RESTR.CAVITY>
0

>  <SCORE.RESTR.norm>
0

>  <SCORE.SYSTEM>
0

>  <SCORE.SYSTEM.CONST>
0

>  <SCORE.SYSTEM.DIHEDRAL>
0

>  <SCORE.SYSTEM.SOLV>
0

>  <SCORE.SYSTEM.norm>
0

>  <SCORE.heavy>
14

>  <SCORE.norm>
-0.274411

>  <RMSD>
4.464

$$$$
ligand
 OpenBabel11021811393D
libRbt.so/2013.1/901 2013/11/27
 14 13  0  0  0  0  0  0  0  0999 V2000
   38.3338   18.3915   34.2727 N   0  0  0  0  0  0  0  0  0  0  0  0
   38.2842   19.8298   34.0602 C   0  0  0  0  0  0  0  0  0  0  0  0
   37.1866   20.4666   34.9565 C   0  0  0  0  0  0  0  0  0  0  0  0
   37.3987   20.4362   36.5120 C   0  0  0  0  0  0  0  0  0  0  0  0
   38.5652   21.2453   37.0232 N   0  0  0  0  0  0  0  0  0  0  0  0
   38.3599   22.7203   36.9357 C   0  0  0  0  0  0  0  0  0  0  0  0
   39.0389   23.5047   38.0437 C   0  0  0  0  0  0  0  0  0  0  0  0
   40.5511   23.3784   38.0052 C   0  0  0  0  0  0  0  0  0  0  0  0
   41.0963   24.2974   39.0301 C   0  0  0  0  0  0  0  0  0  0  0  0
   42.5437   24.1489   39.3151 N   0  0  0  0  0  0  0  0  0  0  0  0
   42.9460   24.6732   40.6443 C   0  0  0  0  0  0  0  0  0  0  0  0
   43.9674   23.8051   41.4378 C   0  0  0  0  0  0  0  0  0  0  0  0
   45.2928   23.7879   40.6560 C   0  0  0  0  0  0  0  0  0  0  0  0
   46.2786   22.9476   41.3309 N   0  0  0  0  0  0  0  0  0  0  0  0
  1  2  1  0  0  0  0
  2  3  1  0  0  0  0
  3  4  1  0  0  0  0
  4  5  1  0  0  0  0
  5  6  1  0  0  0  0
  6  7  1  0  0  0  0
  7  8  1  0  0  0  0
  8  9  1  0  0  0  0
  9 10  1  0  0  0  0
 10 11  1  0  0  0  0
 11 12  1  0  0  0  0
 12 13  1  0  0  0  0
 13 14  1  0  0  0  0
M  END
>  <CHROM.1>
66.54985218,65.41042783,70.96383906,147.64699822,63.67235906,173.88750846
169.71414437,-157.91653056,138.65452001,64.94556957,-178.01921802,40.70278543
22.40264470,38.01597615,-2.42192069,-0.37782560,0.58496930

>  <Name>
ligand

>  <RI>
0

>  <Rbt.Current_Directory>
/home/itssahil/PROJECTS/Mol_Feturizer/New_Systems/rnas/1EVV

>  <Rbt.Executable>
rbdock ($Id: //depot/dev/client3/rdock/2013.1/src/exe/rbdock.cxx#4 $)

>  <Rbt.Library>
libRbt.so (2013.1, Build901 2013/11/27)

>  <Rbt.Parameter_File>
/export/apps/rDock/src/rDock_2013.1_src/data/scripts/dock_solv.prm

>  <Rbt.Receptor>
prm/pocket_docking_8.prm

>  <SCORE>
-7.8411

>  <SCORE.INTER>
0.445801

>  <SCORE.INTER.CONST>
1

>  <SCORE.INTER.POLAR>
0

>  <SCORE.INTER.ROT>
11

>  <SCORE.INTER.SOLV>
5.63482

>  <SCORE.INTER.VDW>
-12.5144

>  <SCORE.INTER.norm>
0.0318429

>  <SCORE.INTRA>
-8.28691

>  <SCORE.INTRA.DIHEDRAL>
-17.1745

>  <SCORE.INTRA.DIHEDRAL.0>
20.2131

>  <SCORE.INTRA.POLAR>
0

>  <SCORE.INTRA.POLAR.0>
0

>  <SCORE.INTRA.REPUL>
0

>  <SCORE.INTRA.REPUL.0>
0

>  <SCORE.INTRA.SOLV>
0.64006

>  <SCORE.INTRA.SOLV.lig_0>
-48.2851

>  <SCORE.INTRA.VDW>
-0.0196807

>  <SCORE.INTRA.VDW.0>
-1.08658

>  <SCORE.INTRA.norm>
-0.591922

>  <SCORE.RESTR>
0

>  <SCORE.RESTR.CAVITY>
0

>  <SCORE.RESTR.norm>
0

>  <SCORE.SYSTEM>
0

>  <SCORE.SYSTEM.CONST>
0

>  <SCORE.SYSTEM.DIHEDRAL>
0

>  <SCORE.SYSTEM.SOLV>
0

>  <SCORE.SYSTEM.norm>
0

>  <SCORE.heavy>
14

>  <SCORE.norm>
-0.560079

>  <RMSD>
4.471

$$$$
ligand
 OpenBabel11021811393D
libRbt.so/2013.1/901 2013/11/27
 14 13  0  0  0  0  0  0  0  0999 V2000
   37.8928   14.9539   36.2646 N   0  0  0  0  0  0  0  0  0  0  0  0
   37.6055   16.3800   36.2652 C   0  0  0  0  0  0  0  0  0  0  0  0
   38.0377   17.0146   34.9146 C   0  0  0  0  0  0  0  0  0  0  0  0
   37.9558   18.5765   34.7767 C   0  0  0  0  0  0  0  0  0  0  0  0
   38.7977   19.3587   35.7545 N   0  0  0  0  0  0  0  0  0  0  0  0
   38.2906   20.7365   36.0188 C   0  0  0  0  0  0  0  0  0  0  0  0
   39.0705   21.4877   37.0826 C   0  0  0  0  0  0  0  0  0  0  0  0
   38.4283   22.8131   37.4496 C   0  0  0  0  0  0  0  0  0  0  0  0
   39.2068   23.3842   38.5721 C   0  0  0  0  0  0  0  0  0  0  0  0
   40.5974   23.7826   38.2465 N   0  0  0  0  0  0  0  0  0  0  0  0
   41.1981   24.7116   39.2364 C   0  0  0  0  0  0  0  0  0  0  0  0
   42.7470   24.8653   39.1729 C   0  0  0  0  0  0  0  0  0  0  0  0
   43.3790   23.5027   39.5073 C   0  0  0  0  0  0  0  0  0  0  0  0
   44.8355   23.6055   39.5458 N   0  0  0  0  0  0  0  0  0  0  0  0
  1  2  1  0  0  0  0
  2  3  1  0  0  0  0
  3  4  1  0  0  0  0
  4  5  1  0  0  0  0
  5  6  1  0  0  0  0
  6  7  1  0  0  0  0
  7  8  1  0  0  0  0
  8  9  1  0  0  0  0
  9 10  1  0  0  0  0
 10 11  1  0  0  0  0
 11 12  1  0  0  0  0
 12 13  1  0  0  0  0
 13 14  1  0  0  0  0
M  END
>  <CHROM.1>
-173.40786610,60.12144827,-154.79448276,175.44363244,-172.87218009,174.94027783
66.51676694,162.14614265,164.16499267,-63.63956729,-176.43597783,39.85991345
21.08404211,37.34335948,-2.13838699,-0.39694681,0.21988797

>  <Name>
ligand

>  <RI>
0

>  <Rbt.Current_Directory>
/home/itssahil/PROJECTS/Mol_Feturizer/New_Systems/rnas/1EVV

>  <Rbt.Executable>
rbdock ($Id: //depot/dev/client3/rdock/2013.1/src/exe/rbdock.cxx#4 $)

>  <Rbt.Library>
libRbt.so (2013.1, Build901 2013/11/27)

>  <Rbt.Parameter_File>
/export/apps/rDock/src/rDock_2013.1_src/data/scripts/dock_solv.prm

>  <Rbt.Receptor>
prm/pocket_docking_5.prm

>  <SCORE>
-7.92959

>  <SCORE.INTER>
1.75648

>  <SCORE.INTER.CONST>
1

>  <SCORE.INTER.POLAR>
0

>  <SCORE.INTER.ROT>
11

>  <SCORE.INTER.SOLV>
4.62569

>  <SCORE.INTER.VDW>
-11.3042

>  <SCORE.INTER.norm>
0.125463

>  <SCORE.INTRA>
-9.68607

>  <SCORE.INTRA.DIHEDRAL>
-18.5903

>  <SCORE.INTRA.DIHEDRAL.0>
20.2131

>  <SCORE.INTRA.POLAR>
0

>  <SCORE.INTRA.POLAR.0>
0

>  <SCORE.INTRA.REPUL>
0

>  <SCORE.INTRA.REPUL.0>
0

>  <SCORE.INTRA.SOLV>
-0.404371

>  <SCORE.INTRA.SOLV.lig_0>
-48.2851

>  <SCORE.INTRA.VDW>
-0.188743

>  <SCORE.INTRA.VDW.0>
-1.08658

>  <SCORE.INTRA.norm>
-0.691862

>  <SCORE.RESTR>
0

>  <SCORE.RESTR.CAVITY>
0

>  <SCORE.RESTR.norm>
0

>  <SCORE.SYSTEM>
0

>  <SCORE.SYSTEM.CONST>
0

>  <SCORE.SYSTEM.DIHEDRAL>
0

>  <SCORE.SYSTEM.SOLV>
0

>  <SCORE.SYSTEM.norm>
0

>  <SCORE.heavy>
14

>  <SCORE.norm>
-0.5664

>  <RMSD>
4.488

$$$$
ligand
 OpenBabel11021811393D
libRbt.so/2013.1/901 2013/11/27
 14 13  0  0  0  0  0  0  0  0999 V2000
   39.1375   18.0260   31.4291 N   0  0  0  0  0  0  0  0  0  0  0  0
   38.9393   17.0157   32.4568 C   0  0  0  0  0  0  0  0  0  0  0  0
   37.6415   17.3129   33.2576 C   0  0  0  0  0  0  0  0  0  0  0  0
   37.3002   16.3827   34.4757 C   0  0  0  0  0  0  0  0  0  0  0  0
   38.3379   16.3407   35.5702 N   0  0  0  0  0  0  0  0  0  0  0  0
   37.8330   16.7985   36.8971 C   0  0  0  0  0  0  0  0  0  0  0  0
   38.0062   18.2863   37.1435 C   0  0  0  0  0  0  0  0  0  0  0  0
   37.0567   19.1295   36.3118 C   0  0  0  0  0  0  0  0  0  0  0  0
   37.4127   20.5485   36.5399 C   0  0  0  0  0  0  0  0  0  0  0  0
   38.7431   20.9621   36.0327 N   0  0  0  0  0  0  0  0  0  0  0  0
   39.1634   22.3094   36.4927 C   0  0  0  0  0  0  0  0  0  0  0  0
   39.6806   22.3973   37.9595 C   0  0  0  0  0  0  0  0  0  0  0  0
   40.1144   23.8488   38.2297 C   0  0  0  0  0  0  0  0  0  0  0  0
   41.2583   24.2087   37.3956 N   0  0  0  0  0  0  0  0  0  0  0  0
  1  2  1  0  0  0  0
  2  3  1  0  0  0  0
  3  4  1  0  0  0  0
  4  5  1  0  0  0  0
  5  6  1  0  0  0  0
  6  7  1  0  0  0  0
  7  8  1  0  0  0  0
  8  9  1  0  0  0  0
  9 10  1  0  0  0  0
 10 11  1  0  0  0  0
 11 12  1  0  0  0  0
 12 13  1  0  0  0  0
 13 14  1  0  0  0  0
M  END
>  <CHROM.1>
-176.19458470,59.32594193,119.61774148,-90.32508912,71.95224989,-174.53589353
66.25863106,-169.50624613,77.11062559,177.88929063,-65.12381440,38.61574388
19.54036774,35.72824999,-2.10961119,1.06507423,1.01943398

>  <Name>
ligand

>  <RI>
0

>  <Rbt.Current_Directory>
/home/itssahil/PROJECTS/Mol_Feturizer/New_Systems/rnas/1EVV

>  <Rbt.Executable>
rbdock ($Id: //depot/dev/client3/rdock/2013.1/src/exe/rbdock.cxx#4 $)

>  <Rbt.Library>
libRbt.so (2013.1, Build901 2013/11/27)

>  <Rbt.Parameter_File>
/export/apps/rDock/src/rDock_2013.1_src/data/scripts/dock_solv.prm

>  <Rbt.Receptor>
prm/pocket_docking_5.prm

>  <SCORE>
-6.07502

>  <SCORE.INTER>
2.23947

>  <SCORE.INTER.CONST>
1

>  <SCORE.INTER.POLAR>
0

>  <SCORE.INTER.ROT>
11

>  <SCORE.INTER.SOLV>
5.43387

>  <SCORE.INTER.VDW>
-11.2516

>  <SCORE.INTER.norm>
0.159962

>  <SCORE.INTRA>
-8.31449

>  <SCORE.INTRA.DIHEDRAL>
-17.1234

>  <SCORE.INTRA.DIHEDRAL.0>
20.2131

>  <SCORE.INTRA.POLAR>
0

>  <SCORE.INTRA.POLAR.0>
0

>  <SCORE.INTRA.REPUL>
0

>  <SCORE.INTRA.REPUL.0>
0

>  <SCORE.INTRA.SOLV>
0.468764

>  <SCORE.INTRA.SOLV.lig_0>
-48.2851

>  <SCORE.INTRA.VDW>
0.0128282

>  <SCORE.INTRA.VDW.0>
-1.08658

>  <SCORE.INTRA.norm>
-0.593892

>  <SCORE.RESTR>
0

>  <SCORE.RESTR.CAVITY>
0

>  <SCORE.RESTR.norm>
0

>  <SCORE.SYSTEM>
0

>  <SCORE.SYSTEM.CONST>
0

>  <SCORE.SYSTEM.DIHEDRAL>
0

>  <SCORE.SYSTEM.SOLV>
0

>  <SCORE.SYSTEM.norm>
0

>  <SCORE.heavy>
14

>  <SCORE.norm>
-0.43393

>  <RMSD>
4.506

$$$$
ligand
 OpenBabel11021811393D
libRbt.so/2013.1/901 2013/11/27
 14 13  0  0  0  0  0  0  0  0999 V2000
   38.9730   15.3414   37.5876 N   0  0  0  0  0  0  0  0  0  0  0  0
   37.5602   15.5909   37.8285 C   0  0  0  0  0  0  0  0  0  0  0  0
   36.8976   16.1920   36.5584 C   0  0  0  0  0  0  0  0  0  0  0  0
   37.4295   17.5737   36.0357 C   0  0  0  0  0  0  0  0  0  0  0  0
   37.2606   18.7345   36.9847 N   0  0  0  0  0  0  0  0  0  0  0  0
   37.0713   20.0477   36.3028 C   0  0  0  0  0  0  0  0  0  0  0  0
   38.1968   21.0370   36.5455 C   0  0  0  0  0  0  0  0  0  0  0  0
   39.5523   20.4900   36.1361 C   0  0  0  0  0  0  0  0  0  0  0  0
   40.5488   21.5590   36.3736 C   0  0  0  0  0  0  0  0  0  0  0  0
   40.7408   21.9488   37.7911 N   0  0  0  0  0  0  0  0  0  0  0  0
   41.8871   22.8673   38.0064 C   0  0  0  0  0  0  0  0  0  0  0  0
   43.2912   22.1971   38.0831 C   0  0  0  0  0  0  0  0  0  0  0  0
   44.3492   23.3094   38.1900 C   0  0  0  0  0  0  0  0  0  0  0  0
   44.2188   24.0247   39.4568 N   0  0  0  0  0  0  0  0  0  0  0  0
  1  2  1  0  0  0  0
  2  3  1  0  0  0  0
  3  4  1  0  0  0  0
  4  5  1  0  0  0  0
  5  6  1  0  0  0  0
  6  7  1  0  0  0  0
  7  8  1  0  0  0  0
  8  9  1  0  0  0  0
  9 10  1  0  0  0  0
 10 11  1  0  0  0  0
 11 12  1  0  0  0  0
 12 13  1  0  0  0  0
 13 14  1  0  0  0  0
M  END
>  <CHROM.1>
-61.57536473,-62.37322985,-149.30900228,-115.11340641,56.68217714,177.93529319
64.93927194,171.14721479,-81.30056173,175.37245482,66.20940123,39.85532763
20.06527254,37.27688108,-2.40366974,-0.44510312,-0.21705149

>  <Name>
ligand

>  <RI>
0

>  <Rbt.Current_Directory>
/home/itssahil/PROJECTS/Mol_Feturizer/New_Systems/rnas/1EVV

>  <Rbt.Executable>
rbdock ($Id: //depot/dev/client3/rdock/2013.1/src/exe/rbdock.cxx#4 $)

>  <Rbt.Library>
libRbt.so (2013.1, Build901 2013/11/27)

>  <Rbt.Parameter_File>
/export/apps/rDock/src/rDock_2013.1_src/data/scripts/dock_solv.prm

>  <Rbt.Receptor>
prm/pocket_docking_5.prm

>  <SCORE>
-5.14558

>  <SCORE.INTER>
2.62571

>  <SCORE.INTER.CONST>
1

>  <SCORE.INTER.POLAR>
0

>  <SCORE.INTER.ROT>
11

>  <SCORE.INTER.SOLV>
6.33817

>  <SCORE.INTER.VDW>
-11.2956

>  <SCORE.INTER.norm>
0.187551

>  <SCORE.INTRA>
-7.77129

>  <SCORE.INTRA.DIHEDRAL>
-17.6045

>  <SCORE.INTRA.DIHEDRAL.0>
20.2131

>  <SCORE.INTRA.POLAR>
0

>  <SCORE.INTRA.POLAR.0>
0

>  <SCORE.INTRA.REPUL>
0

>  <SCORE.INTRA.REPUL.0>
0

>  <SCORE.INTRA.SOLV>
1.69626

>  <SCORE.INTRA.SOLV.lig_0>
-48.2851

>  <SCORE.INTRA.VDW>
0.182848

>  <SCORE.INTRA.VDW.0>
-1.08658

>  <SCORE.INTRA.norm>
-0.555092

>  <SCORE.RESTR>
0

>  <SCORE.RESTR.CAVITY>
0

>  <SCORE.RESTR.norm>
0

>  <SCORE.SYSTEM>
0

>  <SCORE.SYSTEM.CONST>
0

>  <SCORE.SYSTEM.DIHEDRAL>
0

>  <SCORE.SYSTEM.SOLV>
0

>  <SCORE.SYSTEM.norm>
0

>  <SCORE.heavy>
14

>  <SCORE.norm>
-0.367541

>  <RMSD>
4.510

$$$$
ligand
 OpenBabel11021811393D
libRbt.so/2013.1/901 2013/11/27
 14 13  0  0  0  0  0  0  0  0999 V2000
   44.6163   23.4682   39.0870 N   0  0  0  0  0  0  0  0  0  0  0  0
   43.6526   22.5182   38.5532 C   0  0  0  0  0  0  0  0  0  0  0  0
   42.3076   23.2332   38.2478 C   0  0  0  0  0  0  0  0  0  0  0  0
   41.1870   22.4106   37.5176 C   0  0  0  0  0  0  0  0  0  0  0  0
   39.9016   23.1562   37.2561 N   0  0  0  0  0  0  0  0  0  0  0  0
   38.9749   22.4509   36.3238 C   0  0  0  0  0  0  0  0  0  0  0  0
   38.4516   21.1293   36.8564 C   0  0  0  0  0  0  0  0  0  0  0  0
   37.4537   20.4762   35.9173 C   0  0  0  0  0  0  0  0  0  0  0  0
   37.1106   19.1542   36.4890 C   0  0  0  0  0  0  0  0  0  0  0  0
   38.2212   18.1732   36.5395 N   0  0  0  0  0  0  0  0  0  0  0  0
   38.1992   17.3101   37.7471 C   0  0  0  0  0  0  0  0  0  0  0  0
   39.3669   16.2868   37.8738 C   0  0  0  0  0  0  0  0  0  0  0  0
   40.6904   17.0709   37.9147 C   0  0  0  0  0  0  0  0  0  0  0  0
   40.9660   17.6851   36.6185 N   0  0  0  0  0  0  0  0  0  0  0  0
  1  2  1  0  0  0  0
  2  3  1  0  0  0  0
  3  4  1  0  0  0  0
  4  5  1  0  0  0  0
  5  6  1  0  0  0  0
  6  7  1  0  0  0  0
  7  8  1  0  0  0  0
  8  9  1  0  0  0  0
  9 10  1  0  0  0  0
 10 11  1  0  0  0  0
 11 12  1  0  0  0  0
 12 13  1  0  0  0  0
 13 14  1  0  0  0  0
M  END
>  <CHROM.1>
173.46563377,179.64813070,168.03089329,64.36618804,176.83946879,175.25847902
-65.53704923,143.41923331,-178.31343466,60.27585277,-69.09861540,40.07819003
20.32297142,37.35297363,-0.84639414,0.38113893,3.05226081

>  <Name>
ligand

>  <RI>
0

>  <Rbt.Current_Directory>
/home/itssahil/PROJECTS/Mol_Feturizer/New_Systems/rnas/1EVV

>  <Rbt.Executable>
rbdock ($Id: //depot/dev/client3/rdock/2013.1/src/exe/rbdock.cxx#4 $)

>  <Rbt.Library>
libRbt.so (2013.1, Build901 2013/11/27)

>  <Rbt.Parameter_File>
/export/apps/rDock/src/rDock_2013.1_src/data/scripts/dock_solv.prm

>  <Rbt.Receptor>
prm/pocket_docking_4.prm

>  <SCORE>
-4.54994

>  <SCORE.INTER>
3.19568

>  <SCORE.INTER.CONST>
1

>  <SCORE.INTER.POLAR>
0

>  <SCORE.INTER.ROT>
11

>  <SCORE.INTER.SOLV>
5.23856

>  <SCORE.INTER.VDW>
-10.5491

>  <SCORE.INTER.norm>
0.228263

>  <SCORE.INTRA>
-7.74562

>  <SCORE.INTRA.DIHEDRAL>
-18.5637

>  <SCORE.INTRA.DIHEDRAL.0>
20.2131

>  <SCORE.INTRA.POLAR>
0

>  <SCORE.INTRA.POLAR.0>
0

>  <SCORE.INTRA.REPUL>
0

>  <SCORE.INTRA.REPUL.0>
0

>  <SCORE.INTRA.SOLV>
2.41032

>  <SCORE.INTRA.SOLV.lig_0>
-48.2851

>  <SCORE.INTRA.VDW>
0.331092

>  <SCORE.INTRA.VDW.0>
-1.08658

>  <SCORE.INTRA.norm>
-0.553258

>  <SCORE.RESTR>
0

>  <SCORE.RESTR.CAVITY>
0

>  <SCORE.RESTR.norm>
0

>  <SCORE.SYSTEM>
0

>  <SCORE.SYSTEM.CONST>
0

>  <SCORE.SYSTEM.DIHEDRAL>
0

>  <SCORE.SYSTEM.SOLV>
0

>  <SCORE.SYSTEM.norm>
0

>  <SCORE.heavy>
14

>  <SCORE.norm>
-0.324996

>  <RMSD>
4.514

$$$$
ligand
 OpenBabel11021811393D
libRbt.so/2013.1/901 2013/11/27
 14 13  0  0  0  0  0  0  0  0999 V2000
   38.6030   16.9589   36.2999 N   0  0  0  0  0  0  0  0  0  0  0  0
   37.2246   17.4180   36.3731 C   0  0  0  0  0  0  0  0  0  0  0  0
   37.1823   18.9588   36.5676 C   0  0  0  0  0  0  0  0  0  0  0  0
   37.6922   19.8628   35.3894 C   0  0  0  0  0  0  0  0  0  0  0  0
   37.7231   21.3440   35.6751 N   0  0  0  0  0  0  0  0  0  0  0  0
   38.6250   21.7216   36.8018 C   0  0  0  0  0  0  0  0  0  0  0  0
   38.3004   23.0654   37.4284 C   0  0  0  0  0  0  0  0  0  0  0  0
   39.0940   23.3247   38.6961 C   0  0  0  0  0  0  0  0  0  0  0  0
   40.4796   23.6518   38.2895 C   0  0  0  0  0  0  0  0  0  0  0  0
   40.7151   25.0641   37.9045 N   0  0  0  0  0  0  0  0  0  0  0  0
   41.8191   25.7106   38.6574 C   0  0  0  0  0  0  0  0  0  0  0  0
   41.6465   25.7665   40.2045 C   0  0  0  0  0  0  0  0  0  0  0  0
   42.8592   26.5060   40.7967 C   0  0  0  0  0  0  0  0  0  0  0  0
   44.0891   25.7566   40.5535 N   0  0  0  0  0  0  0  0  0  0  0  0
  1  2  1  0  0  0  0
  2  3  1  0  0  0  0
  3  4  1  0  0  0  0
  4  5  1  0  0  0  0
  5  6  1  0  0  0  0
  6  7  1  0  0  0  0
  7  8  1  0  0  0  0
  8  9  1  0  0  0  0
  9 10  1  0  0  0  0
 10 11  1  0  0  0  0
 11 12  1  0  0  0  0
 12 13  1  0  0  0  0
 13 14  1  0  0  0  0
M  END
>  <CHROM.1>
66.90099280,-175.62514869,61.17500085,-158.70593929,171.33802595,74.71772332
83.38958227,125.50880139,-59.62363949,-178.21322270,-64.17540220,39.71784732
22.50793073,37.83134641,-2.25219248,-0.63621422,0.03517473

>  <Name>
ligand

>  <RI>
0

>  <Rbt.Current_Directory>
/home/itssahil/PROJECTS/Mol_Feturizer/New_Systems/rnas/1EVV

>  <Rbt.Executable>
rbdock ($Id: //depot/dev/client3/rdock/2013.1/src/exe/rbdock.cxx#4 $)

>  <Rbt.Library>
libRbt.so (2013.1, Build901 2013/11/27)

>  <Rbt.Parameter_File>
/export/apps/rDock/src/rDock_2013.1_src/data/scripts/dock_solv.prm

>  <Rbt.Receptor>
prm/pocket_docking_7.prm

>  <SCORE>
-6.74296

>  <SCORE.INTER>
-0.904895

>  <SCORE.INTER.CONST>
1

>  <SCORE.INTER.POLAR>
0

>  <SCORE.INTER.ROT>
11

>  <SCORE.INTER.SOLV>
5.03427

>  <SCORE.INTER.VDW>
-13.2147

>  <SCORE.INTER.norm>
-0.0646353

>  <SCORE.INTRA>
-5.83806

>  <SCORE.INTRA.DIHEDRAL>
-15.4055

>  <SCORE.INTRA.DIHEDRAL.0>
20.2131

>  <SCORE.INTRA.POLAR>
0

>  <SCORE.INTRA.POLAR.0>
0

>  <SCORE.INTRA.REPUL>
0

>  <SCORE.INTRA.REPUL.0>
0

>  <SCORE.INTRA.SOLV>
0.54864

>  <SCORE.INTRA.SOLV.lig_0>
-48.2851

>  <SCORE.INTRA.VDW>
1.59037

>  <SCORE.INTRA.VDW.0>
-1.08658

>  <SCORE.INTRA.norm>
-0.417005

>  <SCORE.RESTR>
0

>  <SCORE.RESTR.CAVITY>
0

>  <SCORE.RESTR.norm>
0

>  <SCORE.SYSTEM>
0

>  <SCORE.SYSTEM.CONST>
0

>  <SCORE.SYSTEM.DIHEDRAL>
0

>  <SCORE.SYSTEM.SOLV>
0

>  <SCORE.SYSTEM.norm>
0

>  <SCORE.heavy>
14

>  <SCORE.norm>
-0.48164

>  <RMSD>
4.515

$$$$
ligand
 OpenBabel11021811393D
libRbt.so/2013.1/901 2013/11/27
 14 13  0  0  0  0  0  0  0  0999 V2000
   42.7762   25.5543   39.8536 N   0  0  0  0  0  0  0  0  0  0  0  0
   41.4010   25.0919   39.7481 C   0  0  0  0  0  0  0  0  0  0  0  0
   41.2447   24.1492   38.5231 C   0  0  0  0  0  0  0  0  0  0  0  0
   39.8248   23.5420   38.2392 C   0  0  0  0  0  0  0  0  0  0  0  0
   39.7318   22.6505   37.0255 N   0  0  0  0  0  0  0  0  0  0  0  0
   38.3776   22.0620   36.8126 C   0  0  0  0  0  0  0  0  0  0  0  0
   38.3828   20.5569   36.6155 C   0  0  0  0  0  0  0  0  0  0  0  0
   36.9860   19.9850   36.4545 C   0  0  0  0  0  0  0  0  0  0  0  0
   37.1056   18.5100   36.5012 C   0  0  0  0  0  0  0  0  0  0  0  0
   37.9267   17.9021   35.4266 N   0  0  0  0  0  0  0  0  0  0  0  0
   37.9790   16.4197   35.4833 C   0  0  0  0  0  0  0  0  0  0  0  0
   39.1220   15.7472   34.6660 C   0  0  0  0  0  0  0  0  0  0  0  0
   38.9103   16.0818   33.1790 C   0  0  0  0  0  0  0  0  0  0  0  0
   40.0356   15.6062   32.3783 N   0  0  0  0  0  0  0  0  0  0  0  0
  1  2  1  0  0  0  0
  2  3  1  0  0  0  0
  3  4  1  0  0  0  0
  4  5  1  0  0  0  0
  5  6  1  0  0  0  0
  6  7  1  0  0  0  0
  7  8  1  0  0  0  0
  8  9  1  0  0  0  0
  9 10  1  0  0  0  0
 10 11  1  0  0  0  0
 11 12  1  0  0  0  0
 12 13  1  0  0  0  0
 13 14  1  0  0  0  0
M  END
>  <CHROM.1>
179.95127214,179.17030228,178.31635736,-128.99293472,177.81857631,-170.62269817
-61.86379734,-177.90748745,-163.07699106,-62.44823086,173.53935610,39.27137844
20.27556926,36.49344998,-1.30470682,-0.19044606,-2.56026238

>  <Name>
ligand

>  <RI>
0

>  <Rbt.Current_Directory>
/home/itssahil/PROJECTS/Mol_Feturizer/New_Systems/rnas/1EVV

>  <Rbt.Executable>
rbdock ($Id: //depot/dev/client3/rdock/2013.1/src/exe/rbdock.cxx#4 $)

>  <Rbt.Library>
libRbt.so (2013.1, Build901 2013/11/27)

>  <Rbt.Parameter_File>
/export/apps/rDock/src/rDock_2013.1_src/data/scripts/dock_solv.prm

>  <Rbt.Receptor>
prm/pocket_docking_7.prm

>  <SCORE>
-8.16281

>  <SCORE.INTER>
1.3093

>  <SCORE.INTER.CONST>
1

>  <SCORE.INTER.POLAR>
0

>  <SCORE.INTER.ROT>
11

>  <SCORE.INTER.SOLV>
7.17318

>  <SCORE.INTER.VDW>
-12.4515

>  <SCORE.INTER.norm>
0.0935213

>  <SCORE.INTRA>
-9.47211

>  <SCORE.INTRA.DIHEDRAL>
-18.2777

>  <SCORE.INTRA.DIHEDRAL.0>
20.2131

>  <SCORE.INTRA.POLAR>
0

>  <SCORE.INTRA.POLAR.0>
0

>  <SCORE.INTRA.REPUL>
0

>  <SCORE.INTRA.REPUL.0>
0

>  <SCORE.INTRA.SOLV>
-0.655019

>  <SCORE.INTRA.SOLV.lig_0>
-48.2851

>  <SCORE.INTRA.VDW>
-0.0057553

>  <SCORE.INTRA.VDW.0>
-1.08658

>  <SCORE.INTRA.norm>
-0.676579

>  <SCORE.RESTR>
0

>  <SCORE.RESTR.CAVITY>
0

>  <SCORE.RESTR.norm>
0

>  <SCORE.SYSTEM>
0

>  <SCORE.SYSTEM.CONST>
0

>  <SCORE.SYSTEM.DIHEDRAL>
0

>  <SCORE.SYSTEM.SOLV>
0

>  <SCORE.SYSTEM.norm>
0

>  <SCORE.heavy>
14

>  <SCORE.norm>
-0.583058

>  <RMSD>
4.530

$$$$
ligand
 OpenBabel11021811393D
libRbt.so/2013.1/901 2013/11/27
 14 13  0  0  0  0  0  0  0  0999 V2000
   38.8076   15.7697   36.9174 N   0  0  0  0  0  0  0  0  0  0  0  0
   37.4035   16.1490   36.9455 C   0  0  0  0  0  0  0  0  0  0  0  0
   37.2112   17.5426   36.2861 C   0  0  0  0  0  0  0  0  0  0  0  0
   37.9458   18.7699   36.9338 C   0  0  0  0  0  0  0  0  0  0  0  0
   37.7351   20.0923   36.2385 N   0  0  0  0  0  0  0  0  0  0  0  0
   38.9598   20.9419   36.1757 C   0  0  0  0  0  0  0  0  0  0  0  0
   39.0312   22.0025   37.2592 C   0  0  0  0  0  0  0  0  0  0  0  0
   40.3456   22.7618   37.2462 C   0  0  0  0  0  0  0  0  0  0  0  0
   40.3166   23.7124   38.3810 C   0  0  0  0  0  0  0  0  0  0  0  0
   41.5342   24.5413   38.5501 N   0  0  0  0  0  0  0  0  0  0  0  0
   41.6321   25.1914   39.8811 C   0  0  0  0  0  0  0  0  0  0  0  0
   42.7891   24.6941   40.7981 C   0  0  0  0  0  0  0  0  0  0  0  0
   44.1246   25.0852   40.1411 C   0  0  0  0  0  0  0  0  0  0  0  0
   44.2555   26.5380   40.0647 N   0  0  0  0  0  0  0  0  0  0  0  0
  1  2  1  0  0  0  0
  2  3  1  0  0  0  0
  3  4  1  0  0  0  0
  4  5  1  0  0  0  0
  5  6  1  0  0  0  0
  6  7  1  0  0  0  0
  7  8  1  0  0  0  0
  8  9  1  0  0  0  0
  9 10  1  0  0  0  0
 10 11  1  0  0  0  0
 11 12  1  0  0  0  0
 12 13  1  0  0  0  0
 13 14  1  0  0  0  0
M  END
>  <CHROM.1>
-61.05282587,179.23298040,-140.59983191,-97.75153189,174.65010672,-177.30238030
179.13651261,-163.89391150,113.10437906,65.77532911,63.83941131,40.14925127
21.69943596,37.98705340,-2.29861724,-0.67876661,-0.11578916

>  <Name>
ligand

>  <RI>
0

>  <Rbt.Current_Directory>
/home/itssahil/PROJECTS/Mol_Feturizer/New_Systems/rnas/1EVV

>  <Rbt.Executable>
rbdock ($Id: //depot/dev/client3/rdock/2013.1/src/exe/rbdock.cxx#4 $)

>  <Rbt.Library>
libRbt.so (2013.1, Build901 2013/11/27)

>  <Rbt.Parameter_File>
/export/apps/rDock/src/rDock_2013.1_src/data/scripts/dock_solv.prm

>  <Rbt.Receptor>
prm/pocket_docking_6.prm

>  <SCORE>
-7.31087

>  <SCORE.INTER>
0.534802

>  <SCORE.INTER.CONST>
1

>  <SCORE.INTER.POLAR>
0

>  <SCORE.INTER.ROT>
11

>  <SCORE.INTER.SOLV>
3.8175

>  <SCORE.INTER.VDW>
-11.8493

>  <SCORE.INTER.norm>
0.0382001

>  <SCORE.INTRA>
-7.84567

>  <SCORE.INTRA.DIHEDRAL>
-16.8023

>  <SCORE.INTRA.DIHEDRAL.0>
20.2131

>  <SCORE.INTRA.POLAR>
0

>  <SCORE.INTRA.POLAR.0>
0

>  <SCORE.INTRA.REPUL>
0

>  <SCORE.INTRA.REPUL.0>
0

>  <SCORE.INTRA.SOLV>
1.01007

>  <SCORE.INTRA.SOLV.lig_0>
-48.2851

>  <SCORE.INTRA.VDW>
0.0504372

>  <SCORE.INTRA.VDW.0>
-1.08658

>  <SCORE.INTRA.norm>
-0.560405

>  <SCORE.RESTR>
0

>  <SCORE.RESTR.CAVITY>
0

>  <SCORE.RESTR.norm>
0

>  <SCORE.SYSTEM>
0

>  <SCORE.SYSTEM.CONST>
0

>  <SCORE.SYSTEM.DIHEDRAL>
0

>  <SCORE.SYSTEM.SOLV>
0

>  <SCORE.SYSTEM.norm>
0

>  <SCORE.heavy>
14

>  <SCORE.norm>
-0.522205

>  <RMSD>
4.544

$$$$
ligand
 OpenBabel11021811393D
libRbt.so/2013.1/901 2013/11/27
 14 13  0  0  0  0  0  0  0  0999 V2000
   39.0070   25.7717   36.4929 N   0  0  0  0  0  0  0  0  0  0  0  0
   38.2315   24.5537   36.3164 C   0  0  0  0  0  0  0  0  0  0  0  0
   38.0305   23.8430   37.6832 C   0  0  0  0  0  0  0  0  0  0  0  0
   39.3041   23.2984   38.4227 C   0  0  0  0  0  0  0  0  0  0  0  0
   40.1332   22.3085   37.6423 N   0  0  0  0  0  0  0  0  0  0  0  0
   39.3605   21.1314   37.1494 C   0  0  0  0  0  0  0  0  0  0  0  0
   40.1497   19.8348   37.1408 C   0  0  0  0  0  0  0  0  0  0  0  0
   41.3828   19.9085   36.2587 C   0  0  0  0  0  0  0  0  0  0  0  0
   41.8735   18.5242   36.0707 C   0  0  0  0  0  0  0  0  0  0  0  0
   40.9011   17.5784   35.4722 N   0  0  0  0  0  0  0  0  0  0  0  0
   41.5099   16.2988   35.0297 C   0  0  0  0  0  0  0  0  0  0  0  0
   40.5350   15.2676   34.3871 C   0  0  0  0  0  0  0  0  0  0  0  0
   39.9841   15.8744   33.0846 C   0  0  0  0  0  0  0  0  0  0  0  0
   39.0830   16.9867   33.3749 N   0  0  0  0  0  0  0  0  0  0  0  0
  1  2  1  0  0  0  0
  2  3  1  0  0  0  0
  3  4  1  0  0  0  0
  4  5  1  0  0  0  0
  5  6  1  0  0  0  0
  6  7  1  0  0  0  0
  7  8  1  0  0  0  0
  8  9  1  0  0  0  0
  9 10  1  0  0  0  0
 10 11  1  0  0  0  0
 11 12  1  0  0  0  0
 12 13  1  0  0  0  0
 13 14  1  0  0  0  0
M  END
>  <CHROM.1>
-64.21545158,-57.63108488,-54.84590936,-145.02585758,-59.88234919,-166.55761626
57.95216547,167.40713679,-179.76388144,64.28918314,-69.57654618,39.96336073
20.08405422,36.03766481,1.86071802,-0.78526447,0.56927621

>  <Name>
ligand

>  <RI>
0

>  <Rbt.Current_Directory>
/home/itssahil/PROJECTS/Mol_Feturizer/New_Systems/rnas/1EVV

>  <Rbt.Executable>
rbdock ($Id: //depot/dev/client3/rdock/2013.1/src/exe/rbdock.cxx#4 $)

>  <Rbt.Library>
libRbt.so (2013.1, Build901 2013/11/27)

>  <Rbt.Parameter_File>
/export/apps/rDock/src/rDock_2013.1_src/data/scripts/dock_solv.prm

>  <Rbt.Receptor>
prm/pocket_docking_5.prm

>  <SCORE>
-4.21261

>  <SCORE.INTER>
2.26377

>  <SCORE.INTER.CONST>
1

>  <SCORE.INTER.POLAR>
0

>  <SCORE.INTER.ROT>
11

>  <SCORE.INTER.SOLV>
5.38307

>  <SCORE.INTER.VDW>
-11.2185

>  <SCORE.INTER.norm>
0.161698

>  <SCORE.INTRA>
-6.47744

>  <SCORE.INTRA.DIHEDRAL>
-18.0708

>  <SCORE.INTRA.DIHEDRAL.0>
20.2131

>  <SCORE.INTRA.POLAR>
0

>  <SCORE.INTRA.POLAR.0>
0

>  <SCORE.INTRA.REPUL>
0

>  <SCORE.INTRA.REPUL.0>
0

>  <SCORE.INTRA.SOLV>
3.94894

>  <SCORE.INTRA.SOLV.lig_0>
-48.2851

>  <SCORE.INTRA.VDW>
0.58349

>  <SCORE.INTRA.VDW.0>
-1.08658

>  <SCORE.INTRA.norm>
-0.462674

>  <SCORE.RESTR>
0.0010566

>  <SCORE.RESTR.CAVITY>
0.0010566

>  <SCORE.RESTR.norm>
7.54717e-05

>  <SCORE.SYSTEM>
0

>  <SCORE.SYSTEM.CONST>
0

>  <SCORE.SYSTEM.DIHEDRAL>
0

>  <SCORE.SYSTEM.SOLV>
0

>  <SCORE.SYSTEM.norm>
0

>  <SCORE.heavy>
14

>  <SCORE.norm>
-0.300901

>  <RMSD>
4.553

$$$$
ligand
 OpenBabel11021811393D
libRbt.so/2013.1/901 2013/11/27
 14 13  0  0  0  0  0  0  0  0999 V2000
   37.7201   23.9377   32.8357 N   0  0  0  0  0  0  0  0  0  0  0  0
   37.3886   24.3103   34.2022 C   0  0  0  0  0  0  0  0  0  0  0  0
   38.6855   24.5802   35.0140 C   0  0  0  0  0  0  0  0  0  0  0  0
   38.5357   25.0184   36.5143 C   0  0  0  0  0  0  0  0  0  0  0  0
   37.8705   24.0119   37.4204 N   0  0  0  0  0  0  0  0  0  0  0  0
   38.8185   23.0431   38.0435 C   0  0  0  0  0  0  0  0  0  0  0  0
   39.2745   21.9377   37.1085 C   0  0  0  0  0  0  0  0  0  0  0  0
   38.1198   21.1023   36.5862 C   0  0  0  0  0  0  0  0  0  0  0  0
   38.6952   20.0453   35.7237 C   0  0  0  0  0  0  0  0  0  0  0  0
   37.7122   19.1369   35.0858 N   0  0  0  0  0  0  0  0  0  0  0  0
   38.3352   18.0452   34.2960 C   0  0  0  0  0  0  0  0  0  0  0  0
   37.5043   17.5199   33.0875 C   0  0  0  0  0  0  0  0  0  0  0  0
   37.3480   18.6692   32.0762 C   0  0  0  0  0  0  0  0  0  0  0  0
   36.5582   18.2391   30.9252 N   0  0  0  0  0  0  0  0  0  0  0  0
  1  2  1  0  0  0  0
  2  3  1  0  0  0  0
  3  4  1  0  0  0  0
  4  5  1  0  0  0  0
  5  6  1  0  0  0  0
  6  7  1  0  0  0  0
  7  8  1  0  0  0  0
  8  9  1  0  0  0  0
  9 10  1  0  0  0  0
 10 11  1  0  0  0  0
 11 12  1  0  0  0  0
 12 13  1  0  0  0  0
 13 14  1  0  0  0  0
M  END
>  <CHROM.1>
179.11818174,62.26838678,88.86923401,-77.50970275,-59.67418887,-178.46319292
-178.54153950,-176.57543938,-150.72048071,63.70166451,-179.20943295,38.04068481
21.39983107,34.92314496,1.02959713,-1.28930822,0.04255542

>  <Name>
ligand

>  <RI>
0

>  <Rbt.Current_Directory>
/home/itssahil/PROJECTS/Mol_Feturizer/New_Systems/rnas/1EVV

>  <Rbt.Executable>
rbdock ($Id: //depot/dev/client3/rdock/2013.1/src/exe/rbdock.cxx#4 $)

>  <Rbt.Library>
libRbt.so (2013.1, Build901 2013/11/27)

>  <Rbt.Parameter_File>
/export/apps/rDock/src/rDock_2013.1_src/data/scripts/dock_solv.prm

>  <Rbt.Receptor>
prm/pocket_docking_5.prm

>  <SCORE>
-4.7247

>  <SCORE.INTER>
5.17211

>  <SCORE.INTER.CONST>
1

>  <SCORE.INTER.POLAR>
0

>  <SCORE.INTER.ROT>
11

>  <SCORE.INTER.SOLV>
6.27338

>  <SCORE.INTER.VDW>
-9.57639

>  <SCORE.INTER.norm>
0.369436

>  <SCORE.INTRA>
-9.89681

>  <SCORE.INTRA.DIHEDRAL>
-18.7319

>  <SCORE.INTRA.DIHEDRAL.0>
20.2131

>  <SCORE.INTRA.POLAR>
0

>  <SCORE.INTRA.POLAR.0>
0

>  <SCORE.INTRA.REPUL>
0

>  <SCORE.INTRA.REPUL.0>
0

>  <SCORE.INTRA.SOLV>
-0.382471

>  <SCORE.INTRA.SOLV.lig_0>
-48.2851

>  <SCORE.INTRA.VDW>
-0.339629

>  <SCORE.INTRA.VDW.0>
-1.08658

>  <SCORE.INTRA.norm>
-0.706915

>  <SCORE.RESTR>
0

>  <SCORE.RESTR.CAVITY>
0

>  <SCORE.RESTR.norm>
0

>  <SCORE.SYSTEM>
0

>  <SCORE.SYSTEM.CONST>
0

>  <SCORE.SYSTEM.DIHEDRAL>
0

>  <SCORE.SYSTEM.SOLV>
0

>  <SCORE.SYSTEM.norm>
0

>  <SCORE.heavy>
14

>  <SCORE.norm>
-0.337479

>  <RMSD>
4.555

$$$$
ligand
 OpenBabel11021811393D
libRbt.so/2013.1/901 2013/11/27
 14 13  0  0  0  0  0  0  0  0999 V2000
   42.3437   23.5974   37.7263 N   0  0  0  0  0  0  0  0  0  0  0  0
   41.9441   22.2020   37.8228 C   0  0  0  0  0  0  0  0  0  0  0  0
   40.4065   22.0708   37.6432 C   0  0  0  0  0  0  0  0  0  0  0  0
   39.7879   22.5013   36.2658 C   0  0  0  0  0  0  0  0  0  0  0  0
   38.2864   22.3904   36.1664 N   0  0  0  0  0  0  0  0  0  0  0  0
   37.8112   21.0627   35.6796 C   0  0  0  0  0  0  0  0  0  0  0  0
   38.0537   19.9250   36.6548 C   0  0  0  0  0  0  0  0  0  0  0  0
   37.5959   18.5836   36.1113 C   0  0  0  0  0  0  0  0  0  0  0  0
   38.0574   17.5436   37.0588 C   0  0  0  0  0  0  0  0  0  0  0  0
   39.5271   17.4371   37.2231 N   0  0  0  0  0  0  0  0  0  0  0  0
   40.2061   16.7643   36.0873 C   0  0  0  0  0  0  0  0  0  0  0  0
   41.7339   17.0360   35.9502 C   0  0  0  0  0  0  0  0  0  0  0  0
   41.9315   18.5350   35.6640 C   0  0  0  0  0  0  0  0  0  0  0  0
   43.3456   18.8391   35.4612 N   0  0  0  0  0  0  0  0  0  0  0  0
  1  2  1  0  0  0  0
  2  3  1  0  0  0  0
  3  4  1  0  0  0  0
  4  5  1  0  0  0  0
  5  6  1  0  0  0  0
  6  7  1  0  0  0  0
  7  8  1  0  0  0  0
  8  9  1  0  0  0  0
  9 10  1  0  0  0  0
 10 11  1  0  0  0  0
 11 12  1  0  0  0  0
 12 13  1  0  0  0  0
 13 14  1  0  0  0  0
M  END
>  <CHROM.1>
63.15659158,-178.22794955,-89.59831442,68.19930726,-178.30104012,172.07398506
-62.10569464,-75.90897364,160.06568060,-63.83335322,-177.27294557,40.07331464
19.89174255,36.53672537,-1.42144688,0.01875691,-2.98777556

>  <Name>
ligand

>  <RI>
0

>  <Rbt.Current_Directory>
/home/itssahil/PROJECTS/Mol_Feturizer/New_Systems/rnas/1EVV

>  <Rbt.Executable>
rbdock ($Id: //depot/dev/client3/rdock/2013.1/src/exe/rbdock.cxx#4 $)

>  <Rbt.Library>
libRbt.so (2013.1, Build901 2013/11/27)

>  <Rbt.Parameter_File>
/export/apps/rDock/src/rDock_2013.1_src/data/scripts/dock_solv.prm

>  <Rbt.Receptor>
prm/pocket_docking_3.prm

>  <SCORE>
-4.14251

>  <SCORE.INTER>
4.90915

>  <SCORE.INTER.CONST>
1

>  <SCORE.INTER.POLAR>
0

>  <SCORE.INTER.ROT>
11

>  <SCORE.INTER.SOLV>
4.45446

>  <SCORE.INTER.VDW>
-9.14539

>  <SCORE.INTER.norm>
0.350653

>  <SCORE.INTRA>
-9.05165

>  <SCORE.INTRA.DIHEDRAL>
-18.6563

>  <SCORE.INTRA.DIHEDRAL.0>
20.2131

>  <SCORE.INTRA.POLAR>
0

>  <SCORE.INTRA.POLAR.0>
0

>  <SCORE.INTRA.REPUL>
0

>  <SCORE.INTRA.REPUL.0>
0

>  <SCORE.INTRA.SOLV>
0.305886

>  <SCORE.INTRA.SOLV.lig_0>
-48.2851

>  <SCORE.INTRA.VDW>
0.123549

>  <SCORE.INTRA.VDW.0>
-1.08658

>  <SCORE.INTRA.norm>
-0.646547

>  <SCORE.RESTR>
0

>  <SCORE.RESTR.CAVITY>
0

>  <SCORE.RESTR.norm>
0

>  <SCORE.SYSTEM>
0

>  <SCORE.SYSTEM.CONST>
0

>  <SCORE.SYSTEM.DIHEDRAL>
0

>  <SCORE.SYSTEM.SOLV>
0

>  <SCORE.SYSTEM.norm>
0

>  <SCORE.heavy>
14

>  <SCORE.norm>
-0.295893

>  <RMSD>
4.565

$$$$
ligand
 OpenBabel11021811393D
libRbt.so/2013.1/901 2013/11/27
 14 13  0  0  0  0  0  0  0  0999 V2000
   43.2875   23.3454   37.8211 N   0  0  0  0  0  0  0  0  0  0  0  0
   42.1244   22.4990   38.0380 C   0  0  0  0  0  0  0  0  0  0  0  0
   40.8202   23.3063   37.7907 C   0  0  0  0  0  0  0  0  0  0  0  0
   39.4511   22.5483   37.9190 C   0  0  0  0  0  0  0  0  0  0  0  0
   39.2748   21.3677   36.9961 N   0  0  0  0  0  0  0  0  0  0  0  0
   37.8767   21.1885   36.5073 C   0  0  0  0  0  0  0  0  0  0  0  0
   37.6012   19.8188   35.9140 C   0  0  0  0  0  0  0  0  0  0  0  0
   37.7344   18.7035   36.9350 C   0  0  0  0  0  0  0  0  0  0  0  0
   37.5467   17.4229   36.2158 C   0  0  0  0  0  0  0  0  0  0  0  0
   38.5961   17.0889   35.2232 N   0  0  0  0  0  0  0  0  0  0  0  0
   39.2207   15.7599   35.4411 C   0  0  0  0  0  0  0  0  0  0  0  0
   40.4921   15.4581   34.5931 C   0  0  0  0  0  0  0  0  0  0  0  0
   41.6072   16.4197   35.0403 C   0  0  0  0  0  0  0  0  0  0  0  0
   41.3399   17.7751   34.5660 N   0  0  0  0  0  0  0  0  0  0  0  0
  1  2  1  0  0  0  0
  2  3  1  0  0  0  0
  3  4  1  0  0  0  0
  4  5  1  0  0  0  0
  5  6  1  0  0  0  0
  6  7  1  0  0  0  0
  7  8  1  0  0  0  0
  8  9  1  0  0  0  0
  9 10  1  0  0  0  0
 10 11  1  0  0  0  0
 11 12  1  0  0  0  0
 12 13  1  0  0  0  0
 13 14  1  0  0  0  0
M  END
>  <CHROM.1>
177.59642356,-58.89182300,-144.77353160,-163.69149719,63.93922942,-175.71944385
65.98248727,125.22843412,-169.64006761,65.94890358,-72.81962620,39.78343899
19.47856135,36.35727454,-1.34748170,-0.06351294,-2.74473686

>  <Name>
ligand

>  <RI>
0

>  <Rbt.Current_Directory>
/home/itssahil/PROJECTS/Mol_Feturizer/New_Systems/rnas/1EVV

>  <Rbt.Executable>
rbdock ($Id: //depot/dev/client3/rdock/2013.1/src/exe/rbdock.cxx#4 $)

>  <Rbt.Library>
libRbt.so (2013.1, Build901 2013/11/27)

>  <Rbt.Parameter_File>
/export/apps/rDock/src/rDock_2013.1_src/data/scripts/dock_solv.prm

>  <Rbt.Receptor>
prm/pocket_docking_6.prm

>  <SCORE>
-5.70054

>  <SCORE.INTER>
1.63054

>  <SCORE.INTER.CONST>
1

>  <SCORE.INTER.POLAR>
0

>  <SCORE.INTER.ROT>
11

>  <SCORE.INTER.SOLV>
3.9535

>  <SCORE.INTER.VDW>
-11.1641

>  <SCORE.INTER.norm>
0.116467

>  <SCORE.INTRA>
-7.33108

>  <SCORE.INTRA.DIHEDRAL>
-16.954

>  <SCORE.INTRA.DIHEDRAL.0>
20.2131

>  <SCORE.INTRA.POLAR>
0

>  <SCORE.INTRA.POLAR.0>
0

>  <SCORE.INTRA.REPUL>
0

>  <SCORE.INTRA.REPUL.0>
0

>  <SCORE.INTRA.SOLV>
2.89624

>  <SCORE.INTRA.SOLV.lig_0>
-48.2851

>  <SCORE.INTRA.VDW>
-0.302183

>  <SCORE.INTRA.VDW.0>
-1.08658

>  <SCORE.INTRA.norm>
-0.523648

>  <SCORE.RESTR>
0

>  <SCORE.RESTR.CAVITY>
0

>  <SCORE.RESTR.norm>
0

>  <SCORE.SYSTEM>
0

>  <SCORE.SYSTEM.CONST>
0

>  <SCORE.SYSTEM.DIHEDRAL>
0

>  <SCORE.SYSTEM.SOLV>
0

>  <SCORE.SYSTEM.norm>
0

>  <SCORE.heavy>
14

>  <SCORE.norm>
-0.407181

>  <RMSD>
4.574

$$$$
ligand
 OpenBabel11021811393D
libRbt.so/2013.1/901 2013/11/27
 14 13  0  0  0  0  0  0  0  0999 V2000
   39.9793   17.6432   32.7672 N   0  0  0  0  0  0  0  0  0  0  0  0
   39.3084   16.3866   33.0619 C   0  0  0  0  0  0  0  0  0  0  0  0
   40.2747   15.4246   33.8065 C   0  0  0  0  0  0  0  0  0  0  0  0
   40.8093   15.8651   35.2156 C   0  0  0  0  0  0  0  0  0  0  0  0
   39.7517   16.1000   36.2658 N   0  0  0  0  0  0  0  0  0  0  0  0
   40.3000   16.5009   37.5940 C   0  0  0  0  0  0  0  0  0  0  0  0
   40.8020   17.9324   37.6479 C   0  0  0  0  0  0  0  0  0  0  0  0
   39.7416   18.9380   37.2373 C   0  0  0  0  0  0  0  0  0  0  0  0
   40.3263   20.2880   37.4045 C   0  0  0  0  0  0  0  0  0  0  0  0
   39.4486   21.4165   37.0116 N   0  0  0  0  0  0  0  0  0  0  0  0
   39.3899   22.5044   38.0200 C   0  0  0  0  0  0  0  0  0  0  0  0
   38.4094   23.6730   37.7042 C   0  0  0  0  0  0  0  0  0  0  0  0
   38.8420   24.3172   36.3753 C   0  0  0  0  0  0  0  0  0  0  0  0
   37.9984   25.4675   36.0613 N   0  0  0  0  0  0  0  0  0  0  0  0
  1  2  1  0  0  0  0
  2  3  1  0  0  0  0
  3  4  1  0  0  0  0
  4  5  1  0  0  0  0
  5  6  1  0  0  0  0
  6  7  1  0  0  0  0
  7  8  1  0  0  0  0
  8  9  1  0  0  0  0
  9 10  1  0  0  0  0
 10 11  1  0  0  0  0
 11 12  1  0  0  0  0
 12 13  1  0  0  0  0
 13 14  1  0  0  0  0
M  END
>  <CHROM.1>
62.79730742,59.91683159,179.30681579,74.42227469,55.66665952,176.87430904
178.23516240,132.31413094,-176.08220970,-60.00005343,-177.04795724,39.67027251
19.46094786,36.15548657,0.90735240,1.27833566,-2.22455484

>  <Name>
ligand

>  <RI>
0

>  <Rbt.Current_Directory>
/home/itssahil/PROJECTS/Mol_Feturizer/New_Systems/rnas/1EVV

>  <Rbt.Executable>
rbdock ($Id: //depot/dev/client3/rdock/2013.1/src/exe/rbdock.cxx#4 $)

>  <Rbt.Library>
libRbt.so (2013.1, Build901 2013/11/27)

>  <Rbt.Parameter_File>
/export/apps/rDock/src/rDock_2013.1_src/data/scripts/dock_solv.prm

>  <Rbt.Receptor>
prm/pocket_docking_5.prm

>  <SCORE>
-6.3471

>  <SCORE.INTER>
2.57528

>  <SCORE.INTER.CONST>
1

>  <SCORE.INTER.POLAR>
0

>  <SCORE.INTER.ROT>
11

>  <SCORE.INTER.SOLV>
6.47365

>  <SCORE.INTER.VDW>
-11.3744

>  <SCORE.INTER.norm>
0.183949

>  <SCORE.INTRA>
-8.92238

>  <SCORE.INTRA.DIHEDRAL>
-18.7716

>  <SCORE.INTRA.DIHEDRAL.0>
20.2131

>  <SCORE.INTRA.POLAR>
0

>  <SCORE.INTRA.POLAR.0>
0

>  <SCORE.INTRA.REPUL>
0

>  <SCORE.INTRA.REPUL.0>
0

>  <SCORE.INTRA.SOLV>
0.921362

>  <SCORE.INTRA.SOLV.lig_0>
-48.2851

>  <SCORE.INTRA.VDW>
0.00275398

>  <SCORE.INTRA.VDW.0>
-1.08658

>  <SCORE.INTRA.norm>
-0.637313

>  <SCORE.RESTR>
0

>  <SCORE.RESTR.CAVITY>
0

>  <SCORE.RESTR.norm>
0

>  <SCORE.SYSTEM>
0

>  <SCORE.SYSTEM.CONST>
0

>  <SCORE.SYSTEM.DIHEDRAL>
0

>  <SCORE.SYSTEM.SOLV>
0

>  <SCORE.SYSTEM.norm>
0

>  <SCORE.heavy>
14

>  <SCORE.norm>
-0.453364

>  <RMSD>
4.575

$$$$
ligand
 OpenBabel11021811393D
libRbt.so/2013.1/901 2013/11/27
 14 13  0  0  0  0  0  0  0  0999 V2000
   37.3128   21.6884   33.6764 N   0  0  0  0  0  0  0  0  0  0  0  0
   37.7493   20.5386   34.4534 C   0  0  0  0  0  0  0  0  0  0  0  0
   36.8728   20.3885   35.7274 C   0  0  0  0  0  0  0  0  0  0  0  0
   37.2448   19.2528   36.7459 C   0  0  0  0  0  0  0  0  0  0  0  0
   37.2819   17.8566   36.1750 N   0  0  0  0  0  0  0  0  0  0  0  0
   37.8478   16.8391   37.1077 C   0  0  0  0  0  0  0  0  0  0  0  0
   39.3434   16.9707   37.3309 C   0  0  0  0  0  0  0  0  0  0  0  0
   40.1437   16.7606   36.0582 C   0  0  0  0  0  0  0  0  0  0  0  0
   41.5666   17.0043   36.3871 C   0  0  0  0  0  0  0  0  0  0  0  0
   42.5187   16.8392   35.2626 N   0  0  0  0  0  0  0  0  0  0  0  0
   42.8123   18.1025   34.5404 C   0  0  0  0  0  0  0  0  0  0  0  0
   44.2142   18.7280   34.8053 C   0  0  0  0  0  0  0  0  0  0  0  0
   44.3127   19.0694   36.3026 C   0  0  0  0  0  0  0  0  0  0  0  0
   45.5721   19.7491   36.5945 N   0  0  0  0  0  0  0  0  0  0  0  0
  1  2  1  0  0  0  0
  2  3  1  0  0  0  0
  3  4  1  0  0  0  0
  4  5  1  0  0  0  0
  5  6  1  0  0  0  0
  6  7  1  0  0  0  0
  7  8  1  0  0  0  0
  8  9  1  0  0  0  0
  9 10  1  0  0  0  0
 10 11  1  0  0  0  0
 11 12  1  0  0  0  0
 12 13  1  0  0  0  0
 13 14  1  0  0  0  0
M  END
>  <CHROM.1>
-176.30461912,-56.88763021,170.69734692,-70.72839963,-62.77047774,176.22944575
179.67380444,93.42543574,106.12797920,-61.45758373,-175.91515103,40.34224219
18.55608391,35.79782383,-3.01273414,-0.05104769,2.65452061

>  <Name>
ligand

>  <RI>
0

>  <Rbt.Current_Directory>
/home/itssahil/PROJECTS/Mol_Feturizer/New_Systems/rnas/1EVV

>  <Rbt.Executable>
rbdock ($Id: //depot/dev/client3/rdock/2013.1/src/exe/rbdock.cxx#4 $)

>  <Rbt.Library>
libRbt.so (2013.1, Build901 2013/11/27)

>  <Rbt.Parameter_File>
/export/apps/rDock/src/rDock_2013.1_src/data/scripts/dock_solv.prm

>  <Rbt.Receptor>
prm/pocket_docking_4.prm

>  <SCORE>
-5.45149

>  <SCORE.INTER>
3.63199

>  <SCORE.INTER.CONST>
1

>  <SCORE.INTER.POLAR>
0

>  <SCORE.INTER.ROT>
11

>  <SCORE.INTER.SOLV>
10.3738

>  <SCORE.INTER.VDW>
-11.9699

>  <SCORE.INTER.norm>
0.259428

>  <SCORE.INTRA>
-9.08348

>  <SCORE.INTRA.DIHEDRAL>
-18.0477

>  <SCORE.INTRA.DIHEDRAL.0>
20.2131

>  <SCORE.INTRA.POLAR>
0

>  <SCORE.INTRA.POLAR.0>
0

>  <SCORE.INTRA.REPUL>
0

>  <SCORE.INTRA.REPUL.0>
0

>  <SCORE.INTRA.SOLV>
-0.343287

>  <SCORE.INTRA.SOLV.lig_0>
-48.2851

>  <SCORE.INTRA.VDW>
0.112028

>  <SCORE.INTRA.VDW.0>
-1.08658

>  <SCORE.INTRA.norm>
-0.64882

>  <SCORE.RESTR>
0

>  <SCORE.RESTR.CAVITY>
0

>  <SCORE.RESTR.norm>
0

>  <SCORE.SYSTEM>
0

>  <SCORE.SYSTEM.CONST>
0

>  <SCORE.SYSTEM.DIHEDRAL>
0

>  <SCORE.SYSTEM.SOLV>
0

>  <SCORE.SYSTEM.norm>
0

>  <SCORE.heavy>
14

>  <SCORE.norm>
-0.389392

>  <RMSD>
4.576

$$$$
ligand
 OpenBabel11021811393D
libRbt.so/2013.1/901 2013/11/27
 14 13  0  0  0  0  0  0  0  0999 V2000
   39.6594   16.0379   36.1833 N   0  0  0  0  0  0  0  0  0  0  0  0
   39.7319   17.0642   37.2117 C   0  0  0  0  0  0  0  0  0  0  0  0
   38.3092   17.5934   37.5425 C   0  0  0  0  0  0  0  0  0  0  0  0
   37.5045   18.3041   36.3967 C   0  0  0  0  0  0  0  0  0  0  0  0
   38.1353   19.5579   35.8430 N   0  0  0  0  0  0  0  0  0  0  0  0
   37.7182   20.8044   36.5485 C   0  0  0  0  0  0  0  0  0  0  0  0
   38.8357   21.8161   36.7266 C   0  0  0  0  0  0  0  0  0  0  0  0
   38.4108   23.0145   37.5557 C   0  0  0  0  0  0  0  0  0  0  0  0
   39.5892   23.9016   37.6844 C   0  0  0  0  0  0  0  0  0  0  0  0
   40.7404   23.3300   38.4237 N   0  0  0  0  0  0  0  0  0  0  0  0
   41.7974   24.3231   38.7401 C   0  0  0  0  0  0  0  0  0  0  0  0
   41.5597   25.1879   40.0138 C   0  0  0  0  0  0  0  0  0  0  0  0
   42.7678   26.1243   40.1910 C   0  0  0  0  0  0  0  0  0  0  0  0
   43.9741   25.3579   40.4929 N   0  0  0  0  0  0  0  0  0  0  0  0
  1  2  1  0  0  0  0
  2  3  1  0  0  0  0
  3  4  1  0  0  0  0
  4  5  1  0  0  0  0
  5  6  1  0  0  0  0
  6  7  1  0  0  0  0
  7  8  1  0  0  0  0
  8  9  1  0  0  0  0
  9 10  1  0  0  0  0
 10 11  1  0  0  0  0
 11 12  1  0  0  0  0
 12 13  1  0  0  0  0
 13 14  1  0  0  0  0
M  END
>  <CHROM.1>
-62.44152711,-61.63521099,-90.19696757,141.53261593,-174.81368421,178.55821068
-64.02717962,-169.66700457,83.01804542,178.67724382,-66.21429753,39.90924864
21.60146252,37.82531941,-2.07043871,-0.51049199,0.13880873

>  <Name>
ligand

>  <RI>
0

>  <Rbt.Current_Directory>
/home/itssahil/PROJECTS/Mol_Feturizer/New_Systems/rnas/1EVV

>  <Rbt.Executable>
rbdock ($Id: //depot/dev/client3/rdock/2013.1/src/exe/rbdock.cxx#4 $)

>  <Rbt.Library>
libRbt.so (2013.1, Build901 2013/11/27)

>  <Rbt.Parameter_File>
/export/apps/rDock/src/rDock_2013.1_src/data/scripts/dock_solv.prm

>  <Rbt.Receptor>
prm/pocket_docking_7.prm

>  <SCORE>
-7.78452

>  <SCORE.INTER>
0.384238

>  <SCORE.INTER.CONST>
1

>  <SCORE.INTER.POLAR>
0

>  <SCORE.INTER.ROT>
11

>  <SCORE.INTER.SOLV>
4.71263

>  <SCORE.INTER.VDW>
-12.2481

>  <SCORE.INTER.norm>
0.0274456

>  <SCORE.INTRA>
-8.16876

>  <SCORE.INTRA.DIHEDRAL>
-17.9233

>  <SCORE.INTRA.DIHEDRAL.0>
20.2131

>  <SCORE.INTRA.POLAR>
0

>  <SCORE.INTRA.POLAR.0>
0

>  <SCORE.INTRA.REPUL>
0

>  <SCORE.INTRA.REPUL.0>
0

>  <SCORE.INTRA.SOLV>
1.31654

>  <SCORE.INTRA.SOLV.lig_0>
-48.2851

>  <SCORE.INTRA.VDW>
0.134627

>  <SCORE.INTRA.VDW.0>
-1.08658

>  <SCORE.INTRA.norm>
-0.583483

>  <SCORE.RESTR>
0

>  <SCORE.RESTR.CAVITY>
0

>  <SCORE.RESTR.norm>
0

>  <SCORE.SYSTEM>
0

>  <SCORE.SYSTEM.CONST>
0

>  <SCORE.SYSTEM.DIHEDRAL>
0

>  <SCORE.SYSTEM.SOLV>
0

>  <SCORE.SYSTEM.norm>
0

>  <SCORE.heavy>
14

>  <SCORE.norm>
-0.556037

>  <RMSD>
4.577

$$$$
ligand
 OpenBabel11021811393D
libRbt.so/2013.1/901 2013/11/27
 14 13  0  0  0  0  0  0  0  0999 V2000
   37.2966   18.1069   31.3789 N   0  0  0  0  0  0  0  0  0  0  0  0
   37.1528   17.2423   32.5398 C   0  0  0  0  0  0  0  0  0  0  0  0
   37.9943   15.9497   32.3532 C   0  0  0  0  0  0  0  0  0  0  0  0
   39.5582   16.0877   32.3294 C   0  0  0  0  0  0  0  0  0  0  0  0
   40.1842   16.5904   33.6069 N   0  0  0  0  0  0  0  0  0  0  0  0
   41.2875   17.5713   33.3920 C   0  0  0  0  0  0  0  0  0  0  0  0
   41.7367   18.2815   34.6560 C   0  0  0  0  0  0  0  0  0  0  0  0
   42.3059   17.3272   35.6902 C   0  0  0  0  0  0  0  0  0  0  0  0
   42.6140   18.1219   36.9008 C   0  0  0  0  0  0  0  0  0  0  0  0
   41.4740   18.3514   37.8206 N   0  0  0  0  0  0  0  0  0  0  0  0
   40.5091   19.3678   37.3313 C   0  0  0  0  0  0  0  0  0  0  0  0
   40.8112   20.8422   37.7334 C   0  0  0  0  0  0  0  0  0  0  0  0
   42.0647   21.3016   36.9679 C   0  0  0  0  0  0  0  0  0  0  0  0
   42.3533   22.7060   37.2470 N   0  0  0  0  0  0  0  0  0  0  0  0
  1  2  1  0  0  0  0
  2  3  1  0  0  0  0
  3  4  1  0  0  0  0
  4  5  1  0  0  0  0
  5  6  1  0  0  0  0
  6  7  1  0  0  0  0
  7  8  1  0  0  0  0
  8  9  1  0  0  0  0
  9 10  1  0  0  0  0
 10 11  1  0  0  0  0
 11 12  1  0  0  0  0
 12 13  1  0  0  0  0
 13 14  1  0  0  0  0
M  END
>  <CHROM.1>
66.97528307,63.55977546,-138.95834924,168.68273663,62.43122708,-176.03551724
83.93566321,-75.29470237,-88.75663435,69.63127747,176.75002604,40.52454485
18.41749313,34.99623843,2.23272371,0.65328664,-2.64288907

>  <Name>
ligand

>  <RI>
0

>  <Rbt.Current_Directory>
/home/itssahil/PROJECTS/Mol_Feturizer/New_Systems/rnas/1EVV

>  <Rbt.Executable>
rbdock ($Id: //depot/dev/client3/rdock/2013.1/src/exe/rbdock.cxx#4 $)

>  <Rbt.Library>
libRbt.so (2013.1, Build901 2013/11/27)

>  <Rbt.Parameter_File>
/export/apps/rDock/src/rDock_2013.1_src/data/scripts/dock_solv.prm

>  <Rbt.Receptor>
prm/pocket_docking_5.prm

>  <SCORE>
-2.3192

>  <SCORE.INTER>
4.61877

>  <SCORE.INTER.CONST>
1

>  <SCORE.INTER.POLAR>
0

>  <SCORE.INTER.ROT>
11

>  <SCORE.INTER.SOLV>
10.0814

>  <SCORE.INTER.VDW>
-11.2146

>  <SCORE.INTER.norm>
0.329912

>  <SCORE.INTRA>
-6.93797

>  <SCORE.INTRA.DIHEDRAL>
-15.8401

>  <SCORE.INTRA.DIHEDRAL.0>
20.2131

>  <SCORE.INTRA.POLAR>
0

>  <SCORE.INTRA.POLAR.0>
0

>  <SCORE.INTRA.REPUL>
0

>  <SCORE.INTRA.REPUL.0>
0

>  <SCORE.INTRA.SOLV>
1.23344

>  <SCORE.INTRA.SOLV.lig_0>
-48.2851

>  <SCORE.INTRA.VDW>
0.365356

>  <SCORE.INTRA.VDW.0>
-1.08658

>  <SCORE.INTRA.norm>
-0.495569

>  <SCORE.RESTR>
0

>  <SCORE.RESTR.CAVITY>
0

>  <SCORE.RESTR.norm>
0

>  <SCORE.SYSTEM>
0

>  <SCORE.SYSTEM.CONST>
0

>  <SCORE.SYSTEM.DIHEDRAL>
0

>  <SCORE.SYSTEM.SOLV>
0

>  <SCORE.SYSTEM.norm>
0

>  <SCORE.heavy>
14

>  <SCORE.norm>
-0.165657

>  <RMSD>
4.591

$$$$
ligand
 OpenBabel11021811393D
libRbt.so/2013.1/901 2013/11/27
 14 13  0  0  0  0  0  0  0  0999 V2000
   41.6299   22.9602   37.2917 N   0  0  0  0  0  0  0  0  0  0  0  0
   40.8172   23.7327   38.2185 C   0  0  0  0  0  0  0  0  0  0  0  0
   39.3924   23.9425   37.6358 C   0  0  0  0  0  0  0  0  0  0  0  0
   38.4774   22.6789   37.4585 C   0  0  0  0  0  0  0  0  0  0  0  0
   38.9938   21.6337   36.5007 N   0  0  0  0  0  0  0  0  0  0  0  0
   38.2754   20.3292   36.5878 C   0  0  0  0  0  0  0  0  0  0  0  0
   36.9141   20.3283   35.9162 C   0  0  0  0  0  0  0  0  0  0  0  0
   36.9931   20.6634   34.4378 C   0  0  0  0  0  0  0  0  0  0  0  0
   37.6694   19.5311   33.7648 C   0  0  0  0  0  0  0  0  0  0  0  0
   37.8324   19.6664   32.2973 N   0  0  0  0  0  0  0  0  0  0  0  0
   39.0262   20.4545   31.9008 C   0  0  0  0  0  0  0  0  0  0  0  0
   39.3968   20.4141   30.3883 C   0  0  0  0  0  0  0  0  0  0  0  0
   39.8344   18.9807   30.0391 C   0  0  0  0  0  0  0  0  0  0  0  0
   41.0835   18.6434   30.7170 N   0  0  0  0  0  0  0  0  0  0  0  0
  1  2  1  0  0  0  0
  2  3  1  0  0  0  0
  3  4  1  0  0  0  0
  4  5  1  0  0  0  0
  5  6  1  0  0  0  0
  6  7  1  0  0  0  0
  7  8  1  0  0  0  0
  8  9  1  0  0  0  0
  9 10  1  0  0  0  0
 10 11  1  0  0  0  0
 11 12  1  0  0  0  0
 12 13  1  0  0  0  0
 13 14  1  0  0  0  0
M  END
>  <CHROM.1>
66.15548544,-62.33041394,166.80354638,76.86500111,59.26737227,68.54161821
179.48012966,83.76034088,169.25129169,-66.43835516,-66.71596337,39.02365081
20.99719520,34.51114403,-1.53132286,-0.38493092,-2.04119603

>  <Name>
ligand

>  <RI>
0

>  <Rbt.Current_Directory>
/home/itssahil/PROJECTS/Mol_Feturizer/New_Systems/rnas/1EVV

>  <Rbt.Executable>
rbdock ($Id: //depot/dev/client3/rdock/2013.1/src/exe/rbdock.cxx#4 $)

>  <Rbt.Library>
libRbt.so (2013.1, Build901 2013/11/27)

>  <Rbt.Parameter_File>
/export/apps/rDock/src/rDock_2013.1_src/data/scripts/dock_solv.prm

>  <Rbt.Receptor>
prm/pocket_docking_5.prm

>  <SCORE>
-0.70376

>  <SCORE.INTER>
5.63221

>  <SCORE.INTER.CONST>
1

>  <SCORE.INTER.POLAR>
0

>  <SCORE.INTER.ROT>
11

>  <SCORE.INTER.SOLV>
3.6342

>  <SCORE.INTER.VDW>
-8.38993

>  <SCORE.INTER.norm>
0.4023

>  <SCORE.INTRA>
-6.33597

>  <SCORE.INTRA.DIHEDRAL>
-18.5655

>  <SCORE.INTRA.DIHEDRAL.0>
20.2131

>  <SCORE.INTRA.POLAR>
0

>  <SCORE.INTRA.POLAR.0>
0

>  <SCORE.INTRA.REPUL>
0

>  <SCORE.INTRA.REPUL.0>
0

>  <SCORE.INTRA.SOLV>
3.61904

>  <SCORE.INTRA.SOLV.lig_0>
-48.2851

>  <SCORE.INTRA.VDW>
1.13727

>  <SCORE.INTRA.VDW.0>
-1.08658

>  <SCORE.INTRA.norm>
-0.452569

>  <SCORE.RESTR>
0

>  <SCORE.RESTR.CAVITY>
0

>  <SCORE.RESTR.norm>
0

>  <SCORE.SYSTEM>
0

>  <SCORE.SYSTEM.CONST>
0

>  <SCORE.SYSTEM.DIHEDRAL>
0

>  <SCORE.SYSTEM.SOLV>
0

>  <SCORE.SYSTEM.norm>
0

>  <SCORE.heavy>
14

>  <SCORE.norm>
-0.0502685

>  <RMSD>
4.599

$$$$
ligand
 OpenBabel11021811393D
libRbt.so/2013.1/901 2013/11/27
 14 13  0  0  0  0  0  0  0  0999 V2000
   40.5564   16.8251   35.3469 N   0  0  0  0  0  0  0  0  0  0  0  0
   40.4069   15.9268   36.4813 C   0  0  0  0  0  0  0  0  0  0  0  0
   39.8637   16.7033   37.7123 C   0  0  0  0  0  0  0  0  0  0  0  0
   38.4136   17.2990   37.6242 C   0  0  0  0  0  0  0  0  0  0  0  0
   38.1844   18.2847   36.5051 N   0  0  0  0  0  0  0  0  0  0  0  0
   37.0526   19.2246   36.7523 C   0  0  0  0  0  0  0  0  0  0  0  0
   36.9281   20.3267   35.7160 C   0  0  0  0  0  0  0  0  0  0  0  0
   38.1784   21.1823   35.6216 C   0  0  0  0  0  0  0  0  0  0  0  0
   38.2809   21.9534   36.8814 C   0  0  0  0  0  0  0  0  0  0  0  0
   39.4825   22.8128   37.0074 N   0  0  0  0  0  0  0  0  0  0  0  0
   39.6272   23.4422   38.3441 C   0  0  0  0  0  0  0  0  0  0  0  0
   40.8902   24.3318   38.5445 C   0  0  0  0  0  0  0  0  0  0  0  0
   42.1353   23.4460   38.3628 C   0  0  0  0  0  0  0  0  0  0  0  0
   43.3554   24.2278   38.5467 N   0  0  0  0  0  0  0  0  0  0  0  0
  1  2  1  0  0  0  0
  2  3  1  0  0  0  0
  3  4  1  0  0  0  0
  4  5  1  0  0  0  0
  5  6  1  0  0  0  0
  6  7  1  0  0  0  0
  7  8  1  0  0  0  0
  8  9  1  0  0  0  0
  9 10  1  0  0  0  0
 10 11  1  0  0  0  0
 11 12  1  0  0  0  0
 12 13  1  0  0  0  0
 13 14  1  0  0  0  0
M  END
>  <CHROM.1>
65.44418218,-59.14595885,-156.37973031,172.67391889,-58.85476964,-68.51845753
177.38241627,-173.20916311,178.68781102,-61.48990472,-179.71527974,39.52505300
20.42756312,37.10342634,-1.89847361,-0.31411978,0.13862468

>  <Name>
ligand

>  <RI>
0

>  <Rbt.Current_Directory>
/home/itssahil/PROJECTS/Mol_Feturizer/New_Systems/rnas/1EVV

>  <Rbt.Executable>
rbdock ($Id: //depot/dev/client3/rdock/2013.1/src/exe/rbdock.cxx#4 $)

>  <Rbt.Library>
libRbt.so (2013.1, Build901 2013/11/27)

>  <Rbt.Parameter_File>
/export/apps/rDock/src/rDock_2013.1_src/data/scripts/dock_solv.prm

>  <Rbt.Receptor>
prm/pocket_docking_4.prm

>  <SCORE>
-6.33865

>  <SCORE.INTER>
1.60577

>  <SCORE.INTER.CONST>
1

>  <SCORE.INTER.POLAR>
0

>  <SCORE.INTER.ROT>
11

>  <SCORE.INTER.SOLV>
5.61586

>  <SCORE.INTER.VDW>
-11.7348

>  <SCORE.INTER.norm>
0.114698

>  <SCORE.INTRA>
-7.94442

>  <SCORE.INTRA.DIHEDRAL>
-19.2743

>  <SCORE.INTRA.DIHEDRAL.0>
20.2131

>  <SCORE.INTRA.POLAR>
0

>  <SCORE.INTRA.POLAR.0>
0

>  <SCORE.INTRA.REPUL>
0

>  <SCORE.INTRA.REPUL.0>
0

>  <SCORE.INTRA.SOLV>
2.19899

>  <SCORE.INTRA.SOLV.lig_0>
-48.2851

>  <SCORE.INTRA.VDW>
0.593221

>  <SCORE.INTRA.VDW.0>
-1.08658

>  <SCORE.INTRA.norm>
-0.567458

>  <SCORE.RESTR>
0

>  <SCORE.RESTR.CAVITY>
0

>  <SCORE.RESTR.norm>
0

>  <SCORE.SYSTEM>
0

>  <SCORE.SYSTEM.CONST>
0

>  <SCORE.SYSTEM.DIHEDRAL>
0

>  <SCORE.SYSTEM.SOLV>
0

>  <SCORE.SYSTEM.norm>
0

>  <SCORE.heavy>
14

>  <SCORE.norm>
-0.452761

>  <RMSD>
4.600

$$$$
ligand
 OpenBabel11021811393D
libRbt.so/2013.1/901 2013/11/27
 14 13  0  0  0  0  0  0  0  0999 V2000
   38.7748   15.3600   35.5610 N   0  0  0  0  0  0  0  0  0  0  0  0
   37.6867   15.3598   36.5265 C   0  0  0  0  0  0  0  0  0  0  0  0
   36.8329   16.6485   36.3724 C   0  0  0  0  0  0  0  0  0  0  0  0
   37.5351   18.0301   36.6248 C   0  0  0  0  0  0  0  0  0  0  0  0
   36.6299   19.2362   36.5749 N   0  0  0  0  0  0  0  0  0  0  0  0
   37.1961   20.3832   35.8074 C   0  0  0  0  0  0  0  0  0  0  0  0
   37.9678   21.3747   36.6590 C   0  0  0  0  0  0  0  0  0  0  0  0
   38.4045   22.5999   35.8764 C   0  0  0  0  0  0  0  0  0  0  0  0
   38.9974   23.5520   36.8429 C   0  0  0  0  0  0  0  0  0  0  0  0
   40.2919   23.1373   37.4348 N   0  0  0  0  0  0  0  0  0  0  0  0
   40.6885   23.9379   38.6203 C   0  0  0  0  0  0  0  0  0  0  0  0
   41.4094   25.2861   38.3210 C   0  0  0  0  0  0  0  0  0  0  0  0
   41.8314   25.9131   39.6614 C   0  0  0  0  0  0  0  0  0  0  0  0
   42.5019   27.1923   39.4438 N   0  0  0  0  0  0  0  0  0  0  0  0
  1  2  1  0  0  0  0
  2  3  1  0  0  0  0
  3  4  1  0  0  0  0
  4  5  1  0  0  0  0
  5  6  1  0  0  0  0
  6  7  1  0  0  0  0
  7  8  1  0  0  0  0
  8  9  1  0  0  0  0
  9 10  1  0  0  0  0
 10 11  1  0  0  0  0
 11 12  1  0  0  0  0
 12 13  1  0  0  0  0
 13 14  1  0  0  0  0
M  END
>  <CHROM.1>
-61.98409286,-175.04248262,-135.58621268,-92.35616743,-173.97883311,173.39214279
69.02168475,-166.05372093,-83.72172841,-175.80846148,-179.36188500,39.05323812
21.28653311,37.16614931,-2.05083012,-0.55183599,0.01823199

>  <Name>
ligand

>  <RI>
0

>  <Rbt.Current_Directory>
/home/itssahil/PROJECTS/Mol_Feturizer/New_Systems/rnas/1EVV

>  <Rbt.Executable>
rbdock ($Id: //depot/dev/client3/rdock/2013.1/src/exe/rbdock.cxx#4 $)

>  <Rbt.Library>
libRbt.so (2013.1, Build901 2013/11/27)

>  <Rbt.Parameter_File>
/export/apps/rDock/src/rDock_2013.1_src/data/scripts/dock_solv.prm

>  <Rbt.Receptor>
prm/pocket_docking_6.prm

>  <SCORE>
-7.59006

>  <SCORE.INTER>
1.04643

>  <SCORE.INTER.CONST>
1

>  <SCORE.INTER.POLAR>
0

>  <SCORE.INTER.ROT>
11

>  <SCORE.INTER.SOLV>
6.53476

>  <SCORE.INTER.VDW>
-12.414

>  <SCORE.INTER.norm>
0.0747447

>  <SCORE.INTRA>
-8.63649

>  <SCORE.INTRA.DIHEDRAL>
-17.1743

>  <SCORE.INTRA.DIHEDRAL.0>
20.2131

>  <SCORE.INTRA.POLAR>
0

>  <SCORE.INTRA.POLAR.0>
0

>  <SCORE.INTRA.REPUL>
0

>  <SCORE.INTRA.REPUL.0>
0

>  <SCORE.INTRA.SOLV>
-0.37377

>  <SCORE.INTRA.SOLV.lig_0>
-48.2851

>  <SCORE.INTRA.VDW>
0.137537

>  <SCORE.INTRA.VDW.0>
-1.08658

>  <SCORE.INTRA.norm>
-0.616892

>  <SCORE.RESTR>
0

>  <SCORE.RESTR.CAVITY>
0

>  <SCORE.RESTR.norm>
0

>  <SCORE.SYSTEM>
0

>  <SCORE.SYSTEM.CONST>
0

>  <SCORE.SYSTEM.DIHEDRAL>
0

>  <SCORE.SYSTEM.SOLV>
0

>  <SCORE.SYSTEM.norm>
0

>  <SCORE.heavy>
14

>  <SCORE.norm>
-0.542147

>  <RMSD>
4.611

$$$$
ligand
 OpenBabel11021811393D
libRbt.so/2013.1/901 2013/11/27
 14 13  0  0  0  0  0  0  0  0999 V2000
   38.4701   15.0877   35.6043 N   0  0  0  0  0  0  0  0  0  0  0  0
   37.2065   15.3101   36.2898 C   0  0  0  0  0  0  0  0  0  0  0  0
   36.8345   16.8180   36.2526 C   0  0  0  0  0  0  0  0  0  0  0  0
   37.8127   17.8338   36.9431 C   0  0  0  0  0  0  0  0  0  0  0  0
   37.3931   19.2818   36.8817 N   0  0  0  0  0  0  0  0  0  0  0  0
   38.0749   20.0617   35.8083 C   0  0  0  0  0  0  0  0  0  0  0  0
   38.1974   21.5450   36.1063 C   0  0  0  0  0  0  0  0  0  0  0  0
   39.0498   21.8254   37.3307 C   0  0  0  0  0  0  0  0  0  0  0  0
   38.8860   23.2589   37.6628 C   0  0  0  0  0  0  0  0  0  0  0  0
   39.5683   23.7093   38.8997 N   0  0  0  0  0  0  0  0  0  0  0  0
   40.8237   24.4604   38.6478 C   0  0  0  0  0  0  0  0  0  0  0  0
   41.4608   25.1565   39.8872 C   0  0  0  0  0  0  0  0  0  0  0  0
   42.7576   25.8504   39.4345 C   0  0  0  0  0  0  0  0  0  0  0  0
   42.4600   26.9682   38.5427 N   0  0  0  0  0  0  0  0  0  0  0  0
  1  2  1  0  0  0  0
  2  3  1  0  0  0  0
  3  4  1  0  0  0  0
  4  5  1  0  0  0  0
  5  6  1  0  0  0  0
  6  7  1  0  0  0  0
  7  8  1  0  0  0  0
  8  9  1  0  0  0  0
  9 10  1  0  0  0  0
 10 11  1  0  0  0  0
 11 12  1  0  0  0  0
 12 13  1  0  0  0  0
 13 14  1  0  0  0  0
M  END
>  <CHROM.1>
-61.43270040,-179.61393529,-99.26238294,-152.77035773,62.96353523,-169.59173073
175.67975872,102.97548493,170.40451130,178.77842815,67.69771203,39.21385872
21.22621160,37.44937436,-2.04001029,-0.49871340,0.07186198

>  <Name>
ligand

>  <RI>
0

>  <Rbt.Current_Directory>
/home/itssahil/PROJECTS/Mol_Feturizer/New_Systems/rnas/1EVV

>  <Rbt.Executable>
rbdock ($Id: //depot/dev/client3/rdock/2013.1/src/exe/rbdock.cxx#4 $)

>  <Rbt.Library>
libRbt.so (2013.1, Build901 2013/11/27)

>  <Rbt.Parameter_File>
/export/apps/rDock/src/rDock_2013.1_src/data/scripts/dock_solv.prm

>  <Rbt.Receptor>
prm/pocket_docking_6.prm

>  <SCORE>
-8.05634

>  <SCORE.INTER>
0.203338

>  <SCORE.INTER.CONST>
1

>  <SCORE.INTER.POLAR>
0

>  <SCORE.INTER.ROT>
11

>  <SCORE.INTER.SOLV>
8.08586

>  <SCORE.INTER.VDW>
-13.4931

>  <SCORE.INTER.norm>
0.0145242

>  <SCORE.INTRA>
-8.25968

>  <SCORE.INTRA.DIHEDRAL>
-16.9871

>  <SCORE.INTRA.DIHEDRAL.0>
20.2131

>  <SCORE.INTRA.POLAR>
0

>  <SCORE.INTRA.POLAR.0>
0

>  <SCORE.INTRA.REPUL>
0

>  <SCORE.INTRA.REPUL.0>
0

>  <SCORE.INTRA.SOLV>
0.425085

>  <SCORE.INTRA.SOLV.lig_0>
-48.2851

>  <SCORE.INTRA.VDW>
0.021344

>  <SCORE.INTRA.VDW.0>
-1.08658

>  <SCORE.INTRA.norm>
-0.589977

>  <SCORE.RESTR>
0

>  <SCORE.RESTR.CAVITY>
0

>  <SCORE.RESTR.norm>
0

>  <SCORE.SYSTEM>
0

>  <SCORE.SYSTEM.CONST>
0

>  <SCORE.SYSTEM.DIHEDRAL>
0

>  <SCORE.SYSTEM.SOLV>
0

>  <SCORE.SYSTEM.norm>
0

>  <SCORE.heavy>
14

>  <SCORE.norm>
-0.575453

>  <RMSD>
4.623

$$$$
ligand
 OpenBabel11021811393D
libRbt.so/2013.1/901 2013/11/27
 14 13  0  0  0  0  0  0  0  0999 V2000
   44.8882   23.3807   39.4914 N   0  0  0  0  0  0  0  0  0  0  0  0
   43.6916   23.5988   38.6934 C   0  0  0  0  0  0  0  0  0  0  0  0
   42.6133   24.3363   39.5343 C   0  0  0  0  0  0  0  0  0  0  0  0
   41.2325   24.6430   38.8528 C   0  0  0  0  0  0  0  0  0  0  0  0
   40.4938   23.4422   38.3153 N   0  0  0  0  0  0  0  0  0  0  0  0
   39.0992   23.7392   37.8767 C   0  0  0  0  0  0  0  0  0  0  0  0
   38.3274   22.5198   37.4061 C   0  0  0  0  0  0  0  0  0  0  0  0
   38.9240   21.8987   36.1561 C   0  0  0  0  0  0  0  0  0  0  0  0
   38.2391   20.6044   35.9372 C   0  0  0  0  0  0  0  0  0  0  0  0
   38.5109   19.5589   36.9528 N   0  0  0  0  0  0  0  0  0  0  0  0
   37.8444   18.2636   36.6673 C   0  0  0  0  0  0  0  0  0  0  0  0
   38.1929   17.0915   37.6325 C   0  0  0  0  0  0  0  0  0  0  0  0
   37.4192   15.8436   37.1717 C   0  0  0  0  0  0  0  0  0  0  0  0
   37.9506   15.3461   35.9054 N   0  0  0  0  0  0  0  0  0  0  0  0
  1  2  1  0  0  0  0
  2  3  1  0  0  0  0
  3  4  1  0  0  0  0
  4  5  1  0  0  0  0
  5  6  1  0  0  0  0
  6  7  1  0  0  0  0
  7  8  1  0  0  0  0
  8  9  1  0  0  0  0
  9 10  1  0  0  0  0
 10 11  1  0  0  0  0
 11 12  1  0  0  0  0
 12 13  1  0  0  0  0
 13 14  1  0  0  0  0
M  END
>  <CHROM.1>
-178.98228043,57.21764483,170.65956152,-176.84006852,-64.51027135,170.34611827
-67.37327007,-177.86972459,174.87314159,-179.61738175,69.61564404,39.81595692
21.01928693,37.61377990,-0.94826767,0.40062914,-3.10209106

>  <Name>
ligand

>  <RI>
0

>  <Rbt.Current_Directory>
/home/itssahil/PROJECTS/Mol_Feturizer/New_Systems/rnas/1EVV

>  <Rbt.Executable>
rbdock ($Id: //depot/dev/client3/rdock/2013.1/src/exe/rbdock.cxx#4 $)

>  <Rbt.Library>
libRbt.so (2013.1, Build901 2013/11/27)

>  <Rbt.Parameter_File>
/export/apps/rDock/src/rDock_2013.1_src/data/scripts/dock_solv.prm

>  <Rbt.Receptor>
prm/pocket_docking_5.prm

>  <SCORE>
-8.0834

>  <SCORE.INTER>
1.29614

>  <SCORE.INTER.CONST>
1

>  <SCORE.INTER.POLAR>
0

>  <SCORE.INTER.ROT>
11

>  <SCORE.INTER.SOLV>
6.14695

>  <SCORE.INTER.VDW>
-12.1182

>  <SCORE.INTER.norm>
0.0925815

>  <SCORE.INTRA>
-9.38704

>  <SCORE.INTRA.DIHEDRAL>
-19.0708

>  <SCORE.INTRA.DIHEDRAL.0>
20.2131

>  <SCORE.INTRA.POLAR>
0

>  <SCORE.INTRA.POLAR.0>
0

>  <SCORE.INTRA.REPUL>
0

>  <SCORE.INTRA.REPUL.0>
0

>  <SCORE.INTRA.SOLV>
0.44394

>  <SCORE.INTRA.SOLV.lig_0>
-48.2851

>  <SCORE.INTRA.VDW>
-0.0736206

>  <SCORE.INTRA.VDW.0>
-1.08658

>  <SCORE.INTRA.norm>
-0.670503

>  <SCORE.RESTR>
0.00749877

>  <SCORE.RESTR.CAVITY>
0.00749877

>  <SCORE.RESTR.norm>
0.000535626

>  <SCORE.SYSTEM>
0

>  <SCORE.SYSTEM.CONST>
0

>  <SCORE.SYSTEM.DIHEDRAL>
0

>  <SCORE.SYSTEM.SOLV>
0

>  <SCORE.SYSTEM.norm>
0

>  <SCORE.heavy>
14

>  <SCORE.norm>
-0.577386

>  <RMSD>
4.631

$$$$
ligand
 OpenBabel11021811393D
libRbt.so/2013.1/901 2013/11/27
 14 13  0  0  0  0  0  0  0  0999 V2000
   39.0138   15.6539   36.4784 N   0  0  0  0  0  0  0  0  0  0  0  0
   38.0347   16.1880   35.5444 C   0  0  0  0  0  0  0  0  0  0  0  0
   37.0945   17.1908   36.2684 C   0  0  0  0  0  0  0  0  0  0  0  0
   37.7248   18.5142   36.8313 C   0  0  0  0  0  0  0  0  0  0  0  0
   38.2483   19.4757   35.7930 N   0  0  0  0  0  0  0  0  0  0  0  0
   37.9240   20.9040   36.0766 C   0  0  0  0  0  0  0  0  0  0  0  0
   38.8811   21.5734   37.0460 C   0  0  0  0  0  0  0  0  0  0  0  0
   38.4136   22.9550   37.4666 C   0  0  0  0  0  0  0  0  0  0  0  0
   39.3271   23.4235   38.5335 C   0  0  0  0  0  0  0  0  0  0  0  0
   40.7054   23.7500   38.0955 N   0  0  0  0  0  0  0  0  0  0  0  0
   41.5129   24.4385   39.1335 C   0  0  0  0  0  0  0  0  0  0  0  0
   42.9025   23.8071   39.4448 C   0  0  0  0  0  0  0  0  0  0  0  0
   43.4984   24.5341   40.6632 C   0  0  0  0  0  0  0  0  0  0  0  0
   44.8310   24.0202   40.9691 N   0  0  0  0  0  0  0  0  0  0  0  0
  1  2  1  0  0  0  0
  2  3  1  0  0  0  0
  3  4  1  0  0  0  0
  4  5  1  0  0  0  0
  5  6  1  0  0  0  0
  6  7  1  0  0  0  0
  7  8  1  0  0  0  0
  8  9  1  0  0  0  0
  9 10  1  0  0  0  0
 10 11  1  0  0  0  0
 11 12  1  0  0  0  0
 12 13  1  0  0  0  0
 13 14  1  0  0  0  0
M  END
>  <CHROM.1>
64.85279231,66.32043837,138.03898814,82.85964067,-171.76047604,172.78879144
69.92388378,169.73154786,127.85908828,-172.39036680,-177.64399149,39.86480399
21.17364652,37.73884254,-2.22324620,-0.50965319,0.14813328

>  <Name>
ligand

>  <RI>
0

>  <Rbt.Current_Directory>
/home/itssahil/PROJECTS/Mol_Feturizer/New_Systems/rnas/1EVV

>  <Rbt.Executable>
rbdock ($Id: //depot/dev/client3/rdock/2013.1/src/exe/rbdock.cxx#4 $)

>  <Rbt.Library>
libRbt.so (2013.1, Build901 2013/11/27)

>  <Rbt.Parameter_File>
/export/apps/rDock/src/rDock_2013.1_src/data/scripts/dock_solv.prm

>  <Rbt.Receptor>
prm/pocket_docking_8.prm

>  <SCORE>
-9.27043

>  <SCORE.INTER>
-1.22735

>  <SCORE.INTER.CONST>
1

>  <SCORE.INTER.POLAR>
0

>  <SCORE.INTER.ROT>
11

>  <SCORE.INTER.SOLV>
4.01139

>  <SCORE.INTER.VDW>
-13.0887

>  <SCORE.INTER.norm>
-0.0876678

>  <SCORE.INTRA>
-8.04308

>  <SCORE.INTRA.DIHEDRAL>
-16.3377

>  <SCORE.INTRA.DIHEDRAL.0>
20.2131

>  <SCORE.INTRA.POLAR>
0

>  <SCORE.INTRA.POLAR.0>
0

>  <SCORE.INTRA.REPUL>
0

>  <SCORE.INTRA.REPUL.0>
0

>  <SCORE.INTRA.SOLV>
0.335702

>  <SCORE.INTRA.SOLV.lig_0>
-48.2851

>  <SCORE.INTRA.VDW>
-0.0420596

>  <SCORE.INTRA.VDW.0>
-1.08658

>  <SCORE.INTRA.norm>
-0.574506

>  <SCORE.RESTR>
0

>  <SCORE.RESTR.CAVITY>
0

>  <SCORE.RESTR.norm>
0

>  <SCORE.SYSTEM>
0

>  <SCORE.SYSTEM.CONST>
0

>  <SCORE.SYSTEM.DIHEDRAL>
0

>  <SCORE.SYSTEM.SOLV>
0

>  <SCORE.SYSTEM.norm>
0

>  <SCORE.heavy>
14

>  <SCORE.norm>
-0.662174

>  <RMSD>
4.635

$$$$
ligand
 OpenBabel11021811393D
libRbt.so/2013.1/901 2013/11/27
 14 13  0  0  0  0  0  0  0  0999 V2000
   42.3816   26.9788   39.5513 N   0  0  0  0  0  0  0  0  0  0  0  0
   41.7287   25.6788   39.5438 C   0  0  0  0  0  0  0  0  0  0  0  0
   42.1438   24.8776   38.2791 C   0  0  0  0  0  0  0  0  0  0  0  0
   41.4904   23.4676   38.0549 C   0  0  0  0  0  0  0  0  0  0  0  0
   39.9885   23.4647   37.9098 N   0  0  0  0  0  0  0  0  0  0  0  0
   39.5009   22.7307   36.7061 C   0  0  0  0  0  0  0  0  0  0  0  0
   38.3807   21.7479   36.9943 C   0  0  0  0  0  0  0  0  0  0  0  0
   37.9133   21.0150   35.7499 C   0  0  0  0  0  0  0  0  0  0  0  0
   36.8260   20.0978   36.1608 C   0  0  0  0  0  0  0  0  0  0  0  0
   37.2589   18.8805   36.8881 N   0  0  0  0  0  0  0  0  0  0  0  0
   37.4796   17.7068   36.0065 C   0  0  0  0  0  0  0  0  0  0  0  0
   36.9844   16.3373   36.5596 C   0  0  0  0  0  0  0  0  0  0  0  0
   37.8477   15.9716   37.7798 C   0  0  0  0  0  0  0  0  0  0  0  0
   39.2357   15.7511   37.3819 N   0  0  0  0  0  0  0  0  0  0  0  0
  1  2  1  0  0  0  0
  2  3  1  0  0  0  0
  3  4  1  0  0  0  0
  4  5  1  0  0  0  0
  5  6  1  0  0  0  0
  6  7  1  0  0  0  0
  7  8  1  0  0  0  0
  8  9  1  0  0  0  0
  9 10  1  0  0  0  0
 10 11  1  0  0  0  0
 11 12  1  0  0  0  0
 12 13  1  0  0  0  0
 13 14  1  0  0  0  0
M  END
>  <CHROM.1>
-177.27621445,60.92096550,128.96639200,131.45803790,-179.74778780,-179.82952154
-74.95407660,-92.98397085,-139.64599840,-66.84554828,-64.95502786,39.22554525
21.05034700,37.39734220,-1.00878112,0.63284668,3.01953654

>  <Name>
ligand

>  <RI>
0

>  <Rbt.Current_Directory>
/home/itssahil/PROJECTS/Mol_Feturizer/New_Systems/rnas/1EVV

>  <Rbt.Executable>
rbdock ($Id: //depot/dev/client3/rdock/2013.1/src/exe/rbdock.cxx#4 $)

>  <Rbt.Library>
libRbt.so (2013.1, Build901 2013/11/27)

>  <Rbt.Parameter_File>
/export/apps/rDock/src/rDock_2013.1_src/data/scripts/dock_solv.prm

>  <Rbt.Receptor>
prm/pocket_docking_5.prm

>  <SCORE>
-6.55667

>  <SCORE.INTER>
0.594253

>  <SCORE.INTER.CONST>
1

>  <SCORE.INTER.POLAR>
0

>  <SCORE.INTER.ROT>
11

>  <SCORE.INTER.SOLV>
6.13494

>  <SCORE.INTER.VDW>
-12.5821

>  <SCORE.INTER.norm>
0.0424467

>  <SCORE.INTRA>
-7.15093

>  <SCORE.INTRA.DIHEDRAL>
-15.2768

>  <SCORE.INTRA.DIHEDRAL.0>
20.2131

>  <SCORE.INTRA.POLAR>
0

>  <SCORE.INTRA.POLAR.0>
0

>  <SCORE.INTRA.REPUL>
0

>  <SCORE.INTRA.REPUL.0>
0

>  <SCORE.INTRA.SOLV>
0.918946

>  <SCORE.INTRA.SOLV.lig_0>
-48.2851

>  <SCORE.INTRA.VDW>
0.0280151

>  <SCORE.INTRA.VDW.0>
-1.08658

>  <SCORE.INTRA.norm>
-0.510781

>  <SCORE.RESTR>
0

>  <SCORE.RESTR.CAVITY>
0

>  <SCORE.RESTR.norm>
0

>  <SCORE.SYSTEM>
0

>  <SCORE.SYSTEM.CONST>
0

>  <SCORE.SYSTEM.DIHEDRAL>
0

>  <SCORE.SYSTEM.SOLV>
0

>  <SCORE.SYSTEM.norm>
0

>  <SCORE.heavy>
14

>  <SCORE.norm>
-0.468334

>  <RMSD>
4.636

$$$$
ligand
 OpenBabel11021811393D
libRbt.so/2013.1/901 2013/11/27
 14 13  0  0  0  0  0  0  0  0999 V2000
   38.9132   15.8098   36.6515 N   0  0  0  0  0  0  0  0  0  0  0  0
   37.4807   16.0384   36.7599 C   0  0  0  0  0  0  0  0  0  0  0  0
   37.1284   17.4723   36.2767 C   0  0  0  0  0  0  0  0  0  0  0  0
   37.7641   18.6842   37.0464 C   0  0  0  0  0  0  0  0  0  0  0  0
   37.2192   20.0427   36.6799 N   0  0  0  0  0  0  0  0  0  0  0  0
   38.2451   20.9744   36.1275 C   0  0  0  0  0  0  0  0  0  0  0  0
   38.6439   22.0877   37.0791 C   0  0  0  0  0  0  0  0  0  0  0  0
   39.6291   23.0610   36.4576 C   0  0  0  0  0  0  0  0  0  0  0  0
   39.8864   24.1247   37.4550 C   0  0  0  0  0  0  0  0  0  0  0  0
   40.7838   23.7472   38.5732 N   0  0  0  0  0  0  0  0  0  0  0  0
   41.3935   24.9098   39.2662 C   0  0  0  0  0  0  0  0  0  0  0  0
   42.5347   24.5799   40.2738 C   0  0  0  0  0  0  0  0  0  0  0  0
   43.6556   23.8540   39.5091 C   0  0  0  0  0  0  0  0  0  0  0  0
   44.8019   23.6123   40.3815 N   0  0  0  0  0  0  0  0  0  0  0  0
  1  2  1  0  0  0  0
  2  3  1  0  0  0  0
  3  4  1  0  0  0  0
  4  5  1  0  0  0  0
  5  6  1  0  0  0  0
  6  7  1  0  0  0  0
  7  8  1  0  0  0  0
  8  9  1  0  0  0  0
  9 10  1  0  0  0  0
 10 11  1  0  0  0  0
 11 12  1  0  0  0  0
 12 13  1  0  0  0  0
 13 14  1  0  0  0  0
M  END
>  <CHROM.1>
-60.96904339,-170.61629917,-119.38710906,-107.33205708,-176.75653486,177.37378515
76.08086660,159.76200655,-169.41444631,59.11690250,175.51105700,39.86259849
21.35724915,37.75252768,-2.28008054,-0.54788746,-0.01377679

>  <Name>
ligand

>  <RI>
0

>  <Rbt.Current_Directory>
/home/itssahil/PROJECTS/Mol_Feturizer/New_Systems/rnas/1EVV

>  <Rbt.Executable>
rbdock ($Id: //depot/dev/client3/rdock/2013.1/src/exe/rbdock.cxx#4 $)

>  <Rbt.Library>
libRbt.so (2013.1, Build901 2013/11/27)

>  <Rbt.Parameter_File>
/export/apps/rDock/src/rDock_2013.1_src/data/scripts/dock_solv.prm

>  <Rbt.Receptor>
prm/pocket_docking_6.prm

>  <SCORE>
-7.53877

>  <SCORE.INTER>
0.647708

>  <SCORE.INTER.CONST>
1

>  <SCORE.INTER.POLAR>
0

>  <SCORE.INTER.ROT>
11

>  <SCORE.INTER.SOLV>
6.01705

>  <SCORE.INTER.VDW>
-12.5072

>  <SCORE.INTER.norm>
0.0462649

>  <SCORE.INTRA>
-8.18648

>  <SCORE.INTRA.DIHEDRAL>
-16.145

>  <SCORE.INTRA.DIHEDRAL.0>
20.2131

>  <SCORE.INTRA.POLAR>
0

>  <SCORE.INTRA.POLAR.0>
0

>  <SCORE.INTRA.REPUL>
0

>  <SCORE.INTRA.REPUL.0>
0

>  <SCORE.INTRA.SOLV>
-0.0784962

>  <SCORE.INTRA.SOLV.lig_0>
-48.2851

>  <SCORE.INTRA.VDW>
-0.0747429

>  <SCORE.INTRA.VDW.0>
-1.08658

>  <SCORE.INTRA.norm>
-0.584748

>  <SCORE.RESTR>
0

>  <SCORE.RESTR.CAVITY>
0

>  <SCORE.RESTR.norm>
0

>  <SCORE.SYSTEM>
0

>  <SCORE.SYSTEM.CONST>
0

>  <SCORE.SYSTEM.DIHEDRAL>
0

>  <SCORE.SYSTEM.SOLV>
0

>  <SCORE.SYSTEM.norm>
0

>  <SCORE.heavy>
14

>  <SCORE.norm>
-0.538484

>  <RMSD>
4.644

$$$$
ligand
 OpenBabel11021811393D
libRbt.so/2013.1/901 2013/11/27
 14 13  0  0  0  0  0  0  0  0999 V2000
   39.5031   16.1606   36.1535 N   0  0  0  0  0  0  0  0  0  0  0  0
   38.9037   16.4449   37.4481 C   0  0  0  0  0  0  0  0  0  0  0  0
   38.3918   17.9111   37.4916 C   0  0  0  0  0  0  0  0  0  0  0  0
   37.2549   18.3228   36.4899 C   0  0  0  0  0  0  0  0  0  0  0  0
   36.7514   19.7385   36.6270 N   0  0  0  0  0  0  0  0  0  0  0  0
   37.2690   20.6662   35.5796 C   0  0  0  0  0  0  0  0  0  0  0  0
   38.5939   21.3175   35.9324 C   0  0  0  0  0  0  0  0  0  0  0  0
   38.4918   22.2294   37.1416 C   0  0  0  0  0  0  0  0  0  0  0  0
   39.8385   22.7963   37.3811 C   0  0  0  0  0  0  0  0  0  0  0  0
   39.9432   23.7292   38.5287 N   0  0  0  0  0  0  0  0  0  0  0  0
   41.2971   24.3135   38.6997 C   0  0  0  0  0  0  0  0  0  0  0  0
   41.4614   25.3164   39.8803 C   0  0  0  0  0  0  0  0  0  0  0  0
   42.8998   25.8625   39.8500 C   0  0  0  0  0  0  0  0  0  0  0  0
   43.1099   26.8217   40.9313 N   0  0  0  0  0  0  0  0  0  0  0  0
  1  2  1  0  0  0  0
  2  3  1  0  0  0  0
  3  4  1  0  0  0  0
  4  5  1  0  0  0  0
  5  6  1  0  0  0  0
  6  7  1  0  0  0  0
  7  8  1  0  0  0  0
  8  9  1  0  0  0  0
  9 10  1  0  0  0  0
 10 11  1  0  0  0  0
 11 12  1  0  0  0  0
 12 13  1  0  0  0  0
 13 14  1  0  0  0  0
M  END
>  <CHROM.1>
62.75133585,177.03042143,103.02171316,-87.82153628,-64.34181417,179.92147208
179.65237760,-177.75873945,179.24394526,-177.16478221,179.46700219,39.55055879
21.54503377,37.72377037,-2.12423714,-0.61775677,0.05383913

>  <Name>
ligand

>  <RI>
0

>  <Rbt.Current_Directory>
/home/itssahil/PROJECTS/Mol_Feturizer/New_Systems/rnas/1EVV

>  <Rbt.Executable>
rbdock ($Id: //depot/dev/client3/rdock/2013.1/src/exe/rbdock.cxx#4 $)

>  <Rbt.Library>
libRbt.so (2013.1, Build901 2013/11/27)

>  <Rbt.Parameter_File>
/export/apps/rDock/src/rDock_2013.1_src/data/scripts/dock_solv.prm

>  <Rbt.Receptor>
prm/pocket_docking_6.prm

>  <SCORE>
-8.19047

>  <SCORE.INTER>
1.488

>  <SCORE.INTER.CONST>
1

>  <SCORE.INTER.POLAR>
0

>  <SCORE.INTER.ROT>
11

>  <SCORE.INTER.SOLV>
8.78687

>  <SCORE.INTER.VDW>
-12.8703

>  <SCORE.INTER.norm>
0.106286

>  <SCORE.INTRA>
-9.67847

>  <SCORE.INTRA.DIHEDRAL>
-18.5339

>  <SCORE.INTRA.DIHEDRAL.0>
20.2131

>  <SCORE.INTRA.POLAR>
0

>  <SCORE.INTRA.POLAR.0>
0

>  <SCORE.INTRA.REPUL>
0

>  <SCORE.INTRA.REPUL.0>
0

>  <SCORE.INTRA.SOLV>
-0.372583

>  <SCORE.INTRA.SOLV.lig_0>
-48.2851

>  <SCORE.INTRA.VDW>
-0.225229

>  <SCORE.INTRA.VDW.0>
-1.08658

>  <SCORE.INTRA.norm>
-0.691319

>  <SCORE.RESTR>
0

>  <SCORE.RESTR.CAVITY>
0

>  <SCORE.RESTR.norm>
0

>  <SCORE.SYSTEM>
0

>  <SCORE.SYSTEM.CONST>
0

>  <SCORE.SYSTEM.DIHEDRAL>
0

>  <SCORE.SYSTEM.SOLV>
0

>  <SCORE.SYSTEM.norm>
0

>  <SCORE.heavy>
14

>  <SCORE.norm>
-0.585033

>  <RMSD>
4.647

$$$$
ligand
 OpenBabel11021811393D
libRbt.so/2013.1/901 2013/11/27
 14 13  0  0  0  0  0  0  0  0999 V2000
   39.6713   15.8117   35.7632 N   0  0  0  0  0  0  0  0  0  0  0  0
   39.1265   16.0834   37.0843 C   0  0  0  0  0  0  0  0  0  0  0  0
   37.6113   16.4115   36.9824 C   0  0  0  0  0  0  0  0  0  0  0  0
   37.1865   17.6703   36.1456 C   0  0  0  0  0  0  0  0  0  0  0  0
   37.6925   18.9941   36.6636 N   0  0  0  0  0  0  0  0  0  0  0  0
   37.3192   20.1582   35.8086 C   0  0  0  0  0  0  0  0  0  0  0  0
   38.3214   21.2976   35.8457 C   0  0  0  0  0  0  0  0  0  0  0  0
   38.4258   21.9379   37.2180 C   0  0  0  0  0  0  0  0  0  0  0  0
   39.5007   22.9539   37.1496 C   0  0  0  0  0  0  0  0  0  0  0  0
   39.7977   23.6551   38.4218 N   0  0  0  0  0  0  0  0  0  0  0  0
   41.0473   24.4555   38.3830 C   0  0  0  0  0  0  0  0  0  0  0  0
   41.4484   25.1562   39.7152 C   0  0  0  0  0  0  0  0  0  0  0  0
   42.7096   25.9984   39.4542 C   0  0  0  0  0  0  0  0  0  0  0  0
   43.0983   26.7310   40.6566 N   0  0  0  0  0  0  0  0  0  0  0  0
  1  2  1  0  0  0  0
  2  3  1  0  0  0  0
  3  4  1  0  0  0  0
  4  5  1  0  0  0  0
  5  6  1  0  0  0  0
  6  7  1  0  0  0  0
  7  8  1  0  0  0  0
  8  9  1  0  0  0  0
  9 10  1  0  0  0  0
 10 11  1  0  0  0  0
 11 12  1  0  0  0  0
 12 13  1  0  0  0  0
 13 14  1  0  0  0  0
M  END
>  <CHROM.1>
-61.60022715,-62.73914329,177.41258046,-150.04751326,-64.55992724,175.68669706
-177.43341625,168.29479638,-176.99864698,-176.59255969,177.34974023,39.49665539
21.23675072,37.52070388,-2.04432694,-0.56766080,0.08662144

>  <Name>
ligand

>  <RI>
0

>  <Rbt.Current_Directory>
/home/itssahil/PROJECTS/Mol_Feturizer/New_Systems/rnas/1EVV

>  <Rbt.Executable>
rbdock ($Id: //depot/dev/client3/rdock/2013.1/src/exe/rbdock.cxx#4 $)

>  <Rbt.Library>
libRbt.so (2013.1, Build901 2013/11/27)

>  <Rbt.Parameter_File>
/export/apps/rDock/src/rDock_2013.1_src/data/scripts/dock_solv.prm

>  <Rbt.Receptor>
prm/pocket_docking_6.prm

>  <SCORE>
-7.25741

>  <SCORE.INTER>
2.34331

>  <SCORE.INTER.CONST>
1

>  <SCORE.INTER.POLAR>
0

>  <SCORE.INTER.ROT>
11

>  <SCORE.INTER.SOLV>
6.63947

>  <SCORE.INTER.VDW>
-11.5843

>  <SCORE.INTER.norm>
0.167379

>  <SCORE.INTRA>
-9.60072

>  <SCORE.INTRA.DIHEDRAL>
-19.2033

>  <SCORE.INTRA.DIHEDRAL.0>
20.2131

>  <SCORE.INTRA.POLAR>
0

>  <SCORE.INTRA.POLAR.0>
0

>  <SCORE.INTRA.REPUL>
0

>  <SCORE.INTRA.REPUL.0>
0

>  <SCORE.INTRA.SOLV>
0.493177

>  <SCORE.INTRA.SOLV.lig_0>
-48.2851

>  <SCORE.INTRA.VDW>
-0.245663

>  <SCORE.INTRA.VDW.0>
-1.08658

>  <SCORE.INTRA.norm>
-0.685766

>  <SCORE.RESTR>
0

>  <SCORE.RESTR.CAVITY>
0

>  <SCORE.RESTR.norm>
0

>  <SCORE.SYSTEM>
0

>  <SCORE.SYSTEM.CONST>
0

>  <SCORE.SYSTEM.DIHEDRAL>
0

>  <SCORE.SYSTEM.SOLV>
0

>  <SCORE.SYSTEM.norm>
0

>  <SCORE.heavy>
14

>  <SCORE.norm>
-0.518386

>  <RMSD>
4.657

$$$$
ligand
 OpenBabel11021811393D
libRbt.so/2013.1/901 2013/11/27
 14 13  0  0  0  0  0  0  0  0999 V2000
   38.8524   15.2615   38.0417 N   0  0  0  0  0  0  0  0  0  0  0  0
   39.1350   16.2950   37.0577 C   0  0  0  0  0  0  0  0  0  0  0  0
   37.8924   16.5302   36.1552 C   0  0  0  0  0  0  0  0  0  0  0  0
   38.0565   17.4716   34.9093 C   0  0  0  0  0  0  0  0  0  0  0  0
   38.4910   18.8835   35.2163 N   0  0  0  0  0  0  0  0  0  0  0  0
   37.3581   19.8389   35.3875 C   0  0  0  0  0  0  0  0  0  0  0  0
   37.5101   20.7696   36.5770 C   0  0  0  0  0  0  0  0  0  0  0  0
   38.6106   21.7958   36.3776 C   0  0  0  0  0  0  0  0  0  0  0  0
   38.5473   22.7372   37.5187 C   0  0  0  0  0  0  0  0  0  0  0  0
   39.4727   23.8932   37.4443 N   0  0  0  0  0  0  0  0  0  0  0  0
   40.4444   23.9514   38.5651 C   0  0  0  0  0  0  0  0  0  0  0  0
   41.9481   23.9946   38.1607 C   0  0  0  0  0  0  0  0  0  0  0  0
   42.7896   24.0662   39.4471 C   0  0  0  0  0  0  0  0  0  0  0  0
   44.2109   24.1734   39.1281 N   0  0  0  0  0  0  0  0  0  0  0  0
  1  2  1  0  0  0  0
  2  3  1  0  0  0  0
  3  4  1  0  0  0  0
  4  5  1  0  0  0  0
  5  6  1  0  0  0  0
  6  7  1  0  0  0  0
  7  8  1  0  0  0  0
  8  9  1  0  0  0  0
  9 10  1  0  0  0  0
 10 11  1  0  0  0  0
 11 12  1  0  0  0  0
 12 13  1  0  0  0  0
 13 14  1  0  0  0  0
M  END
>  <CHROM.1>
-172.05889074,-59.24596694,-92.77951536,135.66255893,69.97543048,173.14008575
-174.77499704,-119.41866559,124.09386018,179.44141302,-177.30090758,39.52249776
20.69021344,37.14174860,-2.13286516,-0.57604540,-0.00593452

>  <Name>
ligand

>  <RI>
0

>  <Rbt.Current_Directory>
/home/itssahil/PROJECTS/Mol_Feturizer/New_Systems/rnas/1EVV

>  <Rbt.Executable>
rbdock ($Id: //depot/dev/client3/rdock/2013.1/src/exe/rbdock.cxx#4 $)

>  <Rbt.Library>
libRbt.so (2013.1, Build901 2013/11/27)

>  <Rbt.Parameter_File>
/export/apps/rDock/src/rDock_2013.1_src/data/scripts/dock_solv.prm

>  <Rbt.Receptor>
prm/pocket_docking_5.prm

>  <SCORE>
-5.26225

>  <SCORE.INTER>
3.06964

>  <SCORE.INTER.CONST>
1

>  <SCORE.INTER.POLAR>
0

>  <SCORE.INTER.ROT>
11

>  <SCORE.INTER.SOLV>
3.29061

>  <SCORE.INTER.VDW>
-9.98378

>  <SCORE.INTER.norm>
0.21926

>  <SCORE.INTRA>
-8.33189

>  <SCORE.INTRA.DIHEDRAL>
-15.1989

>  <SCORE.INTRA.DIHEDRAL.0>
20.2131

>  <SCORE.INTRA.POLAR>
0

>  <SCORE.INTRA.POLAR.0>
0

>  <SCORE.INTRA.REPUL>
0

>  <SCORE.INTRA.REPUL.0>
0

>  <SCORE.INTRA.SOLV>
-0.77268

>  <SCORE.INTRA.SOLV.lig_0>
-48.2851

>  <SCORE.INTRA.VDW>
-0.346094

>  <SCORE.INTRA.VDW.0>
-1.08658

>  <SCORE.INTRA.norm>
-0.595135

>  <SCORE.RESTR>
0

>  <SCORE.RESTR.CAVITY>
0

>  <SCORE.RESTR.norm>
0

>  <SCORE.SYSTEM>
0

>  <SCORE.SYSTEM.CONST>
0

>  <SCORE.SYSTEM.DIHEDRAL>
0

>  <SCORE.SYSTEM.SOLV>
0

>  <SCORE.SYSTEM.norm>
0

>  <SCORE.heavy>
14

>  <SCORE.norm>
-0.375875

>  <RMSD>
4.666

$$$$
ligand
 OpenBabel11021811393D
libRbt.so/2013.1/901 2013/11/27
 14 13  0  0  0  0  0  0  0  0999 V2000
   38.4155   14.8350   36.8346 N   0  0  0  0  0  0  0  0  0  0  0  0
   37.4230   15.7204   37.4239 C   0  0  0  0  0  0  0  0  0  0  0  0
   36.8115   16.6420   36.3328 C   0  0  0  0  0  0  0  0  0  0  0  0
   37.7840   17.5815   35.5346 C   0  0  0  0  0  0  0  0  0  0  0  0
   38.5706   18.5610   36.3704 N   0  0  0  0  0  0  0  0  0  0  0  0
   38.1937   19.9863   36.1424 C   0  0  0  0  0  0  0  0  0  0  0  0
   38.9045   20.9665   37.0579 C   0  0  0  0  0  0  0  0  0  0  0  0
   38.4149   22.3921   36.8785 C   0  0  0  0  0  0  0  0  0  0  0  0
   38.9840   23.1959   37.9840 C   0  0  0  0  0  0  0  0  0  0  0  0
   40.4489   23.4166   37.9240 N   0  0  0  0  0  0  0  0  0  0  0  0
   40.9431   24.4070   38.9132 C   0  0  0  0  0  0  0  0  0  0  0  0
   42.4776   24.6754   38.8993 C   0  0  0  0  0  0  0  0  0  0  0  0
   43.1975   23.3667   39.2694 C   0  0  0  0  0  0  0  0  0  0  0  0
   44.6456   23.5581   39.2724 N   0  0  0  0  0  0  0  0  0  0  0  0
  1  2  1  0  0  0  0
  2  3  1  0  0  0  0
  3  4  1  0  0  0  0
  4  5  1  0  0  0  0
  5  6  1  0  0  0  0
  6  7  1  0  0  0  0
  7  8  1  0  0  0  0
  8  9  1  0  0  0  0
  9 10  1  0  0  0  0
 10 11  1  0  0  0  0
 11 12  1  0  0  0  0
 12 13  1  0  0  0  0
 13 14  1  0  0  0  0
M  END
>  <CHROM.1>
-59.10167686,-59.05892661,-112.74101266,175.46290550,-175.26486488,169.45646809
69.47196947,170.32341520,179.78606132,-63.01155301,179.99665760,39.65782531
20.66483065,37.48834403,-2.16102062,-0.41254215,0.04429655

>  <Name>
ligand

>  <RI>
0

>  <Rbt.Current_Directory>
/home/itssahil/PROJECTS/Mol_Feturizer/New_Systems/rnas/1EVV

>  <Rbt.Executable>
rbdock ($Id: //depot/dev/client3/rdock/2013.1/src/exe/rbdock.cxx#4 $)

>  <Rbt.Library>
libRbt.so (2013.1, Build901 2013/11/27)

>  <Rbt.Parameter_File>
/export/apps/rDock/src/rDock_2013.1_src/data/scripts/dock_solv.prm

>  <Rbt.Receptor>
prm/pocket_docking_8.prm

>  <SCORE>
-8.23291

>  <SCORE.INTER>
0.508048

>  <SCORE.INTER.CONST>
1

>  <SCORE.INTER.POLAR>
0

>  <SCORE.INTER.ROT>
11

>  <SCORE.INTER.SOLV>
4.54988

>  <SCORE.INTER.VDW>
-12.1113

>  <SCORE.INTER.norm>
0.0362891

>  <SCORE.INTRA>
-8.74095

>  <SCORE.INTRA.DIHEDRAL>
-18.0515

>  <SCORE.INTRA.DIHEDRAL.0>
20.2131

>  <SCORE.INTRA.POLAR>
0

>  <SCORE.INTRA.POLAR.0>
0

>  <SCORE.INTRA.REPUL>
0

>  <SCORE.INTRA.REPUL.0>
0

>  <SCORE.INTRA.SOLV>
0.917443

>  <SCORE.INTRA.SOLV.lig_0>
-48.2851

>  <SCORE.INTRA.VDW>
-0.173903

>  <SCORE.INTRA.VDW.0>
-1.08658

>  <SCORE.INTRA.norm>
-0.624354

>  <SCORE.RESTR>
0

>  <SCORE.RESTR.CAVITY>
0

>  <SCORE.RESTR.norm>
0

>  <SCORE.SYSTEM>
0

>  <SCORE.SYSTEM.CONST>
0

>  <SCORE.SYSTEM.DIHEDRAL>
0

>  <SCORE.SYSTEM.SOLV>
0

>  <SCORE.SYSTEM.norm>
0

>  <SCORE.heavy>
14

>  <SCORE.norm>
-0.588065

>  <RMSD>
4.667

$$$$
ligand
 OpenBabel11021811393D
libRbt.so/2013.1/901 2013/11/27
 14 13  0  0  0  0  0  0  0  0999 V2000
   39.4835   17.1825   37.3919 N   0  0  0  0  0  0  0  0  0  0  0  0
   38.0932   16.7544   37.3908 C   0  0  0  0  0  0  0  0  0  0  0  0
   37.3006   17.5094   36.2883 C   0  0  0  0  0  0  0  0  0  0  0  0
   37.1614   19.0678   36.4198 C   0  0  0  0  0  0  0  0  0  0  0  0
   38.4481   19.8463   36.2971 N   0  0  0  0  0  0  0  0  0  0  0  0
   38.3512   21.2516   36.7882 C   0  0  0  0  0  0  0  0  0  0  0  0
   39.6712   21.8319   37.2625 C   0  0  0  0  0  0  0  0  0  0  0  0
   39.4991   23.1506   37.9944 C   0  0  0  0  0  0  0  0  0  0  0  0
   40.8524   23.6456   38.3347 C   0  0  0  0  0  0  0  0  0  0  0  0
   40.8926   24.8793   39.1562 N   0  0  0  0  0  0  0  0  0  0  0  0
   42.2268   25.1611   39.7427 C   0  0  0  0  0  0  0  0  0  0  0  0
   42.3151   26.4159   40.6616 C   0  0  0  0  0  0  0  0  0  0  0  0
   41.9477   27.6525   39.8227 C   0  0  0  0  0  0  0  0  0  0  0  0
   42.1496   28.8768   40.5934 N   0  0  0  0  0  0  0  0  0  0  0  0
  1  2  1  0  0  0  0
  2  3  1  0  0  0  0
  3  4  1  0  0  0  0
  4  5  1  0  0  0  0
  5  6  1  0  0  0  0
  6  7  1  0  0  0  0
  7  8  1  0  0  0  0
  8  9  1  0  0  0  0
  9 10  1  0  0  0  0
 10 11  1  0  0  0  0
 11 12  1  0  0  0  0
 12 13  1  0  0  0  0
 13 14  1  0  0  0  0
M  END
>  <CHROM.1>
-63.58041482,65.74445646,-164.18105824,153.69067303,-169.08440797,-176.87744540
-175.23983776,166.25033823,-177.70554386,-61.03704495,-174.00353214,39.88503462
22.37312509,38.15308042,-2.08828895,-0.69062897,0.00829194

>  <Name>
ligand

>  <RI>
0

>  <Rbt.Current_Directory>
/home/itssahil/PROJECTS/Mol_Feturizer/New_Systems/rnas/1EVV

>  <Rbt.Executable>
rbdock ($Id: //depot/dev/client3/rdock/2013.1/src/exe/rbdock.cxx#4 $)

>  <Rbt.Library>
libRbt.so (2013.1, Build901 2013/11/27)

>  <Rbt.Parameter_File>
/export/apps/rDock/src/rDock_2013.1_src/data/scripts/dock_solv.prm

>  <Rbt.Receptor>
prm/pocket_docking_8.prm

>  <SCORE>
-8.52828

>  <SCORE.INTER>
0.297842

>  <SCORE.INTER.CONST>
1

>  <SCORE.INTER.POLAR>
0

>  <SCORE.INTER.ROT>
11

>  <SCORE.INTER.SOLV>
6.37626

>  <SCORE.INTER.VDW>
-12.8602

>  <SCORE.INTER.norm>
0.0212744

>  <SCORE.INTRA>
-8.82613

>  <SCORE.INTRA.DIHEDRAL>
-18.5048

>  <SCORE.INTRA.DIHEDRAL.0>
20.2131

>  <SCORE.INTRA.POLAR>
0

>  <SCORE.INTRA.POLAR.0>
0

>  <SCORE.INTRA.REPUL>
0

>  <SCORE.INTRA.REPUL.0>
0

>  <SCORE.INTRA.SOLV>
1.57072

>  <SCORE.INTRA.SOLV.lig_0>
-48.2851

>  <SCORE.INTRA.VDW>
-0.359069

>  <SCORE.INTRA.VDW.0>
-1.08658

>  <SCORE.INTRA.norm>
-0.630438

>  <SCORE.RESTR>
0

>  <SCORE.RESTR.CAVITY>
0

>  <SCORE.RESTR.norm>
0

>  <SCORE.SYSTEM>
0

>  <SCORE.SYSTEM.CONST>
0

>  <SCORE.SYSTEM.DIHEDRAL>
0

>  <SCORE.SYSTEM.SOLV>
0

>  <SCORE.SYSTEM.norm>
0

>  <SCORE.heavy>
14

>  <SCORE.norm>
-0.609163

>  <RMSD>
4.667

$$$$
ligand
 OpenBabel11021811393D
libRbt.so/2013.1/901 2013/11/27
 14 13  0  0  0  0  0  0  0  0999 V2000
   36.3472   16.5954   36.2715 N   0  0  0  0  0  0  0  0  0  0  0  0
   37.7470   16.9734   36.3894 C   0  0  0  0  0  0  0  0  0  0  0  0
   37.8673   18.4134   36.9600 C   0  0  0  0  0  0  0  0  0  0  0  0
   37.3144   19.5975   36.0897 C   0  0  0  0  0  0  0  0  0  0  0  0
   37.4821   20.9735   36.6857 N   0  0  0  0  0  0  0  0  0  0  0  0
   38.9027   21.4181   36.7852 C   0  0  0  0  0  0  0  0  0  0  0  0
   39.0987   22.6782   37.6084 C   0  0  0  0  0  0  0  0  0  0  0  0
   40.5633   23.0302   37.7959 C   0  0  0  0  0  0  0  0  0  0  0  0
   40.6208   24.2311   38.6601 C   0  0  0  0  0  0  0  0  0  0  0  0
   41.9829   24.7008   39.0100 N   0  0  0  0  0  0  0  0  0  0  0  0
   42.0885   25.2507   40.3848 C   0  0  0  0  0  0  0  0  0  0  0  0
   43.3336   26.1433   40.6671 C   0  0  0  0  0  0  0  0  0  0  0  0
   44.5957   25.2914   40.4447 C   0  0  0  0  0  0  0  0  0  0  0  0
   44.6719   24.2159   41.4300 N   0  0  0  0  0  0  0  0  0  0  0  0
  1  2  1  0  0  0  0
  2  3  1  0  0  0  0
  3  4  1  0  0  0  0
  4  5  1  0  0  0  0
  5  6  1  0  0  0  0
  6  7  1  0  0  0  0
  7  8  1  0  0  0  0
  8  9  1  0  0  0  0
  9 10  1  0  0  0  0
 10 11  1  0  0  0  0
 11 12  1  0  0  0  0
 12 13  1  0  0  0  0
 13 14  1  0  0  0  0
M  END
>  <CHROM.1>
-65.08744989,-178.94638312,67.12819037,-169.36457906,174.71821599,-177.43141209
177.47488914,-144.26094630,-161.92166500,-60.79502595,-65.53356585,40.18687981
22.10824637,38.22727919,-2.39712645,-0.60115110,-0.02760743

>  <Name>
ligand

>  <RI>
0

>  <Rbt.Current_Directory>
/home/itssahil/PROJECTS/Mol_Feturizer/New_Systems/rnas/1EVV

>  <Rbt.Executable>
rbdock ($Id: //depot/dev/client3/rdock/2013.1/src/exe/rbdock.cxx#4 $)

>  <Rbt.Library>
libRbt.so (2013.1, Build901 2013/11/27)

>  <Rbt.Parameter_File>
/export/apps/rDock/src/rDock_2013.1_src/data/scripts/dock_solv.prm

>  <Rbt.Receptor>
prm/pocket_docking_7.prm

>  <SCORE>
-6.80139

>  <SCORE.INTER>
1.70944

>  <SCORE.INTER.CONST>
1

>  <SCORE.INTER.POLAR>
0

>  <SCORE.INTER.ROT>
11

>  <SCORE.INTER.SOLV>
11.1288

>  <SCORE.INTER.VDW>
-13.5033

>  <SCORE.INTER.norm>
0.122103

>  <SCORE.INTRA>
-8.51083

>  <SCORE.INTRA.DIHEDRAL>
-18.6787

>  <SCORE.INTRA.DIHEDRAL.0>
20.2131

>  <SCORE.INTRA.POLAR>
0

>  <SCORE.INTRA.POLAR.0>
0

>  <SCORE.INTRA.REPUL>
0

>  <SCORE.INTRA.REPUL.0>
0

>  <SCORE.INTRA.SOLV>
1.03374

>  <SCORE.INTRA.SOLV.lig_0>
-48.2851

>  <SCORE.INTRA.VDW>
0.311646

>  <SCORE.INTRA.VDW.0>
-1.08658

>  <SCORE.INTRA.norm>
-0.607917

>  <SCORE.RESTR>
0

>  <SCORE.RESTR.CAVITY>
0

>  <SCORE.RESTR.norm>
0

>  <SCORE.SYSTEM>
0

>  <SCORE.SYSTEM.CONST>
0

>  <SCORE.SYSTEM.DIHEDRAL>
0

>  <SCORE.SYSTEM.SOLV>
0

>  <SCORE.SYSTEM.norm>
0

>  <SCORE.heavy>
14

>  <SCORE.norm>
-0.485814

>  <RMSD>
4.682

$$$$
ligand
 OpenBabel11021811393D
libRbt.so/2013.1/901 2013/11/27
 14 13  0  0  0  0  0  0  0  0999 V2000
   36.5053   21.4576   31.7424 N   0  0  0  0  0  0  0  0  0  0  0  0
   36.8960   22.5903   32.5673 C   0  0  0  0  0  0  0  0  0  0  0  0
   37.5061   22.0930   33.9068 C   0  0  0  0  0  0  0  0  0  0  0  0
   38.0460   23.1703   34.9134 C   0  0  0  0  0  0  0  0  0  0  0  0
   38.5808   22.6295   36.2165 N   0  0  0  0  0  0  0  0  0  0  0  0
   38.3358   23.5232   37.3856 C   0  0  0  0  0  0  0  0  0  0  0  0
   39.3023   23.3123   38.5369 C   0  0  0  0  0  0  0  0  0  0  0  0
   40.7079   23.7848   38.2124 C   0  0  0  0  0  0  0  0  0  0  0  0
   41.3234   22.7653   37.3326 C   0  0  0  0  0  0  0  0  0  0  0  0
   41.6374   21.4692   37.9805 N   0  0  0  0  0  0  0  0  0  0  0  0
   40.6401   20.4060   37.7001 C   0  0  0  0  0  0  0  0  0  0  0  0
   41.2159   19.0463   37.2039 C   0  0  0  0  0  0  0  0  0  0  0  0
   41.9280   19.2875   35.8612 C   0  0  0  0  0  0  0  0  0  0  0  0
   42.4306   18.0311   35.3113 N   0  0  0  0  0  0  0  0  0  0  0  0
  1  2  1  0  0  0  0
  2  3  1  0  0  0  0
  3  4  1  0  0  0  0
  4  5  1  0  0  0  0
  5  6  1  0  0  0  0
  6  7  1  0  0  0  0
  7  8  1  0  0  0  0
  8  9  1  0  0  0  0
  9 10  1  0  0  0  0
 10 11  1  0  0  0  0
 11 12  1  0  0  0  0
 12 13  1  0  0  0  0
 13 14  1  0  0  0  0
M  END
>  <CHROM.1>
177.50814130,177.89231502,-145.82378235,-156.48130715,69.94278858,-76.57627539
-69.80457240,100.69119210,129.75149997,-62.49127810,-177.08238036,39.64676759
21.68363836,36.06252806,-2.86248344,-0.74909969,0.81616609

>  <Name>
ligand

>  <RI>
0

>  <Rbt.Current_Directory>
/home/itssahil/PROJECTS/Mol_Feturizer/New_Systems/rnas/1EVV

>  <Rbt.Executable>
rbdock ($Id: //depot/dev/client3/rdock/2013.1/src/exe/rbdock.cxx#4 $)

>  <Rbt.Library>
libRbt.so (2013.1, Build901 2013/11/27)

>  <Rbt.Parameter_File>
/export/apps/rDock/src/rDock_2013.1_src/data/scripts/dock_solv.prm

>  <Rbt.Receptor>
prm/pocket_docking_5.prm

>  <SCORE>
-2.18838

>  <SCORE.INTER>
4.56291

>  <SCORE.INTER.CONST>
1

>  <SCORE.INTER.POLAR>
0

>  <SCORE.INTER.ROT>
11

>  <SCORE.INTER.SOLV>
5.85821

>  <SCORE.INTER.VDW>
-9.84413

>  <SCORE.INTER.norm>
0.325922

>  <SCORE.INTRA>
-6.7513

>  <SCORE.INTRA.DIHEDRAL>
-15.1414

>  <SCORE.INTRA.DIHEDRAL.0>
20.2131

>  <SCORE.INTRA.POLAR>
0

>  <SCORE.INTRA.POLAR.0>
0

>  <SCORE.INTRA.REPUL>
0

>  <SCORE.INTRA.REPUL.0>
0

>  <SCORE.INTRA.SOLV>
1.28247

>  <SCORE.INTRA.SOLV.lig_0>
-48.2851

>  <SCORE.INTRA.VDW>
0.17816

>  <SCORE.INTRA.VDW.0>
-1.08658

>  <SCORE.INTRA.norm>
-0.482235

>  <SCORE.RESTR>
0

>  <SCORE.RESTR.CAVITY>
0

>  <SCORE.RESTR.norm>
0

>  <SCORE.SYSTEM>
0

>  <SCORE.SYSTEM.CONST>
0

>  <SCORE.SYSTEM.DIHEDRAL>
0

>  <SCORE.SYSTEM.SOLV>
0

>  <SCORE.SYSTEM.norm>
0

>  <SCORE.heavy>
14

>  <SCORE.norm>
-0.156313

>  <RMSD>
4.688

$$$$
ligand
 OpenBabel11021811393D
libRbt.so/2013.1/901 2013/11/27
 14 13  0  0  0  0  0  0  0  0999 V2000
   41.6356   18.2778   35.7773 N   0  0  0  0  0  0  0  0  0  0  0  0
   41.7618   17.3471   34.6664 C   0  0  0  0  0  0  0  0  0  0  0  0
   41.0377   16.0135   34.9992 C   0  0  0  0  0  0  0  0  0  0  0  0
   39.4760   16.0452   35.1596 C   0  0  0  0  0  0  0  0  0  0  0  0
   38.9605   16.8481   36.3284 N   0  0  0  0  0  0  0  0  0  0  0  0
   37.5460   17.2963   36.1744 C   0  0  0  0  0  0  0  0  0  0  0  0
   37.2755   18.6852   36.7238 C   0  0  0  0  0  0  0  0  0  0  0  0
   38.0697   19.7612   36.0057 C   0  0  0  0  0  0  0  0  0  0  0  0
   37.7267   21.0565   36.6357 C   0  0  0  0  0  0  0  0  0  0  0  0
   38.2823   22.2579   35.9676 N   0  0  0  0  0  0  0  0  0  0  0  0
   39.5352   22.7580   36.5869 C   0  0  0  0  0  0  0  0  0  0  0  0
   39.4219   23.2288   38.0676 C   0  0  0  0  0  0  0  0  0  0  0  0
   40.6627   24.0766   38.3984 C   0  0  0  0  0  0  0  0  0  0  0  0
   41.8820   23.2865   38.2480 N   0  0  0  0  0  0  0  0  0  0  0  0
  1  2  1  0  0  0  0
  2  3  1  0  0  0  0
  3  4  1  0  0  0  0
  4  5  1  0  0  0  0
  5  6  1  0  0  0  0
  6  7  1  0  0  0  0
  7  8  1  0  0  0  0
  8  9  1  0  0  0  0
  9 10  1  0  0  0  0
 10 11  1  0  0  0  0
 11 12  1  0  0  0  0
 12 13  1  0  0  0  0
 13 14  1  0  0  0  0
M  END
>  <CHROM.1>
65.88965983,-65.35525979,157.83481676,-142.59820917,62.42398589,-179.62303070
-173.08427687,-97.22864931,-62.06055642,-163.54203680,-60.90467100,39.51926638
19.78117446,36.40986664,-1.59486319,0.03733389,0.32839888

>  <Name>
ligand

>  <RI>
0

>  <Rbt.Current_Directory>
/home/itssahil/PROJECTS/Mol_Feturizer/New_Systems/rnas/1EVV

>  <Rbt.Executable>
rbdock ($Id: //depot/dev/client3/rdock/2013.1/src/exe/rbdock.cxx#4 $)

>  <Rbt.Library>
libRbt.so (2013.1, Build901 2013/11/27)

>  <Rbt.Parameter_File>
/export/apps/rDock/src/rDock_2013.1_src/data/scripts/dock_solv.prm

>  <Rbt.Receptor>
prm/pocket_docking_4.prm

>  <SCORE>
-4.15004

>  <SCORE.INTER>
2.55562

>  <SCORE.INTER.CONST>
1

>  <SCORE.INTER.POLAR>
0

>  <SCORE.INTER.ROT>
11

>  <SCORE.INTER.SOLV>
5.37716

>  <SCORE.INTER.VDW>
-11.022

>  <SCORE.INTER.norm>
0.182544

>  <SCORE.INTRA>
-6.70566

>  <SCORE.INTRA.DIHEDRAL>
-16.7947

>  <SCORE.INTRA.DIHEDRAL.0>
20.2131

>  <SCORE.INTRA.POLAR>
0

>  <SCORE.INTRA.POLAR.0>
0

>  <SCORE.INTRA.REPUL>
0

>  <SCORE.INTRA.REPUL.0>
0

>  <SCORE.INTRA.SOLV>
3.09752

>  <SCORE.INTRA.SOLV.lig_0>
-48.2851

>  <SCORE.INTRA.VDW>
0.142932

>  <SCORE.INTRA.VDW.0>
-1.08658

>  <SCORE.INTRA.norm>
-0.478976

>  <SCORE.RESTR>
0

>  <SCORE.RESTR.CAVITY>
0

>  <SCORE.RESTR.norm>
0

>  <SCORE.SYSTEM>
0

>  <SCORE.SYSTEM.CONST>
0

>  <SCORE.SYSTEM.DIHEDRAL>
0

>  <SCORE.SYSTEM.SOLV>
0

>  <SCORE.SYSTEM.norm>
0

>  <SCORE.heavy>
14

>  <SCORE.norm>
-0.296432

>  <RMSD>
4.703

$$$$
ligand
 OpenBabel11021811393D
libRbt.so/2013.1/901 2013/11/27
 14 13  0  0  0  0  0  0  0  0999 V2000
   42.0335   17.9339   34.4778 N   0  0  0  0  0  0  0  0  0  0  0  0
   40.7846   17.2796   34.8361 C   0  0  0  0  0  0  0  0  0  0  0  0
   41.0195   16.2749   35.9975 C   0  0  0  0  0  0  0  0  0  0  0  0
   39.7817   15.4750   36.5392 C   0  0  0  0  0  0  0  0  0  0  0  0
   38.6872   16.3123   37.1538 N   0  0  0  0  0  0  0  0  0  0  0  0
   37.6941   16.8251   36.1657 C   0  0  0  0  0  0  0  0  0  0  0  0
   37.2545   18.2558   36.4185 C   0  0  0  0  0  0  0  0  0  0  0  0
   38.4015   19.2449   36.3172 C   0  0  0  0  0  0  0  0  0  0  0  0
   37.8477   20.5912   36.5877 C   0  0  0  0  0  0  0  0  0  0  0  0
   38.8303   21.7013   36.5664 N   0  0  0  0  0  0  0  0  0  0  0  0
   38.4535   22.8469   37.4321 C   0  0  0  0  0  0  0  0  0  0  0  0
   39.4511   24.0432   37.4504 C   0  0  0  0  0  0  0  0  0  0  0  0
   40.7903   23.5432   38.0202 C   0  0  0  0  0  0  0  0  0  0  0  0
   41.7724   24.6238   38.0524 N   0  0  0  0  0  0  0  0  0  0  0  0
  1  2  1  0  0  0  0
  2  3  1  0  0  0  0
  3  4  1  0  0  0  0
  4  5  1  0  0  0  0
  5  6  1  0  0  0  0
  6  7  1  0  0  0  0
  7  8  1  0  0  0  0
  8  9  1  0  0  0  0
  9 10  1  0  0  0  0
 10 11  1  0  0  0  0
 11 12  1  0  0  0  0
 12 13  1  0  0  0  0
 13 14  1  0  0  0  0
M  END
>  <CHROM.1>
179.40595852,-62.75905105,86.36447793,-139.62648184,62.38236808,-179.76257697
178.59961595,-152.06289162,179.93129891,-62.68886696,179.57502028,39.48551116
19.63915191,36.57249285,-1.63278927,0.19305772,0.23589459

>  <Name>
ligand

>  <RI>
0

>  <Rbt.Current_Directory>
/home/itssahil/PROJECTS/Mol_Feturizer/New_Systems/rnas/1EVV

>  <Rbt.Executable>
rbdock ($Id: //depot/dev/client3/rdock/2013.1/src/exe/rbdock.cxx#4 $)

>  <Rbt.Library>
libRbt.so (2013.1, Build901 2013/11/27)

>  <Rbt.Parameter_File>
/export/apps/rDock/src/rDock_2013.1_src/data/scripts/dock_solv.prm

>  <Rbt.Receptor>
prm/pocket_docking_4.prm

>  <SCORE>
-6.65532

>  <SCORE.INTER>
2.99087

>  <SCORE.INTER.CONST>
1

>  <SCORE.INTER.POLAR>
0

>  <SCORE.INTER.ROT>
11

>  <SCORE.INTER.SOLV>
5.30168

>  <SCORE.INTER.VDW>
-10.7066

>  <SCORE.INTER.norm>
0.213634

>  <SCORE.INTRA>
-9.64619

>  <SCORE.INTRA.DIHEDRAL>
-18.1941

>  <SCORE.INTRA.DIHEDRAL.0>
20.2131

>  <SCORE.INTRA.POLAR>
0

>  <SCORE.INTRA.POLAR.0>
0

>  <SCORE.INTRA.REPUL>
0

>  <SCORE.INTRA.REPUL.0>
0

>  <SCORE.INTRA.SOLV>
-0.0455486

>  <SCORE.INTRA.SOLV.lig_0>
-48.2851

>  <SCORE.INTRA.VDW>
-0.526382

>  <SCORE.INTRA.VDW.0>
-1.08658

>  <SCORE.INTRA.norm>
-0.689013

>  <SCORE.RESTR>
0

>  <SCORE.RESTR.CAVITY>
0

>  <SCORE.RESTR.norm>
0

>  <SCORE.SYSTEM>
0

>  <SCORE.SYSTEM.CONST>
0

>  <SCORE.SYSTEM.DIHEDRAL>
0

>  <SCORE.SYSTEM.SOLV>
0

>  <SCORE.SYSTEM.norm>
0

>  <SCORE.heavy>
14

>  <SCORE.norm>
-0.47538

>  <RMSD>
4.705

$$$$
ligand
 OpenBabel11021811393D
libRbt.so/2013.1/901 2013/11/27
 14 13  0  0  0  0  0  0  0  0999 V2000
   45.5201   23.8578   41.2796 N   0  0  0  0  0  0  0  0  0  0  0  0
   44.1887   23.8233   41.8648 C   0  0  0  0  0  0  0  0  0  0  0  0
   43.1646   24.4926   40.9073 C   0  0  0  0  0  0  0  0  0  0  0  0
   42.9741   23.8659   39.4803 C   0  0  0  0  0  0  0  0  0  0  0  0
   42.0450   24.6188   38.5603 N   0  0  0  0  0  0  0  0  0  0  0  0
   40.6327   24.1404   38.6068 C   0  0  0  0  0  0  0  0  0  0  0  0
   40.3782   22.8881   37.7876 C   0  0  0  0  0  0  0  0  0  0  0  0
   38.8998   22.5732   37.6479 C   0  0  0  0  0  0  0  0  0  0  0  0
   38.7855   21.3570   36.8112 C   0  0  0  0  0  0  0  0  0  0  0  0
   37.4136   21.0179   36.3625 N   0  0  0  0  0  0  0  0  0  0  0  0
   37.0183   19.6184   36.6606 C   0  0  0  0  0  0  0  0  0  0  0  0
   37.8378   18.5103   35.9346 C   0  0  0  0  0  0  0  0  0  0  0  0
   37.2551   17.1429   36.3332 C   0  0  0  0  0  0  0  0  0  0  0  0
   38.0357   16.0582   35.7436 N   0  0  0  0  0  0  0  0  0  0  0  0
  1  2  1  0  0  0  0
  2  3  1  0  0  0  0
  3  4  1  0  0  0  0
  4  5  1  0  0  0  0
  5  6  1  0  0  0  0
  6  7  1  0  0  0  0
  7  8  1  0  0  0  0
  8  9  1  0  0  0  0
  9 10  1  0  0  0  0
 10 11  1  0  0  0  0
 11 12  1  0  0  0  0
 12 13  1  0  0  0  0
 13 14  1  0  0  0  0
M  END
>  <CHROM.1>
60.63364636,-175.59147068,-92.84223382,-80.10964269,-169.51499130,178.82419247
-169.87464107,-127.98329915,-64.21443978,-178.22411133,-176.63580951,40.29618416
21.71189490,38.14150778,-0.69508768,0.58908801,-3.08758559

>  <Name>
ligand

>  <RI>
0

>  <Rbt.Current_Directory>
/home/itssahil/PROJECTS/Mol_Feturizer/New_Systems/rnas/1EVV

>  <Rbt.Executable>
rbdock ($Id: //depot/dev/client3/rdock/2013.1/src/exe/rbdock.cxx#4 $)

>  <Rbt.Library>
libRbt.so (2013.1, Build901 2013/11/27)

>  <Rbt.Parameter_File>
/export/apps/rDock/src/rDock_2013.1_src/data/scripts/dock_solv.prm

>  <Rbt.Receptor>
prm/pocket_docking_7.prm

>  <SCORE>
-10.118

>  <SCORE.INTER>
-1.73491

>  <SCORE.INTER.CONST>
1

>  <SCORE.INTER.POLAR>
0

>  <SCORE.INTER.ROT>
11

>  <SCORE.INTER.SOLV>
5.1583

>  <SCORE.INTER.VDW>
-13.8094

>  <SCORE.INTER.norm>
-0.123922

>  <SCORE.INTRA>
-8.38305

>  <SCORE.INTRA.DIHEDRAL>
-17.1387

>  <SCORE.INTRA.DIHEDRAL.0>
20.2131

>  <SCORE.INTRA.POLAR>
0

>  <SCORE.INTRA.POLAR.0>
0

>  <SCORE.INTRA.REPUL>
0

>  <SCORE.INTRA.REPUL.0>
0

>  <SCORE.INTRA.SOLV>
-0.737718

>  <SCORE.INTRA.SOLV.lig_0>
-48.2851

>  <SCORE.INTRA.VDW>
0.555149

>  <SCORE.INTRA.VDW.0>
-1.08658

>  <SCORE.INTRA.norm>
-0.59879

>  <SCORE.RESTR>
0

>  <SCORE.RESTR.CAVITY>
0

>  <SCORE.RESTR.norm>
0

>  <SCORE.SYSTEM>
0

>  <SCORE.SYSTEM.CONST>
0

>  <SCORE.SYSTEM.DIHEDRAL>
0

>  <SCORE.SYSTEM.SOLV>
0

>  <SCORE.SYSTEM.norm>
0

>  <SCORE.heavy>
14

>  <SCORE.norm>
-0.722711

>  <RMSD>
4.707

$$$$
ligand
 OpenBabel11021811393D
libRbt.so/2013.1/901 2013/11/27
 14 13  0  0  0  0  0  0  0  0999 V2000
   39.3968   14.9831   38.4027 N   0  0  0  0  0  0  0  0  0  0  0  0
   39.1458   15.6916   37.1573 C   0  0  0  0  0  0  0  0  0  0  0  0
   38.0701   16.7915   37.3735 C   0  0  0  0  0  0  0  0  0  0  0  0
   37.7337   17.7380   36.1666 C   0  0  0  0  0  0  0  0  0  0  0  0
   36.7304   18.8270   36.4568 N   0  0  0  0  0  0  0  0  0  0  0  0
   37.1776   20.1862   36.0349 C   0  0  0  0  0  0  0  0  0  0  0  0
   38.3939   20.6965   36.7859 C   0  0  0  0  0  0  0  0  0  0  0  0
   38.6219   22.1837   36.5846 C   0  0  0  0  0  0  0  0  0  0  0  0
   39.6928   22.5960   37.5203 C   0  0  0  0  0  0  0  0  0  0  0  0
   40.0638   24.0307   37.4732 N   0  0  0  0  0  0  0  0  0  0  0  0
   41.0369   24.4290   38.5211 C   0  0  0  0  0  0  0  0  0  0  0  0
   41.5506   25.8980   38.4500 C   0  0  0  0  0  0  0  0  0  0  0  0
   42.5389   26.1179   39.6088 C   0  0  0  0  0  0  0  0  0  0  0  0
   43.0992   27.4659   39.5597 N   0  0  0  0  0  0  0  0  0  0  0  0
  1  2  1  0  0  0  0
  2  3  1  0  0  0  0
  3  4  1  0  0  0  0
  4  5  1  0  0  0  0
  5  6  1  0  0  0  0
  6  7  1  0  0  0  0
  7  8  1  0  0  0  0
  8  9  1  0  0  0  0
  9 10  1  0  0  0  0
 10 11  1  0  0  0  0
 11 12  1  0  0  0  0
 12 13  1  0  0  0  0
 13 14  1  0  0  0  0
M  END
>  <CHROM.1>
175.70445404,-177.18811382,129.81036039,-64.54609596,-166.15294502,171.40859175
179.95541047,173.97788883,175.28550287,179.92963050,177.58360004,39.51789783
21.25961613,37.57809277,-2.04855491,-0.62901803,-0.09785006

>  <Name>
ligand

>  <RI>
0

>  <Rbt.Current_Directory>
/home/itssahil/PROJECTS/Mol_Feturizer/New_Systems/rnas/1EVV

>  <Rbt.Executable>
rbdock ($Id: //depot/dev/client3/rdock/2013.1/src/exe/rbdock.cxx#4 $)

>  <Rbt.Library>
libRbt.so (2013.1, Build901 2013/11/27)

>  <Rbt.Parameter_File>
/export/apps/rDock/src/rDock_2013.1_src/data/scripts/dock_solv.prm

>  <Rbt.Receptor>
prm/pocket_docking_5.prm

>  <SCORE>
-5.93607

>  <SCORE.INTER>
3.43357

>  <SCORE.INTER.CONST>
1

>  <SCORE.INTER.POLAR>
0

>  <SCORE.INTER.ROT>
11

>  <SCORE.INTER.SOLV>
6.11977

>  <SCORE.INTER.VDW>
-10.6842

>  <SCORE.INTER.norm>
0.245255

>  <SCORE.INTRA>
-9.36964

>  <SCORE.INTRA.DIHEDRAL>
-17.9058

>  <SCORE.INTRA.DIHEDRAL.0>
20.2131

>  <SCORE.INTRA.POLAR>
0

>  <SCORE.INTRA.POLAR.0>
0

>  <SCORE.INTRA.REPUL>
0

>  <SCORE.INTRA.REPUL.0>
0

>  <SCORE.INTRA.SOLV>
-1.4364

>  <SCORE.INTRA.SOLV.lig_0>
-48.2851

>  <SCORE.INTRA.VDW>
0.301458

>  <SCORE.INTRA.VDW.0>
-1.08658

>  <SCORE.INTRA.norm>
-0.66926

>  <SCORE.RESTR>
0

>  <SCORE.RESTR.CAVITY>
0

>  <SCORE.RESTR.norm>
0

>  <SCORE.SYSTEM>
0

>  <SCORE.SYSTEM.CONST>
0

>  <SCORE.SYSTEM.DIHEDRAL>
0

>  <SCORE.SYSTEM.SOLV>
0

>  <SCORE.SYSTEM.norm>
0

>  <SCORE.heavy>
14

>  <SCORE.norm>
-0.424005

>  <RMSD>
4.726

$$$$
ligand
 OpenBabel11021811393D
libRbt.so/2013.1/901 2013/11/27
 14 13  0  0  0  0  0  0  0  0999 V2000
   45.5612   23.7078   39.6880 N   0  0  0  0  0  0  0  0  0  0  0  0
   44.5019   23.0138   40.4039 C   0  0  0  0  0  0  0  0  0  0  0  0
   43.8166   23.9765   41.4125 C   0  0  0  0  0  0  0  0  0  0  0  0
   42.9851   25.1764   40.8346 C   0  0  0  0  0  0  0  0  0  0  0  0
   41.7404   24.7949   40.0719 N   0  0  0  0  0  0  0  0  0  0  0  0
   41.9336   24.7364   38.5938 C   0  0  0  0  0  0  0  0  0  0  0  0
   40.6447   24.5731   37.8089 C   0  0  0  0  0  0  0  0  0  0  0  0
   39.9211   23.2800   38.1385 C   0  0  0  0  0  0  0  0  0  0  0  0
   38.6759   23.2555   37.3378 C   0  0  0  0  0  0  0  0  0  0  0  0
   37.9836   21.9458   37.2747 N   0  0  0  0  0  0  0  0  0  0  0  0
   38.0870   21.2806   35.9516 C   0  0  0  0  0  0  0  0  0  0  0  0
   37.2748   19.9614   35.7877 C   0  0  0  0  0  0  0  0  0  0  0  0
   37.8475   18.9202   36.7655 C   0  0  0  0  0  0  0  0  0  0  0  0
   37.2368   17.6124   36.5417 N   0  0  0  0  0  0  0  0  0  0  0  0
  1  2  1  0  0  0  0
  2  3  1  0  0  0  0
  3  4  1  0  0  0  0
  4  5  1  0  0  0  0
  5  6  1  0  0  0  0
  6  7  1  0  0  0  0
  7  8  1  0  0  0  0
  8  9  1  0  0  0  0
  9 10  1  0  0  0  0
 10 11  1  0  0  0  0
 11 12  1  0  0  0  0
 12 13  1  0  0  0  0
 13 14  1  0  0  0  0
M  END
>  <CHROM.1>
67.18010868,66.18843554,-96.43261401,-170.73205434,-61.72349142,178.73335588
166.41773655,-108.19729668,-174.84100032,-64.07588302,-172.94721957,40.58640724
22.58844341,38.32933288,-0.59466046,0.52215069,-3.06539514

>  <Name>
ligand

>  <RI>
0

>  <Rbt.Current_Directory>
/home/itssahil/PROJECTS/Mol_Feturizer/New_Systems/rnas/1EVV

>  <Rbt.Executable>
rbdock ($Id: //depot/dev/client3/rdock/2013.1/src/exe/rbdock.cxx#4 $)

>  <Rbt.Library>
libRbt.so (2013.1, Build901 2013/11/27)

>  <Rbt.Parameter_File>
/export/apps/rDock/src/rDock_2013.1_src/data/scripts/dock_solv.prm

>  <Rbt.Receptor>
prm/pocket_docking_7.prm

>  <SCORE>
-8.32421

>  <SCORE.INTER>
-0.121694

>  <SCORE.INTER.CONST>
1

>  <SCORE.INTER.POLAR>
0

>  <SCORE.INTER.ROT>
11

>  <SCORE.INTER.SOLV>
9.68941

>  <SCORE.INTER.VDW>
-14.2443

>  <SCORE.INTER.norm>
-0.0086924

>  <SCORE.INTRA>
-8.20252

>  <SCORE.INTRA.DIHEDRAL>
-16.9628

>  <SCORE.INTRA.DIHEDRAL.0>
20.2131

>  <SCORE.INTRA.POLAR>
0

>  <SCORE.INTRA.POLAR.0>
0

>  <SCORE.INTRA.REPUL>
0

>  <SCORE.INTRA.REPUL.0>
0

>  <SCORE.INTRA.SOLV>
1.23868

>  <SCORE.INTRA.SOLV.lig_0>
-48.2851

>  <SCORE.INTRA.VDW>
-0.340479

>  <SCORE.INTRA.VDW.0>
-1.08658

>  <SCORE.INTRA.norm>
-0.585894

>  <SCORE.RESTR>
0

>  <SCORE.RESTR.CAVITY>
0

>  <SCORE.RESTR.norm>
0

>  <SCORE.SYSTEM>
0

>  <SCORE.SYSTEM.CONST>
0

>  <SCORE.SYSTEM.DIHEDRAL>
0

>  <SCORE.SYSTEM.SOLV>
0

>  <SCORE.SYSTEM.norm>
0

>  <SCORE.heavy>
14

>  <SCORE.norm>
-0.594587

>  <RMSD>
4.740

$$$$
ligand
 OpenBabel11021811393D
libRbt.so/2013.1/901 2013/11/27
 14 13  0  0  0  0  0  0  0  0999 V2000
   44.7704   24.0398   39.8794 N   0  0  0  0  0  0  0  0  0  0  0  0
   43.3964   23.5675   39.8078 C   0  0  0  0  0  0  0  0  0  0  0  0
   42.5608   24.4879   38.8760 C   0  0  0  0  0  0  0  0  0  0  0  0
   41.0579   24.1095   38.6244 C   0  0  0  0  0  0  0  0  0  0  0  0
   40.8263   22.7580   37.9947 N   0  0  0  0  0  0  0  0  0  0  0  0
   39.3936   22.4711   37.6936 C   0  0  0  0  0  0  0  0  0  0  0  0
   39.1708   21.1811   36.9254 C   0  0  0  0  0  0  0  0  0  0  0  0
   37.7200   20.9843   36.5245 C   0  0  0  0  0  0  0  0  0  0  0  0
   37.6391   19.7104   35.7742 C   0  0  0  0  0  0  0  0  0  0  0  0
   37.9590   18.4899   36.5528 N   0  0  0  0  0  0  0  0  0  0  0  0
   37.7582   17.2297   35.7943 C   0  0  0  0  0  0  0  0  0  0  0  0
   36.8401   16.1677   36.4696 C   0  0  0  0  0  0  0  0  0  0  0  0
   37.5595   15.6380   37.7225 C   0  0  0  0  0  0  0  0  0  0  0  0
   38.7758   14.9186   37.3532 N   0  0  0  0  0  0  0  0  0  0  0  0
  1  2  1  0  0  0  0
  2  3  1  0  0  0  0
  3  4  1  0  0  0  0
  4  5  1  0  0  0  0
  5  6  1  0  0  0  0
  6  7  1  0  0  0  0
  7  8  1  0  0  0  0
  8  9  1  0  0  0  0
  9 10  1  0  0  0  0
 10 11  1  0  0  0  0
 11 12  1  0  0  0  0
 12 13  1  0  0  0  0
 13 14  1  0  0  0  0
M  END
>  <CHROM.1>
177.68450706,-60.00187622,-176.37540748,173.72259949,-174.69337218,179.32034829
64.84948687,175.27186553,-126.18207872,-67.75607446,-65.06507983,39.67305271
20.41110090,37.57073437,-0.86263417,0.56153024,3.03767005

>  <Name>
ligand

>  <RI>
0

>  <Rbt.Current_Directory>
/home/itssahil/PROJECTS/Mol_Feturizer/New_Systems/rnas/1EVV

>  <Rbt.Executable>
rbdock ($Id: //depot/dev/client3/rdock/2013.1/src/exe/rbdock.cxx#4 $)

>  <Rbt.Library>
libRbt.so (2013.1, Build901 2013/11/27)

>  <Rbt.Parameter_File>
/export/apps/rDock/src/rDock_2013.1_src/data/scripts/dock_solv.prm

>  <Rbt.Receptor>
prm/pocket_docking_5.prm

>  <SCORE>
-8.75896

>  <SCORE.INTER>
-0.0332735

>  <SCORE.INTER.CONST>
1

>  <SCORE.INTER.POLAR>
0

>  <SCORE.INTER.ROT>
11

>  <SCORE.INTER.SOLV>
4.54867

>  <SCORE.INTER.VDW>
-12.4717

>  <SCORE.INTER.norm>
-0.00237668

>  <SCORE.INTRA>
-8.72569

>  <SCORE.INTRA.DIHEDRAL>
-18.4456

>  <SCORE.INTRA.DIHEDRAL.0>
20.2131

>  <SCORE.INTRA.POLAR>
0

>  <SCORE.INTRA.POLAR.0>
0

>  <SCORE.INTRA.REPUL>
0

>  <SCORE.INTRA.REPUL.0>
0

>  <SCORE.INTRA.SOLV>
0.963492

>  <SCORE.INTRA.SOLV.lig_0>
-48.2851

>  <SCORE.INTRA.VDW>
0.0153607

>  <SCORE.INTRA.VDW.0>
-1.08658

>  <SCORE.INTRA.norm>
-0.623263

>  <SCORE.RESTR>
0

>  <SCORE.RESTR.CAVITY>
0

>  <SCORE.RESTR.norm>
0

>  <SCORE.SYSTEM>
0

>  <SCORE.SYSTEM.CONST>
0

>  <SCORE.SYSTEM.DIHEDRAL>
0

>  <SCORE.SYSTEM.SOLV>
0

>  <SCORE.SYSTEM.norm>
0

>  <SCORE.heavy>
14

>  <SCORE.norm>
-0.62564

>  <RMSD>
4.751

$$$$
ligand
 OpenBabel11021811393D
libRbt.so/2013.1/901 2013/11/27
 14 13  0  0  0  0  0  0  0  0999 V2000
   35.9112   18.7481   30.1980 N   0  0  0  0  0  0  0  0  0  0  0  0
   36.9338   18.5330   31.2101 C   0  0  0  0  0  0  0  0  0  0  0  0
   36.5793   17.2922   32.0752 C   0  0  0  0  0  0  0  0  0  0  0  0
   37.5718   16.8886   33.2230 C   0  0  0  0  0  0  0  0  0  0  0  0
   37.7968   17.9374   34.2841 N   0  0  0  0  0  0  0  0  0  0  0  0
   37.6039   17.4372   35.6763 C   0  0  0  0  0  0  0  0  0  0  0  0
   37.9020   18.4685   36.7494 C   0  0  0  0  0  0  0  0  0  0  0  0
   36.9712   19.6657   36.6822 C   0  0  0  0  0  0  0  0  0  0  0  0
   37.5623   20.6304   35.7271 C   0  0  0  0  0  0  0  0  0  0  0  0
   38.9279   21.1024   36.0598 N   0  0  0  0  0  0  0  0  0  0  0  0
   39.0076   21.8339   37.3491 C   0  0  0  0  0  0  0  0  0  0  0  0
   38.3386   23.2404   37.3763 C   0  0  0  0  0  0  0  0  0  0  0  0
   39.0538   24.1325   36.3463 C   0  0  0  0  0  0  0  0  0  0  0  0
   38.4723   25.4723   36.3327 N   0  0  0  0  0  0  0  0  0  0  0  0
  1  2  1  0  0  0  0
  2  3  1  0  0  0  0
  3  4  1  0  0  0  0
  4  5  1  0  0  0  0
  5  6  1  0  0  0  0
  6  7  1  0  0  0  0
  7  8  1  0  0  0  0
  8  9  1  0  0  0  0
  9 10  1  0  0  0  0
 10 11  1  0  0  0  0
 11 12  1  0  0  0  0
 12 13  1  0  0  0  0
 13 14  1  0  0  0  0
M  END
>  <CHROM.1>
179.61932771,60.01652040,128.40389769,176.87452971,63.02180580,-86.79181242
-58.38895467,-61.82060047,-70.16872620,-61.54932746,-179.65367146,37.75946453
20.09846065,34.94955152,2.66185814,1.30166108,2.73825917

>  <Name>
ligand

>  <RI>
0

>  <Rbt.Current_Directory>
/home/itssahil/PROJECTS/Mol_Feturizer/New_Systems/rnas/1EVV

>  <Rbt.Executable>
rbdock ($Id: //depot/dev/client3/rdock/2013.1/src/exe/rbdock.cxx#4 $)

>  <Rbt.Library>
libRbt.so (2013.1, Build901 2013/11/27)

>  <Rbt.Parameter_File>
/export/apps/rDock/src/rDock_2013.1_src/data/scripts/dock_solv.prm

>  <Rbt.Receptor>
prm/pocket_docking_8.prm

>  <SCORE>
-5.77328

>  <SCORE.INTER>
0.755555

>  <SCORE.INTER.CONST>
1

>  <SCORE.INTER.POLAR>
0

>  <SCORE.INTER.ROT>
11

>  <SCORE.INTER.SOLV>
6.39915

>  <SCORE.INTER.VDW>
-12.5627

>  <SCORE.INTER.norm>
0.0539682

>  <SCORE.INTRA>
-6.52884

>  <SCORE.INTRA.DIHEDRAL>
-16.3737

>  <SCORE.INTRA.DIHEDRAL.0>
20.2131

>  <SCORE.INTRA.POLAR>
0

>  <SCORE.INTRA.POLAR.0>
0

>  <SCORE.INTRA.REPUL>
0

>  <SCORE.INTRA.REPUL.0>
0

>  <SCORE.INTRA.SOLV>
1.03516

>  <SCORE.INTRA.SOLV.lig_0>
-48.2851

>  <SCORE.INTRA.VDW>
1.14045

>  <SCORE.INTRA.VDW.0>
-1.08658

>  <SCORE.INTRA.norm>
-0.466346

>  <SCORE.RESTR>
0

>  <SCORE.RESTR.CAVITY>
0

>  <SCORE.RESTR.norm>
0

>  <SCORE.SYSTEM>
0

>  <SCORE.SYSTEM.CONST>
0

>  <SCORE.SYSTEM.DIHEDRAL>
0

>  <SCORE.SYSTEM.SOLV>
0

>  <SCORE.SYSTEM.norm>
0

>  <SCORE.heavy>
14

>  <SCORE.norm>
-0.412377

>  <RMSD>
4.758

$$$$
ligand
 OpenBabel11021811393D
libRbt.so/2013.1/901 2013/11/27
 14 13  0  0  0  0  0  0  0  0999 V2000
   39.5180   14.9130   38.5096 N   0  0  0  0  0  0  0  0  0  0  0  0
   39.1900   16.0718   37.6937 C   0  0  0  0  0  0  0  0  0  0  0  0
   37.7075   16.0021   37.2346 C   0  0  0  0  0  0  0  0  0  0  0  0
   37.1624   17.1646   36.3307 C   0  0  0  0  0  0  0  0  0  0  0  0
   37.3183   18.5541   36.8977 N   0  0  0  0  0  0  0  0  0  0  0  0
   37.3327   19.6289   35.8632 C   0  0  0  0  0  0  0  0  0  0  0  0
   37.6969   21.0001   36.4028 C   0  0  0  0  0  0  0  0  0  0  0  0
   39.1388   21.0783   36.8710 C   0  0  0  0  0  0  0  0  0  0  0  0
   39.3151   22.3885   37.5379 C   0  0  0  0  0  0  0  0  0  0  0  0
   40.6983   22.7044   37.9681 N   0  0  0  0  0  0  0  0  0  0  0  0
   40.8480   24.0662   38.5396 C   0  0  0  0  0  0  0  0  0  0  0  0
   42.3068   24.5203   38.8436 C   0  0  0  0  0  0  0  0  0  0  0  0
   42.2556   25.9451   39.4227 C   0  0  0  0  0  0  0  0  0  0  0  0
   43.6036   26.4814   39.5922 N   0  0  0  0  0  0  0  0  0  0  0  0
  1  2  1  0  0  0  0
  2  3  1  0  0  0  0
  3  4  1  0  0  0  0
  4  5  1  0  0  0  0
  5  6  1  0  0  0  0
  6  7  1  0  0  0  0
  7  8  1  0  0  0  0
  8  9  1  0  0  0  0
  9 10  1  0  0  0  0
 10 11  1  0  0  0  0
 11 12  1  0  0  0  0
 12 13  1  0  0  0  0
 13 14  1  0  0  0  0
M  END
>  <CHROM.1>
-179.58200789,-55.48473510,156.17699011,-171.26582728,67.43043154,-172.40049016
-175.06344294,175.70198304,-172.62322193,179.92546672,-173.82422799,39.57770702
20.75136638,37.69315289,-2.12086119,-0.61075871,-0.12427143

>  <Name>
ligand

>  <RI>
0

>  <Rbt.Current_Directory>
/home/itssahil/PROJECTS/Mol_Feturizer/New_Systems/rnas/1EVV

>  <Rbt.Executable>
rbdock ($Id: //depot/dev/client3/rdock/2013.1/src/exe/rbdock.cxx#4 $)

>  <Rbt.Library>
libRbt.so (2013.1, Build901 2013/11/27)

>  <Rbt.Parameter_File>
/export/apps/rDock/src/rDock_2013.1_src/data/scripts/dock_solv.prm

>  <Rbt.Receptor>
prm/pocket_docking_5.prm

>  <SCORE>
-8.29249

>  <SCORE.INTER>
1.82095

>  <SCORE.INTER.CONST>
1

>  <SCORE.INTER.POLAR>
0

>  <SCORE.INTER.ROT>
11

>  <SCORE.INTER.SOLV>
6.595

>  <SCORE.INTER.VDW>
-11.9177

>  <SCORE.INTER.norm>
0.130068

>  <SCORE.INTRA>
-10.1249

>  <SCORE.INTRA.DIHEDRAL>
-18.9253

>  <SCORE.INTRA.DIHEDRAL.0>
20.2131

>  <SCORE.INTRA.POLAR>
0

>  <SCORE.INTRA.POLAR.0>
0

>  <SCORE.INTRA.REPUL>
0

>  <SCORE.INTRA.REPUL.0>
0

>  <SCORE.INTRA.SOLV>
-0.708931

>  <SCORE.INTRA.SOLV.lig_0>
-48.2851

>  <SCORE.INTRA.VDW>
-0.307816

>  <SCORE.INTRA.VDW.0>
-1.08658

>  <SCORE.INTRA.norm>
-0.72321

>  <SCORE.RESTR>
0.0115084

>  <SCORE.RESTR.CAVITY>
0.0115084

>  <SCORE.RESTR.norm>
0.000822028

>  <SCORE.SYSTEM>
0

>  <SCORE.SYSTEM.CONST>
0

>  <SCORE.SYSTEM.DIHEDRAL>
0

>  <SCORE.SYSTEM.SOLV>
0

>  <SCORE.SYSTEM.norm>
0

>  <SCORE.heavy>
14

>  <SCORE.norm>
-0.592321

>  <RMSD>
4.760

$$$$
ligand
 OpenBabel11021811393D
libRbt.so/2013.1/901 2013/11/27
 14 13  0  0  0  0  0  0  0  0999 V2000
   38.7757   15.1509   37.2705 N   0  0  0  0  0  0  0  0  0  0  0  0
   37.4089   15.5993   37.4874 C   0  0  0  0  0  0  0  0  0  0  0  0
   36.8327   16.2136   36.1819 C   0  0  0  0  0  0  0  0  0  0  0  0
   37.5299   17.4957   35.6026 C   0  0  0  0  0  0  0  0  0  0  0  0
   37.4414   18.7287   36.4677 N   0  0  0  0  0  0  0  0  0  0  0  0
   38.0937   19.9308   35.8720 C   0  0  0  0  0  0  0  0  0  0  0  0
   38.0542   21.1594   36.7626 C   0  0  0  0  0  0  0  0  0  0  0  0
   38.6539   22.3834   36.0945 C   0  0  0  0  0  0  0  0  0  0  0  0
   38.5255   23.5115   37.0448 C   0  0  0  0  0  0  0  0  0  0  0  0
   39.3619   23.4161   38.2653 N   0  0  0  0  0  0  0  0  0  0  0  0
   40.6875   24.0707   38.1316 C   0  0  0  0  0  0  0  0  0  0  0  0
   41.2154   24.8043   39.4003 C   0  0  0  0  0  0  0  0  0  0  0  0
   42.5670   25.4528   39.0527 C   0  0  0  0  0  0  0  0  0  0  0  0
   43.5585   24.4325   38.7220 N   0  0  0  0  0  0  0  0  0  0  0  0
  1  2  1  0  0  0  0
  2  3  1  0  0  0  0
  3  4  1  0  0  0  0
  4  5  1  0  0  0  0
  5  6  1  0  0  0  0
  6  7  1  0  0  0  0
  7  8  1  0  0  0  0
  8  9  1  0  0  0  0
  9 10  1  0  0  0  0
 10 11  1  0  0  0  0
 11 12  1  0  0  0  0
 12 13  1  0  0  0  0
 13 14  1  0  0  0  0
M  END
>  <CHROM.1>
-62.57168983,-64.92977388,-178.94277430,-177.74024240,-176.67099572,178.62270213
68.24375135,91.94404290,142.76487022,-178.12825682,-63.72435952,39.19305963
20.88231053,37.31097108,-2.10595452,-0.56615138,-0.06089138

>  <Name>
ligand

>  <RI>
0

>  <Rbt.Current_Directory>
/home/itssahil/PROJECTS/Mol_Feturizer/New_Systems/rnas/1EVV

>  <Rbt.Executable>
rbdock ($Id: //depot/dev/client3/rdock/2013.1/src/exe/rbdock.cxx#4 $)

>  <Rbt.Library>
libRbt.so (2013.1, Build901 2013/11/27)

>  <Rbt.Parameter_File>
/export/apps/rDock/src/rDock_2013.1_src/data/scripts/dock_solv.prm

>  <Rbt.Receptor>
prm/pocket_docking_5.prm

>  <SCORE>
-7.30148

>  <SCORE.INTER>
1.08573

>  <SCORE.INTER.CONST>
1

>  <SCORE.INTER.POLAR>
0

>  <SCORE.INTER.ROT>
11

>  <SCORE.INTER.SOLV>
5.76619

>  <SCORE.INTER.VDW>
-12.1316

>  <SCORE.INTER.norm>
0.0775521

>  <SCORE.INTRA>
-8.38721

>  <SCORE.INTRA.DIHEDRAL>
-18.2403

>  <SCORE.INTRA.DIHEDRAL.0>
20.2131

>  <SCORE.INTRA.POLAR>
0

>  <SCORE.INTRA.POLAR.0>
0

>  <SCORE.INTRA.REPUL>
0

>  <SCORE.INTRA.REPUL.0>
0

>  <SCORE.INTRA.SOLV>
1.23447

>  <SCORE.INTRA.SOLV.lig_0>
-48.2851

>  <SCORE.INTRA.VDW>
0.115683

>  <SCORE.INTRA.VDW.0>
-1.08658

>  <SCORE.INTRA.norm>
-0.599086

>  <SCORE.RESTR>
0

>  <SCORE.RESTR.CAVITY>
0

>  <SCORE.RESTR.norm>
0

>  <SCORE.SYSTEM>
0

>  <SCORE.SYSTEM.CONST>
0

>  <SCORE.SYSTEM.DIHEDRAL>
0

>  <SCORE.SYSTEM.SOLV>
0

>  <SCORE.SYSTEM.norm>
0

>  <SCORE.heavy>
14

>  <SCORE.norm>
-0.521534

>  <RMSD>
4.762

$$$$
ligand
 OpenBabel11021811393D
libRbt.so/2013.1/901 2013/11/27
 14 13  0  0  0  0  0  0  0  0999 V2000
   37.6224   15.3441   37.2128 N   0  0  0  0  0  0  0  0  0  0  0  0
   36.8837   15.8504   36.0665 C   0  0  0  0  0  0  0  0  0  0  0  0
   37.5361   17.1601   35.5441 C   0  0  0  0  0  0  0  0  0  0  0  0
   37.5288   18.4131   36.4904 C   0  0  0  0  0  0  0  0  0  0  0  0
   38.2014   19.6459   35.9388 N   0  0  0  0  0  0  0  0  0  0  0  0
   37.7582   20.9148   36.5861 C   0  0  0  0  0  0  0  0  0  0  0  0
   38.8937   21.8613   36.9306 C   0  0  0  0  0  0  0  0  0  0  0  0
   38.4082   23.1383   37.5921 C   0  0  0  0  0  0  0  0  0  0  0  0
   39.5613   24.0644   37.6622 C   0  0  0  0  0  0  0  0  0  0  0  0
   40.6095   23.7048   38.6472 N   0  0  0  0  0  0  0  0  0  0  0  0
   41.3905   24.8681   39.1373 C   0  0  0  0  0  0  0  0  0  0  0  0
   42.5434   24.5430   40.1333 C   0  0  0  0  0  0  0  0  0  0  0  0
   43.5637   23.6459   39.4107 C   0  0  0  0  0  0  0  0  0  0  0  0
   44.7530   23.4499   40.2357 N   0  0  0  0  0  0  0  0  0  0  0  0
  1  2  1  0  0  0  0
  2  3  1  0  0  0  0
  3  4  1  0  0  0  0
  4  5  1  0  0  0  0
  5  6  1  0  0  0  0
  6  7  1  0  0  0  0
  7  8  1  0  0  0  0
  8  9  1  0  0  0  0
  9 10  1  0  0  0  0
 10 11  1  0  0  0  0
 11 12  1  0  0  0  0
 12 13  1  0  0  0  0
 13 14  1  0  0  0  0
M  END
>  <CHROM.1>
-64.55418646,178.80080592,158.40538602,135.47669329,-179.76626411,-170.39204881
-71.83050445,-153.96012303,-177.70230264,62.13441637,172.61866976,39.66074155
21.18626383,37.68471568,-2.24731768,-0.50798804,0.04843641

>  <Name>
ligand

>  <RI>
0

>  <Rbt.Current_Directory>
/home/itssahil/PROJECTS/Mol_Feturizer/New_Systems/rnas/1EVV

>  <Rbt.Executable>
rbdock ($Id: //depot/dev/client3/rdock/2013.1/src/exe/rbdock.cxx#4 $)

>  <Rbt.Library>
libRbt.so (2013.1, Build901 2013/11/27)

>  <Rbt.Parameter_File>
/export/apps/rDock/src/rDock_2013.1_src/data/scripts/dock_solv.prm

>  <Rbt.Receptor>
prm/pocket_docking_6.prm

>  <SCORE>
-9.0171

>  <SCORE.INTER>
-0.263799

>  <SCORE.INTER.CONST>
1

>  <SCORE.INTER.POLAR>
0

>  <SCORE.INTER.ROT>
11

>  <SCORE.INTER.SOLV>
8.56873

>  <SCORE.INTER.VDW>
-13.9654

>  <SCORE.INTER.norm>
-0.0188428

>  <SCORE.INTRA>
-8.7533

>  <SCORE.INTRA.DIHEDRAL>
-17.1779

>  <SCORE.INTRA.DIHEDRAL.0>
20.2131

>  <SCORE.INTRA.POLAR>
0

>  <SCORE.INTRA.POLAR.0>
0

>  <SCORE.INTRA.REPUL>
0

>  <SCORE.INTRA.REPUL.0>
0

>  <SCORE.INTRA.SOLV>
-0.107235

>  <SCORE.INTRA.SOLV.lig_0>
-48.2851

>  <SCORE.INTRA.VDW>
-0.110708

>  <SCORE.INTRA.VDW.0>
-1.08658

>  <SCORE.INTRA.norm>
-0.625235

>  <SCORE.RESTR>
0

>  <SCORE.RESTR.CAVITY>
0

>  <SCORE.RESTR.norm>
0

>  <SCORE.SYSTEM>
0

>  <SCORE.SYSTEM.CONST>
0

>  <SCORE.SYSTEM.DIHEDRAL>
0

>  <SCORE.SYSTEM.SOLV>
0

>  <SCORE.SYSTEM.norm>
0

>  <SCORE.heavy>
14

>  <SCORE.norm>
-0.644078

>  <RMSD>
4.765

$$$$
ligand
 OpenBabel11021811393D
libRbt.so/2013.1/901 2013/11/27
 14 13  0  0  0  0  0  0  0  0999 V2000
   38.0569   16.1256   36.7932 N   0  0  0  0  0  0  0  0  0  0  0  0
   37.1797   17.2076   36.3738 C   0  0  0  0  0  0  0  0  0  0  0  0
   37.9618   18.5496   36.3404 C   0  0  0  0  0  0  0  0  0  0  0  0
   37.1877   19.8406   35.8938 C   0  0  0  0  0  0  0  0  0  0  0  0
   38.0308   21.0830   35.7446 N   0  0  0  0  0  0  0  0  0  0  0  0
   38.1195   21.9039   36.9871 C   0  0  0  0  0  0  0  0  0  0  0  0
   39.4324   22.6499   37.1415 C   0  0  0  0  0  0  0  0  0  0  0  0
   39.5252   23.4007   38.4575 C   0  0  0  0  0  0  0  0  0  0  0  0
   40.8204   24.1180   38.4652 C   0  0  0  0  0  0  0  0  0  0  0  0
   41.0999   24.9173   39.6823 N   0  0  0  0  0  0  0  0  0  0  0  0
   42.4654   25.4988   39.7125 C   0  0  0  0  0  0  0  0  0  0  0  0
   42.7983   26.3907   40.9456 C   0  0  0  0  0  0  0  0  0  0  0  0
   41.8768   27.6226   40.9101 C   0  0  0  0  0  0  0  0  0  0  0  0
   42.1927   28.4698   39.7630 N   0  0  0  0  0  0  0  0  0  0  0  0
  1  2  1  0  0  0  0
  2  3  1  0  0  0  0
  3  4  1  0  0  0  0
  4  5  1  0  0  0  0
  5  6  1  0  0  0  0
  6  7  1  0  0  0  0
  7  8  1  0  0  0  0
  8  9  1  0  0  0  0
  9 10  1  0  0  0  0
 10 11  1  0  0  0  0
 11 12  1  0  0  0  0
 12 13  1  0  0  0  0
 13 14  1  0  0  0  0
M  END
>  <CHROM.1>
179.32529458,-173.96993549,-90.87797614,148.64322869,-176.22207647,-178.08495523
-179.94444993,173.74612129,177.93718130,-64.04005198,-66.56290850,39.76765282
22.69846547,38.08650977,-2.24588799,-0.81442375,-0.10004876

>  <Name>
ligand

>  <RI>
0

>  <Rbt.Current_Directory>
/home/itssahil/PROJECTS/Mol_Feturizer/New_Systems/rnas/1EVV

>  <Rbt.Executable>
rbdock ($Id: //depot/dev/client3/rdock/2013.1/src/exe/rbdock.cxx#4 $)

>  <Rbt.Library>
libRbt.so (2013.1, Build901 2013/11/27)

>  <Rbt.Parameter_File>
/export/apps/rDock/src/rDock_2013.1_src/data/scripts/dock_solv.prm

>  <Rbt.Receptor>
prm/pocket_docking_8.prm

>  <SCORE>
-8.76363

>  <SCORE.INTER>
0.356004

>  <SCORE.INTER.CONST>
1

>  <SCORE.INTER.POLAR>
0

>  <SCORE.INTER.ROT>
11

>  <SCORE.INTER.SOLV>
6.82856

>  <SCORE.INTER.VDW>
-12.9722

>  <SCORE.INTER.norm>
0.0254288

>  <SCORE.INTRA>
-9.11963

>  <SCORE.INTRA.DIHEDRAL>
-18.4774

>  <SCORE.INTRA.DIHEDRAL.0>
20.2131

>  <SCORE.INTRA.POLAR>
0

>  <SCORE.INTRA.POLAR.0>
0

>  <SCORE.INTRA.REPUL>
0

>  <SCORE.INTRA.REPUL.0>
0

>  <SCORE.INTRA.SOLV>
0.292697

>  <SCORE.INTRA.SOLV.lig_0>
-48.2851

>  <SCORE.INTRA.VDW>
-0.0272954

>  <SCORE.INTRA.VDW.0>
-1.08658

>  <SCORE.INTRA.norm>
-0.651402

>  <SCORE.RESTR>
0

>  <SCORE.RESTR.CAVITY>
0

>  <SCORE.RESTR.norm>
0

>  <SCORE.SYSTEM>
0

>  <SCORE.SYSTEM.CONST>
0

>  <SCORE.SYSTEM.DIHEDRAL>
0

>  <SCORE.SYSTEM.SOLV>
0

>  <SCORE.SYSTEM.norm>
0

>  <SCORE.heavy>
14

>  <SCORE.norm>
-0.625973

>  <RMSD>
4.771

$$$$
ligand
 OpenBabel11021811393D
libRbt.so/2013.1/901 2013/11/27
 14 13  0  0  0  0  0  0  0  0999 V2000
   39.6789   17.6173   37.5628 N   0  0  0  0  0  0  0  0  0  0  0  0
   38.3192   17.1065   37.6437 C   0  0  0  0  0  0  0  0  0  0  0  0
   37.4431   17.7341   36.5247 C   0  0  0  0  0  0  0  0  0  0  0  0
   37.1923   19.2835   36.5695 C   0  0  0  0  0  0  0  0  0  0  0  0
   38.4220   20.1441   36.4156 N   0  0  0  0  0  0  0  0  0  0  0  0
   38.1251   21.5588   36.0470 C   0  0  0  0  0  0  0  0  0  0  0  0
   38.3879   22.5551   37.1617 C   0  0  0  0  0  0  0  0  0  0  0  0
   39.8566   22.6373   37.5361 C   0  0  0  0  0  0  0  0  0  0  0  0
   40.0060   23.7591   38.4908 C   0  0  0  0  0  0  0  0  0  0  0  0
   41.3980   24.0743   38.8922 N   0  0  0  0  0  0  0  0  0  0  0  0
   41.4936   25.1277   39.9337 C   0  0  0  0  0  0  0  0  0  0  0  0
   42.9287   25.4481   40.4481 C   0  0  0  0  0  0  0  0  0  0  0  0
   43.5119   24.1684   41.0728 C   0  0  0  0  0  0  0  0  0  0  0  0
   44.8606   24.4102   41.5789 N   0  0  0  0  0  0  0  0  0  0  0  0
  1  2  1  0  0  0  0
  2  3  1  0  0  0  0
  3  4  1  0  0  0  0
  4  5  1  0  0  0  0
  5  6  1  0  0  0  0
  6  7  1  0  0  0  0
  7  8  1  0  0  0  0
  8  9  1  0  0  0  0
  9 10  1  0  0  0  0
 10 11  1  0  0  0  0
 11 12  1  0  0  0  0
 12 13  1  0  0  0  0
 13 14  1  0  0  0  0
M  END
>  <CHROM.1>
-64.49408185,63.43226710,162.30452048,109.30936699,64.85968978,172.51144089
-175.13930619,-175.18148932,176.94071074,-60.76805406,-179.80653390,40.11560098
21.83043800,38.27683646,-2.39112277,-0.67064238,-0.03737802

>  <Name>
ligand

>  <RI>
0

>  <Rbt.Current_Directory>
/home/itssahil/PROJECTS/Mol_Feturizer/New_Systems/rnas/1EVV

>  <Rbt.Executable>
rbdock ($Id: //depot/dev/client3/rdock/2013.1/src/exe/rbdock.cxx#4 $)

>  <Rbt.Library>
libRbt.so (2013.1, Build901 2013/11/27)

>  <Rbt.Parameter_File>
/export/apps/rDock/src/rDock_2013.1_src/data/scripts/dock_solv.prm

>  <Rbt.Receptor>
prm/pocket_docking_7.prm

>  <SCORE>
-9.78391

>  <SCORE.INTER>
-1.16526

>  <SCORE.INTER.CONST>
1

>  <SCORE.INTER.POLAR>
0

>  <SCORE.INTER.ROT>
11

>  <SCORE.INTER.SOLV>
7.7413

>  <SCORE.INTER.VDW>
-14.2906

>  <SCORE.INTER.norm>
-0.0832331

>  <SCORE.INTRA>
-8.61865

>  <SCORE.INTRA.DIHEDRAL>
-18.3055

>  <SCORE.INTRA.DIHEDRAL.0>
20.2131

>  <SCORE.INTRA.POLAR>
0

>  <SCORE.INTRA.POLAR.0>
0

>  <SCORE.INTRA.REPUL>
0

>  <SCORE.INTRA.REPUL.0>
0

>  <SCORE.INTRA.SOLV>
1.74184

>  <SCORE.INTRA.SOLV.lig_0>
-48.2851

>  <SCORE.INTRA.VDW>
-0.336811

>  <SCORE.INTRA.VDW.0>
-1.08658

>  <SCORE.INTRA.norm>
-0.615618

>  <SCORE.RESTR>
0

>  <SCORE.RESTR.CAVITY>
0

>  <SCORE.RESTR.norm>
0

>  <SCORE.SYSTEM>
0

>  <SCORE.SYSTEM.CONST>
0

>  <SCORE.SYSTEM.DIHEDRAL>
0

>  <SCORE.SYSTEM.SOLV>
0

>  <SCORE.SYSTEM.norm>
0

>  <SCORE.heavy>
14

>  <SCORE.norm>
-0.698851

>  <RMSD>
4.772

$$$$
ligand
 OpenBabel11021811393D
libRbt.so/2013.1/901 2013/11/27
 14 13  0  0  0  0  0  0  0  0999 V2000
   37.6134   14.9386   36.2493 N   0  0  0  0  0  0  0  0  0  0  0  0
   37.0769   16.1832   36.7778 C   0  0  0  0  0  0  0  0  0  0  0  0
   37.7314   17.3963   36.0611 C   0  0  0  0  0  0  0  0  0  0  0  0
   37.3596   18.8361   36.5652 C   0  0  0  0  0  0  0  0  0  0  0  0
   38.0334   19.9724   35.8363 N   0  0  0  0  0  0  0  0  0  0  0  0
   37.9997   21.2673   36.5763 C   0  0  0  0  0  0  0  0  0  0  0  0
   39.3518   21.7120   37.1037 C   0  0  0  0  0  0  0  0  0  0  0  0
   39.2894   23.0539   37.8105 C   0  0  0  0  0  0  0  0  0  0  0  0
   40.6707   23.4056   38.2112 C   0  0  0  0  0  0  0  0  0  0  0  0
   40.8179   24.6934   38.9310 N   0  0  0  0  0  0  0  0  0  0  0  0
   42.0630   24.7882   39.7337 C   0  0  0  0  0  0  0  0  0  0  0  0
   42.7278   26.1957   39.7951 C   0  0  0  0  0  0  0  0  0  0  0  0
   41.7571   27.1548   40.5063 C   0  0  0  0  0  0  0  0  0  0  0  0
   42.3083   28.5067   40.5508 N   0  0  0  0  0  0  0  0  0  0  0  0
  1  2  1  0  0  0  0
  2  3  1  0  0  0  0
  3  4  1  0  0  0  0
  4  5  1  0  0  0  0
  5  6  1  0  0  0  0
  6  7  1  0  0  0  0
  7  8  1  0  0  0  0
  8  9  1  0  0  0  0
  9 10  1  0  0  0  0
 10 11  1  0  0  0  0
 11 12  1  0  0  0  0
 12 13  1  0  0  0  0
 13 14  1  0  0  0  0
M  END
>  <CHROM.1>
-175.63293095,179.61974117,-162.30929937,110.03777492,178.09213745,-177.08737823
-179.64188043,158.89417715,144.52342597,63.91471043,-177.94846628,39.62857546
22.00744685,37.90774173,-2.14642655,-0.73389004,-0.04035912

>  <Name>
ligand

>  <RI>
0

>  <Rbt.Current_Directory>
/home/itssahil/PROJECTS/Mol_Feturizer/New_Systems/rnas/1EVV

>  <Rbt.Executable>
rbdock ($Id: //depot/dev/client3/rdock/2013.1/src/exe/rbdock.cxx#4 $)

>  <Rbt.Library>
libRbt.so (2013.1, Build901 2013/11/27)

>  <Rbt.Parameter_File>
/export/apps/rDock/src/rDock_2013.1_src/data/scripts/dock_solv.prm

>  <Rbt.Receptor>
prm/pocket_docking_8.prm

>  <SCORE>
-9.35303

>  <SCORE.INTER>
0.121841

>  <SCORE.INTER.CONST>
1

>  <SCORE.INTER.POLAR>
0

>  <SCORE.INTER.ROT>
11

>  <SCORE.INTER.SOLV>
7.43141

>  <SCORE.INTER.VDW>
-13.3292

>  <SCORE.INTER.norm>
0.00870292

>  <SCORE.INTRA>
-9.47487

>  <SCORE.INTRA.DIHEDRAL>
-17.5573

>  <SCORE.INTRA.DIHEDRAL.0>
20.2131

>  <SCORE.INTRA.POLAR>
0

>  <SCORE.INTRA.POLAR.0>
0

>  <SCORE.INTRA.REPUL>
0

>  <SCORE.INTRA.REPUL.0>
0

>  <SCORE.INTRA.SOLV>
-1.11415

>  <SCORE.INTRA.SOLV.lig_0>
-48.2851

>  <SCORE.INTRA.VDW>
-0.139136

>  <SCORE.INTRA.VDW.0>
-1.08658

>  <SCORE.INTRA.norm>
-0.676776

>  <SCORE.RESTR>
0

>  <SCORE.RESTR.CAVITY>
0

>  <SCORE.RESTR.norm>
0

>  <SCORE.SYSTEM>
0

>  <SCORE.SYSTEM.CONST>
0

>  <SCORE.SYSTEM.DIHEDRAL>
0

>  <SCORE.SYSTEM.SOLV>
0

>  <SCORE.SYSTEM.norm>
0

>  <SCORE.heavy>
14

>  <SCORE.norm>
-0.668073

>  <RMSD>
4.777

$$$$
ligand
 OpenBabel11021811393D
libRbt.so/2013.1/901 2013/11/27
 14 13  0  0  0  0  0  0  0  0999 V2000
   37.6335   14.6816   36.4834 N   0  0  0  0  0  0  0  0  0  0  0  0
   37.0452   15.9804   36.7719 C   0  0  0  0  0  0  0  0  0  0  0  0
   37.9254   17.1125   36.1742 C   0  0  0  0  0  0  0  0  0  0  0  0
   37.4844   18.5979   36.4277 C   0  0  0  0  0  0  0  0  0  0  0  0
   38.3190   19.6487   35.7379 N   0  0  0  0  0  0  0  0  0  0  0  0
   37.9661   21.0464   36.1220 C   0  0  0  0  0  0  0  0  0  0  0  0
   38.9226   21.6721   37.1208 C   0  0  0  0  0  0  0  0  0  0  0  0
   38.4663   23.0434   37.5849 C   0  0  0  0  0  0  0  0  0  0  0  0
   39.3945   23.4785   38.6533 C   0  0  0  0  0  0  0  0  0  0  0  0
   40.7815   23.7662   38.2154 N   0  0  0  0  0  0  0  0  0  0  0  0
   41.3722   24.9668   38.8583 C   0  0  0  0  0  0  0  0  0  0  0  0
   42.3736   24.6937   40.0199 C   0  0  0  0  0  0  0  0  0  0  0  0
   43.5839   23.9384   39.4430 C   0  0  0  0  0  0  0  0  0  0  0  0
   44.5920   23.7144   40.4760 N   0  0  0  0  0  0  0  0  0  0  0  0
  1  2  1  0  0  0  0
  2  3  1  0  0  0  0
  3  4  1  0  0  0  0
  4  5  1  0  0  0  0
  5  6  1  0  0  0  0
  6  7  1  0  0  0  0
  7  8  1  0  0  0  0
  8  9  1  0  0  0  0
  9 10  1  0  0  0  0
 10 11  1  0  0  0  0
 11 12  1  0  0  0  0
 12 13  1  0  0  0  0
 13 14  1  0  0  0  0
M  END
>  <CHROM.1>
-177.71601748,-175.64078775,-173.54445070,101.77637244,-174.79554598,174.02448596
67.89919483,139.31098199,102.03465279,63.38997947,177.07196785,39.70405025
21.16751406,37.72060613,-2.21270839,-0.51370122,0.04882117

>  <Name>
ligand

>  <RI>
0

>  <Rbt.Current_Directory>
/home/itssahil/PROJECTS/Mol_Feturizer/New_Systems/rnas/1EVV

>  <Rbt.Executable>
rbdock ($Id: //depot/dev/client3/rdock/2013.1/src/exe/rbdock.cxx#4 $)

>  <Rbt.Library>
libRbt.so (2013.1, Build901 2013/11/27)

>  <Rbt.Parameter_File>
/export/apps/rDock/src/rDock_2013.1_src/data/scripts/dock_solv.prm

>  <Rbt.Receptor>
prm/pocket_docking_7.prm

>  <SCORE>
-9.44385

>  <SCORE.INTER>
-0.684461

>  <SCORE.INTER.CONST>
1

>  <SCORE.INTER.POLAR>
0

>  <SCORE.INTER.ROT>
11

>  <SCORE.INTER.SOLV>
7.24047

>  <SCORE.INTER.VDW>
-13.8031

>  <SCORE.INTER.norm>
-0.04889

>  <SCORE.INTRA>
-8.75939

>  <SCORE.INTRA.DIHEDRAL>
-16.71

>  <SCORE.INTRA.DIHEDRAL.0>
20.2131

>  <SCORE.INTRA.POLAR>
0

>  <SCORE.INTRA.POLAR.0>
0

>  <SCORE.INTRA.REPUL>
0

>  <SCORE.INTRA.REPUL.0>
0

>  <SCORE.INTRA.SOLV>
-0.730391

>  <SCORE.INTRA.SOLV.lig_0>
-48.2851

>  <SCORE.INTRA.VDW>
-0.039209

>  <SCORE.INTRA.VDW.0>
-1.08658

>  <SCORE.INTRA.norm>
-0.625671

>  <SCORE.RESTR>
0

>  <SCORE.RESTR.CAVITY>
0

>  <SCORE.RESTR.norm>
0

>  <SCORE.SYSTEM>
0

>  <SCORE.SYSTEM.CONST>
0

>  <SCORE.SYSTEM.DIHEDRAL>
0

>  <SCORE.SYSTEM.SOLV>
0

>  <SCORE.SYSTEM.norm>
0

>  <SCORE.heavy>
14

>  <SCORE.norm>
-0.674561

>  <RMSD>
4.781

$$$$
ligand
 OpenBabel11021811393D
libRbt.so/2013.1/901 2013/11/27
 14 13  0  0  0  0  0  0  0  0999 V2000
   43.3215   25.9834   40.1982 N   0  0  0  0  0  0  0  0  0  0  0  0
   42.8409   25.1338   39.1196 C   0  0  0  0  0  0  0  0  0  0  0  0
   41.3429   24.7849   39.3388 C   0  0  0  0  0  0  0  0  0  0  0  0
   40.6464   23.8447   38.2917 C   0  0  0  0  0  0  0  0  0  0  0  0
   39.1966   23.5298   38.5667 N   0  0  0  0  0  0  0  0  0  0  0  0
   38.4393   23.0785   37.3633 C   0  0  0  0  0  0  0  0  0  0  0  0
   38.6541   21.6178   37.0110 C   0  0  0  0  0  0  0  0  0  0  0  0
   37.8014   21.1693   35.8380 C   0  0  0  0  0  0  0  0  0  0  0  0
   37.9336   19.6982   35.7340 C   0  0  0  0  0  0  0  0  0  0  0  0
   37.4120   18.9276   36.8883 N   0  0  0  0  0  0  0  0  0  0  0  0
   37.8275   17.5025   36.8897 C   0  0  0  0  0  0  0  0  0  0  0  0
   36.8202   16.4991   36.2530 C   0  0  0  0  0  0  0  0  0  0  0  0
   37.3937   15.0796   36.4075 C   0  0  0  0  0  0  0  0  0  0  0  0
   38.6203   14.9315   35.6284 N   0  0  0  0  0  0  0  0  0  0  0  0
  1  2  1  0  0  0  0
  2  3  1  0  0  0  0
  3  4  1  0  0  0  0
  4  5  1  0  0  0  0
  5  6  1  0  0  0  0
  6  7  1  0  0  0  0
  7  8  1  0  0  0  0
  8  9  1  0  0  0  0
  9 10  1  0  0  0  0
 10 11  1  0  0  0  0
 11 12  1  0  0  0  0
 12 13  1  0  0  0  0
 13 14  1  0  0  0  0
M  END
>  <CHROM.1>
-178.65299953,179.33684155,158.91467573,80.23799175,176.28877288,-171.05456279
63.94411888,-167.13611945,-94.78412004,-177.38568932,-65.41105892,39.16054693
20.84147339,37.39469011,-1.08134114,0.47440702,-3.04030623

>  <Name>
ligand

>  <RI>
0

>  <Rbt.Current_Directory>
/home/itssahil/PROJECTS/Mol_Feturizer/New_Systems/rnas/1EVV

>  <Rbt.Executable>
rbdock ($Id: //depot/dev/client3/rdock/2013.1/src/exe/rbdock.cxx#4 $)

>  <Rbt.Library>
libRbt.so (2013.1, Build901 2013/11/27)

>  <Rbt.Parameter_File>
/export/apps/rDock/src/rDock_2013.1_src/data/scripts/dock_solv.prm

>  <Rbt.Receptor>
prm/pocket_docking_7.prm

>  <SCORE>
-8.70465

>  <SCORE.INTER>
0.121666

>  <SCORE.INTER.CONST>
1

>  <SCORE.INTER.POLAR>
0

>  <SCORE.INTER.ROT>
11

>  <SCORE.INTER.SOLV>
7.79479

>  <SCORE.INTER.VDW>
-13.4505

>  <SCORE.INTER.norm>
0.0086904

>  <SCORE.INTRA>
-8.82632

>  <SCORE.INTRA.DIHEDRAL>
-18.1124

>  <SCORE.INTRA.DIHEDRAL.0>
20.2131

>  <SCORE.INTRA.POLAR>
0

>  <SCORE.INTRA.POLAR.0>
0

>  <SCORE.INTRA.REPUL>
0

>  <SCORE.INTRA.REPUL.0>
0

>  <SCORE.INTRA.SOLV>
-0.210999

>  <SCORE.INTRA.SOLV.lig_0>
-48.2851

>  <SCORE.INTRA.VDW>
0.335357

>  <SCORE.INTRA.VDW.0>
-1.08658

>  <SCORE.INTRA.norm>
-0.630451

>  <SCORE.RESTR>
0

>  <SCORE.RESTR.CAVITY>
0

>  <SCORE.RESTR.norm>
0

>  <SCORE.SYSTEM>
0

>  <SCORE.SYSTEM.CONST>
0

>  <SCORE.SYSTEM.DIHEDRAL>
0

>  <SCORE.SYSTEM.SOLV>
0

>  <SCORE.SYSTEM.norm>
0

>  <SCORE.heavy>
14

>  <SCORE.norm>
-0.621761

>  <RMSD>
4.783

$$$$
ligand
 OpenBabel11021811393D
libRbt.so/2013.1/901 2013/11/27
 14 13  0  0  0  0  0  0  0  0999 V2000
   43.5031   19.0412   35.3100 N   0  0  0  0  0  0  0  0  0  0  0  0
   42.2683   19.0401   36.0790 C   0  0  0  0  0  0  0  0  0  0  0  0
   42.2080   17.7862   36.9945 C   0  0  0  0  0  0  0  0  0  0  0  0
   40.9349   17.5926   37.8929 C   0  0  0  0  0  0  0  0  0  0  0  0
   39.6296   17.4605   37.1478 N   0  0  0  0  0  0  0  0  0  0  0  0
   38.8460   18.7279   37.0756 C   0  0  0  0  0  0  0  0  0  0  0  0
   37.4116   18.5412   36.6155 C   0  0  0  0  0  0  0  0  0  0  0  0
   36.6248   19.8394   36.6177 C   0  0  0  0  0  0  0  0  0  0  0  0
   37.0107   20.5907   35.4016 C   0  0  0  0  0  0  0  0  0  0  0  0
   38.3483   21.2291   35.4436 N   0  0  0  0  0  0  0  0  0  0  0  0
   38.6679   22.0226   34.2305 C   0  0  0  0  0  0  0  0  0  0  0  0
   40.1177   22.5865   34.1484 C   0  0  0  0  0  0  0  0  0  0  0  0
   40.2391   23.4134   32.8563 C   0  0  0  0  0  0  0  0  0  0  0  0
   41.5823   23.9723   32.7262 N   0  0  0  0  0  0  0  0  0  0  0  0
  1  2  1  0  0  0  0
  2  3  1  0  0  0  0
  3  4  1  0  0  0  0
  4  5  1  0  0  0  0
  5  6  1  0  0  0  0
  6  7  1  0  0  0  0
  7  8  1  0  0  0  0
  8  9  1  0  0  0  0
  9 10  1  0  0  0  0
 10 11  1  0  0  0  0
 11 12  1  0  0  0  0
 12 13  1  0  0  0  0
 13 14  1  0  0  0  0
M  END
>  <CHROM.1>
-179.12047805,60.91587631,-98.34595752,-166.82605825,177.22974591,78.61024999
-74.70077937,-177.33779677,-173.51844832,-178.04317381,179.87227277,39.81334428
20.13157850,35.61014845,-1.55827029,0.12861421,-0.62851183

>  <Name>
ligand

>  <RI>
0

>  <Rbt.Current_Directory>
/home/itssahil/PROJECTS/Mol_Feturizer/New_Systems/rnas/1EVV

>  <Rbt.Executable>
rbdock ($Id: //depot/dev/client3/rdock/2013.1/src/exe/rbdock.cxx#4 $)

>  <Rbt.Library>
libRbt.so (2013.1, Build901 2013/11/27)

>  <Rbt.Parameter_File>
/export/apps/rDock/src/rDock_2013.1_src/data/scripts/dock_solv.prm

>  <Rbt.Receptor>
prm/pocket_docking_4.prm

>  <SCORE>
-3.4851

>  <SCORE.INTER>
4.98486

>  <SCORE.INTER.CONST>
1

>  <SCORE.INTER.POLAR>
0

>  <SCORE.INTER.ROT>
11

>  <SCORE.INTER.SOLV>
4.55266

>  <SCORE.INTER.VDW>
-9.12764

>  <SCORE.INTER.norm>
0.356062

>  <SCORE.INTRA>
-8.46996

>  <SCORE.INTRA.DIHEDRAL>
-17.0129

>  <SCORE.INTRA.DIHEDRAL.0>
20.2131

>  <SCORE.INTRA.POLAR>
0

>  <SCORE.INTRA.POLAR.0>
0

>  <SCORE.INTRA.REPUL>
0

>  <SCORE.INTRA.REPUL.0>
0

>  <SCORE.INTRA.SOLV>
-0.034996

>  <SCORE.INTRA.SOLV.lig_0>
-48.2851

>  <SCORE.INTRA.VDW>
0.0540081

>  <SCORE.INTRA.VDW.0>
-1.08658

>  <SCORE.INTRA.norm>
-0.604997

>  <SCORE.RESTR>
0

>  <SCORE.RESTR.CAVITY>
0

>  <SCORE.RESTR.norm>
0

>  <SCORE.SYSTEM>
0

>  <SCORE.SYSTEM.CONST>
0

>  <SCORE.SYSTEM.DIHEDRAL>
0

>  <SCORE.SYSTEM.SOLV>
0

>  <SCORE.SYSTEM.norm>
0

>  <SCORE.heavy>
14

>  <SCORE.norm>
-0.248936

>  <RMSD>
4.792

$$$$
ligand
 OpenBabel11021811393D
libRbt.so/2013.1/901 2013/11/27
 14 13  0  0  0  0  0  0  0  0999 V2000
   39.5233   26.1387   32.1021 N   0  0  0  0  0  0  0  0  0  0  0  0
   39.4902   25.2575   33.2590 C   0  0  0  0  0  0  0  0  0  0  0  0
   38.0523   24.7105   33.4755 C   0  0  0  0  0  0  0  0  0  0  0  0
   37.8131   23.7263   34.6753 C   0  0  0  0  0  0  0  0  0  0  0  0
   38.6063   22.4435   34.6296 N   0  0  0  0  0  0  0  0  0  0  0  0
   38.3043   21.5081   35.7517 C   0  0  0  0  0  0  0  0  0  0  0  0
   37.1345   20.5789   35.4827 C   0  0  0  0  0  0  0  0  0  0  0  0
   36.7899   19.7132   36.6810 C   0  0  0  0  0  0  0  0  0  0  0  0
   37.7577   18.5930   36.7085 C   0  0  0  0  0  0  0  0  0  0  0  0
   39.1521   18.9628   37.0508 N   0  0  0  0  0  0  0  0  0  0  0  0
   40.0265   17.7960   37.3294 C   0  0  0  0  0  0  0  0  0  0  0  0
   41.5545   18.0286   37.1349 C   0  0  0  0  0  0  0  0  0  0  0  0
   41.8138   18.2929   35.6412 C   0  0  0  0  0  0  0  0  0  0  0  0
   43.2258   18.5841   35.4068 N   0  0  0  0  0  0  0  0  0  0  0  0
  1  2  1  0  0  0  0
  2  3  1  0  0  0  0
  3  4  1  0  0  0  0
  4  5  1  0  0  0  0
  5  6  1  0  0  0  0
  6  7  1  0  0  0  0
  7  8  1  0  0  0  0
  8  9  1  0  0  0  0
  9 10  1  0  0  0  0
 10 11  1  0  0  0  0
 11 12  1  0  0  0  0
 12 13  1  0  0  0  0
 13 14  1  0  0  0  0
M  END
>  <CHROM.1>
179.49460077,-60.52669521,-177.28970630,87.01538822,-175.75694765,-79.65885865
69.51442969,168.59547442,156.49925624,-65.50295846,177.21321212,39.23136170
21.02366050,35.38083868,-1.80951137,-0.22625297,2.62231871

>  <Name>
ligand

>  <RI>
0

>  <Rbt.Current_Directory>
/home/itssahil/PROJECTS/Mol_Feturizer/New_Systems/rnas/1EVV

>  <Rbt.Executable>
rbdock ($Id: //depot/dev/client3/rdock/2013.1/src/exe/rbdock.cxx#4 $)

>  <Rbt.Library>
libRbt.so (2013.1, Build901 2013/11/27)

>  <Rbt.Parameter_File>
/export/apps/rDock/src/rDock_2013.1_src/data/scripts/dock_solv.prm

>  <Rbt.Receptor>
prm/pocket_docking_5.prm

>  <SCORE>
-2.73298

>  <SCORE.INTER>
5.35201

>  <SCORE.INTER.CONST>
1

>  <SCORE.INTER.POLAR>
0

>  <SCORE.INTER.ROT>
11

>  <SCORE.INTER.SOLV>
4.31981

>  <SCORE.INTER.VDW>
-8.80526

>  <SCORE.INTER.norm>
0.382286

>  <SCORE.INTRA>
-8.08499

>  <SCORE.INTRA.DIHEDRAL>
-17.1656

>  <SCORE.INTRA.DIHEDRAL.0>
20.2131

>  <SCORE.INTRA.POLAR>
0

>  <SCORE.INTRA.POLAR.0>
0

>  <SCORE.INTRA.REPUL>
0

>  <SCORE.INTRA.REPUL.0>
0

>  <SCORE.INTRA.SOLV>
0.248888

>  <SCORE.INTRA.SOLV.lig_0>
-48.2851

>  <SCORE.INTRA.VDW>
0.373365

>  <SCORE.INTRA.VDW.0>
-1.08658

>  <SCORE.INTRA.norm>
-0.577499

>  <SCORE.RESTR>
0

>  <SCORE.RESTR.CAVITY>
0

>  <SCORE.RESTR.norm>
0

>  <SCORE.SYSTEM>
0

>  <SCORE.SYSTEM.CONST>
0

>  <SCORE.SYSTEM.DIHEDRAL>
0

>  <SCORE.SYSTEM.SOLV>
0

>  <SCORE.SYSTEM.norm>
0

>  <SCORE.heavy>
14

>  <SCORE.norm>
-0.195213

>  <RMSD>
4.792

$$$$
ligand
 OpenBabel11021811393D
libRbt.so/2013.1/901 2013/11/27
 14 13  0  0  0  0  0  0  0  0999 V2000
   40.9578   24.9577   37.6028 N   0  0  0  0  0  0  0  0  0  0  0  0
   40.8839   23.6149   38.1573 C   0  0  0  0  0  0  0  0  0  0  0  0
   40.1585   22.6643   37.1654 C   0  0  0  0  0  0  0  0  0  0  0  0
   39.9942   21.1582   37.5776 C   0  0  0  0  0  0  0  0  0  0  0  0
   39.2487   20.2936   36.5910 N   0  0  0  0  0  0  0  0  0  0  0  0
   38.7061   19.0358   37.1817 C   0  0  0  0  0  0  0  0  0  0  0  0
   37.9971   18.1402   36.1821 C   0  0  0  0  0  0  0  0  0  0  0  0
   37.4746   16.8620   36.8124 C   0  0  0  0  0  0  0  0  0  0  0  0
   36.9560   16.0107   35.7175 C   0  0  0  0  0  0  0  0  0  0  0  0
   37.9819   15.4450   34.8087 N   0  0  0  0  0  0  0  0  0  0  0  0
   38.2601   16.2934   33.6228 C   0  0  0  0  0  0  0  0  0  0  0  0
   39.5226   15.9117   32.7938 C   0  0  0  0  0  0  0  0  0  0  0  0
   39.7408   16.9962   31.7241 C   0  0  0  0  0  0  0  0  0  0  0  0
   40.8933   16.6710   30.8879 N   0  0  0  0  0  0  0  0  0  0  0  0
  1  2  1  0  0  0  0
  2  3  1  0  0  0  0
  3  4  1  0  0  0  0
  4  5  1  0  0  0  0
  5  6  1  0  0  0  0
  6  7  1  0  0  0  0
  7  8  1  0  0  0  0
  8  9  1  0  0  0  0
  9 10  1  0  0  0  0
 10 11  1  0  0  0  0
 11 12  1  0  0  0  0
 12 13  1  0  0  0  0
 13 14  1  0  0  0  0
M  END
>  <CHROM.1>
179.25238646,178.38657747,-160.20420346,-177.98443876,179.22365284,-173.32174328
69.66528643,-91.65173388,167.72493903,-173.07988849,-178.37583483,39.19802266
18.86085614,35.48772549,-1.26757563,-0.89144726,-2.34693676

>  <Name>
ligand

>  <RI>
0

>  <Rbt.Current_Directory>
/home/itssahil/PROJECTS/Mol_Feturizer/New_Systems/rnas/1EVV

>  <Rbt.Executable>
rbdock ($Id: //depot/dev/client3/rdock/2013.1/src/exe/rbdock.cxx#4 $)

>  <Rbt.Library>
libRbt.so (2013.1, Build901 2013/11/27)

>  <Rbt.Parameter_File>
/export/apps/rDock/src/rDock_2013.1_src/data/scripts/dock_solv.prm

>  <Rbt.Receptor>
prm/pocket_docking_8.prm

>  <SCORE>
-5.28187

>  <SCORE.INTER>
4.23441

>  <SCORE.INTER.CONST>
1

>  <SCORE.INTER.POLAR>
0

>  <SCORE.INTER.ROT>
11

>  <SCORE.INTER.SOLV>
8.87204

>  <SCORE.INTER.VDW>
-11.0677

>  <SCORE.INTER.norm>
0.302458

>  <SCORE.INTRA>
-9.51628

>  <SCORE.INTRA.DIHEDRAL>
-18.4093

>  <SCORE.INTRA.DIHEDRAL.0>
20.2131

>  <SCORE.INTRA.POLAR>
0

>  <SCORE.INTRA.POLAR.0>
0

>  <SCORE.INTRA.REPUL>
0

>  <SCORE.INTRA.REPUL.0>
0

>  <SCORE.INTRA.SOLV>
-1.0221

>  <SCORE.INTRA.SOLV.lig_0>
-48.2851

>  <SCORE.INTRA.VDW>
0.199399

>  <SCORE.INTRA.VDW.0>
-1.08658

>  <SCORE.INTRA.norm>
-0.679734

>  <SCORE.RESTR>
0

>  <SCORE.RESTR.CAVITY>
0

>  <SCORE.RESTR.norm>
0

>  <SCORE.SYSTEM>
0

>  <SCORE.SYSTEM.CONST>
0

>  <SCORE.SYSTEM.DIHEDRAL>
0

>  <SCORE.SYSTEM.SOLV>
0

>  <SCORE.SYSTEM.norm>
0

>  <SCORE.heavy>
14

>  <SCORE.norm>
-0.377276

>  <RMSD>
4.792

$$$$
ligand
 OpenBabel11021811393D
libRbt.so/2013.1/901 2013/11/27
 14 13  0  0  0  0  0  0  0  0999 V2000
   35.5658   18.3194   31.5526 N   0  0  0  0  0  0  0  0  0  0  0  0
   36.5592   17.3228   31.1835 C   0  0  0  0  0  0  0  0  0  0  0  0
   37.6467   17.2152   32.2877 C   0  0  0  0  0  0  0  0  0  0  0  0
   37.1947   16.7687   33.7236 C   0  0  0  0  0  0  0  0  0  0  0  0
   38.2700   16.8023   34.7815 N   0  0  0  0  0  0  0  0  0  0  0  0
   37.7497   17.0178   36.1630 C   0  0  0  0  0  0  0  0  0  0  0  0
   37.2523   18.4283   36.4220 C   0  0  0  0  0  0  0  0  0  0  0  0
   38.3396   19.4722   36.2424 C   0  0  0  0  0  0  0  0  0  0  0  0
   37.7339   20.7929   36.5274 C   0  0  0  0  0  0  0  0  0  0  0  0
   38.6449   21.9550   36.3929 N   0  0  0  0  0  0  0  0  0  0  0  0
   38.3538   23.0536   37.3479 C   0  0  0  0  0  0  0  0  0  0  0  0
   38.6822   24.4928   36.8504 C   0  0  0  0  0  0  0  0  0  0  0  0
   37.8136   24.7835   35.6139 C   0  0  0  0  0  0  0  0  0  0  0  0
   38.1004   26.1140   35.0837 N   0  0  0  0  0  0  0  0  0  0  0  0
  1  2  1  0  0  0  0
  2  3  1  0  0  0  0
  3  4  1  0  0  0  0
  4  5  1  0  0  0  0
  5  6  1  0  0  0  0
  6  7  1  0  0  0  0
  7  8  1  0  0  0  0
  8  9  1  0  0  0  0
  9 10  1  0  0  0  0
 10 11  1  0  0  0  0
 11 12  1  0  0  0  0
 12 13  1  0  0  0  0
 13 14  1  0  0  0  0
M  END
>  <CHROM.1>
61.52811145,-174.72034085,152.48244357,-72.06212910,-60.43366723,-179.73717571
-179.50919767,-146.75286043,-149.14206902,61.87634833,-178.76327187,37.70765727
20.18107022,35.01255402,2.07542125,1.25899994,3.06065065

>  <Name>
ligand

>  <RI>
0

>  <Rbt.Current_Directory>
/home/itssahil/PROJECTS/Mol_Feturizer/New_Systems/rnas/1EVV

>  <Rbt.Executable>
rbdock ($Id: //depot/dev/client3/rdock/2013.1/src/exe/rbdock.cxx#4 $)

>  <Rbt.Library>
libRbt.so (2013.1, Build901 2013/11/27)

>  <Rbt.Parameter_File>
/export/apps/rDock/src/rDock_2013.1_src/data/scripts/dock_solv.prm

>  <Rbt.Receptor>
prm/pocket_docking_5.prm

>  <SCORE>
-6.43222

>  <SCORE.INTER>
2.5351

>  <SCORE.INTER.CONST>
1

>  <SCORE.INTER.POLAR>
0

>  <SCORE.INTER.ROT>
11

>  <SCORE.INTER.SOLV>
9.53229

>  <SCORE.INTER.VDW>
-12.4207

>  <SCORE.INTER.norm>
0.181079

>  <SCORE.INTRA>
-8.96733

>  <SCORE.INTRA.DIHEDRAL>
-18.1121

>  <SCORE.INTRA.DIHEDRAL.0>
20.2131

>  <SCORE.INTRA.POLAR>
0

>  <SCORE.INTRA.POLAR.0>
0

>  <SCORE.INTRA.REPUL>
0

>  <SCORE.INTRA.REPUL.0>
0

>  <SCORE.INTRA.SOLV>
0.0135083

>  <SCORE.INTRA.SOLV.lig_0>
-48.2851

>  <SCORE.INTRA.VDW>
0.0819577

>  <SCORE.INTRA.VDW.0>
-1.08658

>  <SCORE.INTRA.norm>
-0.640523

>  <SCORE.RESTR>
0

>  <SCORE.RESTR.CAVITY>
0

>  <SCORE.RESTR.norm>
0

>  <SCORE.SYSTEM>
0

>  <SCORE.SYSTEM.CONST>
0

>  <SCORE.SYSTEM.DIHEDRAL>
0

>  <SCORE.SYSTEM.SOLV>
0

>  <SCORE.SYSTEM.norm>
0

>  <SCORE.heavy>
14

>  <SCORE.norm>
-0.459445

>  <RMSD>
4.796

$$$$
ligand
 OpenBabel11021811393D
libRbt.so/2013.1/901 2013/11/27
 14 13  0  0  0  0  0  0  0  0999 V2000
   38.2227   16.0357   37.2192 N   0  0  0  0  0  0  0  0  0  0  0  0
   38.3131   17.4692   37.4499 C   0  0  0  0  0  0  0  0  0  0  0  0
   37.4260   18.2336   36.4290 C   0  0  0  0  0  0  0  0  0  0  0  0
   37.4902   19.8025   36.4293 C   0  0  0  0  0  0  0  0  0  0  0  0
   38.8341   20.3964   36.0860 N   0  0  0  0  0  0  0  0  0  0  0  0
   38.9860   21.8219   36.4988 C   0  0  0  0  0  0  0  0  0  0  0  0
   39.5233   22.0027   37.9069 C   0  0  0  0  0  0  0  0  0  0  0  0
   39.3355   23.4169   38.4255 C   0  0  0  0  0  0  0  0  0  0  0  0
   40.4535   24.2318   37.8979 C   0  0  0  0  0  0  0  0  0  0  0  0
   41.7015   24.1968   38.6975 N   0  0  0  0  0  0  0  0  0  0  0  0
   41.6720   25.0846   39.8869 C   0  0  0  0  0  0  0  0  0  0  0  0
   43.0496   25.3758   40.5533 C   0  0  0  0  0  0  0  0  0  0  0  0
   43.6294   24.0434   41.0598 C   0  0  0  0  0  0  0  0  0  0  0  0
   44.9609   24.2428   41.6261 N   0  0  0  0  0  0  0  0  0  0  0  0
  1  2  1  0  0  0  0
  2  3  1  0  0  0  0
  3  4  1  0  0  0  0
  4  5  1  0  0  0  0
  5  6  1  0  0  0  0
  6  7  1  0  0  0  0
  7  8  1  0  0  0  0
  8  9  1  0  0  0  0
  9 10  1  0  0  0  0
 10 11  1  0  0  0  0
 11 12  1  0  0  0  0
 12 13  1  0  0  0  0
 13 14  1  0  0  0  0
M  END
>  <CHROM.1>
-174.51885698,62.65027842,-161.95418621,89.09812597,-165.32077553,-82.68960776
-85.34632035,-79.96710749,-164.87777758,-62.24207171,176.65555988,40.25670257
21.88269133,38.29754010,-2.41292034,-0.71308957,-0.11154809

>  <Name>
ligand

>  <RI>
0

>  <Rbt.Current_Directory>
/home/itssahil/PROJECTS/Mol_Feturizer/New_Systems/rnas/1EVV

>  <Rbt.Executable>
rbdock ($Id: //depot/dev/client3/rdock/2013.1/src/exe/rbdock.cxx#4 $)

>  <Rbt.Library>
libRbt.so (2013.1, Build901 2013/11/27)

>  <Rbt.Parameter_File>
/export/apps/rDock/src/rDock_2013.1_src/data/scripts/dock_solv.prm

>  <Rbt.Receptor>
prm/pocket_docking_8.prm

>  <SCORE>
-8.00766

>  <SCORE.INTER>
-1.31029

>  <SCORE.INTER.CONST>
1

>  <SCORE.INTER.POLAR>
0

>  <SCORE.INTER.ROT>
11

>  <SCORE.INTER.SOLV>
6.0276

>  <SCORE.INTER.VDW>
-13.8161

>  <SCORE.INTER.norm>
-0.0935923

>  <SCORE.INTRA>
-6.69737

>  <SCORE.INTRA.DIHEDRAL>
-13.9277

>  <SCORE.INTRA.DIHEDRAL.0>
20.2131

>  <SCORE.INTRA.POLAR>
0

>  <SCORE.INTRA.POLAR.0>
0

>  <SCORE.INTRA.REPUL>
0

>  <SCORE.INTRA.REPUL.0>
0

>  <SCORE.INTRA.SOLV>
-0.329363

>  <SCORE.INTRA.SOLV.lig_0>
-48.2851

>  <SCORE.INTRA.VDW>
0.43115

>  <SCORE.INTRA.VDW.0>
-1.08658

>  <SCORE.INTRA.norm>
-0.478383

>  <SCORE.RESTR>
0

>  <SCORE.RESTR.CAVITY>
0

>  <SCORE.RESTR.norm>
0

>  <SCORE.SYSTEM>
0

>  <SCORE.SYSTEM.CONST>
0

>  <SCORE.SYSTEM.DIHEDRAL>
0

>  <SCORE.SYSTEM.SOLV>
0

>  <SCORE.SYSTEM.norm>
0

>  <SCORE.heavy>
14

>  <SCORE.norm>
-0.571976

>  <RMSD>
4.800

$$$$
ligand
 OpenBabel11021811393D
libRbt.so/2013.1/901 2013/11/27
 14 13  0  0  0  0  0  0  0  0999 V2000
   45.3803   22.8817   40.8981 N   0  0  0  0  0  0  0  0  0  0  0  0
   44.6987   23.9291   40.1534 C   0  0  0  0  0  0  0  0  0  0  0  0
   43.5065   24.4854   40.9798 C   0  0  0  0  0  0  0  0  0  0  0  0
   42.6560   25.6469   40.3528 C   0  0  0  0  0  0  0  0  0  0  0  0
   42.0207   25.3383   39.0194 N   0  0  0  0  0  0  0  0  0  0  0  0
   40.8522   24.4151   39.1079 C   0  0  0  0  0  0  0  0  0  0  0  0
   40.4102   23.8492   37.7706 C   0  0  0  0  0  0  0  0  0  0  0  0
   39.2424   22.8884   37.9013 C   0  0  0  0  0  0  0  0  0  0  0  0
   38.9145   22.4056   36.5405 C   0  0  0  0  0  0  0  0  0  0  0  0
   37.8053   21.4249   36.4615 N   0  0  0  0  0  0  0  0  0  0  0  0
   38.2482   20.0134   36.5859 C   0  0  0  0  0  0  0  0  0  0  0  0
   37.1264   18.9370   36.4885 C   0  0  0  0  0  0  0  0  0  0  0  0
   37.7781   17.5500   36.6290 C   0  0  0  0  0  0  0  0  0  0  0  0
   36.7744   16.4950   36.5155 N   0  0  0  0  0  0  0  0  0  0  0  0
  1  2  1  0  0  0  0
  2  3  1  0  0  0  0
  3  4  1  0  0  0  0
  4  5  1  0  0  0  0
  5  6  1  0  0  0  0
  6  7  1  0  0  0  0
  7  8  1  0  0  0  0
  8  9  1  0  0  0  0
  9 10  1  0  0  0  0
 10 11  1  0  0  0  0
 11 12  1  0  0  0  0
 12 13  1  0  0  0  0
 13 14  1  0  0  0  0
M  END
>  <CHROM.1>
178.99601143,58.12650443,73.77996085,-166.64622551,178.58426047,-179.71493395
178.78738084,-89.60536169,-179.11345119,179.59993533,-178.74324924,40.38665777
22.16167610,38.24317006,-0.68987069,0.55025006,-3.14111690

>  <Name>
ligand

>  <RI>
0

>  <Rbt.Current_Directory>
/home/itssahil/PROJECTS/Mol_Feturizer/New_Systems/rnas/1EVV

>  <Rbt.Executable>
rbdock ($Id: //depot/dev/client3/rdock/2013.1/src/exe/rbdock.cxx#4 $)

>  <Rbt.Library>
libRbt.so (2013.1, Build901 2013/11/27)

>  <Rbt.Parameter_File>
/export/apps/rDock/src/rDock_2013.1_src/data/scripts/dock_solv.prm

>  <Rbt.Receptor>
prm/pocket_docking_6.prm

>  <SCORE>
-8.57518

>  <SCORE.INTER>
1.60996

>  <SCORE.INTER.CONST>
1

>  <SCORE.INTER.POLAR>
0

>  <SCORE.INTER.ROT>
11

>  <SCORE.INTER.SOLV>
9.96851

>  <SCORE.INTER.VDW>
-13.1829

>  <SCORE.INTER.norm>
0.114997

>  <SCORE.INTRA>
-10.1851

>  <SCORE.INTRA.DIHEDRAL>
-19.2974

>  <SCORE.INTRA.DIHEDRAL.0>
20.2131

>  <SCORE.INTRA.POLAR>
0

>  <SCORE.INTRA.POLAR.0>
0

>  <SCORE.INTRA.REPUL>
0

>  <SCORE.INTRA.REPUL.0>
0

>  <SCORE.INTRA.SOLV>
-1.1125

>  <SCORE.INTRA.SOLV.lig_0>
-48.2851

>  <SCORE.INTRA.VDW>
0.0198281

>  <SCORE.INTRA.VDW.0>
-1.08658

>  <SCORE.INTRA.norm>
-0.72751

>  <SCORE.RESTR>
0

>  <SCORE.RESTR.CAVITY>
0

>  <SCORE.RESTR.norm>
0

>  <SCORE.SYSTEM>
0

>  <SCORE.SYSTEM.CONST>
0

>  <SCORE.SYSTEM.DIHEDRAL>
0

>  <SCORE.SYSTEM.SOLV>
0

>  <SCORE.SYSTEM.norm>
0

>  <SCORE.heavy>
14

>  <SCORE.norm>
-0.612513

>  <RMSD>
4.810

$$$$
ligand
 OpenBabel11021811393D
libRbt.so/2013.1/901 2013/11/27
 14 13  0  0  0  0  0  0  0  0999 V2000
   43.0272   18.6477   35.3935 N   0  0  0  0  0  0  0  0  0  0  0  0
   42.0525   17.5721   35.2985 C   0  0  0  0  0  0  0  0  0  0  0  0
   41.4364   17.2819   36.6949 C   0  0  0  0  0  0  0  0  0  0  0  0
   40.3211   16.1810   36.7919 C   0  0  0  0  0  0  0  0  0  0  0  0
   39.0393   16.4902   36.0585 N   0  0  0  0  0  0  0  0  0  0  0  0
   37.9284   16.9366   36.9486 C   0  0  0  0  0  0  0  0  0  0  0  0
   37.8871   18.4363   37.1792 C   0  0  0  0  0  0  0  0  0  0  0  0
   37.6376   19.2162   35.9010 C   0  0  0  0  0  0  0  0  0  0  0  0
   37.4616   20.6369   36.2789 C   0  0  0  0  0  0  0  0  0  0  0  0
   38.6499   21.2894   36.8791 N   0  0  0  0  0  0  0  0  0  0  0  0
   38.3898   22.6667   37.3682 C   0  0  0  0  0  0  0  0  0  0  0  0
   39.5233   23.3119   38.2200 C   0  0  0  0  0  0  0  0  0  0  0  0
   40.7617   23.4811   37.3224 C   0  0  0  0  0  0  0  0  0  0  0  0
   41.8504   24.1164   38.0604 N   0  0  0  0  0  0  0  0  0  0  0  0
  1  2  1  0  0  0  0
  2  3  1  0  0  0  0
  3  4  1  0  0  0  0
  4  5  1  0  0  0  0
  5  6  1  0  0  0  0
  6  7  1  0  0  0  0
  7  8  1  0  0  0  0
  8  9  1  0  0  0  0
  9 10  1  0  0  0  0
 10 11  1  0  0  0  0
 11 12  1  0  0  0  0
 12 13  1  0  0  0  0
 13 14  1  0  0  0  0
M  END
>  <CHROM.1>
177.93631200,-64.82547501,-102.75760906,89.14808007,63.03654297,173.47884059
64.23762580,-174.12855341,170.05688131,64.52096884,178.50791556,39.71149310
19.73300375,36.74258232,-1.56818735,0.09348722,0.21210990

>  <Name>
ligand

>  <RI>
0

>  <Rbt.Current_Directory>
/home/itssahil/PROJECTS/Mol_Feturizer/New_Systems/rnas/1EVV

>  <Rbt.Executable>
rbdock ($Id: //depot/dev/client3/rdock/2013.1/src/exe/rbdock.cxx#4 $)

>  <Rbt.Library>
libRbt.so (2013.1, Build901 2013/11/27)

>  <Rbt.Parameter_File>
/export/apps/rDock/src/rDock_2013.1_src/data/scripts/dock_solv.prm

>  <Rbt.Receptor>
prm/pocket_docking_4.prm

>  <SCORE>
-7.93711

>  <SCORE.INTER>
1.40953

>  <SCORE.INTER.CONST>
1

>  <SCORE.INTER.POLAR>
0

>  <SCORE.INTER.ROT>
11

>  <SCORE.INTER.SOLV>
5.94889

>  <SCORE.INTER.VDW>
-11.9766

>  <SCORE.INTER.norm>
0.100681

>  <SCORE.INTRA>
-9.34665

>  <SCORE.INTRA.DIHEDRAL>
-18.0924

>  <SCORE.INTRA.DIHEDRAL.0>
20.2131

>  <SCORE.INTRA.POLAR>
0

>  <SCORE.INTRA.POLAR.0>
0

>  <SCORE.INTRA.REPUL>
0

>  <SCORE.INTRA.REPUL.0>
0

>  <SCORE.INTRA.SOLV>
-0.039489

>  <SCORE.INTRA.SOLV.lig_0>
-48.2851

>  <SCORE.INTRA.VDW>
-0.280706

>  <SCORE.INTRA.VDW.0>
-1.08658

>  <SCORE.INTRA.norm>
-0.667618

>  <SCORE.RESTR>
0

>  <SCORE.RESTR.CAVITY>
0

>  <SCORE.RESTR.norm>
0

>  <SCORE.SYSTEM>
0

>  <SCORE.SYSTEM.CONST>
0

>  <SCORE.SYSTEM.DIHEDRAL>
0

>  <SCORE.SYSTEM.SOLV>
0

>  <SCORE.SYSTEM.norm>
0

>  <SCORE.heavy>
14

>  <SCORE.norm>
-0.566937

>  <RMSD>
4.823

$$$$
ligand
 OpenBabel11021811393D
libRbt.so/2013.1/901 2013/11/27
 14 13  0  0  0  0  0  0  0  0999 V2000
   45.2124   24.1556   41.4239 N   0  0  0  0  0  0  0  0  0  0  0  0
   43.9430   24.7609   41.0520 C   0  0  0  0  0  0  0  0  0  0  0  0
   43.2460   23.9126   39.9529 C   0  0  0  0  0  0  0  0  0  0  0  0
   41.9133   24.4648   39.3329 C   0  0  0  0  0  0  0  0  0  0  0  0
   41.1570   23.4978   38.4556 N   0  0  0  0  0  0  0  0  0  0  0  0
   39.7374   23.8874   38.2137 C   0  0  0  0  0  0  0  0  0  0  0  0
   38.8604   22.7499   37.7227 C   0  0  0  0  0  0  0  0  0  0  0  0
   39.2255   22.2953   36.3212 C   0  0  0  0  0  0  0  0  0  0  0  0
   38.2838   21.2150   35.9490 C   0  0  0  0  0  0  0  0  0  0  0  0
   38.4252   19.9534   36.7150 N   0  0  0  0  0  0  0  0  0  0  0  0
   37.2584   19.0447   36.5866 C   0  0  0  0  0  0  0  0  0  0  0  0
   37.5868   17.5252   36.4865 C   0  0  0  0  0  0  0  0  0  0  0  0
   38.3037   17.1024   37.7809 C   0  0  0  0  0  0  0  0  0  0  0  0
   38.7330   15.7086   37.7007 N   0  0  0  0  0  0  0  0  0  0  0  0
  1  2  1  0  0  0  0
  2  3  1  0  0  0  0
  3  4  1  0  0  0  0
  4  5  1  0  0  0  0
  5  6  1  0  0  0  0
  6  7  1  0  0  0  0
  7  8  1  0  0  0  0
  8  9  1  0  0  0  0
  9 10  1  0  0  0  0
 10 11  1  0  0  0  0
 11 12  1  0  0  0  0
 12 13  1  0  0  0  0
 13 14  1  0  0  0  0
M  END
>  <CHROM.1>
-175.13736641,-169.68571095,163.00463886,-161.74100880,-68.17937010,-178.61984282
-67.67712285,164.20163155,141.13734810,61.55096157,-175.46326124,40.13441446
21.44838506,38.12078450,-0.70603375,0.67201562,2.99835293

>  <Name>
ligand

>  <RI>
0

>  <Rbt.Current_Directory>
/home/itssahil/PROJECTS/Mol_Feturizer/New_Systems/rnas/1EVV

>  <Rbt.Executable>
rbdock ($Id: //depot/dev/client3/rdock/2013.1/src/exe/rbdock.cxx#4 $)

>  <Rbt.Library>
libRbt.so (2013.1, Build901 2013/11/27)

>  <Rbt.Parameter_File>
/export/apps/rDock/src/rDock_2013.1_src/data/scripts/dock_solv.prm

>  <Rbt.Receptor>
prm/pocket_docking_8.prm

>  <SCORE>
-8.91489

>  <SCORE.INTER>
0.162767

>  <SCORE.INTER.CONST>
1

>  <SCORE.INTER.POLAR>
0

>  <SCORE.INTER.ROT>
11

>  <SCORE.INTER.SOLV>
5.59241

>  <SCORE.INTER.VDW>
-12.689

>  <SCORE.INTER.norm>
0.0116262

>  <SCORE.INTRA>
-9.07766

>  <SCORE.INTRA.DIHEDRAL>
-17.6289

>  <SCORE.INTRA.DIHEDRAL.0>
20.2131

>  <SCORE.INTRA.POLAR>
0

>  <SCORE.INTRA.POLAR.0>
0

>  <SCORE.INTRA.REPUL>
0

>  <SCORE.INTRA.REPUL.0>
0

>  <SCORE.INTRA.SOLV>
-0.297185

>  <SCORE.INTRA.SOLV.lig_0>
-48.2851

>  <SCORE.INTRA.VDW>
-0.114621

>  <SCORE.INTRA.VDW.0>
-1.08658

>  <SCORE.INTRA.norm>
-0.648404

>  <SCORE.RESTR>
0

>  <SCORE.RESTR.CAVITY>
0

>  <SCORE.RESTR.norm>
0

>  <SCORE.SYSTEM>
0

>  <SCORE.SYSTEM.CONST>
0

>  <SCORE.SYSTEM.DIHEDRAL>
0

>  <SCORE.SYSTEM.SOLV>
0

>  <SCORE.SYSTEM.norm>
0

>  <SCORE.heavy>
14

>  <SCORE.norm>
-0.636778

>  <RMSD>
4.825

$$$$
ligand
 OpenBabel11021811393D
libRbt.so/2013.1/901 2013/11/27
 14 13  0  0  0  0  0  0  0  0999 V2000
   38.0591   16.2672   36.7659 N   0  0  0  0  0  0  0  0  0  0  0  0
   38.0165   17.6293   37.2749 C   0  0  0  0  0  0  0  0  0  0  0  0
   37.3820   18.5765   36.2195 C   0  0  0  0  0  0  0  0  0  0  0  0
   37.3049   20.1078   36.5582 C   0  0  0  0  0  0  0  0  0  0  0  0
   38.6200   20.7629   36.9015 N   0  0  0  0  0  0  0  0  0  0  0  0
   38.5512   22.2514   36.9728 C   0  0  0  0  0  0  0  0  0  0  0  0
   39.8203   22.9038   37.4902 C   0  0  0  0  0  0  0  0  0  0  0  0
   39.8219   24.4096   37.2985 C   0  0  0  0  0  0  0  0  0  0  0  0
   41.1191   24.9165   37.8011 C   0  0  0  0  0  0  0  0  0  0  0  0
   41.3137   24.8274   39.2682 N   0  0  0  0  0  0  0  0  0  0  0  0
   42.6274   24.2589   39.6614 C   0  0  0  0  0  0  0  0  0  0  0  0
   43.0979   24.5725   41.1129 C   0  0  0  0  0  0  0  0  0  0  0  0
   44.3357   23.7092   41.4137 C   0  0  0  0  0  0  0  0  0  0  0  0
   45.4536   24.0943   40.5561 N   0  0  0  0  0  0  0  0  0  0  0  0
  1  2  1  0  0  0  0
  2  3  1  0  0  0  0
  3  4  1  0  0  0  0
  4  5  1  0  0  0  0
  5  6  1  0  0  0  0
  6  7  1  0  0  0  0
  7  8  1  0  0  0  0
  8  9  1  0  0  0  0
  9 10  1  0  0  0  0
 10 11  1  0  0  0  0
 11 12  1  0  0  0  0
 12 13  1  0  0  0  0
 13 14  1  0  0  0  0
M  END
>  <CHROM.1>
-177.35070662,55.93423840,169.45052468,172.54807483,168.83263379,-178.29843723
-68.74143101,132.76922190,160.01283967,170.21527941,65.18469588,40.39433063
22.09218264,38.23529494,-2.47183839,-0.63771592,-0.10445937

>  <Name>
ligand

>  <RI>
0

>  <Rbt.Current_Directory>
/home/itssahil/PROJECTS/Mol_Feturizer/New_Systems/rnas/1EVV

>  <Rbt.Executable>
rbdock ($Id: //depot/dev/client3/rdock/2013.1/src/exe/rbdock.cxx#4 $)

>  <Rbt.Library>
libRbt.so (2013.1, Build901 2013/11/27)

>  <Rbt.Parameter_File>
/export/apps/rDock/src/rDock_2013.1_src/data/scripts/dock_solv.prm

>  <Rbt.Receptor>
prm/pocket_docking_7.prm

>  <SCORE>
-8.67296

>  <SCORE.INTER>
0.0700014

>  <SCORE.INTER.CONST>
1

>  <SCORE.INTER.POLAR>
0

>  <SCORE.INTER.ROT>
11

>  <SCORE.INTER.SOLV>
6.17401

>  <SCORE.INTER.VDW>
-12.9447

>  <SCORE.INTER.norm>
0.0050001

>  <SCORE.INTRA>
-8.74296

>  <SCORE.INTRA.DIHEDRAL>
-17.4093

>  <SCORE.INTRA.DIHEDRAL.0>
20.2131

>  <SCORE.INTRA.POLAR>
0

>  <SCORE.INTRA.POLAR.0>
0

>  <SCORE.INTRA.REPUL>
0

>  <SCORE.INTRA.REPUL.0>
0

>  <SCORE.INTRA.SOLV>
0.0204261

>  <SCORE.INTRA.SOLV.lig_0>
-48.2851

>  <SCORE.INTRA.VDW>
-0.0485077

>  <SCORE.INTRA.VDW.0>
-1.08658

>  <SCORE.INTRA.norm>
-0.624497

>  <SCORE.RESTR>
0

>  <SCORE.RESTR.CAVITY>
0

>  <SCORE.RESTR.norm>
0

>  <SCORE.SYSTEM>
0

>  <SCORE.SYSTEM.CONST>
0

>  <SCORE.SYSTEM.DIHEDRAL>
0

>  <SCORE.SYSTEM.SOLV>
0

>  <SCORE.SYSTEM.norm>
0

>  <SCORE.heavy>
14

>  <SCORE.norm>
-0.619497

>  <RMSD>
4.832

$$$$
ligand
 OpenBabel11021811393D
libRbt.so/2013.1/901 2013/11/27
 14 13  0  0  0  0  0  0  0  0999 V2000
   44.8593   23.6148   40.7070 N   0  0  0  0  0  0  0  0  0  0  0  0
   43.7798   23.7178   39.7374 C   0  0  0  0  0  0  0  0  0  0  0  0
   42.6740   24.6728   40.2655 C   0  0  0  0  0  0  0  0  0  0  0  0
   41.4876   25.0285   39.3005 C   0  0  0  0  0  0  0  0  0  0  0  0
   40.6732   23.8550   38.8142 N   0  0  0  0  0  0  0  0  0  0  0  0
   39.7887   24.1740   37.6560 C   0  0  0  0  0  0  0  0  0  0  0  0
   38.6957   23.1490   37.4136 C   0  0  0  0  0  0  0  0  0  0  0  0
   39.2475   21.7871   37.0330 C   0  0  0  0  0  0  0  0  0  0  0  0
   38.0997   20.9440   36.6282 C   0  0  0  0  0  0  0  0  0  0  0  0
   38.4196   19.5244   36.3439 N   0  0  0  0  0  0  0  0  0  0  0  0
   37.2436   18.6218   36.4212 C   0  0  0  0  0  0  0  0  0  0  0  0
   37.5550   17.0955   36.4073 C   0  0  0  0  0  0  0  0  0  0  0  0
   38.3906   16.7643   37.6564 C   0  0  0  0  0  0  0  0  0  0  0  0
   38.8066   15.3643   37.6420 N   0  0  0  0  0  0  0  0  0  0  0  0
  1  2  1  0  0  0  0
  2  3  1  0  0  0  0
  3  4  1  0  0  0  0
  4  5  1  0  0  0  0
  5  6  1  0  0  0  0
  6  7  1  0  0  0  0
  7  8  1  0  0  0  0
  8  9  1  0  0  0  0
  9 10  1  0  0  0  0
 10 11  1  0  0  0  0
 11 12  1  0  0  0  0
 12 13  1  0  0  0  0
 13 14  1  0  0  0  0
M  END
>  <CHROM.1>
174.03104490,59.53135638,-165.58742715,-163.42927312,-64.06612194,-171.64648115
-174.26969763,159.30280672,-168.57846649,62.58990617,-175.37502387,39.97978720
21.30837867,38.00171327,-0.88811027,0.56959469,3.11565634

>  <Name>
ligand

>  <RI>
0

>  <Rbt.Current_Directory>
/home/itssahil/PROJECTS/Mol_Feturizer/New_Systems/rnas/1EVV

>  <Rbt.Executable>
rbdock ($Id: //depot/dev/client3/rdock/2013.1/src/exe/rbdock.cxx#4 $)

>  <Rbt.Library>
libRbt.so (2013.1, Build901 2013/11/27)

>  <Rbt.Parameter_File>
/export/apps/rDock/src/rDock_2013.1_src/data/scripts/dock_solv.prm

>  <Rbt.Receptor>
prm/pocket_docking_6.prm

>  <SCORE>
-9.78287

>  <SCORE.INTER>
0.00845239

>  <SCORE.INTER.CONST>
1

>  <SCORE.INTER.POLAR>
0

>  <SCORE.INTER.ROT>
11

>  <SCORE.INTER.SOLV>
6.31149

>  <SCORE.INTER.VDW>
-13.0315

>  <SCORE.INTER.norm>
0.000603742

>  <SCORE.INTRA>
-9.79132

>  <SCORE.INTRA.DIHEDRAL>
-18.7008

>  <SCORE.INTRA.DIHEDRAL.0>
20.2131

>  <SCORE.INTRA.POLAR>
0

>  <SCORE.INTRA.POLAR.0>
0

>  <SCORE.INTRA.REPUL>
0

>  <SCORE.INTRA.REPUL.0>
0

>  <SCORE.INTRA.SOLV>
-0.381892

>  <SCORE.INTRA.SOLV.lig_0>
-48.2851

>  <SCORE.INTRA.VDW>
-0.249953

>  <SCORE.INTRA.VDW.0>
-1.08658

>  <SCORE.INTRA.norm>
-0.69938

>  <SCORE.RESTR>
0

>  <SCORE.RESTR.CAVITY>
0

>  <SCORE.RESTR.norm>
0

>  <SCORE.SYSTEM>
0

>  <SCORE.SYSTEM.CONST>
0

>  <SCORE.SYSTEM.DIHEDRAL>
0

>  <SCORE.SYSTEM.SOLV>
0

>  <SCORE.SYSTEM.norm>
0

>  <SCORE.heavy>
14

>  <SCORE.norm>
-0.698776

>  <RMSD>
4.838

$$$$
ligand
 OpenBabel11021811393D
libRbt.so/2013.1/901 2013/11/27
 14 13  0  0  0  0  0  0  0  0999 V2000
   39.5736   28.7361   36.0374 N   0  0  0  0  0  0  0  0  0  0  0  0
   39.2482   27.4912   36.7160 C   0  0  0  0  0  0  0  0  0  0  0  0
   37.9681   26.8630   36.0992 C   0  0  0  0  0  0  0  0  0  0  0  0
   37.4028   25.5531   36.7551 C   0  0  0  0  0  0  0  0  0  0  0  0
   38.3449   24.3745   36.7652 N   0  0  0  0  0  0  0  0  0  0  0  0
   38.1706   23.4740   37.9418 C   0  0  0  0  0  0  0  0  0  0  0  0
   39.3527   22.5565   38.1971 C   0  0  0  0  0  0  0  0  0  0  0  0
   39.5084   21.4939   37.1244 C   0  0  0  0  0  0  0  0  0  0  0  0
   40.6684   20.6543   37.5009 C   0  0  0  0  0  0  0  0  0  0  0  0
   41.0215   19.5846   36.5368 N   0  0  0  0  0  0  0  0  0  0  0  0
   42.1880   18.7672   36.9549 C   0  0  0  0  0  0  0  0  0  0  0  0
   42.8621   17.9202   35.8348 C   0  0  0  0  0  0  0  0  0  0  0  0
   41.8558   16.8538   35.3675 C   0  0  0  0  0  0  0  0  0  0  0  0
   40.7379   17.4743   34.6612 N   0  0  0  0  0  0  0  0  0  0  0  0
  1  2  1  0  0  0  0
  2  3  1  0  0  0  0
  3  4  1  0  0  0  0
  4  5  1  0  0  0  0
  5  6  1  0  0  0  0
  6  7  1  0  0  0  0
  7  8  1  0  0  0  0
  8  9  1  0  0  0  0
  9 10  1  0  0  0  0
 10 11  1  0  0  0  0
 11 12  1  0  0  0  0
 12 13  1  0  0  0  0
 13 14  1  0  0  0  0
M  END
>  <CHROM.1>
-176.38933896,-59.71339500,148.12117859,-162.07842996,-68.95224222,-178.84464635
-177.45109320,-179.92027679,-162.92328422,-65.51092548,68.58087795,39.92163137
22.27108639,36.60683684,-1.99848552,-0.61964557,2.96100526

>  <Name>
ligand

>  <RI>
0

>  <Rbt.Current_Directory>
/home/itssahil/PROJECTS/Mol_Feturizer/New_Systems/rnas/1EVV

>  <Rbt.Executable>
rbdock ($Id: //depot/dev/client3/rdock/2013.1/src/exe/rbdock.cxx#4 $)

>  <Rbt.Library>
libRbt.so (2013.1, Build901 2013/11/27)

>  <Rbt.Parameter_File>
/export/apps/rDock/src/rDock_2013.1_src/data/scripts/dock_solv.prm

>  <Rbt.Receptor>
prm/pocket_docking_6.prm

>  <SCORE>
-6.43069

>  <SCORE.INTER>
1.8943

>  <SCORE.INTER.CONST>
1

>  <SCORE.INTER.POLAR>
0

>  <SCORE.INTER.ROT>
11

>  <SCORE.INTER.SOLV>
6.23017

>  <SCORE.INTER.VDW>
-11.7472

>  <SCORE.INTER.norm>
0.135307

>  <SCORE.INTRA>
-8.325

>  <SCORE.INTRA.DIHEDRAL>
-18.3192

>  <SCORE.INTRA.DIHEDRAL.0>
20.2131

>  <SCORE.INTRA.POLAR>
0

>  <SCORE.INTRA.POLAR.0>
0

>  <SCORE.INTRA.REPUL>
0

>  <SCORE.INTRA.REPUL.0>
0

>  <SCORE.INTRA.SOLV>
2.14579

>  <SCORE.INTRA.SOLV.lig_0>
-48.2851

>  <SCORE.INTRA.VDW>
-0.238276

>  <SCORE.INTRA.VDW.0>
-1.08658

>  <SCORE.INTRA.norm>
-0.594643

>  <SCORE.RESTR>
0

>  <SCORE.RESTR.CAVITY>
0

>  <SCORE.RESTR.norm>
0

>  <SCORE.SYSTEM>
0

>  <SCORE.SYSTEM.CONST>
0

>  <SCORE.SYSTEM.DIHEDRAL>
0

>  <SCORE.SYSTEM.SOLV>
0

>  <SCORE.SYSTEM.norm>
0

>  <SCORE.heavy>
14

>  <SCORE.norm>
-0.459335

>  <RMSD>
4.844

$$$$
ligand
 OpenBabel11021811393D
libRbt.so/2013.1/901 2013/11/27
 14 13  0  0  0  0  0  0  0  0999 V2000
   44.3262   24.5722   41.8236 N   0  0  0  0  0  0  0  0  0  0  0  0
   43.4518   24.2113   40.7184 C   0  0  0  0  0  0  0  0  0  0  0  0
   42.6214   25.4443   40.2670 C   0  0  0  0  0  0  0  0  0  0  0  0
   41.7192   25.2955   38.9906 C   0  0  0  0  0  0  0  0  0  0  0  0
   40.5854   24.3072   39.1097 N   0  0  0  0  0  0  0  0  0  0  0  0
   40.6076   23.2366   38.0711 C   0  0  0  0  0  0  0  0  0  0  0  0
   39.2512   22.6116   37.7999 C   0  0  0  0  0  0  0  0  0  0  0  0
   39.3364   21.4123   36.8732 C   0  0  0  0  0  0  0  0  0  0  0  0
   37.9511   20.9657   36.6019 C   0  0  0  0  0  0  0  0  0  0  0  0
   37.8265   19.7117   35.8208 N   0  0  0  0  0  0  0  0  0  0  0  0
   37.7552   18.4906   36.6619 C   0  0  0  0  0  0  0  0  0  0  0  0
   37.4215   17.1663   35.9125 C   0  0  0  0  0  0  0  0  0  0  0  0
   37.3798   16.0269   36.9459 C   0  0  0  0  0  0  0  0  0  0  0  0
   38.7151   15.7625   37.4757 N   0  0  0  0  0  0  0  0  0  0  0  0
  1  2  1  0  0  0  0
  2  3  1  0  0  0  0
  3  4  1  0  0  0  0
  4  5  1  0  0  0  0
  5  6  1  0  0  0  0
  6  7  1  0  0  0  0
  7  8  1  0  0  0  0
  8  9  1  0  0  0  0
  9 10  1  0  0  0  0
 10 11  1  0  0  0  0
 11 12  1  0  0  0  0
 12 13  1  0  0  0  0
 13 14  1  0  0  0  0
M  END
>  <CHROM.1>
174.06546201,64.59577917,-123.16334913,-155.89818188,-172.69323934,-175.49687528
-173.99435986,91.14715496,171.63950053,-179.48620346,-68.44401010,39.92469959
21.37258114,38.07639041,-0.79676411,0.74788375,3.01837784

>  <Name>
ligand

>  <RI>
0

>  <Rbt.Current_Directory>
/home/itssahil/PROJECTS/Mol_Feturizer/New_Systems/rnas/1EVV

>  <Rbt.Executable>
rbdock ($Id: //depot/dev/client3/rdock/2013.1/src/exe/rbdock.cxx#4 $)

>  <Rbt.Library>
libRbt.so (2013.1, Build901 2013/11/27)

>  <Rbt.Parameter_File>
/export/apps/rDock/src/rDock_2013.1_src/data/scripts/dock_solv.prm

>  <Rbt.Receptor>
prm/pocket_docking_7.prm

>  <SCORE>
-8.9714

>  <SCORE.INTER>
-0.224104

>  <SCORE.INTER.CONST>
1

>  <SCORE.INTER.POLAR>
0

>  <SCORE.INTER.ROT>
11

>  <SCORE.INTER.SOLV>
8.01728

>  <SCORE.INTER.VDW>
-13.7552

>  <SCORE.INTER.norm>
-0.0160075

>  <SCORE.INTRA>
-8.7473

>  <SCORE.INTRA.DIHEDRAL>
-17.0135

>  <SCORE.INTRA.DIHEDRAL.0>
20.2131

>  <SCORE.INTRA.POLAR>
0

>  <SCORE.INTRA.POLAR.0>
0

>  <SCORE.INTRA.REPUL>
0

>  <SCORE.INTRA.REPUL.0>
0

>  <SCORE.INTRA.SOLV>
-0.403315

>  <SCORE.INTRA.SOLV.lig_0>
-48.2851

>  <SCORE.INTRA.VDW>
-0.0388956

>  <SCORE.INTRA.VDW.0>
-1.08658

>  <SCORE.INTRA.norm>
-0.624807

>  <SCORE.RESTR>
0

>  <SCORE.RESTR.CAVITY>
0

>  <SCORE.RESTR.norm>
0

>  <SCORE.SYSTEM>
0

>  <SCORE.SYSTEM.CONST>
0

>  <SCORE.SYSTEM.DIHEDRAL>
0

>  <SCORE.SYSTEM.SOLV>
0

>  <SCORE.SYSTEM.norm>
0

>  <SCORE.heavy>
14

>  <SCORE.norm>
-0.640815

>  <RMSD>
4.846

$$$$
ligand
 OpenBabel11021811393D
libRbt.so/2013.1/901 2013/11/27
 14 13  0  0  0  0  0  0  0  0999 V2000
   45.2592   25.1726   41.8970 N   0  0  0  0  0  0  0  0  0  0  0  0
   44.6270   23.8695   42.0323 C   0  0  0  0  0  0  0  0  0  0  0  0
   43.9890   23.4403   40.6823 C   0  0  0  0  0  0  0  0  0  0  0  0
   42.7939   24.2954   40.1293 C   0  0  0  0  0  0  0  0  0  0  0  0
   42.0995   23.7301   38.9149 N   0  0  0  0  0  0  0  0  0  0  0  0
   40.8566   24.4628   38.5358 C   0  0  0  0  0  0  0  0  0  0  0  0
   39.6309   23.5761   38.4118 C   0  0  0  0  0  0  0  0  0  0  0  0
   39.7146   22.6275   37.2297 C   0  0  0  0  0  0  0  0  0  0  0  0
   38.4180   21.9180   37.1413 C   0  0  0  0  0  0  0  0  0  0  0  0
   38.3123   20.9150   36.0545 N   0  0  0  0  0  0  0  0  0  0  0  0
   37.5719   19.6891   36.4453 C   0  0  0  0  0  0  0  0  0  0  0  0
   38.1124   18.3513   35.8582 C   0  0  0  0  0  0  0  0  0  0  0  0
   37.2407   17.2033   36.3970 C   0  0  0  0  0  0  0  0  0  0  0  0
   37.7389   15.9133   35.9268 N   0  0  0  0  0  0  0  0  0  0  0  0
  1  2  1  0  0  0  0
  2  3  1  0  0  0  0
  3  4  1  0  0  0  0
  4  5  1  0  0  0  0
  5  6  1  0  0  0  0
  6  7  1  0  0  0  0
  7  8  1  0  0  0  0
  8  9  1  0  0  0  0
  9 10  1  0  0  0  0
 10 11  1  0  0  0  0
 11 12  1  0  0  0  0
 12 13  1  0  0  0  0
 13 14  1  0  0  0  0
M  END
>  <CHROM.1>
-64.93063260,-172.29793331,171.80799930,-126.06549796,-68.35608834,-174.64767914
-178.72848766,141.17231990,-142.90243882,178.79037180,-177.43066781,40.45447845
21.79759762,38.26117196,-0.67408151,0.65485208,-3.13329002

>  <Name>
ligand

>  <RI>
0

>  <Rbt.Current_Directory>
/home/itssahil/PROJECTS/Mol_Feturizer/New_Systems/rnas/1EVV

>  <Rbt.Executable>
rbdock ($Id: //depot/dev/client3/rdock/2013.1/src/exe/rbdock.cxx#4 $)

>  <Rbt.Library>
libRbt.so (2013.1, Build901 2013/11/27)

>  <Rbt.Parameter_File>
/export/apps/rDock/src/rDock_2013.1_src/data/scripts/dock_solv.prm

>  <Rbt.Receptor>
prm/pocket_docking_8.prm

>  <SCORE>
-8.77713

>  <SCORE.INTER>
-0.0966162

>  <SCORE.INTER.CONST>
1

>  <SCORE.INTER.POLAR>
0

>  <SCORE.INTER.ROT>
11

>  <SCORE.INTER.SOLV>
5.91669

>  <SCORE.INTER.VDW>
-12.97

>  <SCORE.INTER.norm>
-0.00690116

>  <SCORE.INTRA>
-8.68051

>  <SCORE.INTRA.DIHEDRAL>
-16.5745

>  <SCORE.INTRA.DIHEDRAL.0>
20.2131

>  <SCORE.INTRA.POLAR>
0

>  <SCORE.INTRA.POLAR.0>
0

>  <SCORE.INTRA.REPUL>
0

>  <SCORE.INTRA.REPUL.0>
0

>  <SCORE.INTRA.SOLV>
-0.415626

>  <SCORE.INTRA.SOLV.lig_0>
-48.2851

>  <SCORE.INTRA.VDW>
-0.185432

>  <SCORE.INTRA.VDW.0>
-1.08658

>  <SCORE.INTRA.norm>
-0.620036

>  <SCORE.RESTR>
0

>  <SCORE.RESTR.CAVITY>
0

>  <SCORE.RESTR.norm>
0

>  <SCORE.SYSTEM>
0

>  <SCORE.SYSTEM.CONST>
0

>  <SCORE.SYSTEM.DIHEDRAL>
0

>  <SCORE.SYSTEM.SOLV>
0

>  <SCORE.SYSTEM.norm>
0

>  <SCORE.heavy>
14

>  <SCORE.norm>
-0.626938

>  <RMSD>
4.847

$$$$
ligand
 OpenBabel11021811393D
libRbt.so/2013.1/901 2013/11/27
 14 13  0  0  0  0  0  0  0  0999 V2000
   43.0017   18.5889   35.2979 N   0  0  0  0  0  0  0  0  0  0  0  0
   42.3627   17.7318   36.2845 C   0  0  0  0  0  0  0  0  0  0  0  0
   41.1313   17.0202   35.6594 C   0  0  0  0  0  0  0  0  0  0  0  0
   40.2662   16.0962   36.5885 C   0  0  0  0  0  0  0  0  0  0  0  0
   39.6667   16.7713   37.7974 N   0  0  0  0  0  0  0  0  0  0  0  0
   38.3883   17.4867   37.5158 C   0  0  0  0  0  0  0  0  0  0  0  0
   38.5608   18.7705   36.7245 C   0  0  0  0  0  0  0  0  0  0  0  0
   37.2675   19.5547   36.5962 C   0  0  0  0  0  0  0  0  0  0  0  0
   37.5555   20.7470   35.7668 C   0  0  0  0  0  0  0  0  0  0  0  0
   38.6556   21.6129   36.2546 N   0  0  0  0  0  0  0  0  0  0  0  0
   38.2428   22.5535   37.3264 C   0  0  0  0  0  0  0  0  0  0  0  0
   39.1445   23.8099   37.5139 C   0  0  0  0  0  0  0  0  0  0  0  0
   40.5375   23.3381   37.9666 C   0  0  0  0  0  0  0  0  0  0  0  0
   41.4200   24.4798   38.1932 N   0  0  0  0  0  0  0  0  0  0  0  0
  1  2  1  0  0  0  0
  2  3  1  0  0  0  0
  3  4  1  0  0  0  0
  4  5  1  0  0  0  0
  5  6  1  0  0  0  0
  6  7  1  0  0  0  0
  7  8  1  0  0  0  0
  8  9  1  0  0  0  0
  9 10  1  0  0  0  0
 10 11  1  0  0  0  0
 11 12  1  0  0  0  0
 12 13  1  0  0  0  0
 13 14  1  0  0  0  0
M  END
>  <CHROM.1>
-177.32856416,58.78511700,83.37407233,-72.69480685,-173.26156830,-177.87653543
-55.63764615,-81.58734420,-158.17426461,-64.34305292,-178.50915530,39.72825783
19.89705905,36.82036597,-1.41986549,0.06001366,0.15053839

>  <Name>
ligand

>  <RI>
0

>  <Rbt.Current_Directory>
/home/itssahil/PROJECTS/Mol_Feturizer/New_Systems/rnas/1EVV

>  <Rbt.Executable>
rbdock ($Id: //depot/dev/client3/rdock/2013.1/src/exe/rbdock.cxx#4 $)

>  <Rbt.Library>
libRbt.so (2013.1, Build901 2013/11/27)

>  <Rbt.Parameter_File>
/export/apps/rDock/src/rDock_2013.1_src/data/scripts/dock_solv.prm

>  <Rbt.Receptor>
prm/pocket_docking_5.prm

>  <SCORE>
-7.22307

>  <SCORE.INTER>
1.6748

>  <SCORE.INTER.CONST>
1

>  <SCORE.INTER.POLAR>
0

>  <SCORE.INTER.ROT>
11

>  <SCORE.INTER.SOLV>
6.8385

>  <SCORE.INTER.VDW>
-12.0963

>  <SCORE.INTER.norm>
0.119629

>  <SCORE.INTRA>
-8.89787

>  <SCORE.INTRA.DIHEDRAL>
-18.6217

>  <SCORE.INTRA.DIHEDRAL.0>
20.2131

>  <SCORE.INTRA.POLAR>
0

>  <SCORE.INTRA.POLAR.0>
0

>  <SCORE.INTRA.REPUL>
0

>  <SCORE.INTRA.REPUL.0>
0

>  <SCORE.INTRA.SOLV>
-0.309505

>  <SCORE.INTRA.SOLV.lig_0>
-48.2851

>  <SCORE.INTRA.VDW>
0.567719

>  <SCORE.INTRA.VDW.0>
-1.08658

>  <SCORE.INTRA.norm>
-0.635562

>  <SCORE.RESTR>
0

>  <SCORE.RESTR.CAVITY>
0

>  <SCORE.RESTR.norm>
0

>  <SCORE.SYSTEM>
0

>  <SCORE.SYSTEM.CONST>
0

>  <SCORE.SYSTEM.DIHEDRAL>
0

>  <SCORE.SYSTEM.SOLV>
0

>  <SCORE.SYSTEM.norm>
0

>  <SCORE.heavy>
14

>  <SCORE.norm>
-0.515934

>  <RMSD>
4.849

$$$$
ligand
 OpenBabel11021811393D
libRbt.so/2013.1/901 2013/11/27
 14 13  0  0  0  0  0  0  0  0999 V2000
   40.7727   16.6738   30.8323 N   0  0  0  0  0  0  0  0  0  0  0  0
   40.3989   16.7989   32.2326 C   0  0  0  0  0  0  0  0  0  0  0  0
   39.4856   15.6141   32.6517 C   0  0  0  0  0  0  0  0  0  0  0  0
   38.9036   15.6148   34.1100 C   0  0  0  0  0  0  0  0  0  0  0  0
   38.0402   16.8008   34.4630 N   0  0  0  0  0  0  0  0  0  0  0  0
   37.7485   16.9211   35.9210 C   0  0  0  0  0  0  0  0  0  0  0  0
   37.3095   18.3094   36.3500 C   0  0  0  0  0  0  0  0  0  0  0  0
   38.3777   19.3600   36.1067 C   0  0  0  0  0  0  0  0  0  0  0  0
   37.8216   20.6623   36.5390 C   0  0  0  0  0  0  0  0  0  0  0  0
   38.7643   21.8058   36.4922 N   0  0  0  0  0  0  0  0  0  0  0  0
   38.3390   22.9625   37.3197 C   0  0  0  0  0  0  0  0  0  0  0  0
   39.2933   23.3509   38.4882 C   0  0  0  0  0  0  0  0  0  0  0  0
   40.6275   23.8211   37.8827 C   0  0  0  0  0  0  0  0  0  0  0  0
   41.5613   24.2136   38.9350 N   0  0  0  0  0  0  0  0  0  0  0  0
  1  2  1  0  0  0  0
  2  3  1  0  0  0  0
  3  4  1  0  0  0  0
  4  5  1  0  0  0  0
  5  6  1  0  0  0  0
  6  7  1  0  0  0  0
  7  8  1  0  0  0  0
  8  9  1  0  0  0  0
  9 10  1  0  0  0  0
 10 11  1  0  0  0  0
 11 12  1  0  0  0  0
 12 13  1  0  0  0  0
 13 14  1  0  0  0  0
M  END
>  <CHROM.1>
-176.40897549,59.82120570,-167.57781257,160.18526640,-62.10784198,178.93901630
174.78170418,-161.27975809,117.68308802,64.63729726,179.39423590,39.10283875
19.49335129,35.59474841,-1.62979273,0.62903437,0.65410853

>  <Name>
ligand

>  <RI>
0

>  <Rbt.Current_Directory>
/home/itssahil/PROJECTS/Mol_Feturizer/New_Systems/rnas/1EVV

>  <Rbt.Executable>
rbdock ($Id: //depot/dev/client3/rdock/2013.1/src/exe/rbdock.cxx#4 $)

>  <Rbt.Library>
libRbt.so (2013.1, Build901 2013/11/27)

>  <Rbt.Parameter_File>
/export/apps/rDock/src/rDock_2013.1_src/data/scripts/dock_solv.prm

>  <Rbt.Receptor>
prm/pocket_docking_7.prm

>  <SCORE>
-8.02926

>  <SCORE.INTER>
1.50089

>  <SCORE.INTER.CONST>
1

>  <SCORE.INTER.POLAR>
0

>  <SCORE.INTER.ROT>
11

>  <SCORE.INTER.SOLV>
8.77471

>  <SCORE.INTER.VDW>
-12.8576

>  <SCORE.INTER.norm>
0.107207

>  <SCORE.INTRA>
-9.53016

>  <SCORE.INTRA.DIHEDRAL>
-18.0792

>  <SCORE.INTRA.DIHEDRAL.0>
20.2131

>  <SCORE.INTRA.POLAR>
0

>  <SCORE.INTRA.POLAR.0>
0

>  <SCORE.INTRA.REPUL>
0

>  <SCORE.INTRA.REPUL.0>
0

>  <SCORE.INTRA.SOLV>
-0.392131

>  <SCORE.INTRA.SOLV.lig_0>
-48.2851

>  <SCORE.INTRA.VDW>
-0.2945

>  <SCORE.INTRA.VDW.0>
-1.08658

>  <SCORE.INTRA.norm>
-0.680725

>  <SCORE.RESTR>
0

>  <SCORE.RESTR.CAVITY>
0

>  <SCORE.RESTR.norm>
0

>  <SCORE.SYSTEM>
0

>  <SCORE.SYSTEM.CONST>
0

>  <SCORE.SYSTEM.DIHEDRAL>
0

>  <SCORE.SYSTEM.SOLV>
0

>  <SCORE.SYSTEM.norm>
0

>  <SCORE.heavy>
14

>  <SCORE.norm>
-0.573519

>  <RMSD>
4.855

$$$$
ligand
 OpenBabel11021811393D
libRbt.so/2013.1/901 2013/11/27
 14 13  0  0  0  0  0  0  0  0999 V2000
   43.6876   20.1836   36.3669 N   0  0  0  0  0  0  0  0  0  0  0  0
   44.0582   18.8092   36.0672 C   0  0  0  0  0  0  0  0  0  0  0  0
   42.8175   18.0146   35.5744 C   0  0  0  0  0  0  0  0  0  0  0  0
   41.6659   17.7364   36.6049 C   0  0  0  0  0  0  0  0  0  0  0  0
   40.4894   16.9591   36.0681 N   0  0  0  0  0  0  0  0  0  0  0  0
   39.4347   16.6827   37.0863 C   0  0  0  0  0  0  0  0  0  0  0  0
   38.5467   17.8746   37.3942 C   0  0  0  0  0  0  0  0  0  0  0  0
   37.8132   18.3875   36.1682 C   0  0  0  0  0  0  0  0  0  0  0  0
   37.0537   19.5899   36.5799 C   0  0  0  0  0  0  0  0  0  0  0  0
   36.6224   20.4810   35.4762 N   0  0  0  0  0  0  0  0  0  0  0  0
   37.7122   21.3336   34.9385 C   0  0  0  0  0  0  0  0  0  0  0  0
   37.7513   21.4915   33.3892 C   0  0  0  0  0  0  0  0  0  0  0  0
   36.4729   22.2261   32.9488 C   0  0  0  0  0  0  0  0  0  0  0  0
   36.4675   22.4295   31.5024 N   0  0  0  0  0  0  0  0  0  0  0  0
  1  2  1  0  0  0  0
  2  3  1  0  0  0  0
  3  4  1  0  0  0  0
  4  5  1  0  0  0  0
  5  6  1  0  0  0  0
  6  7  1  0  0  0  0
  7  8  1  0  0  0  0
  8  9  1  0  0  0  0
  9 10  1  0  0  0  0
 10 11  1  0  0  0  0
 11 12  1  0  0  0  0
 12 13  1  0  0  0  0
 13 14  1  0  0  0  0
M  END
>  <CHROM.1>
-67.58956951,-179.91271744,178.39139314,77.22967670,59.47395859,-176.59530785
161.41182891,-77.17235853,138.66475882,64.45399719,178.76752141,39.32808509
19.44256993,35.44061511,-0.68558496,0.02090997,-0.71978688

>  <Name>
ligand

>  <RI>
0

>  <Rbt.Current_Directory>
/home/itssahil/PROJECTS/Mol_Feturizer/New_Systems/rnas/1EVV

>  <Rbt.Executable>
rbdock ($Id: //depot/dev/client3/rdock/2013.1/src/exe/rbdock.cxx#4 $)

>  <Rbt.Library>
libRbt.so (2013.1, Build901 2013/11/27)

>  <Rbt.Parameter_File>
/export/apps/rDock/src/rDock_2013.1_src/data/scripts/dock_solv.prm

>  <Rbt.Receptor>
prm/pocket_docking_3.prm

>  <SCORE>
-4.31143

>  <SCORE.INTER>
4.06117

>  <SCORE.INTER.CONST>
1

>  <SCORE.INTER.POLAR>
0

>  <SCORE.INTER.ROT>
11

>  <SCORE.INTER.SOLV>
5.99542

>  <SCORE.INTER.VDW>
-10.2244

>  <SCORE.INTER.norm>
0.290084

>  <SCORE.INTRA>
-8.3726

>  <SCORE.INTRA.DIHEDRAL>
-17.2684

>  <SCORE.INTRA.DIHEDRAL.0>
20.2131

>  <SCORE.INTRA.POLAR>
0

>  <SCORE.INTRA.POLAR.0>
0

>  <SCORE.INTRA.REPUL>
0

>  <SCORE.INTRA.REPUL.0>
0

>  <SCORE.INTRA.SOLV>
-0.0342583

>  <SCORE.INTRA.SOLV.lig_0>
-48.2851

>  <SCORE.INTRA.VDW>
0.278744

>  <SCORE.INTRA.VDW.0>
-1.08658

>  <SCORE.INTRA.norm>
-0.598043

>  <SCORE.RESTR>
0

>  <SCORE.RESTR.CAVITY>
0

>  <SCORE.RESTR.norm>
0

>  <SCORE.SYSTEM>
0

>  <SCORE.SYSTEM.CONST>
0

>  <SCORE.SYSTEM.DIHEDRAL>
0

>  <SCORE.SYSTEM.SOLV>
0

>  <SCORE.SYSTEM.norm>
0

>  <SCORE.heavy>
14

>  <SCORE.norm>
-0.307959

>  <RMSD>
4.857

$$$$
ligand
 OpenBabel11021811393D
libRbt.so/2013.1/901 2013/11/27
 14 13  0  0  0  0  0  0  0  0999 V2000
   38.2423   14.4499   37.4497 N   0  0  0  0  0  0  0  0  0  0  0  0
   37.4804   14.9328   36.3084 C   0  0  0  0  0  0  0  0  0  0  0  0
   36.9246   16.3544   36.5975 C   0  0  0  0  0  0  0  0  0  0  0  0
   37.9549   17.4958   36.9157 C   0  0  0  0  0  0  0  0  0  0  0  0
   37.3653   18.8755   37.0748 N   0  0  0  0  0  0  0  0  0  0  0  0
   37.6120   19.7743   35.9100 C   0  0  0  0  0  0  0  0  0  0  0  0
   37.9222   21.2099   36.2930 C   0  0  0  0  0  0  0  0  0  0  0  0
   39.1942   21.3330   37.1122 C   0  0  0  0  0  0  0  0  0  0  0  0
   39.3340   22.7557   37.4979 C   0  0  0  0  0  0  0  0  0  0  0  0
   40.5059   23.0739   38.3486 N   0  0  0  0  0  0  0  0  0  0  0  0
   40.7806   24.5281   38.4643 C   0  0  0  0  0  0  0  0  0  0  0  0
   41.7494   24.9488   39.6094 C   0  0  0  0  0  0  0  0  0  0  0  0
   43.1196   24.3018   39.3413 C   0  0  0  0  0  0  0  0  0  0  0  0
   44.0929   24.7203   40.3468 N   0  0  0  0  0  0  0  0  0  0  0  0
  1  2  1  0  0  0  0
  2  3  1  0  0  0  0
  3  4  1  0  0  0  0
  4  5  1  0  0  0  0
  5  6  1  0  0  0  0
  6  7  1  0  0  0  0
  7  8  1  0  0  0  0
  8  9  1  0  0  0  0
  9 10  1  0  0  0  0
 10 11  1  0  0  0  0
 11 12  1  0  0  0  0
 12 13  1  0  0  0  0
 13 14  1  0  0  0  0
M  END
>  <CHROM.1>
59.34277051,175.14030874,-105.06304696,-140.76987421,62.44873557,-176.18376379
178.10633125,167.23741795,165.02792068,62.30764141,176.92536332,39.44819689
20.62544722,37.66186175,-2.18565891,-0.59469564,-0.07105987

>  <Name>
ligand

>  <RI>
0

>  <Rbt.Current_Directory>
/home/itssahil/PROJECTS/Mol_Feturizer/New_Systems/rnas/1EVV

>  <Rbt.Executable>
rbdock ($Id: //depot/dev/client3/rdock/2013.1/src/exe/rbdock.cxx#4 $)

>  <Rbt.Library>
libRbt.so (2013.1, Build901 2013/11/27)

>  <Rbt.Parameter_File>
/export/apps/rDock/src/rDock_2013.1_src/data/scripts/dock_solv.prm

>  <Rbt.Receptor>
prm/pocket_docking_6.prm

>  <SCORE>
-8.33453

>  <SCORE.INTER>
0.670916

>  <SCORE.INTER.CONST>
1

>  <SCORE.INTER.POLAR>
0

>  <SCORE.INTER.ROT>
11

>  <SCORE.INTER.SOLV>
7.79214

>  <SCORE.INTER.VDW>
-13.0834

>  <SCORE.INTER.norm>
0.0479226

>  <SCORE.INTRA>
-9.00544

>  <SCORE.INTRA.DIHEDRAL>
-17.7611

>  <SCORE.INTRA.DIHEDRAL.0>
20.2131

>  <SCORE.INTRA.POLAR>
0

>  <SCORE.INTRA.POLAR.0>
0

>  <SCORE.INTRA.REPUL>
0

>  <SCORE.INTRA.REPUL.0>
0

>  <SCORE.INTRA.SOLV>
0.0237871

>  <SCORE.INTRA.SOLV.lig_0>
-48.2851

>  <SCORE.INTRA.VDW>
-0.136795

>  <SCORE.INTRA.VDW.0>
-1.08658

>  <SCORE.INTRA.norm>
-0.643246

>  <SCORE.RESTR>
0

>  <SCORE.RESTR.CAVITY>
0

>  <SCORE.RESTR.norm>
0

>  <SCORE.SYSTEM>
0

>  <SCORE.SYSTEM.CONST>
0

>  <SCORE.SYSTEM.DIHEDRAL>
0

>  <SCORE.SYSTEM.SOLV>
0

>  <SCORE.SYSTEM.norm>
0

>  <SCORE.heavy>
14

>  <SCORE.norm>
-0.595323

>  <RMSD>
4.859

$$$$
ligand
 OpenBabel11021811393D
libRbt.so/2013.1/901 2013/11/27
 14 13  0  0  0  0  0  0  0  0999 V2000
   40.8277   17.9748   33.5979 N   0  0  0  0  0  0  0  0  0  0  0  0
   41.6987   17.2461   34.5069 C   0  0  0  0  0  0  0  0  0  0  0  0
   40.9350   16.0490   35.1373 C   0  0  0  0  0  0  0  0  0  0  0  0
   39.7670   16.3669   36.1374 C   0  0  0  0  0  0  0  0  0  0  0  0
   38.5992   17.1216   35.5516 N   0  0  0  0  0  0  0  0  0  0  0  0
   37.5809   17.5339   36.5609 C   0  0  0  0  0  0  0  0  0  0  0  0
   37.2127   19.0052   36.5004 C   0  0  0  0  0  0  0  0  0  0  0  0
   38.4080   19.9150   36.7190 C   0  0  0  0  0  0  0  0  0  0  0  0
   37.9152   21.3102   36.6671 C   0  0  0  0  0  0  0  0  0  0  0  0
   38.9350   22.3568   36.9179 N   0  0  0  0  0  0  0  0  0  0  0  0
   38.3663   23.7205   37.0613 C   0  0  0  0  0  0  0  0  0  0  0  0
   38.5036   24.6494   35.8183 C   0  0  0  0  0  0  0  0  0  0  0  0
   37.7301   24.0091   34.6523 C   0  0  0  0  0  0  0  0  0  0  0  0
   37.8548   24.8201   33.4439 N   0  0  0  0  0  0  0  0  0  0  0  0
  1  2  1  0  0  0  0
  2  3  1  0  0  0  0
  3  4  1  0  0  0  0
  4  5  1  0  0  0  0
  5  6  1  0  0  0  0
  6  7  1  0  0  0  0
  7  8  1  0  0  0  0
  8  9  1  0  0  0  0
  9 10  1  0  0  0  0
 10 11  1  0  0  0  0
 11 12  1  0  0  0  0
 12 13  1  0  0  0  0
 13 14  1  0  0  0  0
M  END
>  <CHROM.1>
-68.02632075,62.89317473,-173.69936192,128.81394451,-59.30111398,-178.75450604
177.52753743,-171.21411714,-101.99782213,62.14826358,-178.40407524,38.88094039
20.14829100,35.66262923,-1.18818896,0.81766829,-0.26355779

>  <Name>
ligand

>  <RI>
0

>  <Rbt.Current_Directory>
/home/itssahil/PROJECTS/Mol_Feturizer/New_Systems/rnas/1EVV

>  <Rbt.Executable>
rbdock ($Id: //depot/dev/client3/rdock/2013.1/src/exe/rbdock.cxx#4 $)

>  <Rbt.Library>
libRbt.so (2013.1, Build901 2013/11/27)

>  <Rbt.Parameter_File>
/export/apps/rDock/src/rDock_2013.1_src/data/scripts/dock_solv.prm

>  <Rbt.Receptor>
prm/pocket_docking_4.prm

>  <SCORE>
-4.81196

>  <SCORE.INTER>
3.5096

>  <SCORE.INTER.CONST>
1

>  <SCORE.INTER.POLAR>
0

>  <SCORE.INTER.ROT>
11

>  <SCORE.INTER.SOLV>
4.25339

>  <SCORE.INTER.VDW>
-10.0114

>  <SCORE.INTER.norm>
0.250686

>  <SCORE.INTRA>
-8.32249

>  <SCORE.INTRA.DIHEDRAL>
-17.6983

>  <SCORE.INTRA.DIHEDRAL.0>
20.2131

>  <SCORE.INTRA.POLAR>
0

>  <SCORE.INTRA.POLAR.0>
0

>  <SCORE.INTRA.REPUL>
0

>  <SCORE.INTRA.REPUL.0>
0

>  <SCORE.INTRA.SOLV>
2.00528

>  <SCORE.INTRA.SOLV.lig_0>
-48.2851

>  <SCORE.INTRA.VDW>
-0.475998

>  <SCORE.INTRA.VDW.0>
-1.08658

>  <SCORE.INTRA.norm>
-0.594464

>  <SCORE.RESTR>
0.000931412

>  <SCORE.RESTR.CAVITY>
0.000931412

>  <SCORE.RESTR.norm>
6.65294e-05

>  <SCORE.SYSTEM>
0

>  <SCORE.SYSTEM.CONST>
0

>  <SCORE.SYSTEM.DIHEDRAL>
0

>  <SCORE.SYSTEM.SOLV>
0

>  <SCORE.SYSTEM.norm>
0

>  <SCORE.heavy>
14

>  <SCORE.norm>
-0.343712

>  <RMSD>
4.864

$$$$
ligand
 OpenBabel11021811393D
libRbt.so/2013.1/901 2013/11/27
 14 13  0  0  0  0  0  0  0  0999 V2000
   43.3256   18.8865   35.1938 N   0  0  0  0  0  0  0  0  0  0  0  0
   42.7671   17.5691   34.9314 C   0  0  0  0  0  0  0  0  0  0  0  0
   41.2434   17.6793   34.6488 C   0  0  0  0  0  0  0  0  0  0  0  0
   40.4465   16.3519   34.3875 C   0  0  0  0  0  0  0  0  0  0  0  0
   38.9756   16.5248   34.0992 N   0  0  0  0  0  0  0  0  0  0  0  0
   38.1857   17.0116   35.2673 C   0  0  0  0  0  0  0  0  0  0  0  0
   38.0806   18.5234   35.3544 C   0  0  0  0  0  0  0  0  0  0  0  0
   37.2843   18.9841   36.5618 C   0  0  0  0  0  0  0  0  0  0  0  0
   37.1612   20.4569   36.4728 C   0  0  0  0  0  0  0  0  0  0  0  0
   38.4307   21.2121   36.6005 N   0  0  0  0  0  0  0  0  0  0  0  0
   38.2897   22.4940   37.3357 C   0  0  0  0  0  0  0  0  0  0  0  0
   39.4725   23.4969   37.1882 C   0  0  0  0  0  0  0  0  0  0  0  0
   40.7324   22.8448   37.7843 C   0  0  0  0  0  0  0  0  0  0  0  0
   41.8871   23.7278   37.6407 N   0  0  0  0  0  0  0  0  0  0  0  0
  1  2  1  0  0  0  0
  2  3  1  0  0  0  0
  3  4  1  0  0  0  0
  4  5  1  0  0  0  0
  5  6  1  0  0  0  0
  6  7  1  0  0  0  0
  7  8  1  0  0  0  0
  8  9  1  0  0  0  0
  9 10  1  0  0  0  0
 10 11  1  0  0  0  0
 11 12  1  0  0  0  0
 12 13  1  0  0  0  0
 13 14  1  0  0  0  0
M  END
>  <CHROM.1>
-178.04310242,-179.13492579,-67.88589284,90.44785551,-179.35783966,-175.46402198
-65.73785013,-143.47050634,-164.67235657,-62.98274572,178.43788781,39.73407794
19.69721665,35.96191395,-1.49994656,0.09197755,0.42898902

>  <Name>
ligand

>  <RI>
0

>  <Rbt.Current_Directory>
/home/itssahil/PROJECTS/Mol_Feturizer/New_Systems/rnas/1EVV

>  <Rbt.Executable>
rbdock ($Id: //depot/dev/client3/rdock/2013.1/src/exe/rbdock.cxx#4 $)

>  <Rbt.Library>
libRbt.so (2013.1, Build901 2013/11/27)

>  <Rbt.Parameter_File>
/export/apps/rDock/src/rDock_2013.1_src/data/scripts/dock_solv.prm

>  <Rbt.Receptor>
prm/pocket_docking_4.prm

>  <SCORE>
-6.8936

>  <SCORE.INTER>
2.31788

>  <SCORE.INTER.CONST>
1

>  <SCORE.INTER.POLAR>
0

>  <SCORE.INTER.ROT>
11

>  <SCORE.INTER.SOLV>
4.65372

>  <SCORE.INTER.VDW>
-10.9393

>  <SCORE.INTER.norm>
0.165563

>  <SCORE.INTRA>
-9.21148

>  <SCORE.INTRA.DIHEDRAL>
-18.2932

>  <SCORE.INTRA.DIHEDRAL.0>
20.2131

>  <SCORE.INTRA.POLAR>
0

>  <SCORE.INTRA.POLAR.0>
0

>  <SCORE.INTRA.REPUL>
0

>  <SCORE.INTRA.REPUL.0>
0

>  <SCORE.INTRA.SOLV>
-0.722253

>  <SCORE.INTRA.SOLV.lig_0>
-48.2851

>  <SCORE.INTRA.VDW>
0.296245

>  <SCORE.INTRA.VDW.0>
-1.08658

>  <SCORE.INTRA.norm>
-0.657963

>  <SCORE.RESTR>
0

>  <SCORE.RESTR.CAVITY>
0

>  <SCORE.RESTR.norm>
0

>  <SCORE.SYSTEM>
0

>  <SCORE.SYSTEM.CONST>
0

>  <SCORE.SYSTEM.DIHEDRAL>
0

>  <SCORE.SYSTEM.SOLV>
0

>  <SCORE.SYSTEM.norm>
0

>  <SCORE.heavy>
14

>  <SCORE.norm>
-0.4924

>  <RMSD>
4.872

$$$$
ligand
 OpenBabel11021811393D
libRbt.so/2013.1/901 2013/11/27
 14 13  0  0  0  0  0  0  0  0999 V2000
   38.9985   15.3454   37.5832 N   0  0  0  0  0  0  0  0  0  0  0  0
   37.5638   15.5739   37.6565 C   0  0  0  0  0  0  0  0  0  0  0  0
   37.0034   15.9202   36.2495 C   0  0  0  0  0  0  0  0  0  0  0  0
   37.5155   17.2331   35.5570 C   0  0  0  0  0  0  0  0  0  0  0  0
   37.0987   18.5218   36.2219 N   0  0  0  0  0  0  0  0  0  0  0  0
   37.9635   19.6865   35.8740 C   0  0  0  0  0  0  0  0  0  0  0  0
   37.6527   20.9440   36.6653 C   0  0  0  0  0  0  0  0  0  0  0  0
   38.7438   21.9926   36.5460 C   0  0  0  0  0  0  0  0  0  0  0  0
   38.4917   23.0116   37.5902 C   0  0  0  0  0  0  0  0  0  0  0  0
   39.5471   24.0414   37.7447 N   0  0  0  0  0  0  0  0  0  0  0  0
   40.8339   23.5039   38.2532 C   0  0  0  0  0  0  0  0  0  0  0  0
   41.9515   24.5550   38.5232 C   0  0  0  0  0  0  0  0  0  0  0  0
   41.5495   25.3764   39.7608 C   0  0  0  0  0  0  0  0  0  0  0  0
   42.5707   26.3734   40.0718 N   0  0  0  0  0  0  0  0  0  0  0  0
  1  2  1  0  0  0  0
  2  3  1  0  0  0  0
  3  4  1  0  0  0  0
  4  5  1  0  0  0  0
  5  6  1  0  0  0  0
  6  7  1  0  0  0  0
  7  8  1  0  0  0  0
  8  9  1  0  0  0  0
  9 10  1  0  0  0  0
 10 11  1  0  0  0  0
 11 12  1  0  0  0  0
 12 13  1  0  0  0  0
 13 14  1  0  0  0  0
M  END
>  <CHROM.1>
-63.18283835,-67.12118996,159.00072651,-173.05346722,165.90803039,-166.85653998
172.91705626,-66.63288924,-176.18346370,70.82909616,179.41595013,39.10583940
20.86270337,37.44961693,-2.11667932,-0.71608772,-0.10337184

>  <Name>
ligand

>  <RI>
0

>  <Rbt.Current_Directory>
/home/itssahil/PROJECTS/Mol_Feturizer/New_Systems/rnas/1EVV

>  <Rbt.Executable>
rbdock ($Id: //depot/dev/client3/rdock/2013.1/src/exe/rbdock.cxx#4 $)

>  <Rbt.Library>
libRbt.so (2013.1, Build901 2013/11/27)

>  <Rbt.Parameter_File>
/export/apps/rDock/src/rDock_2013.1_src/data/scripts/dock_solv.prm

>  <Rbt.Receptor>
prm/pocket_docking_7.prm

>  <SCORE>
-8.31237

>  <SCORE.INTER>
0.0734135

>  <SCORE.INTER.CONST>
1

>  <SCORE.INTER.POLAR>
0

>  <SCORE.INTER.ROT>
11

>  <SCORE.INTER.SOLV>
6.41655

>  <SCORE.INTER.VDW>
-13.0232

>  <SCORE.INTER.norm>
0.00524382

>  <SCORE.INTRA>
-8.38578

>  <SCORE.INTRA.DIHEDRAL>
-17.5355

>  <SCORE.INTRA.DIHEDRAL.0>
20.2131

>  <SCORE.INTRA.POLAR>
0

>  <SCORE.INTRA.POLAR.0>
0

>  <SCORE.INTRA.REPUL>
0

>  <SCORE.INTRA.REPUL.0>
0

>  <SCORE.INTRA.SOLV>
0.284728

>  <SCORE.INTRA.SOLV.lig_0>
-48.2851

>  <SCORE.INTRA.VDW>
0.239608

>  <SCORE.INTRA.VDW.0>
-1.08658

>  <SCORE.INTRA.norm>
-0.598985

>  <SCORE.RESTR>
0

>  <SCORE.RESTR.CAVITY>
0

>  <SCORE.RESTR.norm>
0

>  <SCORE.SYSTEM>
0

>  <SCORE.SYSTEM.CONST>
0

>  <SCORE.SYSTEM.DIHEDRAL>
0

>  <SCORE.SYSTEM.SOLV>
0

>  <SCORE.SYSTEM.norm>
0

>  <SCORE.heavy>
14

>  <SCORE.norm>
-0.593741

>  <RMSD>
4.876

$$$$
ligand
 OpenBabel11021811393D
libRbt.so/2013.1/901 2013/11/27
 14 13  0  0  0  0  0  0  0  0999 V2000
   38.3649   17.2822   31.9010 N   0  0  0  0  0  0  0  0  0  0  0  0
   39.3866   16.5227   32.6049 C   0  0  0  0  0  0  0  0  0  0  0  0
   38.9886   15.0224   32.6719 C   0  0  0  0  0  0  0  0  0  0  0  0
   39.8987   14.0573   33.5119 C   0  0  0  0  0  0  0  0  0  0  0  0
   39.9737   14.3584   34.9885 N   0  0  0  0  0  0  0  0  0  0  0  0
   40.9252   15.4547   35.3324 C   0  0  0  0  0  0  0  0  0  0  0  0
   40.3274   16.5372   36.2127 C   0  0  0  0  0  0  0  0  0  0  0  0
   41.2585   17.7224   36.3931 C   0  0  0  0  0  0  0  0  0  0  0  0
   40.5338   18.7340   37.1954 C   0  0  0  0  0  0  0  0  0  0  0  0
   41.2225   20.0378   37.3511 N   0  0  0  0  0  0  0  0  0  0  0  0
   40.3184   21.1449   37.7517 C   0  0  0  0  0  0  0  0  0  0  0  0
   40.9771   22.5512   37.8741 C   0  0  0  0  0  0  0  0  0  0  0  0
   39.8801   23.5650   38.2439 C   0  0  0  0  0  0  0  0  0  0  0  0
   38.9721   23.7752   37.1192 N   0  0  0  0  0  0  0  0  0  0  0  0
  1  2  1  0  0  0  0
  2  3  1  0  0  0  0
  3  4  1  0  0  0  0
  4  5  1  0  0  0  0
  5  6  1  0  0  0  0
  6  7  1  0  0  0  0
  7  8  1  0  0  0  0
  8  9  1  0  0  0  0
  9 10  1  0  0  0  0
 10 11  1  0  0  0  0
 11 12  1  0  0  0  0
 12 13  1  0  0  0  0
 13 14  1  0  0  0  0
M  END
>  <CHROM.1>
-174.34128466,62.83069954,-80.79091153,129.00803543,-172.46088816,176.65120340
-173.30426177,160.88421321,-177.60969476,177.93980461,-70.02711439,40.07355637
18.34018508,35.65382962,1.69001610,1.01138434,-2.72364487

>  <Name>
ligand

>  <RI>
0

>  <Rbt.Current_Directory>
/home/itssahil/PROJECTS/Mol_Feturizer/New_Systems/rnas/1EVV

>  <Rbt.Executable>
rbdock ($Id: //depot/dev/client3/rdock/2013.1/src/exe/rbdock.cxx#4 $)

>  <Rbt.Library>
libRbt.so (2013.1, Build901 2013/11/27)

>  <Rbt.Parameter_File>
/export/apps/rDock/src/rDock_2013.1_src/data/scripts/dock_solv.prm

>  <Rbt.Receptor>
prm/pocket_docking_6.prm

>  <SCORE>
-6.14465

>  <SCORE.INTER>
2.96862

>  <SCORE.INTER.CONST>
1

>  <SCORE.INTER.POLAR>
0

>  <SCORE.INTER.ROT>
11

>  <SCORE.INTER.SOLV>
9.33534

>  <SCORE.INTER.VDW>
-12.066

>  <SCORE.INTER.norm>
0.212044

>  <SCORE.INTRA>
-9.11327

>  <SCORE.INTRA.DIHEDRAL>
-17.5105

>  <SCORE.INTRA.DIHEDRAL.0>
20.2131

>  <SCORE.INTRA.POLAR>
0

>  <SCORE.INTRA.POLAR.0>
0

>  <SCORE.INTRA.REPUL>
0

>  <SCORE.INTRA.REPUL.0>
0

>  <SCORE.INTRA.SOLV>
-0.358763

>  <SCORE.INTRA.SOLV.lig_0>
-48.2851

>  <SCORE.INTRA.VDW>
-0.178612

>  <SCORE.INTRA.VDW.0>
-1.08658

>  <SCORE.INTRA.norm>
-0.650948

>  <SCORE.RESTR>
0

>  <SCORE.RESTR.CAVITY>
0

>  <SCORE.RESTR.norm>
0

>  <SCORE.SYSTEM>
0

>  <SCORE.SYSTEM.CONST>
0

>  <SCORE.SYSTEM.DIHEDRAL>
0

>  <SCORE.SYSTEM.SOLV>
0

>  <SCORE.SYSTEM.norm>
0

>  <SCORE.heavy>
14

>  <SCORE.norm>
-0.438903

>  <RMSD>
4.879

$$$$
ligand
 OpenBabel11021811393D
libRbt.so/2013.1/901 2013/11/27
 14 13  0  0  0  0  0  0  0  0999 V2000
   38.1149   16.3449   36.8038 N   0  0  0  0  0  0  0  0  0  0  0  0
   37.3800   16.8451   35.6523 C   0  0  0  0  0  0  0  0  0  0  0  0
   37.8519   18.2823   35.2981 C   0  0  0  0  0  0  0  0  0  0  0  0
   37.4340   19.4511   36.2597 C   0  0  0  0  0  0  0  0  0  0  0  0
   37.9279   20.8217   35.8670 N   0  0  0  0  0  0  0  0  0  0  0  0
   38.1175   21.7474   37.0214 C   0  0  0  0  0  0  0  0  0  0  0  0
   39.2851   22.7039   36.8602 C   0  0  0  0  0  0  0  0  0  0  0  0
   39.6107   23.4481   38.1425 C   0  0  0  0  0  0  0  0  0  0  0  0
   40.8095   24.2762   37.8792 C   0  0  0  0  0  0  0  0  0  0  0  0
   41.4483   24.8730   39.0767 N   0  0  0  0  0  0  0  0  0  0  0  0
   42.6292   24.1154   39.5617 C   0  0  0  0  0  0  0  0  0  0  0  0
   43.1531   24.5040   40.9764 C   0  0  0  0  0  0  0  0  0  0  0  0
   44.3801   23.6302   41.2909 C   0  0  0  0  0  0  0  0  0  0  0  0
   44.9854   24.0288   42.5591 N   0  0  0  0  0  0  0  0  0  0  0  0
  1  2  1  0  0  0  0
  2  3  1  0  0  0  0
  3  4  1  0  0  0  0
  4  5  1  0  0  0  0
  5  6  1  0  0  0  0
  6  7  1  0  0  0  0
  7  8  1  0  0  0  0
  8  9  1  0  0  0  0
  9 10  1  0  0  0  0
 10 11  1  0  0  0  0
 11 12  1  0  0  0  0
 12 13  1  0  0  0  0
 13 14  1  0  0  0  0
M  END
>  <CHROM.1>
-72.03134959,179.69520737,-151.86275710,145.35889657,-169.34803392,176.49174559
-168.34028157,98.89542048,-167.20760307,-179.25797884,175.14942139,40.22323716
21.79099484,38.08902220,-2.50230392,-0.72986313,-0.05242511

>  <Name>
ligand

>  <RI>
0

>  <Rbt.Current_Directory>
/home/itssahil/PROJECTS/Mol_Feturizer/New_Systems/rnas/1EVV

>  <Rbt.Executable>
rbdock ($Id: //depot/dev/client3/rdock/2013.1/src/exe/rbdock.cxx#4 $)

>  <Rbt.Library>
libRbt.so (2013.1, Build901 2013/11/27)

>  <Rbt.Parameter_File>
/export/apps/rDock/src/rDock_2013.1_src/data/scripts/dock_solv.prm

>  <Rbt.Receptor>
prm/pocket_docking_7.prm

>  <SCORE>
-7.69385

>  <SCORE.INTER>
1.04758

>  <SCORE.INTER.CONST>
1

>  <SCORE.INTER.POLAR>
0

>  <SCORE.INTER.ROT>
11

>  <SCORE.INTER.SOLV>
7.25298

>  <SCORE.INTER.VDW>
-12.6526

>  <SCORE.INTER.norm>
0.074827

>  <SCORE.INTRA>
-8.74143

>  <SCORE.INTRA.DIHEDRAL>
-16.339

>  <SCORE.INTRA.DIHEDRAL.0>
20.2131

>  <SCORE.INTRA.POLAR>
0

>  <SCORE.INTRA.POLAR.0>
0

>  <SCORE.INTRA.REPUL>
0

>  <SCORE.INTRA.REPUL.0>
0

>  <SCORE.INTRA.SOLV>
-0.842312

>  <SCORE.INTRA.SOLV.lig_0>
-48.2851

>  <SCORE.INTRA.VDW>
-0.150755

>  <SCORE.INTRA.VDW.0>
-1.08658

>  <SCORE.INTRA.norm>
-0.624388

>  <SCORE.RESTR>
0

>  <SCORE.RESTR.CAVITY>
0

>  <SCORE.RESTR.norm>
0

>  <SCORE.SYSTEM>
0

>  <SCORE.SYSTEM.CONST>
0

>  <SCORE.SYSTEM.DIHEDRAL>
0

>  <SCORE.SYSTEM.SOLV>
0

>  <SCORE.SYSTEM.norm>
0

>  <SCORE.heavy>
14

>  <SCORE.norm>
-0.549561

>  <RMSD>
4.893

$$$$
ligand
 OpenBabel11021811393D
libRbt.so/2013.1/901 2013/11/27
 14 13  0  0  0  0  0  0  0  0999 V2000
   41.5728   24.5373   38.5495 N   0  0  0  0  0  0  0  0  0  0  0  0
   40.6184   23.9911   37.5971 C   0  0  0  0  0  0  0  0  0  0  0  0
   39.4350   23.3209   38.3482 C   0  0  0  0  0  0  0  0  0  0  0  0
   38.2874   22.6805   37.4891 C   0  0  0  0  0  0  0  0  0  0  0  0
   38.7052   21.5356   36.5996 N   0  0  0  0  0  0  0  0  0  0  0  0
   37.7299   20.4071   36.5718 C   0  0  0  0  0  0  0  0  0  0  0  0
   38.3358   19.0777   36.1599 C   0  0  0  0  0  0  0  0  0  0  0  0
   37.3598   17.9236   36.3000 C   0  0  0  0  0  0  0  0  0  0  0  0
   38.0761   16.6900   35.9031 C   0  0  0  0  0  0  0  0  0  0  0  0
   39.2734   16.3590   36.7126 N   0  0  0  0  0  0  0  0  0  0  0  0
   40.3349   15.6585   35.9471 C   0  0  0  0  0  0  0  0  0  0  0  0
   41.2849   16.5680   35.1123 C   0  0  0  0  0  0  0  0  0  0  0  0
   42.0306   17.5018   36.0818 C   0  0  0  0  0  0  0  0  0  0  0  0
   42.9299   18.3914   35.3515 N   0  0  0  0  0  0  0  0  0  0  0  0
  1  2  1  0  0  0  0
  2  3  1  0  0  0  0
  3  4  1  0  0  0  0
  4  5  1  0  0  0  0
  5  6  1  0  0  0  0
  6  7  1  0  0  0  0
  7  8  1  0  0  0  0
  8  9  1  0  0  0  0
  9 10  1  0  0  0  0
 10 11  1  0  0  0  0
 11 12  1  0  0  0  0
 12 13  1  0  0  0  0
 13 14  1  0  0  0  0
M  END
>  <CHROM.1>
179.44952301,62.38959971,138.95846109,-157.26916971,173.20784922,-178.61209003
60.29013064,-148.45865295,82.61892307,62.00182884,-179.42070671,39.71205455
19.61707032,36.62304263,-1.58857678,-0.06384591,-2.85745269

>  <Name>
ligand

>  <RI>
0

>  <Rbt.Current_Directory>
/home/itssahil/PROJECTS/Mol_Feturizer/New_Systems/rnas/1EVV

>  <Rbt.Executable>
rbdock ($Id: //depot/dev/client3/rdock/2013.1/src/exe/rbdock.cxx#4 $)

>  <Rbt.Library>
libRbt.so (2013.1, Build901 2013/11/27)

>  <Rbt.Parameter_File>
/export/apps/rDock/src/rDock_2013.1_src/data/scripts/dock_solv.prm

>  <Rbt.Receptor>
prm/pocket_docking_4.prm

>  <SCORE>
-7.41131

>  <SCORE.INTER>
1.88288

>  <SCORE.INTER.CONST>
1

>  <SCORE.INTER.POLAR>
0

>  <SCORE.INTER.ROT>
11

>  <SCORE.INTER.SOLV>
6.38267

>  <SCORE.INTER.VDW>
-11.8056

>  <SCORE.INTER.norm>
0.134491

>  <SCORE.INTRA>
-9.29419

>  <SCORE.INTRA.DIHEDRAL>
-17.6657

>  <SCORE.INTRA.DIHEDRAL.0>
20.2131

>  <SCORE.INTRA.POLAR>
0

>  <SCORE.INTRA.POLAR.0>
0

>  <SCORE.INTRA.REPUL>
0

>  <SCORE.INTRA.REPUL.0>
0

>  <SCORE.INTRA.SOLV>
-0.36216

>  <SCORE.INTRA.SOLV.lig_0>
-48.2851

>  <SCORE.INTRA.VDW>
-0.280261

>  <SCORE.INTRA.VDW.0>
-1.08658

>  <SCORE.INTRA.norm>
-0.663871

>  <SCORE.RESTR>
0

>  <SCORE.RESTR.CAVITY>
0

>  <SCORE.RESTR.norm>
0

>  <SCORE.SYSTEM>
0

>  <SCORE.SYSTEM.CONST>
0

>  <SCORE.SYSTEM.DIHEDRAL>
0

>  <SCORE.SYSTEM.SOLV>
0

>  <SCORE.SYSTEM.norm>
0

>  <SCORE.heavy>
14

>  <SCORE.norm>
-0.52938

>  <RMSD>
4.898

$$$$
ligand
 OpenBabel11021811393D
libRbt.so/2013.1/901 2013/11/27
 14 13  0  0  0  0  0  0  0  0999 V2000
   44.0326   19.7977   35.5429 N   0  0  0  0  0  0  0  0  0  0  0  0
   42.6888   19.3307   35.8466 C   0  0  0  0  0  0  0  0  0  0  0  0
   42.6307   17.7799   35.7731 C   0  0  0  0  0  0  0  0  0  0  0  0
   41.2420   17.0845   36.0044 C   0  0  0  0  0  0  0  0  0  0  0  0
   40.6032   17.3430   37.3466 N   0  0  0  0  0  0  0  0  0  0  0  0
   39.1187   17.4798   37.2911 C   0  0  0  0  0  0  0  0  0  0  0  0
   38.6408   18.8683   36.9069 C   0  0  0  0  0  0  0  0  0  0  0  0
   37.1347   18.9389   36.7313 C   0  0  0  0  0  0  0  0  0  0  0  0
   36.8025   20.3242   36.3277 C   0  0  0  0  0  0  0  0  0  0  0  0
   37.3416   20.7529   35.0147 N   0  0  0  0  0  0  0  0  0  0  0  0
   36.3038   21.2568   34.0806 C   0  0  0  0  0  0  0  0  0  0  0  0
   36.8062   21.6762   32.6670 C   0  0  0  0  0  0  0  0  0  0  0  0
   37.7907   22.8470   32.8349 C   0  0  0  0  0  0  0  0  0  0  0  0
   37.1030   24.0294   33.3471 N   0  0  0  0  0  0  0  0  0  0  0  0
  1  2  1  0  0  0  0
  2  3  1  0  0  0  0
  3  4  1  0  0  0  0
  4  5  1  0  0  0  0
  5  6  1  0  0  0  0
  6  7  1  0  0  0  0
  7  8  1  0  0  0  0
  8  9  1  0  0  0  0
  9 10  1  0  0  0  0
 10 11  1  0  0  0  0
 11 12  1  0  0  0  0
 12 13  1  0  0  0  0
 13 14  1  0  0  0  0
M  END
>  <CHROM.1>
-177.17872539,-60.04545758,143.08321479,-83.17409243,174.55714776,-178.60373910
64.35781435,124.92303251,-177.99301282,-62.54047029,-65.94614585,39.15970796
19.82182831,35.40825320,-0.76668260,0.11377720,-0.68548614

>  <Name>
ligand

>  <RI>
0

>  <Rbt.Current_Directory>
/home/itssahil/PROJECTS/Mol_Feturizer/New_Systems/rnas/1EVV

>  <Rbt.Executable>
rbdock ($Id: //depot/dev/client3/rdock/2013.1/src/exe/rbdock.cxx#4 $)

>  <Rbt.Library>
libRbt.so (2013.1, Build901 2013/11/27)

>  <Rbt.Parameter_File>
/export/apps/rDock/src/rDock_2013.1_src/data/scripts/dock_solv.prm

>  <Rbt.Receptor>
prm/pocket_docking_3.prm

>  <SCORE>
-4.04043

>  <SCORE.INTER>
4.12555

>  <SCORE.INTER.CONST>
1

>  <SCORE.INTER.POLAR>
0

>  <SCORE.INTER.ROT>
11

>  <SCORE.INTER.SOLV>
5.75952

>  <SCORE.INTER.VDW>
-10.1028

>  <SCORE.INTER.norm>
0.294682

>  <SCORE.INTRA>
-8.16598

>  <SCORE.INTRA.DIHEDRAL>
-17.4488

>  <SCORE.INTRA.DIHEDRAL.0>
20.2131

>  <SCORE.INTRA.POLAR>
0

>  <SCORE.INTRA.POLAR.0>
0

>  <SCORE.INTRA.REPUL>
0

>  <SCORE.INTRA.REPUL.0>
0

>  <SCORE.INTRA.SOLV>
1.05803

>  <SCORE.INTRA.SOLV.lig_0>
-48.2851

>  <SCORE.INTRA.VDW>
0.0294062

>  <SCORE.INTRA.VDW.0>
-1.08658

>  <SCORE.INTRA.norm>
-0.583284

>  <SCORE.RESTR>
0

>  <SCORE.RESTR.CAVITY>
0

>  <SCORE.RESTR.norm>
0

>  <SCORE.SYSTEM>
0

>  <SCORE.SYSTEM.CONST>
0

>  <SCORE.SYSTEM.DIHEDRAL>
0

>  <SCORE.SYSTEM.SOLV>
0

>  <SCORE.SYSTEM.norm>
0

>  <SCORE.heavy>
14

>  <SCORE.norm>
-0.288602

>  <RMSD>
4.902

$$$$
ligand
 OpenBabel11021811393D
libRbt.so/2013.1/901 2013/11/27
 14 13  0  0  0  0  0  0  0  0999 V2000
   39.3097   15.7149   32.9269 N   0  0  0  0  0  0  0  0  0  0  0  0
   40.3587   16.1597   33.8313 C   0  0  0  0  0  0  0  0  0  0  0  0
   40.4821   15.1813   35.0318 C   0  0  0  0  0  0  0  0  0  0  0  0
   39.2306   14.9977   35.9620 C   0  0  0  0  0  0  0  0  0  0  0  0
   38.7147   16.2583   36.6111 N   0  0  0  0  0  0  0  0  0  0  0  0
   37.5346   16.8530   35.9190 C   0  0  0  0  0  0  0  0  0  0  0  0
   37.1670   18.2418   36.4089 C   0  0  0  0  0  0  0  0  0  0  0  0
   38.2758   19.2531   36.1808 C   0  0  0  0  0  0  0  0  0  0  0  0
   37.7436   20.5828   36.5562 C   0  0  0  0  0  0  0  0  0  0  0  0
   38.7429   21.6765   36.6150 N   0  0  0  0  0  0  0  0  0  0  0  0
   38.3543   22.7905   37.5160 C   0  0  0  0  0  0  0  0  0  0  0  0
   39.5269   23.5437   38.2120 C   0  0  0  0  0  0  0  0  0  0  0  0
   40.3372   24.2768   37.1285 C   0  0  0  0  0  0  0  0  0  0  0  0
   41.4872   24.9581   37.7174 N   0  0  0  0  0  0  0  0  0  0  0  0
  1  2  1  0  0  0  0
  2  3  1  0  0  0  0
  3  4  1  0  0  0  0
  4  5  1  0  0  0  0
  5  6  1  0  0  0  0
  6  7  1  0  0  0  0
  7  8  1  0  0  0  0
  8  9  1  0  0  0  0
  9 10  1  0  0  0  0
 10 11  1  0  0  0  0
 11 12  1  0  0  0  0
 12 13  1  0  0  0  0
 13 14  1  0  0  0  0
M  END
>  <CHROM.1>
-60.86656092,-58.06740122,99.43962617,-169.53608592,61.78803901,173.78733039
170.41109838,-154.97821454,149.02445563,66.25598015,-177.63069661,39.09019357
19.32045008,36.18701075,-1.64534262,0.41364743,0.34487670

>  <Name>
ligand

>  <RI>
0

>  <Rbt.Current_Directory>
/home/itssahil/PROJECTS/Mol_Feturizer/New_Systems/rnas/1EVV

>  <Rbt.Executable>
rbdock ($Id: //depot/dev/client3/rdock/2013.1/src/exe/rbdock.cxx#4 $)

>  <Rbt.Library>
libRbt.so (2013.1, Build901 2013/11/27)

>  <Rbt.Parameter_File>
/export/apps/rDock/src/rDock_2013.1_src/data/scripts/dock_solv.prm

>  <Rbt.Receptor>
prm/pocket_docking_5.prm

>  <SCORE>
-6.48584

>  <SCORE.INTER>
1.89868

>  <SCORE.INTER.CONST>
1

>  <SCORE.INTER.POLAR>
0

>  <SCORE.INTER.ROT>
11

>  <SCORE.INTER.SOLV>
4.50433

>  <SCORE.INTER.VDW>
-11.169

>  <SCORE.INTER.norm>
0.13562

>  <SCORE.INTRA>
-8.38452

>  <SCORE.INTRA.DIHEDRAL>
-17.4666

>  <SCORE.INTRA.DIHEDRAL.0>
20.2131

>  <SCORE.INTRA.POLAR>
0

>  <SCORE.INTRA.POLAR.0>
0

>  <SCORE.INTRA.REPUL>
0

>  <SCORE.INTRA.REPUL.0>
0

>  <SCORE.INTRA.SOLV>
1.69891

>  <SCORE.INTRA.SOLV.lig_0>
-48.2851

>  <SCORE.INTRA.VDW>
-0.500684

>  <SCORE.INTRA.VDW.0>
-1.08658

>  <SCORE.INTRA.norm>
-0.598894

>  <SCORE.RESTR>
0

>  <SCORE.RESTR.CAVITY>
0

>  <SCORE.RESTR.norm>
0

>  <SCORE.SYSTEM>
0

>  <SCORE.SYSTEM.CONST>
0

>  <SCORE.SYSTEM.DIHEDRAL>
0

>  <SCORE.SYSTEM.SOLV>
0

>  <SCORE.SYSTEM.norm>
0

>  <SCORE.heavy>
14

>  <SCORE.norm>
-0.463274

>  <RMSD>
4.913

$$$$
ligand
 OpenBabel11021811393D
libRbt.so/2013.1/901 2013/11/27
 14 13  0  0  0  0  0  0  0  0999 V2000
   39.4363   24.2360   37.3221 N   0  0  0  0  0  0  0  0  0  0  0  0
   38.4639   23.2791   37.8270 C   0  0  0  0  0  0  0  0  0  0  0  0
   38.5736   21.9404   37.0462 C   0  0  0  0  0  0  0  0  0  0  0  0
   39.8723   21.0799   37.2414 C   0  0  0  0  0  0  0  0  0  0  0  0
   39.9449   19.8191   36.4156 N   0  0  0  0  0  0  0  0  0  0  0  0
   39.6127   18.5801   37.1772 C   0  0  0  0  0  0  0  0  0  0  0  0
   38.1285   18.3933   37.4348 C   0  0  0  0  0  0  0  0  0  0  0  0
   37.3293   18.2379   36.1537 C   0  0  0  0  0  0  0  0  0  0  0  0
   37.5206   16.8478   35.6809 C   0  0  0  0  0  0  0  0  0  0  0  0
   36.9536   16.5446   34.3449 N   0  0  0  0  0  0  0  0  0  0  0  0
   37.8704   16.8648   33.2221 C   0  0  0  0  0  0  0  0  0  0  0  0
   37.2297   16.8762   31.8022 C   0  0  0  0  0  0  0  0  0  0  0  0
   36.2461   18.0573   31.7286 C   0  0  0  0  0  0  0  0  0  0  0  0
   35.6504   18.1499   30.3982 N   0  0  0  0  0  0  0  0  0  0  0  0
  1  2  1  0  0  0  0
  2  3  1  0  0  0  0
  3  4  1  0  0  0  0
  4  5  1  0  0  0  0
  5  6  1  0  0  0  0
  6  7  1  0  0  0  0
  7  8  1  0  0  0  0
  8  9  1  0  0  0  0
  9 10  1  0  0  0  0
 10 11  1  0  0  0  0
 11 12  1  0  0  0  0
 12 13  1  0  0  0  0
 13 14  1  0  0  0  0
M  END
>  <CHROM.1>
67.99101073,-177.66041223,-101.23506663,76.06324065,62.86475996,78.26120925
-172.65774922,86.26506347,-166.68914241,67.32641422,177.82409242,38.05948731
19.20741473,35.27131545,0.60728357,-1.15658839,-0.11280424

>  <Name>
ligand

>  <RI>
0

>  <Rbt.Current_Directory>
/home/itssahil/PROJECTS/Mol_Feturizer/New_Systems/rnas/1EVV

>  <Rbt.Executable>
rbdock ($Id: //depot/dev/client3/rdock/2013.1/src/exe/rbdock.cxx#4 $)

>  <Rbt.Library>
libRbt.so (2013.1, Build901 2013/11/27)

>  <Rbt.Parameter_File>
/export/apps/rDock/src/rDock_2013.1_src/data/scripts/dock_solv.prm

>  <Rbt.Receptor>
prm/pocket_docking_6.prm

>  <SCORE>
-5.69832

>  <SCORE.INTER>
1.93707

>  <SCORE.INTER.CONST>
1

>  <SCORE.INTER.POLAR>
0

>  <SCORE.INTER.ROT>
11

>  <SCORE.INTER.SOLV>
10.7911

>  <SCORE.INTER.VDW>
-13.239

>  <SCORE.INTER.norm>
0.138362

>  <SCORE.INTRA>
-7.63538

>  <SCORE.INTRA.DIHEDRAL>
-16.4517

>  <SCORE.INTRA.DIHEDRAL.0>
20.2131

>  <SCORE.INTRA.POLAR>
0

>  <SCORE.INTRA.POLAR.0>
0

>  <SCORE.INTRA.REPUL>
0

>  <SCORE.INTRA.REPUL.0>
0

>  <SCORE.INTRA.SOLV>
0.210819

>  <SCORE.INTRA.SOLV.lig_0>
-48.2851

>  <SCORE.INTRA.VDW>
0.485081

>  <SCORE.INTRA.VDW.0>
-1.08658

>  <SCORE.INTRA.norm>
-0.545385

>  <SCORE.RESTR>
0

>  <SCORE.RESTR.CAVITY>
0

>  <SCORE.RESTR.norm>
0

>  <SCORE.SYSTEM>
0

>  <SCORE.SYSTEM.CONST>
0

>  <SCORE.SYSTEM.DIHEDRAL>
0

>  <SCORE.SYSTEM.SOLV>
0

>  <SCORE.SYSTEM.norm>
0

>  <SCORE.heavy>
14

>  <SCORE.norm>
-0.407023

>  <RMSD>
4.920

$$$$
ligand
 OpenBabel11021811393D
libRbt.so/2013.1/901 2013/11/27
 14 13  0  0  0  0  0  0  0  0999 V2000
   43.4729   19.7065   35.0306 N   0  0  0  0  0  0  0  0  0  0  0  0
   43.9268   18.6036   35.8635 C   0  0  0  0  0  0  0  0  0  0  0  0
   42.7686   18.1048   36.7709 C   0  0  0  0  0  0  0  0  0  0  0  0
   41.5038   17.4869   36.0753 C   0  0  0  0  0  0  0  0  0  0  0  0
   40.3983   17.0541   37.0065 N   0  0  0  0  0  0  0  0  0  0  0  0
   39.1455   16.6471   36.3063 C   0  0  0  0  0  0  0  0  0  0  0  0
   38.2584   17.8106   35.9024 C   0  0  0  0  0  0  0  0  0  0  0  0
   37.7538   18.6011   37.0960 C   0  0  0  0  0  0  0  0  0  0  0  0
   36.9071   19.6972   36.5727 C   0  0  0  0  0  0  0  0  0  0  0  0
   37.6313   20.7819   35.8677 N   0  0  0  0  0  0  0  0  0  0  0  0
   37.5460   20.6916   34.3885 C   0  0  0  0  0  0  0  0  0  0  0  0
   36.2959   21.3545   33.7370 C   0  0  0  0  0  0  0  0  0  0  0  0
   36.3804   21.1465   32.2146 C   0  0  0  0  0  0  0  0  0  0  0  0
   37.5366   21.8475   31.6620 N   0  0  0  0  0  0  0  0  0  0  0  0
  1  2  1  0  0  0  0
  2  3  1  0  0  0  0
  3  4  1  0  0  0  0
  4  5  1  0  0  0  0
  5  6  1  0  0  0  0
  6  7  1  0  0  0  0
  7  8  1  0  0  0  0
  8  9  1  0  0  0  0
  9 10  1  0  0  0  0
 10 11  1  0  0  0  0
 11 12  1  0  0  0  0
 12 13  1  0  0  0  0
 13 14  1  0  0  0  0
M  END
>  <CHROM.1>
63.64058980,-178.46273840,172.11222600,-81.73376798,-62.59810637,-179.94847449
-70.80276134,101.67628786,86.02562268,-179.48718259,-64.48458712,39.25159659
19.25219018,35.32118437,-0.63408383,0.07948770,-0.83719607

>  <Name>
ligand

>  <RI>
0

>  <Rbt.Current_Directory>
/home/itssahil/PROJECTS/Mol_Feturizer/New_Systems/rnas/1EVV

>  <Rbt.Executable>
rbdock ($Id: //depot/dev/client3/rdock/2013.1/src/exe/rbdock.cxx#4 $)

>  <Rbt.Library>
libRbt.so (2013.1, Build901 2013/11/27)

>  <Rbt.Parameter_File>
/export/apps/rDock/src/rDock_2013.1_src/data/scripts/dock_solv.prm

>  <Rbt.Receptor>
prm/pocket_docking_3.prm

>  <SCORE>
-4.55764

>  <SCORE.INTER>
3.57207

>  <SCORE.INTER.CONST>
1

>  <SCORE.INTER.POLAR>
0

>  <SCORE.INTER.ROT>
11

>  <SCORE.INTER.SOLV>
5.18974

>  <SCORE.INTER.VDW>
-10.2819

>  <SCORE.INTER.norm>
0.255148

>  <SCORE.INTRA>
-8.12971

>  <SCORE.INTRA.DIHEDRAL>
-17.8029

>  <SCORE.INTRA.DIHEDRAL.0>
20.2131

>  <SCORE.INTRA.POLAR>
0

>  <SCORE.INTRA.POLAR.0>
0

>  <SCORE.INTRA.REPUL>
0

>  <SCORE.INTRA.REPUL.0>
0

>  <SCORE.INTRA.SOLV>
0.831557

>  <SCORE.INTRA.SOLV.lig_0>
-48.2851

>  <SCORE.INTRA.VDW>
0.355948

>  <SCORE.INTRA.VDW.0>
-1.08658

>  <SCORE.INTRA.norm>
-0.580694

>  <SCORE.RESTR>
0

>  <SCORE.RESTR.CAVITY>
0

>  <SCORE.RESTR.norm>
0

>  <SCORE.SYSTEM>
0

>  <SCORE.SYSTEM.CONST>
0

>  <SCORE.SYSTEM.DIHEDRAL>
0

>  <SCORE.SYSTEM.SOLV>
0

>  <SCORE.SYSTEM.norm>
0

>  <SCORE.heavy>
14

>  <SCORE.norm>
-0.325546

>  <RMSD>
4.941

$$$$
ligand
 OpenBabel11021811393D
libRbt.so/2013.1/901 2013/11/27
 14 13  0  0  0  0  0  0  0  0999 V2000
   40.8352   23.6244   37.0870 N   0  0  0  0  0  0  0  0  0  0  0  0
   39.8691   23.3116   38.1285 C   0  0  0  0  0  0  0  0  0  0  0  0
   38.6339   22.5951   37.5165 C   0  0  0  0  0  0  0  0  0  0  0  0
   38.8709   21.2409   36.7578 C   0  0  0  0  0  0  0  0  0  0  0  0
   37.6279   20.5660   36.2324 N   0  0  0  0  0  0  0  0  0  0  0  0
   37.8843   19.2401   35.5986 C   0  0  0  0  0  0  0  0  0  0  0  0
   37.3240   18.0646   36.3787 C   0  0  0  0  0  0  0  0  0  0  0  0
   38.1489   17.7352   37.6096 C   0  0  0  0  0  0  0  0  0  0  0  0
   39.1677   16.7403   37.2040 C   0  0  0  0  0  0  0  0  0  0  0  0
   40.1985   17.2317   36.2584 N   0  0  0  0  0  0  0  0  0  0  0  0
   41.5190   17.4762   36.8911 C   0  0  0  0  0  0  0  0  0  0  0  0
   42.6371   18.0114   35.9477 C   0  0  0  0  0  0  0  0  0  0  0  0
   42.1834   19.3712   35.3882 C   0  0  0  0  0  0  0  0  0  0  0  0
   43.1929   19.9206   34.4868 N   0  0  0  0  0  0  0  0  0  0  0  0
  1  2  1  0  0  0  0
  2  3  1  0  0  0  0
  3  4  1  0  0  0  0
  4  5  1  0  0  0  0
  5  6  1  0  0  0  0
  6  7  1  0  0  0  0
  7  8  1  0  0  0  0
  8  9  1  0  0  0  0
  9 10  1  0  0  0  0
 10 11  1  0  0  0  0
 11 12  1  0  0  0  0
 12 13  1  0  0  0  0
 13 14  1  0  0  0  0
M  END
>  <CHROM.1>
59.39169468,177.72344506,-176.14612833,111.57034793,-75.27630583,-90.73550010
66.81094460,104.85519861,-179.25512287,61.47523107,-179.67373115,39.86351779
19.65182394,36.53487398,-1.74509724,-0.25391139,-3.01501439

>  <Name>
ligand

>  <RI>
0

>  <Rbt.Current_Directory>
/home/itssahil/PROJECTS/Mol_Feturizer/New_Systems/rnas/1EVV

>  <Rbt.Executable>
rbdock ($Id: //depot/dev/client3/rdock/2013.1/src/exe/rbdock.cxx#4 $)

>  <Rbt.Library>
libRbt.so (2013.1, Build901 2013/11/27)

>  <Rbt.Parameter_File>
/export/apps/rDock/src/rDock_2013.1_src/data/scripts/dock_solv.prm

>  <Rbt.Receptor>
prm/pocket_docking_4.prm

>  <SCORE>
-4.26312

>  <SCORE.INTER>
2.59161

>  <SCORE.INTER.CONST>
1

>  <SCORE.INTER.POLAR>
0

>  <SCORE.INTER.ROT>
11

>  <SCORE.INTER.SOLV>
4.15343

>  <SCORE.INTER.VDW>
-10.5901

>  <SCORE.INTER.norm>
0.185115

>  <SCORE.INTRA>
-6.85473

>  <SCORE.INTRA.DIHEDRAL>
-13.8191

>  <SCORE.INTRA.DIHEDRAL.0>
20.2131

>  <SCORE.INTRA.POLAR>
0

>  <SCORE.INTRA.POLAR.0>
0

>  <SCORE.INTRA.REPUL>
0

>  <SCORE.INTRA.REPUL.0>
0

>  <SCORE.INTRA.SOLV>
1.15782

>  <SCORE.INTRA.SOLV.lig_0>
-48.2851

>  <SCORE.INTRA.VDW>
-0.524106

>  <SCORE.INTRA.VDW.0>
-1.08658

>  <SCORE.INTRA.norm>
-0.489624

>  <SCORE.RESTR>
0

>  <SCORE.RESTR.CAVITY>
0

>  <SCORE.RESTR.norm>
0

>  <SCORE.SYSTEM>
0

>  <SCORE.SYSTEM.CONST>
0

>  <SCORE.SYSTEM.DIHEDRAL>
0

>  <SCORE.SYSTEM.SOLV>
0

>  <SCORE.SYSTEM.norm>
0

>  <SCORE.heavy>
14

>  <SCORE.norm>
-0.304508

>  <RMSD>
4.947

$$$$
ligand
 OpenBabel11021811393D
libRbt.so/2013.1/901 2013/11/27
 14 13  0  0  0  0  0  0  0  0999 V2000
   46.2670   22.5562   41.3213 N   0  0  0  0  0  0  0  0  0  0  0  0
   44.8830   22.7541   40.9192 C   0  0  0  0  0  0  0  0  0  0  0  0
   44.4224   24.1949   41.2736 C   0  0  0  0  0  0  0  0  0  0  0  0
   42.9628   24.6180   40.8789 C   0  0  0  0  0  0  0  0  0  0  0  0
   42.6250   24.4917   39.4138 N   0  0  0  0  0  0  0  0  0  0  0  0
   41.3882   25.2246   39.0152 C   0  0  0  0  0  0  0  0  0  0  0  0
   40.6253   24.5737   37.8758 C   0  0  0  0  0  0  0  0  0  0  0  0
   40.0468   23.2233   38.2576 C   0  0  0  0  0  0  0  0  0  0  0  0
   39.2776   22.7283   37.0934 C   0  0  0  0  0  0  0  0  0  0  0  0
   38.7253   21.3590   37.2291 N   0  0  0  0  0  0  0  0  0  0  0  0
   37.7810   20.9875   36.1456 C   0  0  0  0  0  0  0  0  0  0  0  0
   36.9818   19.6680   36.3620 C   0  0  0  0  0  0  0  0  0  0  0  0
   37.9856   18.5033   36.4251 C   0  0  0  0  0  0  0  0  0  0  0  0
   37.2860   17.2225   36.4856 N   0  0  0  0  0  0  0  0  0  0  0  0
  1  2  1  0  0  0  0
  2  3  1  0  0  0  0
  3  4  1  0  0  0  0
  4  5  1  0  0  0  0
  5  6  1  0  0  0  0
  6  7  1  0  0  0  0
  7  8  1  0  0  0  0
  8  9  1  0  0  0  0
  9 10  1  0  0  0  0
 10 11  1  0  0  0  0
 11 12  1  0  0  0  0
 12 13  1  0  0  0  0
 13 14  1  0  0  0  0
M  END
>  <CHROM.1>
178.26858197,-57.05747411,-164.67175553,-148.56630524,65.89713485,177.27008994
175.01100256,170.46556941,-169.74988078,-62.70562982,-174.01978255,40.80395473
22.29358035,38.47823999,-0.53012144,0.56558367,-3.12204744

>  <Name>
ligand

>  <RI>
0

>  <Rbt.Current_Directory>
/home/itssahil/PROJECTS/Mol_Feturizer/New_Systems/rnas/1EVV

>  <Rbt.Executable>
rbdock ($Id: //depot/dev/client3/rdock/2013.1/src/exe/rbdock.cxx#4 $)

>  <Rbt.Library>
libRbt.so (2013.1, Build901 2013/11/27)

>  <Rbt.Parameter_File>
/export/apps/rDock/src/rDock_2013.1_src/data/scripts/dock_solv.prm

>  <Rbt.Receptor>
prm/pocket_docking_8.prm

>  <SCORE>
-9.84221

>  <SCORE.INTER>
0.0234105

>  <SCORE.INTER.CONST>
1

>  <SCORE.INTER.POLAR>
0

>  <SCORE.INTER.ROT>
11

>  <SCORE.INTER.SOLV>
7.94661

>  <SCORE.INTER.VDW>
-13.5666

>  <SCORE.INTER.norm>
0.00167218

>  <SCORE.INTRA>
-9.86562

>  <SCORE.INTRA.DIHEDRAL>
-18.7662

>  <SCORE.INTRA.DIHEDRAL.0>
20.2131

>  <SCORE.INTRA.POLAR>
0

>  <SCORE.INTRA.POLAR.0>
0

>  <SCORE.INTRA.REPUL>
0

>  <SCORE.INTRA.REPUL.0>
0

>  <SCORE.INTRA.SOLV>
-0.405259

>  <SCORE.INTRA.SOLV.lig_0>
-48.2851

>  <SCORE.INTRA.VDW>
-0.279881

>  <SCORE.INTRA.VDW.0>
-1.08658

>  <SCORE.INTRA.norm>
-0.704687

>  <SCORE.RESTR>
0

>  <SCORE.RESTR.CAVITY>
0

>  <SCORE.RESTR.norm>
0

>  <SCORE.SYSTEM>
0

>  <SCORE.SYSTEM.CONST>
0

>  <SCORE.SYSTEM.DIHEDRAL>
0

>  <SCORE.SYSTEM.SOLV>
0

>  <SCORE.SYSTEM.norm>
0

>  <SCORE.heavy>
14

>  <SCORE.norm>
-0.703015

>  <RMSD>
4.952

$$$$
ligand
 OpenBabel11021811393D
libRbt.so/2013.1/901 2013/11/27
 14 13  0  0  0  0  0  0  0  0999 V2000
   38.9931   22.1993   34.2535 N   0  0  0  0  0  0  0  0  0  0  0  0
   38.2386   21.8336   35.4423 C   0  0  0  0  0  0  0  0  0  0  0  0
   37.8438   20.3320   35.3859 C   0  0  0  0  0  0  0  0  0  0  0  0
   36.9915   19.7511   36.5697 C   0  0  0  0  0  0  0  0  0  0  0  0
   36.6983   18.2730   36.4932 N   0  0  0  0  0  0  0  0  0  0  0  0
   37.8460   17.4094   36.8961 C   0  0  0  0  0  0  0  0  0  0  0  0
   38.6680   16.8917   35.7298 C   0  0  0  0  0  0  0  0  0  0  0  0
   39.8151   16.0024   36.1741 C   0  0  0  0  0  0  0  0  0  0  0  0
   40.6089   15.6718   34.9687 C   0  0  0  0  0  0  0  0  0  0  0  0
   41.3142   16.8124   34.3366 N   0  0  0  0  0  0  0  0  0  0  0  0
   42.5783   17.1840   35.0205 C   0  0  0  0  0  0  0  0  0  0  0  0
   43.3134   18.4372   34.4586 C   0  0  0  0  0  0  0  0  0  0  0  0
   44.5993   18.6472   35.2773 C   0  0  0  0  0  0  0  0  0  0  0  0
   45.2835   19.8678   34.8586 N   0  0  0  0  0  0  0  0  0  0  0  0
  1  2  1  0  0  0  0
  2  3  1  0  0  0  0
  3  4  1  0  0  0  0
  4  5  1  0  0  0  0
  5  6  1  0  0  0  0
  6  7  1  0  0  0  0
  7  8  1  0  0  0  0
  8  9  1  0  0  0  0
  9 10  1  0  0  0  0
 10 11  1  0  0  0  0
 11 12  1  0  0  0  0
 12 13  1  0  0  0  0
 13 14  1  0  0  0  0
M  END
>  <CHROM.1>
-178.61048778,-177.05768059,77.88943827,-97.12221699,-179.23471271,-174.70631646
66.46863496,79.74921076,-176.00113274,-179.19965019,-175.88316944,40.19928201
18.52202640,35.41909799,-2.97989576,-0.20415152,3.00937730

>  <Name>
ligand

>  <RI>
0

>  <Rbt.Current_Directory>
/home/itssahil/PROJECTS/Mol_Feturizer/New_Systems/rnas/1EVV

>  <Rbt.Executable>
rbdock ($Id: //depot/dev/client3/rdock/2013.1/src/exe/rbdock.cxx#4 $)

>  <Rbt.Library>
libRbt.so (2013.1, Build901 2013/11/27)

>  <Rbt.Parameter_File>
/export/apps/rDock/src/rDock_2013.1_src/data/scripts/dock_solv.prm

>  <Rbt.Receptor>
prm/pocket_docking_4.prm

>  <SCORE>
-5.696

>  <SCORE.INTER>
3.87335

>  <SCORE.INTER.CONST>
1

>  <SCORE.INTER.POLAR>
0

>  <SCORE.INTER.ROT>
11

>  <SCORE.INTER.SOLV>
8.69503

>  <SCORE.INTER.VDW>
-11.2494

>  <SCORE.INTER.norm>
0.276668

>  <SCORE.INTRA>
-9.56936

>  <SCORE.INTRA.DIHEDRAL>
-18.4616

>  <SCORE.INTRA.DIHEDRAL.0>
20.2131

>  <SCORE.INTRA.POLAR>
0

>  <SCORE.INTRA.POLAR.0>
0

>  <SCORE.INTRA.REPUL>
0

>  <SCORE.INTRA.REPUL.0>
0

>  <SCORE.INTRA.SOLV>
-1.01297

>  <SCORE.INTRA.SOLV.lig_0>
-48.2851

>  <SCORE.INTRA.VDW>
0.167931

>  <SCORE.INTRA.VDW.0>
-1.08658

>  <SCORE.INTRA.norm>
-0.683526

>  <SCORE.RESTR>
0

>  <SCORE.RESTR.CAVITY>
0

>  <SCORE.RESTR.norm>
0

>  <SCORE.SYSTEM>
0

>  <SCORE.SYSTEM.CONST>
0

>  <SCORE.SYSTEM.DIHEDRAL>
0

>  <SCORE.SYSTEM.SOLV>
0

>  <SCORE.SYSTEM.norm>
0

>  <SCORE.heavy>
14

>  <SCORE.norm>
-0.406857

>  <RMSD>
4.953

$$$$
ligand
 OpenBabel11021811393D
libRbt.so/2013.1/901 2013/11/27
 14 13  0  0  0  0  0  0  0  0999 V2000
   39.1467   14.3193   38.3871 N   0  0  0  0  0  0  0  0  0  0  0  0
   38.9872   15.5141   37.5728 C   0  0  0  0  0  0  0  0  0  0  0  0
   37.4840   15.7551   37.2630 C   0  0  0  0  0  0  0  0  0  0  0  0
   37.1060   16.9928   36.3739 C   0  0  0  0  0  0  0  0  0  0  0  0
   37.5933   18.3280   36.8804 N   0  0  0  0  0  0  0  0  0  0  0  0
   37.4048   19.4457   35.9105 C   0  0  0  0  0  0  0  0  0  0  0  0
   37.6560   20.8222   36.4988 C   0  0  0  0  0  0  0  0  0  0  0  0
   39.0939   21.0113   36.9470 C   0  0  0  0  0  0  0  0  0  0  0  0
   39.1941   22.3604   37.5489 C   0  0  0  0  0  0  0  0  0  0  0  0
   40.5581   22.7798   37.9511 N   0  0  0  0  0  0  0  0  0  0  0  0
   40.6320   24.1815   38.4343 C   0  0  0  0  0  0  0  0  0  0  0  0
   42.0629   24.7852   38.5556 C   0  0  0  0  0  0  0  0  0  0  0  0
   42.8036   24.0426   39.6816 C   0  0  0  0  0  0  0  0  0  0  0  0
   44.1293   24.6182   39.8936 N   0  0  0  0  0  0  0  0  0  0  0  0
  1  2  1  0  0  0  0
  2  3  1  0  0  0  0
  3  4  1  0  0  0  0
  4  5  1  0  0  0  0
  5  6  1  0  0  0  0
  6  7  1  0  0  0  0
  7  8  1  0  0  0  0
  8  9  1  0  0  0  0
  9 10  1  0  0  0  0
 10 11  1  0  0  0  0
 11 12  1  0  0  0  0
 12 13  1  0  0  0  0
 13 14  1  0  0  0  0
M  END
>  <CHROM.1>
-179.16092427,-56.24851671,170.88776493,169.50365903,63.64036209,-177.66150760
-175.18268018,174.74473897,-166.30869103,-67.29267886,-176.77185404,39.56050696
20.35415610,37.70680616,-2.15258096,-0.58370357,-0.12625182

>  <Name>
ligand

>  <RI>
0

>  <Rbt.Current_Directory>
/home/itssahil/PROJECTS/Mol_Feturizer/New_Systems/rnas/1EVV

>  <Rbt.Executable>
rbdock ($Id: //depot/dev/client3/rdock/2013.1/src/exe/rbdock.cxx#4 $)

>  <Rbt.Library>
libRbt.so (2013.1, Build901 2013/11/27)

>  <Rbt.Parameter_File>
/export/apps/rDock/src/rDock_2013.1_src/data/scripts/dock_solv.prm

>  <Rbt.Receptor>
prm/pocket_docking_6.prm

>  <SCORE>
-9.26809

>  <SCORE.INTER>
0.89866

>  <SCORE.INTER.CONST>
1

>  <SCORE.INTER.POLAR>
0

>  <SCORE.INTER.ROT>
11

>  <SCORE.INTER.SOLV>
5.78882

>  <SCORE.INTER.VDW>
-12.2638

>  <SCORE.INTER.norm>
0.06419

>  <SCORE.INTRA>
-10.1667

>  <SCORE.INTRA.DIHEDRAL>
-19.4334

>  <SCORE.INTRA.DIHEDRAL.0>
20.2131

>  <SCORE.INTRA.POLAR>
0

>  <SCORE.INTRA.POLAR.0>
0

>  <SCORE.INTRA.REPUL>
0

>  <SCORE.INTRA.REPUL.0>
0

>  <SCORE.INTRA.SOLV>
-0.398296

>  <SCORE.INTRA.SOLV.lig_0>
-48.2851

>  <SCORE.INTRA.VDW>
-0.250874

>  <SCORE.INTRA.VDW.0>
-1.08658

>  <SCORE.INTRA.norm>
-0.726196

>  <SCORE.RESTR>
0

>  <SCORE.RESTR.CAVITY>
0

>  <SCORE.RESTR.norm>
0

>  <SCORE.SYSTEM>
0

>  <SCORE.SYSTEM.CONST>
0

>  <SCORE.SYSTEM.DIHEDRAL>
0

>  <SCORE.SYSTEM.SOLV>
0

>  <SCORE.SYSTEM.norm>
0

>  <SCORE.heavy>
14

>  <SCORE.norm>
-0.662006

>  <RMSD>
4.960

$$$$
ligand
 OpenBabel11021811393D
libRbt.so/2013.1/901 2013/11/27
 14 13  0  0  0  0  0  0  0  0999 V2000
   38.9208   14.5619   39.1574 N   0  0  0  0  0  0  0  0  0  0  0  0
   37.9947   14.8303   38.0681 C   0  0  0  0  0  0  0  0  0  0  0  0
   38.1770   16.2856   37.5556 C   0  0  0  0  0  0  0  0  0  0  0  0
   37.2661   16.7672   36.3709 C   0  0  0  0  0  0  0  0  0  0  0  0
   37.5423   18.1621   35.8663 N   0  0  0  0  0  0  0  0  0  0  0  0
   36.9088   19.2357   36.6857 C   0  0  0  0  0  0  0  0  0  0  0  0
   37.3791   20.6363   36.3377 C   0  0  0  0  0  0  0  0  0  0  0  0
   38.8641   20.8310   36.5845 C   0  0  0  0  0  0  0  0  0  0  0  0
   39.1674   22.2600   36.3432 C   0  0  0  0  0  0  0  0  0  0  0  0
   40.6028   22.6265   36.4026 N   0  0  0  0  0  0  0  0  0  0  0  0
   41.1360   22.7237   37.7846 C   0  0  0  0  0  0  0  0  0  0  0  0
   40.8976   24.0803   38.5123 C   0  0  0  0  0  0  0  0  0  0  0  0
   41.6124   25.1853   37.7148 C   0  0  0  0  0  0  0  0  0  0  0  0
   41.4953   26.4714   38.3972 N   0  0  0  0  0  0  0  0  0  0  0  0
  1  2  1  0  0  0  0
  2  3  1  0  0  0  0
  3  4  1  0  0  0  0
  4  5  1  0  0  0  0
  5  6  1  0  0  0  0
  6  7  1  0  0  0  0
  7  8  1  0  0  0  0
  8  9  1  0  0  0  0
  9 10  1  0  0  0  0
 10 11  1  0  0  0  0
 11 12  1  0  0  0  0
 12 13  1  0  0  0  0
 13 14  1  0  0  0  0
M  END
>  <CHROM.1>
179.77021481,-176.70640537,-81.58491662,169.66630898,-62.45478858,-174.28907919
-174.15973110,-76.88505404,-83.76241729,-61.71070031,-176.38542527,39.14012980
20.33261680,37.27001089,-2.05577169,-0.73164027,-0.31269339

>  <Name>
ligand

>  <RI>
0

>  <Rbt.Current_Directory>
/home/itssahil/PROJECTS/Mol_Feturizer/New_Systems/rnas/1EVV

>  <Rbt.Executable>
rbdock ($Id: //depot/dev/client3/rdock/2013.1/src/exe/rbdock.cxx#4 $)

>  <Rbt.Library>
libRbt.so (2013.1, Build901 2013/11/27)

>  <Rbt.Parameter_File>
/export/apps/rDock/src/rDock_2013.1_src/data/scripts/dock_solv.prm

>  <Rbt.Receptor>
prm/pocket_docking_6.prm

>  <SCORE>
-6.46805

>  <SCORE.INTER>
2.90157

>  <SCORE.INTER.CONST>
1

>  <SCORE.INTER.POLAR>
0

>  <SCORE.INTER.ROT>
11

>  <SCORE.INTER.SOLV>
6.40451

>  <SCORE.INTER.VDW>
-11.1338

>  <SCORE.INTER.norm>
0.207255

>  <SCORE.INTRA>
-9.36963

>  <SCORE.INTRA.DIHEDRAL>
-18.7681

>  <SCORE.INTRA.DIHEDRAL.0>
20.2131

>  <SCORE.INTRA.POLAR>
0

>  <SCORE.INTRA.POLAR.0>
0

>  <SCORE.INTRA.REPUL>
0

>  <SCORE.INTRA.REPUL.0>
0

>  <SCORE.INTRA.SOLV>
-0.686791

>  <SCORE.INTRA.SOLV.lig_0>
-48.2851

>  <SCORE.INTRA.VDW>
0.357836

>  <SCORE.INTRA.VDW.0>
-1.08658

>  <SCORE.INTRA.norm>
-0.669259

>  <SCORE.RESTR>
0

>  <SCORE.RESTR.CAVITY>
0

>  <SCORE.RESTR.norm>
0

>  <SCORE.SYSTEM>
0

>  <SCORE.SYSTEM.CONST>
0

>  <SCORE.SYSTEM.DIHEDRAL>
0

>  <SCORE.SYSTEM.SOLV>
0

>  <SCORE.SYSTEM.norm>
0

>  <SCORE.heavy>
14

>  <SCORE.norm>
-0.462004

>  <RMSD>
4.967

$$$$
ligand
 OpenBabel11021811393D
libRbt.so/2013.1/901 2013/11/27
 14 13  0  0  0  0  0  0  0  0999 V2000
   37.6495   26.5542   35.5250 N   0  0  0  0  0  0  0  0  0  0  0  0
   38.7079   25.7811   36.1560 C   0  0  0  0  0  0  0  0  0  0  0  0
   38.1138   24.5232   36.8477 C   0  0  0  0  0  0  0  0  0  0  0  0
   39.1002   23.5689   37.6104 C   0  0  0  0  0  0  0  0  0  0  0  0
   40.1798   22.9412   36.7636 N   0  0  0  0  0  0  0  0  0  0  0  0
   41.0261   21.9569   37.4986 C   0  0  0  0  0  0  0  0  0  0  0  0
   40.3084   20.6660   37.8488 C   0  0  0  0  0  0  0  0  0  0  0  0
   39.7993   19.9306   36.6223 C   0  0  0  0  0  0  0  0  0  0  0  0
   38.9706   18.7999   37.0988 C   0  0  0  0  0  0  0  0  0  0  0  0
   38.4003   17.9353   36.0379 N   0  0  0  0  0  0  0  0  0  0  0  0
   37.1376   17.2621   36.4330 C   0  0  0  0  0  0  0  0  0  0  0  0
   36.9928   15.7747   35.9934 C   0  0  0  0  0  0  0  0  0  0  0  0
   38.0698   14.9516   36.7217 C   0  0  0  0  0  0  0  0  0  0  0  0
   38.0120   13.5505   36.3129 N   0  0  0  0  0  0  0  0  0  0  0  0
  1  2  1  0  0  0  0
  2  3  1  0  0  0  0
  3  4  1  0  0  0  0
  4  5  1  0  0  0  0
  5  6  1  0  0  0  0
  6  7  1  0  0  0  0
  7  8  1  0  0  0  0
  8  9  1  0  0  0  0
  9 10  1  0  0  0  0
 10 11  1  0  0  0  0
 11 12  1  0  0  0  0
 12 13  1  0  0  0  0
 13 14  1  0  0  0  0
M  END
>  <CHROM.1>
-178.95134568,-60.91390287,-175.25717553,70.54951786,59.76214534,-172.54723273
-178.77218627,-152.79681045,-138.71755941,64.84831375,-178.08045641,38.74779708
20.29974697,36.67664912,1.45518733,-0.44578608,-0.03397213

>  <Name>
ligand

>  <RI>
0

>  <Rbt.Current_Directory>
/home/itssahil/PROJECTS/Mol_Feturizer/New_Systems/rnas/1EVV

>  <Rbt.Executable>
rbdock ($Id: //depot/dev/client3/rdock/2013.1/src/exe/rbdock.cxx#4 $)

>  <Rbt.Library>
libRbt.so (2013.1, Build901 2013/11/27)

>  <Rbt.Parameter_File>
/export/apps/rDock/src/rDock_2013.1_src/data/scripts/dock_solv.prm

>  <Rbt.Receptor>
prm/pocket_docking_8.prm

>  <SCORE>
-6.77072

>  <SCORE.INTER>
2.48295

>  <SCORE.INTER.CONST>
1

>  <SCORE.INTER.POLAR>
0

>  <SCORE.INTER.ROT>
11

>  <SCORE.INTER.SOLV>
5.08074

>  <SCORE.INTER.VDW>
-10.9716

>  <SCORE.INTER.norm>
0.177354

>  <SCORE.INTRA>
-9.25367

>  <SCORE.INTRA.DIHEDRAL>
-18.3132

>  <SCORE.INTRA.DIHEDRAL.0>
20.2131

>  <SCORE.INTRA.POLAR>
0

>  <SCORE.INTRA.POLAR.0>
0

>  <SCORE.INTRA.REPUL>
0

>  <SCORE.INTRA.REPUL.0>
0

>  <SCORE.INTRA.SOLV>
-0.357804

>  <SCORE.INTRA.SOLV.lig_0>
-48.2851

>  <SCORE.INTRA.VDW>
0.0818388

>  <SCORE.INTRA.VDW.0>
-1.08658

>  <SCORE.INTRA.norm>
-0.660976

>  <SCORE.RESTR>
0

>  <SCORE.RESTR.CAVITY>
0

>  <SCORE.RESTR.norm>
0

>  <SCORE.SYSTEM>
0

>  <SCORE.SYSTEM.CONST>
0

>  <SCORE.SYSTEM.DIHEDRAL>
0

>  <SCORE.SYSTEM.SOLV>
0

>  <SCORE.SYSTEM.norm>
0

>  <SCORE.heavy>
14

>  <SCORE.norm>
-0.483623

>  <RMSD>
4.970

$$$$
ligand
 OpenBabel11021811393D
libRbt.so/2013.1/901 2013/11/27
 14 13  0  0  0  0  0  0  0  0999 V2000
   38.0731   16.2706   36.9738 N   0  0  0  0  0  0  0  0  0  0  0  0
   37.6254   17.3651   36.1265 C   0  0  0  0  0  0  0  0  0  0  0  0
   37.7934   18.7202   36.8676 C   0  0  0  0  0  0  0  0  0  0  0  0
   37.4174   20.0332   36.0929 C   0  0  0  0  0  0  0  0  0  0  0  0
   37.6268   21.3183   36.8553 N   0  0  0  0  0  0  0  0  0  0  0  0
   39.0610   21.6939   37.0206 C   0  0  0  0  0  0  0  0  0  0  0  0
   39.2854   22.8871   37.9316 C   0  0  0  0  0  0  0  0  0  0  0  0
   40.7507   23.2668   38.0451 C   0  0  0  0  0  0  0  0  0  0  0  0
   40.8283   24.4739   38.8990 C   0  0  0  0  0  0  0  0  0  0  0  0
   42.1963   24.9792   39.1666 N   0  0  0  0  0  0  0  0  0  0  0  0
   42.7229   24.5951   40.5003 C   0  0  0  0  0  0  0  0  0  0  0  0
   44.2035   24.1121   40.5342 C   0  0  0  0  0  0  0  0  0  0  0  0
   44.5505   23.7283   41.9834 C   0  0  0  0  0  0  0  0  0  0  0  0
   45.9522   23.3318   42.0902 N   0  0  0  0  0  0  0  0  0  0  0  0
  1  2  1  0  0  0  0
  2  3  1  0  0  0  0
  3  4  1  0  0  0  0
  4  5  1  0  0  0  0
  5  6  1  0  0  0  0
  6  7  1  0  0  0  0
  7  8  1  0  0  0  0
  8  9  1  0  0  0  0
  9 10  1  0  0  0  0
 10 11  1  0  0  0  0
 11 12  1  0  0  0  0
 12 13  1  0  0  0  0
 13 14  1  0  0  0  0
M  END
>  <CHROM.1>
177.57978182,-178.87310183,72.53396235,-172.74191499,-178.32118580,177.25087829
178.12896962,-100.67038326,136.72778401,-178.55852284,-177.05962517,40.57749038
21.91272874,38.50611371,-2.52782971,-0.62419548,-0.02294304

>  <Name>
ligand

>  <RI>
0

>  <Rbt.Current_Directory>
/home/itssahil/PROJECTS/Mol_Feturizer/New_Systems/rnas/1EVV

>  <Rbt.Executable>
rbdock ($Id: //depot/dev/client3/rdock/2013.1/src/exe/rbdock.cxx#4 $)

>  <Rbt.Library>
libRbt.so (2013.1, Build901 2013/11/27)

>  <Rbt.Parameter_File>
/export/apps/rDock/src/rDock_2013.1_src/data/scripts/dock_solv.prm

>  <Rbt.Receptor>
prm/pocket_docking_8.prm

>  <SCORE>
-10.7957

>  <SCORE.INTER>
-1.11065

>  <SCORE.INTER.CONST>
1

>  <SCORE.INTER.POLAR>
0

>  <SCORE.INTER.ROT>
11

>  <SCORE.INTER.SOLV>
6.36918

>  <SCORE.INTER.VDW>
-13.7968

>  <SCORE.INTER.norm>
-0.0793324

>  <SCORE.INTRA>
-9.68502

>  <SCORE.INTRA.DIHEDRAL>
-18.0205

>  <SCORE.INTRA.DIHEDRAL.0>
20.2131

>  <SCORE.INTRA.POLAR>
0

>  <SCORE.INTRA.POLAR.0>
0

>  <SCORE.INTRA.REPUL>
0

>  <SCORE.INTRA.REPUL.0>
0

>  <SCORE.INTRA.SOLV>
-1.43543

>  <SCORE.INTRA.SOLV.lig_0>
-48.2851

>  <SCORE.INTRA.VDW>
0.0429226

>  <SCORE.INTRA.VDW.0>
-1.08658

>  <SCORE.INTRA.norm>
-0.691787

>  <SCORE.RESTR>
0

>  <SCORE.RESTR.CAVITY>
0

>  <SCORE.RESTR.norm>
0

>  <SCORE.SYSTEM>
0

>  <SCORE.SYSTEM.CONST>
0

>  <SCORE.SYSTEM.DIHEDRAL>
0

>  <SCORE.SYSTEM.SOLV>
0

>  <SCORE.SYSTEM.norm>
0

>  <SCORE.heavy>
14

>  <SCORE.norm>
-0.77112

>  <RMSD>
4.973

$$$$
ligand
 OpenBabel11021811393D
libRbt.so/2013.1/901 2013/11/27
 14 13  0  0  0  0  0  0  0  0999 V2000
   44.1044   20.0433   35.8724 N   0  0  0  0  0  0  0  0  0  0  0  0
   43.1906   19.3795   36.7891 C   0  0  0  0  0  0  0  0  0  0  0  0
   42.3384   18.3267   36.0281 C   0  0  0  0  0  0  0  0  0  0  0  0
   41.0900   17.7212   36.7630 C   0  0  0  0  0  0  0  0  0  0  0  0
   40.2588   16.7625   35.9465 N   0  0  0  0  0  0  0  0  0  0  0  0
   38.9042   16.5039   36.5155 C   0  0  0  0  0  0  0  0  0  0  0  0
   37.8620   17.5345   36.1208 C   0  0  0  0  0  0  0  0  0  0  0  0
   37.8619   18.7444   37.0375 C   0  0  0  0  0  0  0  0  0  0  0  0
   36.9812   19.7633   36.4225 C   0  0  0  0  0  0  0  0  0  0  0  0
   37.4765   20.3541   35.1560 N   0  0  0  0  0  0  0  0  0  0  0  0
   36.4304   21.0702   34.3836 C   0  0  0  0  0  0  0  0  0  0  0  0
   36.6290   21.1053   32.8390 C   0  0  0  0  0  0  0  0  0  0  0  0
   36.6843   19.6546   32.3287 C   0  0  0  0  0  0  0  0  0  0  0  0
   36.9737   19.6222   30.8974 N   0  0  0  0  0  0  0  0  0  0  0  0
  1  2  1  0  0  0  0
  2  3  1  0  0  0  0
  3  4  1  0  0  0  0
  4  5  1  0  0  0  0
  5  6  1  0  0  0  0
  6  7  1  0  0  0  0
  7  8  1  0  0  0  0
  8  9  1  0  0  0  0
  9 10  1  0  0  0  0
 10 11  1  0  0  0  0
 11 12  1  0  0  0  0
 12 13  1  0  0  0  0
 13 14  1  0  0  0  0
M  END
>  <CHROM.1>
-167.23856008,176.74636077,-163.93396439,84.73752732,-85.65397720,170.50040963
-67.74579108,163.96152689,-151.37768803,58.69850002,-175.59584896,39.05583552
19.04178811,35.22174288,-0.56665599,-0.12105573,-0.90826278

>  <Name>
ligand

>  <RI>
0

>  <Rbt.Current_Directory>
/home/itssahil/PROJECTS/Mol_Feturizer/New_Systems/rnas/1EVV

>  <Rbt.Executable>
rbdock ($Id: //depot/dev/client3/rdock/2013.1/src/exe/rbdock.cxx#4 $)

>  <Rbt.Library>
libRbt.so (2013.1, Build901 2013/11/27)

>  <Rbt.Parameter_File>
/export/apps/rDock/src/rDock_2013.1_src/data/scripts/dock_solv.prm

>  <Rbt.Receptor>
prm/pocket_docking_3.prm

>  <SCORE>
-4.0666

>  <SCORE.INTER>
3.98571

>  <SCORE.INTER.CONST>
1

>  <SCORE.INTER.POLAR>
0

>  <SCORE.INTER.ROT>
11

>  <SCORE.INTER.SOLV>
4.75117

>  <SCORE.INTER.VDW>
-9.85992

>  <SCORE.INTER.norm>
0.284693

>  <SCORE.INTRA>
-8.10061

>  <SCORE.INTRA.DIHEDRAL>
-15.3751

>  <SCORE.INTRA.DIHEDRAL.0>
20.2131

>  <SCORE.INTRA.POLAR>
0

>  <SCORE.INTRA.POLAR.0>
0

>  <SCORE.INTRA.REPUL>
0

>  <SCORE.INTRA.REPUL.0>
0

>  <SCORE.INTRA.SOLV>
-0.297494

>  <SCORE.INTRA.SOLV.lig_0>
-48.2851

>  <SCORE.INTRA.VDW>
-0.264294

>  <SCORE.INTRA.VDW.0>
-1.08658

>  <SCORE.INTRA.norm>
-0.578615

>  <SCORE.RESTR>
0.0482986

>  <SCORE.RESTR.CAVITY>
0.0482986

>  <SCORE.RESTR.norm>
0.0034499

>  <SCORE.SYSTEM>
0

>  <SCORE.SYSTEM.CONST>
0

>  <SCORE.SYSTEM.DIHEDRAL>
0

>  <SCORE.SYSTEM.SOLV>
0

>  <SCORE.SYSTEM.norm>
0

>  <SCORE.heavy>
14

>  <SCORE.norm>
-0.290472

>  <RMSD>
4.991

$$$$
ligand
 OpenBabel11021811393D
libRbt.so/2013.1/901 2013/11/27
 14 13  0  0  0  0  0  0  0  0999 V2000
   39.0413   14.2809   36.3162 N   0  0  0  0  0  0  0  0  0  0  0  0
   37.8830   14.4603   37.1778 C   0  0  0  0  0  0  0  0  0  0  0  0
   37.7849   15.9393   37.6433 C   0  0  0  0  0  0  0  0  0  0  0  0
   37.5070   17.0358   36.5543 C   0  0  0  0  0  0  0  0  0  0  0  0
   37.5275   18.4610   37.0493 N   0  0  0  0  0  0  0  0  0  0  0  0
   37.4094   19.4775   35.9639 C   0  0  0  0  0  0  0  0  0  0  0  0
   37.6977   20.8980   36.4147 C   0  0  0  0  0  0  0  0  0  0  0  0
   39.1264   21.0787   36.8949 C   0  0  0  0  0  0  0  0  0  0  0  0
   39.2511   22.4668   37.3947 C   0  0  0  0  0  0  0  0  0  0  0  0
   40.5998   22.8537   37.8738 N   0  0  0  0  0  0  0  0  0  0  0  0
   40.6237   24.1436   38.6081 C   0  0  0  0  0  0  0  0  0  0  0  0
   41.9913   24.5430   39.2380 C   0  0  0  0  0  0  0  0  0  0  0  0
   41.8028   25.8703   39.9936 C   0  0  0  0  0  0  0  0  0  0  0  0
   43.0667   26.3175   40.5733 N   0  0  0  0  0  0  0  0  0  0  0  0
  1  2  1  0  0  0  0
  2  3  1  0  0  0  0
  3  4  1  0  0  0  0
  4  5  1  0  0  0  0
  5  6  1  0  0  0  0
  6  7  1  0  0  0  0
  7  8  1  0  0  0  0
  8  9  1  0  0  0  0
  9 10  1  0  0  0  0
 10 11  1  0  0  0  0
 11 12  1  0  0  0  0
 12 13  1  0  0  0  0
 13 14  1  0  0  0  0
M  END
>  <CHROM.1>
65.39263982,-175.50946484,173.62952231,-168.74401555,63.24370678,-175.96645727
-178.18791881,-168.53686623,175.07949180,-177.90927797,-178.25695923,39.37918597
20.55906164,37.69246452,-2.06289690,-0.66056150,-0.03446132

>  <Name>
ligand

>  <RI>
0

>  <Rbt.Current_Directory>
/home/itssahil/PROJECTS/Mol_Feturizer/New_Systems/rnas/1EVV

>  <Rbt.Executable>
rbdock ($Id: //depot/dev/client3/rdock/2013.1/src/exe/rbdock.cxx#4 $)

>  <Rbt.Library>
libRbt.so (2013.1, Build901 2013/11/27)

>  <Rbt.Parameter_File>
/export/apps/rDock/src/rDock_2013.1_src/data/scripts/dock_solv.prm

>  <Rbt.Receptor>
prm/pocket_docking_6.prm

>  <SCORE>
-9.91282

>  <SCORE.INTER>
0.233212

>  <SCORE.INTER.CONST>
1

>  <SCORE.INTER.POLAR>
0

>  <SCORE.INTER.ROT>
11

>  <SCORE.INTER.SOLV>
6.90645

>  <SCORE.INTER.VDW>
-13.08

>  <SCORE.INTER.norm>
0.016658

>  <SCORE.INTRA>
-10.146

>  <SCORE.INTRA.DIHEDRAL>
-19.6208

>  <SCORE.INTRA.DIHEDRAL.0>
20.2131

>  <SCORE.INTRA.POLAR>
0

>  <SCORE.INTRA.POLAR.0>
0

>  <SCORE.INTRA.REPUL>
0

>  <SCORE.INTRA.REPUL.0>
0

>  <SCORE.INTRA.SOLV>
-0.366332

>  <SCORE.INTRA.SOLV.lig_0>
-48.2851

>  <SCORE.INTRA.VDW>
-0.152452

>  <SCORE.INTRA.VDW.0>
-1.08658

>  <SCORE.INTRA.norm>
-0.724716

>  <SCORE.RESTR>
0

>  <SCORE.RESTR.CAVITY>
0

>  <SCORE.RESTR.norm>
0

>  <SCORE.SYSTEM>
0

>  <SCORE.SYSTEM.CONST>
0

>  <SCORE.SYSTEM.DIHEDRAL>
0

>  <SCORE.SYSTEM.SOLV>
0

>  <SCORE.SYSTEM.norm>
0

>  <SCORE.heavy>
14

>  <SCORE.norm>
-0.708058

>  <RMSD>
4.999

$$$$
ligand
 OpenBabel11021811393D
libRbt.so/2013.1/901 2013/11/27
 14 13  0  0  0  0  0  0  0  0999 V2000
   43.8997   20.0016   34.7914 N   0  0  0  0  0  0  0  0  0  0  0  0
   44.2700   18.5949   34.8100 C   0  0  0  0  0  0  0  0  0  0  0  0
   43.0311   17.7186   35.1430 C   0  0  0  0  0  0  0  0  0  0  0  0
   42.3576   17.9020   36.5495 C   0  0  0  0  0  0  0  0  0  0  0  0
   41.2171   16.9609   36.8498 N   0  0  0  0  0  0  0  0  0  0  0  0
   40.2162   17.5136   37.8080 C   0  0  0  0  0  0  0  0  0  0  0  0
   39.1278   16.5304   38.1991 C   0  0  0  0  0  0  0  0  0  0  0  0
   38.3649   15.9977   36.9998 C   0  0  0  0  0  0  0  0  0  0  0  0
   37.3547   17.0160   36.6324 C   0  0  0  0  0  0  0  0  0  0  0  0
   37.8960   18.2837   36.0863 N   0  0  0  0  0  0  0  0  0  0  0  0
   37.1056   19.4814   36.4661 C   0  0  0  0  0  0  0  0  0  0  0  0
   37.7391   20.8578   36.1043 C   0  0  0  0  0  0  0  0  0  0  0  0
   39.0911   20.9701   36.8306 C   0  0  0  0  0  0  0  0  0  0  0  0
   39.7267   22.2530   36.5413 N   0  0  0  0  0  0  0  0  0  0  0  0
  1  2  1  0  0  0  0
  2  3  1  0  0  0  0
  3  4  1  0  0  0  0
  4  5  1  0  0  0  0
  5  6  1  0  0  0  0
  6  7  1  0  0  0  0
  7  8  1  0  0  0  0
  8  9  1  0  0  0  0
  9 10  1  0  0  0  0
 10 11  1  0  0  0  0
 11 12  1  0  0  0  0
 12 13  1  0  0  0  0
 13 14  1  0  0  0  0
M  END
>  <CHROM.1>
-63.33341565,-176.11017173,-152.52319729,-175.34875286,-57.24264479,-81.21874106
68.15563057,-145.57324516,171.17443599,-60.20736807,-179.28416695,40.09956963
18.57694118,36.41526234,0.08170948,0.24349832,-0.21161198

>  <Name>
ligand

>  <RI>
0

>  <Rbt.Current_Directory>
/home/itssahil/PROJECTS/Mol_Feturizer/New_Systems/rnas/1EVV

>  <Rbt.Executable>
rbdock ($Id: //depot/dev/client3/rdock/2013.1/src/exe/rbdock.cxx#4 $)

>  <Rbt.Library>
libRbt.so (2013.1, Build901 2013/11/27)

>  <Rbt.Parameter_File>
/export/apps/rDock/src/rDock_2013.1_src/data/scripts/dock_solv.prm

>  <Rbt.Receptor>
prm/pocket_docking_4.prm

>  <SCORE>
-5.93115

>  <SCORE.INTER>
1.72641

>  <SCORE.INTER.CONST>
1

>  <SCORE.INTER.POLAR>
0

>  <SCORE.INTER.ROT>
11

>  <SCORE.INTER.SOLV>
7.13109

>  <SCORE.INTER.VDW>
-12.1594

>  <SCORE.INTER.norm>
0.123315

>  <SCORE.INTRA>
-7.69477

>  <SCORE.INTRA.DIHEDRAL>
-16.794

>  <SCORE.INTRA.DIHEDRAL.0>
20.2131

>  <SCORE.INTRA.POLAR>
0

>  <SCORE.INTRA.POLAR.0>
0

>  <SCORE.INTRA.REPUL>
0

>  <SCORE.INTRA.REPUL.0>
0

>  <SCORE.INTRA.SOLV>
1.67763

>  <SCORE.INTRA.SOLV.lig_0>
-48.2851

>  <SCORE.INTRA.VDW>
-0.1366

>  <SCORE.INTRA.VDW.0>
-1.08658

>  <SCORE.INTRA.norm>
-0.549626

>  <SCORE.RESTR>
0.0372061

>  <SCORE.RESTR.CAVITY>
0.0372061

>  <SCORE.RESTR.norm>
0.00265758

>  <SCORE.SYSTEM>
0

>  <SCORE.SYSTEM.CONST>
0

>  <SCORE.SYSTEM.DIHEDRAL>
0

>  <SCORE.SYSTEM.SOLV>
0

>  <SCORE.SYSTEM.norm>
0

>  <SCORE.heavy>
14

>  <SCORE.norm>
-0.423653

>  <RMSD>
5.003

$$$$
ligand
 OpenBabel11021811393D
libRbt.so/2013.1/901 2013/11/27
 14 13  0  0  0  0  0  0  0  0999 V2000
   42.9556   20.7727   36.9609 N   0  0  0  0  0  0  0  0  0  0  0  0
   41.8415   21.7079   36.9756 C   0  0  0  0  0  0  0  0  0  0  0  0
   42.0040   22.7172   38.1454 C   0  0  0  0  0  0  0  0  0  0  0  0
   40.8808   23.7956   38.3473 C   0  0  0  0  0  0  0  0  0  0  0  0
   39.4912   23.2508   38.5682 N   0  0  0  0  0  0  0  0  0  0  0  0
   38.5332   23.5816   37.4735 C   0  0  0  0  0  0  0  0  0  0  0  0
   38.5501   22.5953   36.3198 C   0  0  0  0  0  0  0  0  0  0  0  0
   37.9948   21.2364   36.7061 C   0  0  0  0  0  0  0  0  0  0  0  0
   38.0346   20.3839   35.4962 C   0  0  0  0  0  0  0  0  0  0  0  0
   37.3105   19.0943   35.6002 N   0  0  0  0  0  0  0  0  0  0  0  0
   37.8903   18.1646   36.6018 C   0  0  0  0  0  0  0  0  0  0  0  0
   37.4063   16.6863   36.5187 C   0  0  0  0  0  0  0  0  0  0  0  0
   37.9780   15.9250   37.7277 C   0  0  0  0  0  0  0  0  0  0  0  0
   37.6955   14.4962   37.6177 N   0  0  0  0  0  0  0  0  0  0  0  0
  1  2  1  0  0  0  0
  2  3  1  0  0  0  0
  3  4  1  0  0  0  0
  4  5  1  0  0  0  0
  5  6  1  0  0  0  0
  6  7  1  0  0  0  0
  7  8  1  0  0  0  0
  8  9  1  0  0  0  0
  9 10  1  0  0  0  0
 10 11  1  0  0  0  0
 11 12  1  0  0  0  0
 12 13  1  0  0  0  0
 13 14  1  0  0  0  0
M  END
>  <CHROM.1>
-178.79528765,58.08495047,-114.59370111,86.49403912,68.69236698,178.62804250
-169.40997204,-64.73655441,-165.62443087,-173.24909147,-173.00822736,39.18324178
20.31522908,37.07560034,-1.12557518,0.27604927,3.12207369

>  <Name>
ligand

>  <RI>
0

>  <Rbt.Current_Directory>
/home/itssahil/PROJECTS/Mol_Feturizer/New_Systems/rnas/1EVV

>  <Rbt.Executable>
rbdock ($Id: //depot/dev/client3/rdock/2013.1/src/exe/rbdock.cxx#4 $)

>  <Rbt.Library>
libRbt.so (2013.1, Build901 2013/11/27)

>  <Rbt.Parameter_File>
/export/apps/rDock/src/rDock_2013.1_src/data/scripts/dock_solv.prm

>  <Rbt.Receptor>
prm/pocket_docking_8.prm

>  <SCORE>
-5.67537

>  <SCORE.INTER>
3.33771

>  <SCORE.INTER.CONST>
1

>  <SCORE.INTER.POLAR>
0

>  <SCORE.INTER.ROT>
11

>  <SCORE.INTER.SOLV>
9.90057

>  <SCORE.INTER.VDW>
-12.0084

>  <SCORE.INTER.norm>
0.238408

>  <SCORE.INTRA>
-9.01309

>  <SCORE.INTRA.DIHEDRAL>
-17.2908

>  <SCORE.INTRA.DIHEDRAL.0>
20.2131

>  <SCORE.INTRA.POLAR>
0

>  <SCORE.INTRA.POLAR.0>
0

>  <SCORE.INTRA.REPUL>
0

>  <SCORE.INTRA.REPUL.0>
0

>  <SCORE.INTRA.SOLV>
-0.719089

>  <SCORE.INTRA.SOLV.lig_0>
-48.2851

>  <SCORE.INTRA.VDW>
-0.00812903

>  <SCORE.INTRA.VDW.0>
-1.08658

>  <SCORE.INTRA.norm>
-0.643792

>  <SCORE.RESTR>
0

>  <SCORE.RESTR.CAVITY>
0

>  <SCORE.RESTR.norm>
0

>  <SCORE.SYSTEM>
0

>  <SCORE.SYSTEM.CONST>
0

>  <SCORE.SYSTEM.DIHEDRAL>
0

>  <SCORE.SYSTEM.SOLV>
0

>  <SCORE.SYSTEM.norm>
0

>  <SCORE.heavy>
14

>  <SCORE.norm>
-0.405384

>  <RMSD>
5.003

$$$$
ligand
 OpenBabel11021811393D
libRbt.so/2013.1/901 2013/11/27
 14 13  0  0  0  0  0  0  0  0999 V2000
   46.0800   23.0151   42.4333 N   0  0  0  0  0  0  0  0  0  0  0  0
   44.9118   23.8624   42.2495 C   0  0  0  0  0  0  0  0  0  0  0  0
   44.1758   23.4831   40.9349 C   0  0  0  0  0  0  0  0  0  0  0  0
   42.9698   24.3809   40.4825 C   0  0  0  0  0  0  0  0  0  0  0  0
   42.2060   23.8829   39.2803 N   0  0  0  0  0  0  0  0  0  0  0  0
   41.1867   24.8465   38.7724 C   0  0  0  0  0  0  0  0  0  0  0  0
   40.1721   24.2301   37.8265 C   0  0  0  0  0  0  0  0  0  0  0  0
   39.2045   23.2996   38.5350 C   0  0  0  0  0  0  0  0  0  0  0  0
   38.2517   22.7977   37.5189 C   0  0  0  0  0  0  0  0  0  0  0  0
   38.8304   21.9016   36.4892 N   0  0  0  0  0  0  0  0  0  0  0  0
   37.8130   21.1356   35.7264 C   0  0  0  0  0  0  0  0  0  0  0  0
   37.4736   19.7186   36.2775 C   0  0  0  0  0  0  0  0  0  0  0  0
   38.7409   18.8507   36.1842 C   0  0  0  0  0  0  0  0  0  0  0  0
   38.4500   17.4710   36.5653 N   0  0  0  0  0  0  0  0  0  0  0  0
  1  2  1  0  0  0  0
  2  3  1  0  0  0  0
  3  4  1  0  0  0  0
  4  5  1  0  0  0  0
  5  6  1  0  0  0  0
  6  7  1  0  0  0  0
  7  8  1  0  0  0  0
  8  9  1  0  0  0  0
  9 10  1  0  0  0  0
 10 11  1  0  0  0  0
 11 12  1  0  0  0  0
 12 13  1  0  0  0  0
 13 14  1  0  0  0  0
M  END
>  <CHROM.1>
-173.90554001,-173.90323713,-172.36898281,-164.31629912,70.93213506,178.45029938
67.44662647,164.28210531,-93.04333408,-63.70014590,-174.45534417,40.74733554
22.34859075,38.51962639,-0.51011512,0.63428366,-3.03875149

>  <Name>
ligand

>  <RI>
0

>  <Rbt.Current_Directory>
/home/itssahil/PROJECTS/Mol_Feturizer/New_Systems/rnas/1EVV

>  <Rbt.Executable>
rbdock ($Id: //depot/dev/client3/rdock/2013.1/src/exe/rbdock.cxx#4 $)

>  <Rbt.Library>
libRbt.so (2013.1, Build901 2013/11/27)

>  <Rbt.Parameter_File>
/export/apps/rDock/src/rDock_2013.1_src/data/scripts/dock_solv.prm

>  <Rbt.Receptor>
prm/pocket_docking_7.prm

>  <SCORE>
-9.72636

>  <SCORE.INTER>
-0.488997

>  <SCORE.INTER.CONST>
1

>  <SCORE.INTER.POLAR>
0

>  <SCORE.INTER.ROT>
11

>  <SCORE.INTER.SOLV>
6.82809

>  <SCORE.INTER.VDW>
-13.5354

>  <SCORE.INTER.norm>
-0.0349284

>  <SCORE.INTRA>
-9.23736

>  <SCORE.INTRA.DIHEDRAL>
-17.9844

>  <SCORE.INTRA.DIHEDRAL.0>
20.2131

>  <SCORE.INTRA.POLAR>
0

>  <SCORE.INTRA.POLAR.0>
0

>  <SCORE.INTRA.REPUL>
0

>  <SCORE.INTRA.REPUL.0>
0

>  <SCORE.INTRA.SOLV>
-0.351552

>  <SCORE.INTRA.SOLV.lig_0>
-48.2851

>  <SCORE.INTRA.VDW>
-0.0693649

>  <SCORE.INTRA.VDW.0>
-1.08658

>  <SCORE.INTRA.norm>
-0.659811

>  <SCORE.RESTR>
0

>  <SCORE.RESTR.CAVITY>
0

>  <SCORE.RESTR.norm>
0

>  <SCORE.SYSTEM>
0

>  <SCORE.SYSTEM.CONST>
0

>  <SCORE.SYSTEM.DIHEDRAL>
0

>  <SCORE.SYSTEM.SOLV>
0

>  <SCORE.SYSTEM.norm>
0

>  <SCORE.heavy>
14

>  <SCORE.norm>
-0.69474

>  <RMSD>
5.009

$$$$
ligand
 OpenBabel11021811393D
libRbt.so/2013.1/901 2013/11/27
 14 13  0  0  0  0  0  0  0  0999 V2000
   38.7559   14.6282   37.2917 N   0  0  0  0  0  0  0  0  0  0  0  0
   37.5363   14.6595   36.4995 C   0  0  0  0  0  0  0  0  0  0  0  0
   36.9039   16.0779   36.5444 C   0  0  0  0  0  0  0  0  0  0  0  0
   37.7501   17.2778   35.9880 C   0  0  0  0  0  0  0  0  0  0  0  0
   37.1448   18.6454   36.1874 N   0  0  0  0  0  0  0  0  0  0  0  0
   38.0991   19.7672   35.9500 C   0  0  0  0  0  0  0  0  0  0  0  0
   37.7190   21.0594   36.6500 C   0  0  0  0  0  0  0  0  0  0  0  0
   38.8199   22.1025   36.5867 C   0  0  0  0  0  0  0  0  0  0  0  0
   38.4246   23.2151   37.4802 C   0  0  0  0  0  0  0  0  0  0  0  0
   39.4281   24.2954   37.6361 N   0  0  0  0  0  0  0  0  0  0  0  0
   40.5669   23.9283   38.5147 C   0  0  0  0  0  0  0  0  0  0  0  0
   41.4349   25.1128   39.0346 C   0  0  0  0  0  0  0  0  0  0  0  0
   42.5689   24.5341   39.8990 C   0  0  0  0  0  0  0  0  0  0  0  0
   43.3947   25.6052   40.4504 N   0  0  0  0  0  0  0  0  0  0  0  0
  1  2  1  0  0  0  0
  2  3  1  0  0  0  0
  3  4  1  0  0  0  0
  4  5  1  0  0  0  0
  5  6  1  0  0  0  0
  6  7  1  0  0  0  0
  7  8  1  0  0  0  0
  8  9  1  0  0  0  0
  9 10  1  0  0  0  0
 10 11  1  0  0  0  0
 11 12  1  0  0  0  0
 12 13  1  0  0  0  0
 13 14  1  0  0  0  0
M  END
>  <CHROM.1>
60.84994126,-173.95258029,166.20953133,-156.90375148,170.17936800,-170.93530897
175.49857092,-75.56026535,-163.72700231,-178.98759936,-178.24057034,39.18172377
20.77918974,37.47931776,-2.08990843,-0.63818895,-0.02548395

>  <Name>
ligand

>  <RI>
0

>  <Rbt.Current_Directory>
/home/itssahil/PROJECTS/Mol_Feturizer/New_Systems/rnas/1EVV

>  <Rbt.Executable>
rbdock ($Id: //depot/dev/client3/rdock/2013.1/src/exe/rbdock.cxx#4 $)

>  <Rbt.Library>
libRbt.so (2013.1, Build901 2013/11/27)

>  <Rbt.Parameter_File>
/export/apps/rDock/src/rDock_2013.1_src/data/scripts/dock_solv.prm

>  <Rbt.Receptor>
prm/pocket_docking_6.prm

>  <SCORE>
-9.20322

>  <SCORE.INTER>
0.177326

>  <SCORE.INTER.CONST>
1

>  <SCORE.INTER.POLAR>
0

>  <SCORE.INTER.ROT>
11

>  <SCORE.INTER.SOLV>
6.04939

>  <SCORE.INTER.VDW>
-12.8316

>  <SCORE.INTER.norm>
0.0126662

>  <SCORE.INTRA>
-9.38055

>  <SCORE.INTRA.DIHEDRAL>
-18.3553

>  <SCORE.INTRA.DIHEDRAL.0>
20.2131

>  <SCORE.INTRA.POLAR>
0

>  <SCORE.INTRA.POLAR.0>
0

>  <SCORE.INTRA.REPUL>
0

>  <SCORE.INTRA.REPUL.0>
0

>  <SCORE.INTRA.SOLV>
-0.751925

>  <SCORE.INTRA.SOLV.lig_0>
-48.2851

>  <SCORE.INTRA.VDW>
0.173071

>  <SCORE.INTRA.VDW.0>
-1.08658

>  <SCORE.INTRA.norm>
-0.670039

>  <SCORE.RESTR>
0

>  <SCORE.RESTR.CAVITY>
0

>  <SCORE.RESTR.norm>
0

>  <SCORE.SYSTEM>
0

>  <SCORE.SYSTEM.CONST>
0

>  <SCORE.SYSTEM.DIHEDRAL>
0

>  <SCORE.SYSTEM.SOLV>
0

>  <SCORE.SYSTEM.norm>
0

>  <SCORE.heavy>
14

>  <SCORE.norm>
-0.657373

>  <RMSD>
5.023

$$$$
ligand
 OpenBabel11021811393D
libRbt.so/2013.1/901 2013/11/27
 14 13  0  0  0  0  0  0  0  0999 V2000
   41.5766   24.6997   38.3107 N   0  0  0  0  0  0  0  0  0  0  0  0
   40.8229   23.4829   38.0506 C   0  0  0  0  0  0  0  0  0  0  0  0
   39.3367   23.8256   37.7548 C   0  0  0  0  0  0  0  0  0  0  0  0
   38.3586   22.6398   37.4347 C   0  0  0  0  0  0  0  0  0  0  0  0
   38.6939   21.8376   36.2016 N   0  0  0  0  0  0  0  0  0  0  0  0
   37.7805   20.6814   35.9681 C   0  0  0  0  0  0  0  0  0  0  0  0
   38.1803   19.4194   36.7108 C   0  0  0  0  0  0  0  0  0  0  0  0
   37.3359   18.2202   36.3193 C   0  0  0  0  0  0  0  0  0  0  0  0
   37.8897   17.0421   37.0248 C   0  0  0  0  0  0  0  0  0  0  0  0
   37.4457   15.7240   36.5113 N   0  0  0  0  0  0  0  0  0  0  0  0
   38.4527   15.0484   35.6550 C   0  0  0  0  0  0  0  0  0  0  0  0
   38.8000   15.7665   34.3170 C   0  0  0  0  0  0  0  0  0  0  0  0
   39.7746   14.8720   33.5307 C   0  0  0  0  0  0  0  0  0  0  0  0
   40.2044   15.5339   32.3016 N   0  0  0  0  0  0  0  0  0  0  0  0
  1  2  1  0  0  0  0
  2  3  1  0  0  0  0
  3  4  1  0  0  0  0
  4  5  1  0  0  0  0
  5  6  1  0  0  0  0
  6  7  1  0  0  0  0
  7  8  1  0  0  0  0
  8  9  1  0  0  0  0
  9 10  1  0  0  0  0
 10 11  1  0  0  0  0
 11 12  1  0  0  0  0
 12 13  1  0  0  0  0
 13 14  1  0  0  0  0
M  END
>  <CHROM.1>
179.44994443,-61.93356965,177.22189024,-85.64206592,-172.86972021,175.58918321
-164.42963158,101.74297153,-64.52060620,-176.00375262,-176.36329314,38.90352643
19.19943839,36.14949723,-1.41739451,-0.63848615,-2.67450156

>  <Name>
ligand

>  <RI>
0

>  <Rbt.Current_Directory>
/home/itssahil/PROJECTS/Mol_Feturizer/New_Systems/rnas/1EVV

>  <Rbt.Executable>
rbdock ($Id: //depot/dev/client3/rdock/2013.1/src/exe/rbdock.cxx#4 $)

>  <Rbt.Library>
libRbt.so (2013.1, Build901 2013/11/27)

>  <Rbt.Parameter_File>
/export/apps/rDock/src/rDock_2013.1_src/data/scripts/dock_solv.prm

>  <Rbt.Receptor>
prm/pocket_docking_6.prm

>  <SCORE>
-7.12641

>  <SCORE.INTER>
1.94265

>  <SCORE.INTER.CONST>
1

>  <SCORE.INTER.POLAR>
0

>  <SCORE.INTER.ROT>
11

>  <SCORE.INTER.SOLV>
7.95073

>  <SCORE.INTER.VDW>
-12.2885

>  <SCORE.INTER.norm>
0.13876

>  <SCORE.INTRA>
-9.06906

>  <SCORE.INTRA.DIHEDRAL>
-17.5154

>  <SCORE.INTRA.DIHEDRAL.0>
20.2131

>  <SCORE.INTRA.POLAR>
0

>  <SCORE.INTRA.POLAR.0>
0

>  <SCORE.INTRA.REPUL>
0

>  <SCORE.INTRA.REPUL.0>
0

>  <SCORE.INTRA.SOLV>
-1.12953

>  <SCORE.INTRA.SOLV.lig_0>
-48.2851

>  <SCORE.INTRA.VDW>
0.253421

>  <SCORE.INTRA.VDW.0>
-1.08658

>  <SCORE.INTRA.norm>
-0.64779

>  <SCORE.RESTR>
0

>  <SCORE.RESTR.CAVITY>
0

>  <SCORE.RESTR.norm>
0

>  <SCORE.SYSTEM>
0

>  <SCORE.SYSTEM.CONST>
0

>  <SCORE.SYSTEM.DIHEDRAL>
0

>  <SCORE.SYSTEM.SOLV>
0

>  <SCORE.SYSTEM.norm>
0

>  <SCORE.heavy>
14

>  <SCORE.norm>
-0.509029

>  <RMSD>
5.025

$$$$
ligand
 OpenBabel11021811393D
libRbt.so/2013.1/901 2013/11/27
 14 13  0  0  0  0  0  0  0  0999 V2000
   40.0974   15.7404   32.9742 N   0  0  0  0  0  0  0  0  0  0  0  0
   39.5877   15.1943   34.2224 C   0  0  0  0  0  0  0  0  0  0  0  0
   40.3156   15.8468   35.4300 C   0  0  0  0  0  0  0  0  0  0  0  0
   39.8628   15.4292   36.8743 C   0  0  0  0  0  0  0  0  0  0  0  0
   38.4244   15.7311   37.2154 N   0  0  0  0  0  0  0  0  0  0  0  0
   38.1561   17.1763   37.4702 C   0  0  0  0  0  0  0  0  0  0  0  0
   37.4607   17.8865   36.3230 C   0  0  0  0  0  0  0  0  0  0  0  0
   37.1562   19.3403   36.6360 C   0  0  0  0  0  0  0  0  0  0  0  0
   38.4432   20.0722   36.6261 C   0  0  0  0  0  0  0  0  0  0  0  0
   38.3732   21.4917   37.0485 N   0  0  0  0  0  0  0  0  0  0  0  0
   39.6797   22.0504   37.4781 C   0  0  0  0  0  0  0  0  0  0  0  0
   39.6400   23.4840   38.0864 C   0  0  0  0  0  0  0  0  0  0  0  0
   41.0892   23.9527   38.3063 C   0  0  0  0  0  0  0  0  0  0  0  0
   41.1162   25.3165   38.8287 N   0  0  0  0  0  0  0  0  0  0  0  0
  1  2  1  0  0  0  0
  2  3  1  0  0  0  0
  3  4  1  0  0  0  0
  4  5  1  0  0  0  0
  5  6  1  0  0  0  0
  6  7  1  0  0  0  0
  7  8  1  0  0  0  0
  8  9  1  0  0  0  0
  9 10  1  0  0  0  0
 10 11  1  0  0  0  0
 11 12  1  0  0  0  0
 12 13  1  0  0  0  0
 13 14  1  0  0  0  0
M  END
>  <CHROM.1>
177.57225768,-60.89752032,-74.39830471,103.51160849,177.82819742,71.73916509
-174.00913908,159.90109423,-173.23925463,-173.12976284,177.79155400,39.24292344
19.19359601,36.68003989,-1.68829619,0.50170174,0.39408506

>  <Name>
ligand

>  <RI>
0

>  <Rbt.Current_Directory>
/home/itssahil/PROJECTS/Mol_Feturizer/New_Systems/rnas/1EVV

>  <Rbt.Executable>
rbdock ($Id: //depot/dev/client3/rdock/2013.1/src/exe/rbdock.cxx#4 $)

>  <Rbt.Library>
libRbt.so (2013.1, Build901 2013/11/27)

>  <Rbt.Parameter_File>
/export/apps/rDock/src/rDock_2013.1_src/data/scripts/dock_solv.prm

>  <Rbt.Receptor>
prm/pocket_docking_6.prm

>  <SCORE>
-6.59571

>  <SCORE.INTER>
2.26482

>  <SCORE.INTER.CONST>
1

>  <SCORE.INTER.POLAR>
0

>  <SCORE.INTER.ROT>
11

>  <SCORE.INTER.SOLV>
9.18459

>  <SCORE.INTER.VDW>
-12.485

>  <SCORE.INTER.norm>
0.161773

>  <SCORE.INTRA>
-8.86054

>  <SCORE.INTRA.DIHEDRAL>
-17.7877

>  <SCORE.INTRA.DIHEDRAL.0>
20.2131

>  <SCORE.INTRA.POLAR>
0

>  <SCORE.INTRA.POLAR.0>
0

>  <SCORE.INTRA.REPUL>
0

>  <SCORE.INTRA.REPUL.0>
0

>  <SCORE.INTRA.SOLV>
-0.865791

>  <SCORE.INTRA.SOLV.lig_0>
-48.2851

>  <SCORE.INTRA.VDW>
0.466226

>  <SCORE.INTRA.VDW.0>
-1.08658

>  <SCORE.INTRA.norm>
-0.632895

>  <SCORE.RESTR>
0

>  <SCORE.RESTR.CAVITY>
0

>  <SCORE.RESTR.norm>
0

>  <SCORE.SYSTEM>
0

>  <SCORE.SYSTEM.CONST>
0

>  <SCORE.SYSTEM.DIHEDRAL>
0

>  <SCORE.SYSTEM.SOLV>
0

>  <SCORE.SYSTEM.norm>
0

>  <SCORE.heavy>
14

>  <SCORE.norm>
-0.471122

>  <RMSD>
5.025

$$$$
ligand
 OpenBabel11021811393D
libRbt.so/2013.1/901 2013/11/27
 14 13  0  0  0  0  0  0  0  0999 V2000
   39.2397   14.1304   38.0290 N   0  0  0  0  0  0  0  0  0  0  0  0
   39.0398   15.3429   37.2505 C   0  0  0  0  0  0  0  0  0  0  0  0
   37.5264   15.6850   37.1700 C   0  0  0  0  0  0  0  0  0  0  0  0
   37.1017   16.9493   36.3416 C   0  0  0  0  0  0  0  0  0  0  0  0
   37.6776   18.2601   36.8179 N   0  0  0  0  0  0  0  0  0  0  0  0
   37.3752   19.4127   35.9205 C   0  0  0  0  0  0  0  0  0  0  0  0
   37.6003   20.7699   36.5619 C   0  0  0  0  0  0  0  0  0  0  0  0
   39.0584   21.0192   36.9026 C   0  0  0  0  0  0  0  0  0  0  0  0
   39.1458   22.3691   37.5045 C   0  0  0  0  0  0  0  0  0  0  0  0
   40.5095   22.8128   37.8810 N   0  0  0  0  0  0  0  0  0  0  0  0
   40.5322   24.0865   38.6431 C   0  0  0  0  0  0  0  0  0  0  0  0
   41.9365   24.5791   39.1037 C   0  0  0  0  0  0  0  0  0  0  0  0
   41.7483   25.8674   39.9241 C   0  0  0  0  0  0  0  0  0  0  0  0
   43.0402   26.4045   40.3438 N   0  0  0  0  0  0  0  0  0  0  0  0
  1  2  1  0  0  0  0
  2  3  1  0  0  0  0
  3  4  1  0  0  0  0
  4  5  1  0  0  0  0
  5  6  1  0  0  0  0
  6  7  1  0  0  0  0
  7  8  1  0  0  0  0
  8  9  1  0  0  0  0
  9 10  1  0  0  0  0
 10 11  1  0  0  0  0
 11 12  1  0  0  0  0
 12 13  1  0  0  0  0
 13 14  1  0  0  0  0
M  END
>  <CHROM.1>
-178.71688522,-60.07456092,173.59302530,163.77814473,64.80904404,179.46391324
-178.69065787,-172.22836406,178.19827888,-177.49848769,-177.94405392,39.39482079
20.54926632,37.74222329,-2.05223089,-0.66085410,-0.05588241

>  <Name>
ligand

>  <RI>
0

>  <Rbt.Current_Directory>
/home/itssahil/PROJECTS/Mol_Feturizer/New_Systems/rnas/1EVV

>  <Rbt.Executable>
rbdock ($Id: //depot/dev/client3/rdock/2013.1/src/exe/rbdock.cxx#4 $)

>  <Rbt.Library>
libRbt.so (2013.1, Build901 2013/11/27)

>  <Rbt.Parameter_File>
/export/apps/rDock/src/rDock_2013.1_src/data/scripts/dock_solv.prm

>  <Rbt.Receptor>
prm/pocket_docking_8.prm

>  <SCORE>
-10.2193

>  <SCORE.INTER>
0.283208

>  <SCORE.INTER.CONST>
1

>  <SCORE.INTER.POLAR>
0

>  <SCORE.INTER.ROT>
11

>  <SCORE.INTER.SOLV>
6.34955

>  <SCORE.INTER.VDW>
-12.861

>  <SCORE.INTER.norm>
0.0202292

>  <SCORE.INTRA>
-10.5026

>  <SCORE.INTRA.DIHEDRAL>
-19.7837

>  <SCORE.INTRA.DIHEDRAL.0>
20.2131

>  <SCORE.INTRA.POLAR>
0

>  <SCORE.INTRA.POLAR.0>
0

>  <SCORE.INTRA.REPUL>
0

>  <SCORE.INTRA.REPUL.0>
0

>  <SCORE.INTRA.SOLV>
-0.736816

>  <SCORE.INTRA.SOLV.lig_0>
-48.2851

>  <SCORE.INTRA.VDW>
-0.242293

>  <SCORE.INTRA.VDW.0>
-1.08658

>  <SCORE.INTRA.norm>
-0.750183

>  <SCORE.RESTR>
0

>  <SCORE.RESTR.CAVITY>
0

>  <SCORE.RESTR.norm>
0

>  <SCORE.SYSTEM>
0

>  <SCORE.SYSTEM.CONST>
0

>  <SCORE.SYSTEM.DIHEDRAL>
0

>  <SCORE.SYSTEM.SOLV>
0

>  <SCORE.SYSTEM.norm>
0

>  <SCORE.heavy>
14

>  <SCORE.norm>
-0.729954

>  <RMSD>
5.033

$$$$
ligand
 OpenBabel11021811393D
libRbt.so/2013.1/901 2013/11/27
 14 13  0  0  0  0  0  0  0  0999 V2000
   44.2970   18.4530   35.8751 N   0  0  0  0  0  0  0  0  0  0  0  0
   42.8513   18.3737   35.7342 C   0  0  0  0  0  0  0  0  0  0  0  0
   42.4755   17.3416   34.6355 C   0  0  0  0  0  0  0  0  0  0  0  0
   40.9591   17.1896   34.2576 C   0  0  0  0  0  0  0  0  0  0  0  0
   40.2967   18.4347   33.7213 N   0  0  0  0  0  0  0  0  0  0  0  0
   39.0269   18.7899   34.4192 C   0  0  0  0  0  0  0  0  0  0  0  0
   38.6193   20.2431   34.2570 C   0  0  0  0  0  0  0  0  0  0  0  0
   37.3476   20.5800   35.0143 C   0  0  0  0  0  0  0  0  0  0  0  0
   37.6623   20.5053   36.4592 C   0  0  0  0  0  0  0  0  0  0  0  0
   38.7755   21.3718   36.9154 N   0  0  0  0  0  0  0  0  0  0  0  0
   38.3323   22.6980   37.4137 C   0  0  0  0  0  0  0  0  0  0  0  0
   39.2438   23.3603   38.4895 C   0  0  0  0  0  0  0  0  0  0  0  0
   40.6243   23.6145   37.8588 C   0  0  0  0  0  0  0  0  0  0  0  0
   41.5194   24.2556   38.8187 N   0  0  0  0  0  0  0  0  0  0  0  0
  1  2  1  0  0  0  0
  2  3  1  0  0  0  0
  3  4  1  0  0  0  0
  4  5  1  0  0  0  0
  5  6  1  0  0  0  0
  6  7  1  0  0  0  0
  7  8  1  0  0  0  0
  8  9  1  0  0  0  0
  9 10  1  0  0  0  0
 10 11  1  0  0  0  0
 11 12  1  0  0  0  0
 12 13  1  0  0  0  0
 13 14  1  0  0  0  0
M  END
>  <CHROM.1>
-175.50063697,60.58864446,-128.37485587,159.26134589,-178.22098225,68.43590219
56.63946386,93.21692245,151.63174187,62.52975209,179.13904190,40.14463356
20.37212462,35.99053409,-1.20634465,-0.24091180,0.64382014

>  <Name>
ligand

>  <RI>
0

>  <Rbt.Current_Directory>
/home/itssahil/PROJECTS/Mol_Feturizer/New_Systems/rnas/1EVV

>  <Rbt.Executable>
rbdock ($Id: //depot/dev/client3/rdock/2013.1/src/exe/rbdock.cxx#4 $)

>  <Rbt.Library>
libRbt.so (2013.1, Build901 2013/11/27)

>  <Rbt.Parameter_File>
/export/apps/rDock/src/rDock_2013.1_src/data/scripts/dock_solv.prm

>  <Rbt.Receptor>
prm/pocket_docking_5.prm

>  <SCORE>
-4.0055

>  <SCORE.INTER>
3.55133

>  <SCORE.INTER.CONST>
1

>  <SCORE.INTER.POLAR>
0

>  <SCORE.INTER.ROT>
11

>  <SCORE.INTER.SOLV>
8.23109

>  <SCORE.INTER.VDW>
-11.3095

>  <SCORE.INTER.norm>
0.253666

>  <SCORE.INTRA>
-7.55683

>  <SCORE.INTRA.DIHEDRAL>
-17.0474

>  <SCORE.INTRA.DIHEDRAL.0>
20.2131

>  <SCORE.INTRA.POLAR>
0

>  <SCORE.INTRA.POLAR.0>
0

>  <SCORE.INTRA.REPUL>
0

>  <SCORE.INTRA.REPUL.0>
0

>  <SCORE.INTRA.SOLV>
0.0560715

>  <SCORE.INTRA.SOLV.lig_0>
-48.2851

>  <SCORE.INTRA.VDW>
0.938842

>  <SCORE.INTRA.VDW.0>
-1.08658

>  <SCORE.INTRA.norm>
-0.539774

>  <SCORE.RESTR>
0

>  <SCORE.RESTR.CAVITY>
0

>  <SCORE.RESTR.norm>
0

>  <SCORE.SYSTEM>
0

>  <SCORE.SYSTEM.CONST>
0

>  <SCORE.SYSTEM.DIHEDRAL>
0

>  <SCORE.SYSTEM.SOLV>
0

>  <SCORE.SYSTEM.norm>
0

>  <SCORE.heavy>
14

>  <SCORE.norm>
-0.286107

>  <RMSD>
5.034

$$$$
ligand
 OpenBabel11021811393D
libRbt.so/2013.1/901 2013/11/27
 14 13  0  0  0  0  0  0  0  0999 V2000
   37.2704   19.2366   31.3979 N   0  0  0  0  0  0  0  0  0  0  0  0
   37.9597   20.5131   31.5047 C   0  0  0  0  0  0  0  0  0  0  0  0
   39.1824   20.3844   32.4546 C   0  0  0  0  0  0  0  0  0  0  0  0
   38.9090   20.0424   33.9625 C   0  0  0  0  0  0  0  0  0  0  0  0
   38.0310   21.0227   34.7007 N   0  0  0  0  0  0  0  0  0  0  0  0
   37.9675   20.7852   36.1721 C   0  0  0  0  0  0  0  0  0  0  0  0
   36.9450   19.7422   36.5853 C   0  0  0  0  0  0  0  0  0  0  0  0
   37.4200   18.3243   36.3242 C   0  0  0  0  0  0  0  0  0  0  0  0
   38.3768   17.9752   37.3989 C   0  0  0  0  0  0  0  0  0  0  0  0
   39.7487   18.5118   37.2309 N   0  0  0  0  0  0  0  0  0  0  0  0
   40.7809   17.4609   37.0465 C   0  0  0  0  0  0  0  0  0  0  0  0
   42.2350   17.9685   36.8133 C   0  0  0  0  0  0  0  0  0  0  0  0
   42.2653   18.7457   35.4855 C   0  0  0  0  0  0  0  0  0  0  0  0
   43.6194   19.2058   35.1882 N   0  0  0  0  0  0  0  0  0  0  0  0
  1  2  1  0  0  0  0
  2  3  1  0  0  0  0
  3  4  1  0  0  0  0
  4  5  1  0  0  0  0
  5  6  1  0  0  0  0
  6  7  1  0  0  0  0
  7  8  1  0  0  0  0
  8  9  1  0  0  0  0
  9 10  1  0  0  0  0
 10 11  1  0  0  0  0
 11 12  1  0  0  0  0
 12 13  1  0  0  0  0
 13 14  1  0  0  0  0
M  END
>  <CHROM.1>
-63.91177523,-58.76521652,-170.93769482,-84.13333863,76.95048047,77.55127333
-79.49939324,-115.30406856,177.86653349,-64.11807720,-177.91151160,39.33637926
19.27982943,35.16202823,-2.29419923,-0.15894224,1.89192104

>  <Name>
ligand

>  <RI>
0

>  <Rbt.Current_Directory>
/home/itssahil/PROJECTS/Mol_Feturizer/New_Systems/rnas/1EVV

>  <Rbt.Executable>
rbdock ($Id: //depot/dev/client3/rdock/2013.1/src/exe/rbdock.cxx#4 $)

>  <Rbt.Library>
libRbt.so (2013.1, Build901 2013/11/27)

>  <Rbt.Parameter_File>
/export/apps/rDock/src/rDock_2013.1_src/data/scripts/dock_solv.prm

>  <Rbt.Receptor>
prm/pocket_docking_3.prm

>  <SCORE>
-1.30451

>  <SCORE.INTER>
5.1312

>  <SCORE.INTER.CONST>
1

>  <SCORE.INTER.POLAR>
0

>  <SCORE.INTER.ROT>
11

>  <SCORE.INTER.SOLV>
3.93664

>  <SCORE.INTER.VDW>
-8.82475

>  <SCORE.INTER.norm>
0.366514

>  <SCORE.INTRA>
-6.44891

>  <SCORE.INTRA.DIHEDRAL>
-14.8597

>  <SCORE.INTRA.DIHEDRAL.0>
20.2131

>  <SCORE.INTRA.POLAR>
0

>  <SCORE.INTRA.POLAR.0>
0

>  <SCORE.INTRA.REPUL>
0

>  <SCORE.INTRA.REPUL.0>
0

>  <SCORE.INTRA.SOLV>
2.31279

>  <SCORE.INTRA.SOLV.lig_0>
-48.2851

>  <SCORE.INTRA.VDW>
-0.175474

>  <SCORE.INTRA.VDW.0>
-1.08658

>  <SCORE.INTRA.norm>
-0.460636

>  <SCORE.RESTR>
0.0132069

>  <SCORE.RESTR.CAVITY>
0.0132069

>  <SCORE.RESTR.norm>
0.000943351

>  <SCORE.SYSTEM>
0

>  <SCORE.SYSTEM.CONST>
0

>  <SCORE.SYSTEM.DIHEDRAL>
0

>  <SCORE.SYSTEM.SOLV>
0

>  <SCORE.SYSTEM.norm>
0

>  <SCORE.heavy>
14

>  <SCORE.norm>
-0.093179

>  <RMSD>
5.041

$$$$
ligand
 OpenBabel11021811393D
libRbt.so/2013.1/901 2013/11/27
 14 13  0  0  0  0  0  0  0  0999 V2000
   42.7381   19.3132   34.8772 N   0  0  0  0  0  0  0  0  0  0  0  0
   42.8225   17.9185   35.2819 C   0  0  0  0  0  0  0  0  0  0  0  0
   42.7452   17.8035   36.8293 C   0  0  0  0  0  0  0  0  0  0  0  0
   41.3698   18.1108   37.5215 C   0  0  0  0  0  0  0  0  0  0  0  0
   40.2530   17.1484   37.2003 N   0  0  0  0  0  0  0  0  0  0  0  0
   38.8907   17.6968   37.4627 C   0  0  0  0  0  0  0  0  0  0  0  0
   38.4084   18.6801   36.4118 C   0  0  0  0  0  0  0  0  0  0  0  0
   37.0595   19.2858   36.7554 C   0  0  0  0  0  0  0  0  0  0  0  0
   36.7378   20.2727   35.6996 C   0  0  0  0  0  0  0  0  0  0  0  0
   37.7345   21.3543   35.5123 N   0  0  0  0  0  0  0  0  0  0  0  0
   37.6317   22.0379   34.1986 C   0  0  0  0  0  0  0  0  0  0  0  0
   38.0396   21.1907   32.9566 C   0  0  0  0  0  0  0  0  0  0  0  0
   37.8642   22.0632   31.7013 C   0  0  0  0  0  0  0  0  0  0  0  0
   36.4535   22.3700   31.4796 N   0  0  0  0  0  0  0  0  0  0  0  0
  1  2  1  0  0  0  0
  2  3  1  0  0  0  0
  3  4  1  0  0  0  0
  4  5  1  0  0  0  0
  5  6  1  0  0  0  0
  6  7  1  0  0  0  0
  7  8  1  0  0  0  0
  8  9  1  0  0  0  0
  9 10  1  0  0  0  0
 10 11  1  0  0  0  0
 11 12  1  0  0  0  0
 12 13  1  0  0  0  0
 13 14  1  0  0  0  0
M  END
>  <CHROM.1>
70.46364784,65.63346794,-159.93214356,76.51922625,-176.29262046,177.00206716
-57.50509853,160.70063435,-68.99413956,179.88813801,-66.37087059,39.19627917
19.66027495,35.27792542,-0.86434133,0.26162328,-0.97474945

>  <Name>
ligand

>  <RI>
0

>  <Rbt.Current_Directory>
/home/itssahil/PROJECTS/Mol_Feturizer/New_Systems/rnas/1EVV

>  <Rbt.Executable>
rbdock ($Id: //depot/dev/client3/rdock/2013.1/src/exe/rbdock.cxx#4 $)

>  <Rbt.Library>
libRbt.so (2013.1, Build901 2013/11/27)

>  <Rbt.Parameter_File>
/export/apps/rDock/src/rDock_2013.1_src/data/scripts/dock_solv.prm

>  <Rbt.Receptor>
prm/pocket_docking_3.prm

>  <SCORE>
-3.11033

>  <SCORE.INTER>
5.11077

>  <SCORE.INTER.CONST>
1

>  <SCORE.INTER.POLAR>
0

>  <SCORE.INTER.ROT>
11

>  <SCORE.INTER.SOLV>
5.31561

>  <SCORE.INTER.VDW>
-9.29803

>  <SCORE.INTER.norm>
0.365055

>  <SCORE.INTRA>
-8.22206

>  <SCORE.INTRA.DIHEDRAL>
-18.5657

>  <SCORE.INTRA.DIHEDRAL.0>
20.2131

>  <SCORE.INTRA.POLAR>
0

>  <SCORE.INTRA.POLAR.0>
0

>  <SCORE.INTRA.REPUL>
0

>  <SCORE.INTRA.REPUL.0>
0

>  <SCORE.INTRA.SOLV>
1.12774

>  <SCORE.INTRA.SOLV.lig_0>
-48.2851

>  <SCORE.INTRA.VDW>
0.49693

>  <SCORE.INTRA.VDW.0>
-1.08658

>  <SCORE.INTRA.norm>
-0.58729

>  <SCORE.RESTR>
0.00096268

>  <SCORE.RESTR.CAVITY>
0.00096268

>  <SCORE.RESTR.norm>
6.87629e-05

>  <SCORE.SYSTEM>
0

>  <SCORE.SYSTEM.CONST>
0

>  <SCORE.SYSTEM.DIHEDRAL>
0

>  <SCORE.SYSTEM.SOLV>
0

>  <SCORE.SYSTEM.norm>
0

>  <SCORE.heavy>
14

>  <SCORE.norm>
-0.222166

>  <RMSD>
5.059

$$$$
ligand
 OpenBabel11021811393D
libRbt.so/2013.1/901 2013/11/27
 14 13  0  0  0  0  0  0  0  0999 V2000
   37.2724   17.5798   35.7195 N   0  0  0  0  0  0  0  0  0  0  0  0
   36.6691   16.3710   36.2590 C   0  0  0  0  0  0  0  0  0  0  0  0
   37.7727   15.3539   36.6602 C   0  0  0  0  0  0  0  0  0  0  0  0
   38.6458   14.7270   35.5155 C   0  0  0  0  0  0  0  0  0  0  0  0
   39.4358   15.7119   34.6894 N   0  0  0  0  0  0  0  0  0  0  0  0
   40.9086   15.6447   34.9171 C   0  0  0  0  0  0  0  0  0  0  0  0
   41.4783   16.8562   35.6324 C   0  0  0  0  0  0  0  0  0  0  0  0
   40.9452   17.0029   37.0460 C   0  0  0  0  0  0  0  0  0  0  0  0
   41.4469   18.2918   37.5747 C   0  0  0  0  0  0  0  0  0  0  0  0
   40.9899   19.5007   36.8481 N   0  0  0  0  0  0  0  0  0  0  0  0
   40.5443   20.5996   37.7411 C   0  0  0  0  0  0  0  0  0  0  0  0
   39.8790   21.8204   37.0385 C   0  0  0  0  0  0  0  0  0  0  0  0
   39.4703   22.8340   38.1218 C   0  0  0  0  0  0  0  0  0  0  0  0
   38.9660   24.0628   37.5141 N   0  0  0  0  0  0  0  0  0  0  0  0
  1  2  1  0  0  0  0
  2  3  1  0  0  0  0
  3  4  1  0  0  0  0
  4  5  1  0  0  0  0
  5  6  1  0  0  0  0
  6  7  1  0  0  0  0
  7  8  1  0  0  0  0
  8  9  1  0  0  0  0
  9 10  1  0  0  0  0
 10 11  1  0  0  0  0
 11 12  1  0  0  0  0
 12 13  1  0  0  0  0
 13 14  1  0  0  0  0
M  END
>  <CHROM.1>
-66.49138944,60.08159289,109.96872395,-110.68936759,64.35094659,-173.55961975
62.53826870,135.01551345,-172.23484034,179.16216724,174.11621279,39.60189869
18.31081505,36.51993924,1.67423409,0.02955417,-2.86223050

>  <Name>
ligand

>  <RI>
0

>  <Rbt.Current_Directory>
/home/itssahil/PROJECTS/Mol_Feturizer/New_Systems/rnas/1EVV

>  <Rbt.Executable>
rbdock ($Id: //depot/dev/client3/rdock/2013.1/src/exe/rbdock.cxx#4 $)

>  <Rbt.Library>
libRbt.so (2013.1, Build901 2013/11/27)

>  <Rbt.Parameter_File>
/export/apps/rDock/src/rDock_2013.1_src/data/scripts/dock_solv.prm

>  <Rbt.Receptor>
prm/pocket_docking_5.prm

>  <SCORE>
-5.67473

>  <SCORE.INTER>
1.73346

>  <SCORE.INTER.CONST>
1

>  <SCORE.INTER.POLAR>
0

>  <SCORE.INTER.ROT>
11

>  <SCORE.INTER.SOLV>
8.92514

>  <SCORE.INTER.VDW>
-12.7527

>  <SCORE.INTER.norm>
0.123819

>  <SCORE.INTRA>
-7.40819

>  <SCORE.INTRA.DIHEDRAL>
-16.3326

>  <SCORE.INTRA.DIHEDRAL.0>
20.2131

>  <SCORE.INTRA.POLAR>
0

>  <SCORE.INTRA.POLAR.0>
0

>  <SCORE.INTRA.REPUL>
0

>  <SCORE.INTRA.REPUL.0>
0

>  <SCORE.INTRA.SOLV>
3.02049

>  <SCORE.INTRA.SOLV.lig_0>
-48.2851

>  <SCORE.INTRA.VDW>
-0.752149

>  <SCORE.INTRA.VDW.0>
-1.08658

>  <SCORE.INTRA.norm>
-0.529156

>  <SCORE.RESTR>
0

>  <SCORE.RESTR.CAVITY>
0

>  <SCORE.RESTR.norm>
0

>  <SCORE.SYSTEM>
0

>  <SCORE.SYSTEM.CONST>
0

>  <SCORE.SYSTEM.DIHEDRAL>
0

>  <SCORE.SYSTEM.SOLV>
0

>  <SCORE.SYSTEM.norm>
0

>  <SCORE.heavy>
14

>  <SCORE.norm>
-0.405338

>  <RMSD>
5.063

$$$$
ligand
 OpenBabel11021811393D
libRbt.so/2013.1/901 2013/11/27
 14 13  0  0  0  0  0  0  0  0999 V2000
   39.3793   14.0210   37.7641 N   0  0  0  0  0  0  0  0  0  0  0  0
   38.7188   14.7599   36.6992 C   0  0  0  0  0  0  0  0  0  0  0  0
   37.4105   15.4092   37.2287 C   0  0  0  0  0  0  0  0  0  0  0  0
   36.5306   16.2225   36.2140 C   0  0  0  0  0  0  0  0  0  0  0  0
   37.2104   17.4052   35.5692 N   0  0  0  0  0  0  0  0  0  0  0  0
   37.2828   18.6102   36.4456 C   0  0  0  0  0  0  0  0  0  0  0  0
   37.9717   19.8003   35.8029 C   0  0  0  0  0  0  0  0  0  0  0  0
   38.0456   21.0012   36.7284 C   0  0  0  0  0  0  0  0  0  0  0  0
   38.8399   22.0421   36.0372 C   0  0  0  0  0  0  0  0  0  0  0  0
   39.2047   23.2189   36.8620 N   0  0  0  0  0  0  0  0  0  0  0  0
   40.2773   22.9440   37.8507 C   0  0  0  0  0  0  0  0  0  0  0  0
   40.8058   24.1772   38.6422 C   0  0  0  0  0  0  0  0  0  0  0  0
   41.4058   25.1735   37.6345 C   0  0  0  0  0  0  0  0  0  0  0  0
   41.9391   26.3457   38.3238 N   0  0  0  0  0  0  0  0  0  0  0  0
  1  2  1  0  0  0  0
  2  3  1  0  0  0  0
  3  4  1  0  0  0  0
  4  5  1  0  0  0  0
  5  6  1  0  0  0  0
  6  7  1  0  0  0  0
  7  8  1  0  0  0  0
  8  9  1  0  0  0  0
  9 10  1  0  0  0  0
 10 11  1  0  0  0  0
 11 12  1  0  0  0  0
 12 13  1  0  0  0  0
 13 14  1  0  0  0  0
M  END
>  <CHROM.1>
-178.42688222,-60.02448730,-78.68916945,179.73643378,-179.17190187,174.96421977
-170.93952374,74.12417883,173.84923205,-61.26912296,-179.09251153,38.92996814
20.08070679,36.98585117,-1.95899894,-0.60982213,-0.11023160

>  <Name>
ligand

>  <RI>
0

>  <Rbt.Current_Directory>
/home/itssahil/PROJECTS/Mol_Feturizer/New_Systems/rnas/1EVV

>  <Rbt.Executable>
rbdock ($Id: //depot/dev/client3/rdock/2013.1/src/exe/rbdock.cxx#4 $)

>  <Rbt.Library>
libRbt.so (2013.1, Build901 2013/11/27)

>  <Rbt.Parameter_File>
/export/apps/rDock/src/rDock_2013.1_src/data/scripts/dock_solv.prm

>  <Rbt.Receptor>
prm/pocket_docking_6.prm

>  <SCORE>
-7.84767

>  <SCORE.INTER>
1.95713

>  <SCORE.INTER.CONST>
1

>  <SCORE.INTER.POLAR>
0

>  <SCORE.INTER.ROT>
11

>  <SCORE.INTER.SOLV>
4.30911

>  <SCORE.INTER.VDW>
-11.065

>  <SCORE.INTER.norm>
0.139795

>  <SCORE.INTRA>
-9.80479

>  <SCORE.INTRA.DIHEDRAL>
-19.3287

>  <SCORE.INTRA.DIHEDRAL.0>
20.2131

>  <SCORE.INTRA.POLAR>
0

>  <SCORE.INTRA.POLAR.0>
0

>  <SCORE.INTRA.REPUL>
0

>  <SCORE.INTRA.REPUL.0>
0

>  <SCORE.INTRA.SOLV>
-0.779871

>  <SCORE.INTRA.SOLV.lig_0>
-48.2851

>  <SCORE.INTRA.VDW>
0.249502

>  <SCORE.INTRA.VDW.0>
-1.08658

>  <SCORE.INTRA.norm>
-0.700342

>  <SCORE.RESTR>
0

>  <SCORE.RESTR.CAVITY>
0

>  <SCORE.RESTR.norm>
0

>  <SCORE.SYSTEM>
0

>  <SCORE.SYSTEM.CONST>
0

>  <SCORE.SYSTEM.DIHEDRAL>
0

>  <SCORE.SYSTEM.SOLV>
0

>  <SCORE.SYSTEM.norm>
0

>  <SCORE.heavy>
14

>  <SCORE.norm>
-0.560548

>  <RMSD>
5.064

$$$$
ligand
 OpenBabel11021811393D
libRbt.so/2013.1/901 2013/11/27
 14 13  0  0  0  0  0  0  0  0999 V2000
   43.9812   19.5648   35.6160 N   0  0  0  0  0  0  0  0  0  0  0  0
   43.2372   18.3151   35.5893 C   0  0  0  0  0  0  0  0  0  0  0  0
   42.1924   18.2884   36.7388 C   0  0  0  0  0  0  0  0  0  0  0  0
   41.3349   16.9860   36.9226 C   0  0  0  0  0  0  0  0  0  0  0  0
   40.3080   17.0364   38.0270 N   0  0  0  0  0  0  0  0  0  0  0  0
   38.9082   17.2086   37.5408 C   0  0  0  0  0  0  0  0  0  0  0  0
   38.5610   18.6342   37.1519 C   0  0  0  0  0  0  0  0  0  0  0  0
   37.1599   18.7581   36.5813 C   0  0  0  0  0  0  0  0  0  0  0  0
   36.9356   20.1883   36.2704 C   0  0  0  0  0  0  0  0  0  0  0  0
   37.9028   20.7949   35.3245 N   0  0  0  0  0  0  0  0  0  0  0  0
   37.2806   21.7313   34.3551 C   0  0  0  0  0  0  0  0  0  0  0  0
   36.5580   21.0739   33.1417 C   0  0  0  0  0  0  0  0  0  0  0  0
   37.6017   20.2868   32.3299 C   0  0  0  0  0  0  0  0  0  0  0  0
   36.9973   19.7163   31.1288 N   0  0  0  0  0  0  0  0  0  0  0  0
  1  2  1  0  0  0  0
  2  3  1  0  0  0  0
  3  4  1  0  0  0  0
  4  5  1  0  0  0  0
  5  6  1  0  0  0  0
  6  7  1  0  0  0  0
  7  8  1  0  0  0  0
  8  9  1  0  0  0  0
  9 10  1  0  0  0  0
 10 11  1  0  0  0  0
 11 12  1  0  0  0  0
 12 13  1  0  0  0  0
 13 14  1  0  0  0  0
M  END
>  <CHROM.1>
-176.99634644,-178.14870643,104.36778432,-78.63852761,176.42590629,178.85870685
57.97400024,140.41076740,-79.24983986,-62.18038248,-176.40089855,39.21110009
19.18446646,35.48005514,-0.70423328,0.14197942,-1.07797403

>  <Name>
ligand

>  <RI>
0

>  <Rbt.Current_Directory>
/home/itssahil/PROJECTS/Mol_Feturizer/New_Systems/rnas/1EVV

>  <Rbt.Executable>
rbdock ($Id: //depot/dev/client3/rdock/2013.1/src/exe/rbdock.cxx#4 $)

>  <Rbt.Library>
libRbt.so (2013.1, Build901 2013/11/27)

>  <Rbt.Parameter_File>
/export/apps/rDock/src/rDock_2013.1_src/data/scripts/dock_solv.prm

>  <Rbt.Receptor>
prm/pocket_docking_3.prm

>  <SCORE>
-5.41594

>  <SCORE.INTER>
3.49134

>  <SCORE.INTER.CONST>
1

>  <SCORE.INTER.POLAR>
0

>  <SCORE.INTER.ROT>
11

>  <SCORE.INTER.SOLV>
6.59097

>  <SCORE.INTER.VDW>
-10.8028

>  <SCORE.INTER.norm>
0.249381

>  <SCORE.INTRA>
-8.90728

>  <SCORE.INTRA.DIHEDRAL>
-17.5878

>  <SCORE.INTRA.DIHEDRAL.0>
20.2131

>  <SCORE.INTRA.POLAR>
0

>  <SCORE.INTRA.POLAR.0>
0

>  <SCORE.INTRA.REPUL>
0

>  <SCORE.INTRA.REPUL.0>
0

>  <SCORE.INTRA.SOLV>
-0.655737

>  <SCORE.INTRA.SOLV.lig_0>
-48.2851

>  <SCORE.INTRA.VDW>
0.214486

>  <SCORE.INTRA.VDW.0>
-1.08658

>  <SCORE.INTRA.norm>
-0.636235

>  <SCORE.RESTR>
0

>  <SCORE.RESTR.CAVITY>
0

>  <SCORE.RESTR.norm>
0

>  <SCORE.SYSTEM>
0

>  <SCORE.SYSTEM.CONST>
0

>  <SCORE.SYSTEM.DIHEDRAL>
0

>  <SCORE.SYSTEM.SOLV>
0

>  <SCORE.SYSTEM.norm>
0

>  <SCORE.heavy>
14

>  <SCORE.norm>
-0.386853

>  <RMSD>
5.082

$$$$
ligand
 OpenBabel11021811393D
libRbt.so/2013.1/901 2013/11/27
 14 13  0  0  0  0  0  0  0  0999 V2000
   42.7278   25.6677   40.0349 N   0  0  0  0  0  0  0  0  0  0  0  0
   41.5180   25.0226   39.5488 C   0  0  0  0  0  0  0  0  0  0  0  0
   41.4431   25.1209   38.0001 C   0  0  0  0  0  0  0  0  0  0  0  0
   40.1625   24.5557   37.2888 C   0  0  0  0  0  0  0  0  0  0  0  0
   39.9340   23.0727   37.4474 N   0  0  0  0  0  0  0  0  0  0  0  0
   38.8069   22.5453   36.6247 C   0  0  0  0  0  0  0  0  0  0  0  0
   38.5208   21.0706   36.8429 C   0  0  0  0  0  0  0  0  0  0  0  0
   37.3173   20.5871   36.0543 C   0  0  0  0  0  0  0  0  0  0  0  0
   36.9919   19.2258   36.5373 C   0  0  0  0  0  0  0  0  0  0  0  0
   38.0049   18.1845   36.2407 N   0  0  0  0  0  0  0  0  0  0  0  0
   37.5659   16.8100   36.5896 C   0  0  0  0  0  0  0  0  0  0  0  0
   38.6737   15.7151   36.5660 C   0  0  0  0  0  0  0  0  0  0  0  0
   38.0394   14.3807   36.9962 C   0  0  0  0  0  0  0  0  0  0  0  0
   39.0430   13.3200   37.0298 N   0  0  0  0  0  0  0  0  0  0  0  0
  1  2  1  0  0  0  0
  2  3  1  0  0  0  0
  3  4  1  0  0  0  0
  4  5  1  0  0  0  0
  5  6  1  0  0  0  0
  6  7  1  0  0  0  0
  7  8  1  0  0  0  0
  8  9  1  0  0  0  0
  9 10  1  0  0  0  0
 10 11  1  0  0  0  0
 11 12  1  0  0  0  0
 12 13  1  0  0  0  0
 13 14  1  0  0  0  0
M  END
>  <CHROM.1>
-176.43357826,-63.11395425,-172.93740090,-176.57161504,176.55809978,-169.68587809
-66.60781813,-172.78460592,-168.44554987,178.17207408,-178.38186272,39.19607832
20.37719056,37.27137847,-1.18889690,0.62325574,3.10646567

>  <Name>
ligand

>  <RI>
0

>  <Rbt.Current_Directory>
/home/itssahil/PROJECTS/Mol_Feturizer/New_Systems/rnas/1EVV

>  <Rbt.Executable>
rbdock ($Id: //depot/dev/client3/rdock/2013.1/src/exe/rbdock.cxx#4 $)

>  <Rbt.Library>
libRbt.so (2013.1, Build901 2013/11/27)

>  <Rbt.Parameter_File>
/export/apps/rDock/src/rDock_2013.1_src/data/scripts/dock_solv.prm

>  <Rbt.Receptor>
prm/pocket_docking_7.prm

>  <SCORE>
-7.93994

>  <SCORE.INTER>
2.20152

>  <SCORE.INTER.CONST>
1

>  <SCORE.INTER.POLAR>
0

>  <SCORE.INTER.ROT>
11

>  <SCORE.INTER.SOLV>
4.21165

>  <SCORE.INTER.VDW>
-10.8695

>  <SCORE.INTER.norm>
0.157252

>  <SCORE.INTRA>
-10.1415

>  <SCORE.INTRA.DIHEDRAL>
-19.2633

>  <SCORE.INTRA.DIHEDRAL.0>
20.2131

>  <SCORE.INTRA.POLAR>
0

>  <SCORE.INTRA.POLAR.0>
0

>  <SCORE.INTRA.REPUL>
0

>  <SCORE.INTRA.REPUL.0>
0

>  <SCORE.INTRA.SOLV>
-0.745839

>  <SCORE.INTRA.SOLV.lig_0>
-48.2851

>  <SCORE.INTRA.VDW>
-0.136904

>  <SCORE.INTRA.VDW.0>
-1.08658

>  <SCORE.INTRA.norm>
-0.72439

>  <SCORE.RESTR>
0

>  <SCORE.RESTR.CAVITY>
0

>  <SCORE.RESTR.norm>
0

>  <SCORE.SYSTEM>
0

>  <SCORE.SYSTEM.CONST>
0

>  <SCORE.SYSTEM.DIHEDRAL>
0

>  <SCORE.SYSTEM.SOLV>
0

>  <SCORE.SYSTEM.norm>
0

>  <SCORE.heavy>
14

>  <SCORE.norm>
-0.567138

>  <RMSD>
5.117

$$$$
ligand
 OpenBabel11021811393D
libRbt.so/2013.1/901 2013/11/27
 14 13  0  0  0  0  0  0  0  0999 V2000
   38.9295   14.4289   38.8681 N   0  0  0  0  0  0  0  0  0  0  0  0
   38.8573   15.6197   38.0356 C   0  0  0  0  0  0  0  0  0  0  0  0
   37.4370   15.7595   37.4217 C   0  0  0  0  0  0  0  0  0  0  0  0
   37.1803   16.9460   36.4258 C   0  0  0  0  0  0  0  0  0  0  0  0
   37.4971   18.3210   36.9600 N   0  0  0  0  0  0  0  0  0  0  0  0
   37.3500   19.4087   35.9497 C   0  0  0  0  0  0  0  0  0  0  0  0
   37.6071   20.8002   36.4990 C   0  0  0  0  0  0  0  0  0  0  0  0
   39.0550   21.0088   36.9043 C   0  0  0  0  0  0  0  0  0  0  0  0
   39.1598   22.3687   37.4803 C   0  0  0  0  0  0  0  0  0  0  0  0
   40.5222   22.7837   37.8926 N   0  0  0  0  0  0  0  0  0  0  0  0
   40.5596   24.0908   38.5954 C   0  0  0  0  0  0  0  0  0  0  0  0
   41.9279   24.4851   39.2269 C   0  0  0  0  0  0  0  0  0  0  0  0
   41.7520   25.8304   39.9531 C   0  0  0  0  0  0  0  0  0  0  0  0
   43.0223   26.2835   40.5138 N   0  0  0  0  0  0  0  0  0  0  0  0
  1  2  1  0  0  0  0
  2  3  1  0  0  0  0
  3  4  1  0  0  0  0
  4  5  1  0  0  0  0
  5  6  1  0  0  0  0
  6  7  1  0  0  0  0
  7  8  1  0  0  0  0
  8  9  1  0  0  0  0
  9 10  1  0  0  0  0
 10 11  1  0  0  0  0
 11 12  1  0  0  0  0
 12 13  1  0  0  0  0
 13 14  1  0  0  0  0
M  END
>  <CHROM.1>
-176.76119653,-55.58050225,175.13009986,177.39206242,66.90549092,-177.28075170
-177.74362144,-173.81509479,171.75590278,-177.69178172,-177.33142404,39.34666535
20.58112360,37.90874787,-2.15008595,-0.77545864,-0.20242693

>  <Name>
ligand

>  <RI>
0

>  <Rbt.Current_Directory>
/home/itssahil/PROJECTS/Mol_Feturizer/New_Systems/rnas/1EVV

>  <Rbt.Executable>
rbdock ($Id: //depot/dev/client3/rdock/2013.1/src/exe/rbdock.cxx#4 $)

>  <Rbt.Library>
libRbt.so (2013.1, Build901 2013/11/27)

>  <Rbt.Parameter_File>
/export/apps/rDock/src/rDock_2013.1_src/data/scripts/dock_solv.prm

>  <Rbt.Receptor>
prm/pocket_docking_6.prm

>  <SCORE>
-10.2936

>  <SCORE.INTER>
0.182625

>  <SCORE.INTER.CONST>
1

>  <SCORE.INTER.POLAR>
0

>  <SCORE.INTER.ROT>
11

>  <SCORE.INTER.SOLV>
8.48579

>  <SCORE.INTER.VDW>
-13.6402

>  <SCORE.INTER.norm>
0.0130447

>  <SCORE.INTRA>
-10.4763

>  <SCORE.INTRA.DIHEDRAL>
-19.7131

>  <SCORE.INTRA.DIHEDRAL.0>
20.2131

>  <SCORE.INTRA.POLAR>
0

>  <SCORE.INTRA.POLAR.0>
0

>  <SCORE.INTRA.REPUL>
0

>  <SCORE.INTRA.REPUL.0>
0

>  <SCORE.INTRA.SOLV>
-0.725028

>  <SCORE.INTRA.SOLV.lig_0>
-48.2851

>  <SCORE.INTRA.VDW>
-0.257218

>  <SCORE.INTRA.VDW.0>
-1.08658

>  <SCORE.INTRA.norm>
-0.748305

>  <SCORE.RESTR>
0

>  <SCORE.RESTR.CAVITY>
0

>  <SCORE.RESTR.norm>
0

>  <SCORE.SYSTEM>
0

>  <SCORE.SYSTEM.CONST>
0

>  <SCORE.SYSTEM.DIHEDRAL>
0

>  <SCORE.SYSTEM.SOLV>
0

>  <SCORE.SYSTEM.norm>
0

>  <SCORE.heavy>
14

>  <SCORE.norm>
-0.735261

>  <RMSD>
5.130

$$$$
ligand
 OpenBabel11021811393D
libRbt.so/2013.1/901 2013/11/27
 14 13  0  0  0  0  0  0  0  0999 V2000
   42.5840   25.0834   38.3537 N   0  0  0  0  0  0  0  0  0  0  0  0
   41.4512   24.4550   39.0155 C   0  0  0  0  0  0  0  0  0  0  0  0
   40.4429   23.9209   37.9611 C   0  0  0  0  0  0  0  0  0  0  0  0
   39.1458   23.2050   38.4811 C   0  0  0  0  0  0  0  0  0  0  0  0
   38.1919   22.7342   37.4110 N   0  0  0  0  0  0  0  0  0  0  0  0
   38.5098   21.3791   36.8742 C   0  0  0  0  0  0  0  0  0  0  0  0
   37.4753   20.8423   35.9018 C   0  0  0  0  0  0  0  0  0  0  0  0
   37.8444   19.4759   35.3532 C   0  0  0  0  0  0  0  0  0  0  0  0
   37.5347   18.4805   36.4046 C   0  0  0  0  0  0  0  0  0  0  0  0
   37.7181   17.0620   36.0141 N   0  0  0  0  0  0  0  0  0  0  0  0
   37.3353   16.0976   37.0757 C   0  0  0  0  0  0  0  0  0  0  0  0
   37.6778   14.6042   36.7945 C   0  0  0  0  0  0  0  0  0  0  0  0
   39.2034   14.4833   36.6335 C   0  0  0  0  0  0  0  0  0  0  0  0
   39.6423   15.1138   35.3912 N   0  0  0  0  0  0  0  0  0  0  0  0
  1  2  1  0  0  0  0
  2  3  1  0  0  0  0
  3  4  1  0  0  0  0
  4  5  1  0  0  0  0
  5  6  1  0  0  0  0
  6  7  1  0  0  0  0
  7  8  1  0  0  0  0
  8  9  1  0  0  0  0
  9 10  1  0  0  0  0
 10 11  1  0  0  0  0
 11 12  1  0  0  0  0
 12 13  1  0  0  0  0
 13 14  1  0  0  0  0
M  END
>  <CHROM.1>
179.99977622,178.76935651,86.21062356,174.09816749,178.78071317,77.62505184
174.91528539,-177.26065626,-172.38008829,60.88229187,-69.97620789,38.91094699
19.78115124,36.97615393,-1.28470361,0.34877924,-3.01975555

>  <Name>
ligand

>  <RI>
0

>  <Rbt.Current_Directory>
/home/itssahil/PROJECTS/Mol_Feturizer/New_Systems/rnas/1EVV

>  <Rbt.Executable>
rbdock ($Id: //depot/dev/client3/rdock/2013.1/src/exe/rbdock.cxx#4 $)

>  <Rbt.Library>
libRbt.so (2013.1, Build901 2013/11/27)

>  <Rbt.Parameter_File>
/export/apps/rDock/src/rDock_2013.1_src/data/scripts/dock_solv.prm

>  <Rbt.Receptor>
prm/pocket_docking_6.prm

>  <SCORE>
-6.73855

>  <SCORE.INTER>
0.804388

>  <SCORE.INTER.CONST>
1

>  <SCORE.INTER.POLAR>
0

>  <SCORE.INTER.ROT>
11

>  <SCORE.INTER.SOLV>
5.1932

>  <SCORE.INTER.VDW>
-12.1281

>  <SCORE.INTER.norm>
0.0574563

>  <SCORE.INTRA>
-7.54294

>  <SCORE.INTRA.DIHEDRAL>
-17.957

>  <SCORE.INTRA.DIHEDRAL.0>
20.2131

>  <SCORE.INTRA.POLAR>
0

>  <SCORE.INTRA.POLAR.0>
0

>  <SCORE.INTRA.REPUL>
0

>  <SCORE.INTRA.REPUL.0>
0

>  <SCORE.INTRA.SOLV>
1.8077

>  <SCORE.INTRA.SOLV.lig_0>
-48.2851

>  <SCORE.INTRA.VDW>
0.531702

>  <SCORE.INTRA.VDW.0>
-1.08658

>  <SCORE.INTRA.norm>
-0.538781

>  <SCORE.RESTR>
0

>  <SCORE.RESTR.CAVITY>
0

>  <SCORE.RESTR.norm>
0

>  <SCORE.SYSTEM>
0

>  <SCORE.SYSTEM.CONST>
0

>  <SCORE.SYSTEM.DIHEDRAL>
0

>  <SCORE.SYSTEM.SOLV>
0

>  <SCORE.SYSTEM.norm>
0

>  <SCORE.heavy>
14

>  <SCORE.norm>
-0.481325

>  <RMSD>
5.131

$$$$
ligand
 OpenBabel11021811393D
libRbt.so/2013.1/901 2013/11/27
 14 13  0  0  0  0  0  0  0  0999 V2000
   39.2787   14.0597   37.6476 N   0  0  0  0  0  0  0  0  0  0  0  0
   38.5342   13.9987   36.3994 C   0  0  0  0  0  0  0  0  0  0  0  0
   38.1367   15.4291   35.9416 C   0  0  0  0  0  0  0  0  0  0  0  0
   37.1838   16.2605   36.8723 C   0  0  0  0  0  0  0  0  0  0  0  0
   36.8699   17.6576   36.3966 N   0  0  0  0  0  0  0  0  0  0  0  0
   38.0316   18.5913   36.4612 C   0  0  0  0  0  0  0  0  0  0  0  0
   37.6421   20.0534   36.5830 C   0  0  0  0  0  0  0  0  0  0  0  0
   38.8468   20.9757   36.6305 C   0  0  0  0  0  0  0  0  0  0  0  0
   38.3507   22.3322   36.9565 C   0  0  0  0  0  0  0  0  0  0  0  0
   39.3681   23.4100   36.9180 N   0  0  0  0  0  0  0  0  0  0  0  0
   39.9777   23.7011   38.2398 C   0  0  0  0  0  0  0  0  0  0  0  0
   41.0718   24.8099   38.2554 C   0  0  0  0  0  0  0  0  0  0  0  0
   41.5932   24.9500   39.6964 C   0  0  0  0  0  0  0  0  0  0  0  0
   42.6270   25.9790   39.7728 N   0  0  0  0  0  0  0  0  0  0  0  0
  1  2  1  0  0  0  0
  2  3  1  0  0  0  0
  3  4  1  0  0  0  0
  4  5  1  0  0  0  0
  5  6  1  0  0  0  0
  6  7  1  0  0  0  0
  7  8  1  0  0  0  0
  8  9  1  0  0  0  0
  9 10  1  0  0  0  0
 10 11  1  0  0  0  0
 11 12  1  0  0  0  0
 12 13  1  0  0  0  0
 13 14  1  0  0  0  0
M  END
>  <CHROM.1>
-62.59154287,178.09305187,-69.51519093,-154.71598047,-179.36009263,-171.47393476
-174.22612962,-94.53889816,179.02217254,-179.14577453,179.94257264,39.10783604
20.15768391,37.34064823,-1.94074407,-0.60429647,0.00434362

>  <Name>
ligand

>  <RI>
0

>  <Rbt.Current_Directory>
/home/itssahil/PROJECTS/Mol_Feturizer/New_Systems/rnas/1EVV

>  <Rbt.Executable>
rbdock ($Id: //depot/dev/client3/rdock/2013.1/src/exe/rbdock.cxx#4 $)

>  <Rbt.Library>
libRbt.so (2013.1, Build901 2013/11/27)

>  <Rbt.Parameter_File>
/export/apps/rDock/src/rDock_2013.1_src/data/scripts/dock_solv.prm

>  <Rbt.Receptor>
prm/pocket_docking_6.prm

>  <SCORE>
-7.90115

>  <SCORE.INTER>
1.51363

>  <SCORE.INTER.CONST>
1

>  <SCORE.INTER.POLAR>
0

>  <SCORE.INTER.ROT>
11

>  <SCORE.INTER.SOLV>
5.16074

>  <SCORE.INTER.VDW>
-11.6445

>  <SCORE.INTER.norm>
0.108116

>  <SCORE.INTRA>
-9.41477

>  <SCORE.INTRA.DIHEDRAL>
-18.4763

>  <SCORE.INTRA.DIHEDRAL.0>
20.2131

>  <SCORE.INTRA.POLAR>
0

>  <SCORE.INTRA.POLAR.0>
0

>  <SCORE.INTRA.REPUL>
0

>  <SCORE.INTRA.REPUL.0>
0

>  <SCORE.INTRA.SOLV>
-0.764554

>  <SCORE.INTRA.SOLV.lig_0>
-48.2851

>  <SCORE.INTRA.VDW>
0.205662

>  <SCORE.INTRA.VDW.0>
-1.08658

>  <SCORE.INTRA.norm>
-0.672484

>  <SCORE.RESTR>
0

>  <SCORE.RESTR.CAVITY>
0

>  <SCORE.RESTR.norm>
0

>  <SCORE.SYSTEM>
0

>  <SCORE.SYSTEM.CONST>
0

>  <SCORE.SYSTEM.DIHEDRAL>
0

>  <SCORE.SYSTEM.SOLV>
0

>  <SCORE.SYSTEM.norm>
0

>  <SCORE.heavy>
14

>  <SCORE.norm>
-0.564368

>  <RMSD>
5.144

$$$$
ligand
 OpenBabel11021811393D
libRbt.so/2013.1/901 2013/11/27
 14 13  0  0  0  0  0  0  0  0999 V2000
   39.9596   15.7740   33.4860 N   0  0  0  0  0  0  0  0  0  0  0  0
   40.5113   14.8982   34.5080 C   0  0  0  0  0  0  0  0  0  0  0  0
   39.9586   15.2908   35.9059 C   0  0  0  0  0  0  0  0  0  0  0  0
   38.4039   15.2452   36.1210 C   0  0  0  0  0  0  0  0  0  0  0  0
   37.9149   15.7997   37.4363 N   0  0  0  0  0  0  0  0  0  0  0  0
   38.3795   17.1898   37.7143 C   0  0  0  0  0  0  0  0  0  0  0  0
   37.7345   18.2439   36.8328 C   0  0  0  0  0  0  0  0  0  0  0  0
   38.4682   19.5719   36.8800 C   0  0  0  0  0  0  0  0  0  0  0  0
   37.6274   20.5652   36.1738 C   0  0  0  0  0  0  0  0  0  0  0  0
   38.2010   21.9285   36.0706 N   0  0  0  0  0  0  0  0  0  0  0  0
   38.4095   22.5881   37.3840 C   0  0  0  0  0  0  0  0  0  0  0  0
   39.2850   23.8765   37.3674 C   0  0  0  0  0  0  0  0  0  0  0  0
   38.5461   24.9487   36.5473 C   0  0  0  0  0  0  0  0  0  0  0  0
   39.3403   26.1716   36.4634 N   0  0  0  0  0  0  0  0  0  0  0  0
  1  2  1  0  0  0  0
  2  3  1  0  0  0  0
  3  4  1  0  0  0  0
  4  5  1  0  0  0  0
  5  6  1  0  0  0  0
  6  7  1  0  0  0  0
  7  8  1  0  0  0  0
  8  9  1  0  0  0  0
  9 10  1  0  0  0  0
 10 11  1  0  0  0  0
 11 12  1  0  0  0  0
 12 13  1  0  0  0  0
 13 14  1  0  0  0  0
M  END
>  <CHROM.1>
59.29672076,-172.65037569,54.18265986,70.60437870,-165.15791669,-170.67179438
-177.93712831,-62.92549009,167.17405395,64.66044998,-178.33117971,38.76709693
19.43494251,36.34953208,-1.47916657,0.94508760,0.04975530

>  <Name>
ligand

>  <RI>
0

>  <Rbt.Current_Directory>
/home/itssahil/PROJECTS/Mol_Feturizer/New_Systems/rnas/1EVV

>  <Rbt.Executable>
rbdock ($Id: //depot/dev/client3/rdock/2013.1/src/exe/rbdock.cxx#4 $)

>  <Rbt.Library>
libRbt.so (2013.1, Build901 2013/11/27)

>  <Rbt.Parameter_File>
/export/apps/rDock/src/rDock_2013.1_src/data/scripts/dock_solv.prm

>  <Rbt.Receptor>
prm/pocket_docking_5.prm

>  <SCORE>
-5.68894

>  <SCORE.INTER>
2.33463

>  <SCORE.INTER.CONST>
1

>  <SCORE.INTER.POLAR>
0

>  <SCORE.INTER.ROT>
11

>  <SCORE.INTER.SOLV>
6.52237

>  <SCORE.INTER.VDW>
-11.551

>  <SCORE.INTER.norm>
0.16676

>  <SCORE.INTRA>
-8.02536

>  <SCORE.INTRA.DIHEDRAL>
-18.4959

>  <SCORE.INTRA.DIHEDRAL.0>
20.2131

>  <SCORE.INTRA.POLAR>
0

>  <SCORE.INTRA.POLAR.0>
0

>  <SCORE.INTRA.REPUL>
0

>  <SCORE.INTRA.REPUL.0>
0

>  <SCORE.INTRA.SOLV>
-0.412403

>  <SCORE.INTRA.SOLV.lig_0>
-48.2851

>  <SCORE.INTRA.VDW>
1.42876

>  <SCORE.INTRA.VDW.0>
-1.08658

>  <SCORE.INTRA.norm>
-0.57324

>  <SCORE.RESTR>
0.00179065

>  <SCORE.RESTR.CAVITY>
0.00179065

>  <SCORE.RESTR.norm>
0.000127904

>  <SCORE.SYSTEM>
0

>  <SCORE.SYSTEM.CONST>
0

>  <SCORE.SYSTEM.DIHEDRAL>
0

>  <SCORE.SYSTEM.SOLV>
0

>  <SCORE.SYSTEM.norm>
0

>  <SCORE.heavy>
14

>  <SCORE.norm>
-0.406353

>  <RMSD>
5.149

$$$$
ligand
 OpenBabel11021811393D
libRbt.so/2013.1/901 2013/11/27
 14 13  0  0  0  0  0  0  0  0999 V2000
   43.7266   19.4990   35.0840 N   0  0  0  0  0  0  0  0  0  0  0  0
   42.4306   18.8795   35.3137 C   0  0  0  0  0  0  0  0  0  0  0  0
   42.1735   17.7675   34.2596 C   0  0  0  0  0  0  0  0  0  0  0  0
   40.7552   17.0943   34.2322 C   0  0  0  0  0  0  0  0  0  0  0  0
   40.3741   16.3344   35.4787 N   0  0  0  0  0  0  0  0  0  0  0  0
   39.0322   15.6870   35.4031 C   0  0  0  0  0  0  0  0  0  0  0  0
   37.8714   16.6552   35.5418 C   0  0  0  0  0  0  0  0  0  0  0  0
   37.8055   17.2934   36.9175 C   0  0  0  0  0  0  0  0  0  0  0  0
   37.3050   18.6754   36.7387 C   0  0  0  0  0  0  0  0  0  0  0  0
   38.1818   19.5746   35.9508 N   0  0  0  0  0  0  0  0  0  0  0  0
   37.4618   20.7148   35.3300 C   0  0  0  0  0  0  0  0  0  0  0  0
   37.9182   21.1068   33.8931 C   0  0  0  0  0  0  0  0  0  0  0  0
   39.4371   21.3524   33.9217 C   0  0  0  0  0  0  0  0  0  0  0  0
   39.9194   21.7532   32.6026 N   0  0  0  0  0  0  0  0  0  0  0  0
  1  2  1  0  0  0  0
  2  3  1  0  0  0  0
  3  4  1  0  0  0  0
  4  5  1  0  0  0  0
  5  6  1  0  0  0  0
  6  7  1  0  0  0  0
  7  8  1  0  0  0  0
  8  9  1  0  0  0  0
  9 10  1  0  0  0  0
 10 11  1  0  0  0  0
 11 12  1  0  0  0  0
 12 13  1  0  0  0  0
 13 14  1  0  0  0  0
M  END
>  <CHROM.1>
-172.89371374,-63.23493094,-178.83565643,-74.96550720,-65.81809102,145.73635564
-63.81271001,156.57108371,-141.05027792,-54.16602075,-178.77299523,39.59907587
18.74173326,35.04778974,-0.91240348,-0.23785876,2.77545513

>  <Name>
ligand

>  <RI>
0

>  <Rbt.Current_Directory>
/home/itssahil/PROJECTS/Mol_Feturizer/New_Systems/rnas/1EVV

>  <Rbt.Executable>
rbdock ($Id: //depot/dev/client3/rdock/2013.1/src/exe/rbdock.cxx#4 $)

>  <Rbt.Library>
libRbt.so (2013.1, Build901 2013/11/27)

>  <Rbt.Parameter_File>
/export/apps/rDock/src/rDock_2013.1_src/data/scripts/dock_solv.prm

>  <Rbt.Receptor>
prm/pocket_docking_4.prm

>  <SCORE>
-2.05546

>  <SCORE.INTER>
5.41633

>  <SCORE.INTER.CONST>
1

>  <SCORE.INTER.POLAR>
0

>  <SCORE.INTER.ROT>
11

>  <SCORE.INTER.SOLV>
2.44568

>  <SCORE.INTER.VDW>
-8.13767

>  <SCORE.INTER.norm>
0.386881

>  <SCORE.INTRA>
-7.47179

>  <SCORE.INTRA.DIHEDRAL>
-14.4873

>  <SCORE.INTRA.DIHEDRAL.0>
20.2131

>  <SCORE.INTRA.POLAR>
0

>  <SCORE.INTRA.POLAR.0>
0

>  <SCORE.INTRA.REPUL>
0

>  <SCORE.INTRA.REPUL.0>
0

>  <SCORE.INTRA.SOLV>
0.968628

>  <SCORE.INTRA.SOLV.lig_0>
-48.2851

>  <SCORE.INTRA.VDW>
-0.712465

>  <SCORE.INTRA.VDW.0>
-1.08658

>  <SCORE.INTRA.norm>
-0.533699

>  <SCORE.RESTR>
0

>  <SCORE.RESTR.CAVITY>
0

>  <SCORE.RESTR.norm>
0

>  <SCORE.SYSTEM>
0

>  <SCORE.SYSTEM.CONST>
0

>  <SCORE.SYSTEM.DIHEDRAL>
0

>  <SCORE.SYSTEM.SOLV>
0

>  <SCORE.SYSTEM.norm>
0

>  <SCORE.heavy>
14

>  <SCORE.norm>
-0.146818

>  <RMSD>
5.162

$$$$
ligand
 OpenBabel11021811393D
libRbt.so/2013.1/901 2013/11/27
 14 13  0  0  0  0  0  0  0  0999 V2000
   41.4006   17.6367   34.0896 N   0  0  0  0  0  0  0  0  0  0  0  0
   42.4112   17.3641   35.0999 C   0  0  0  0  0  0  0  0  0  0  0  0
   41.7369   17.0886   36.4721 C   0  0  0  0  0  0  0  0  0  0  0  0
   40.8948   18.2433   37.1224 C   0  0  0  0  0  0  0  0  0  0  0  0
   41.6612   19.5027   37.4437 N   0  0  0  0  0  0  0  0  0  0  0  0
   40.7953   20.6487   37.8470 C   0  0  0  0  0  0  0  0  0  0  0  0
   40.0861   21.3242   36.6873 C   0  0  0  0  0  0  0  0  0  0  0  0
   39.1038   22.3874   37.1442 C   0  0  0  0  0  0  0  0  0  0  0  0
   38.3986   22.8825   35.9401 C   0  0  0  0  0  0  0  0  0  0  0  0
   37.6507   21.8580   35.1724 N   0  0  0  0  0  0  0  0  0  0  0  0
   37.2920   22.2881   33.7976 C   0  0  0  0  0  0  0  0  0  0  0  0
   36.6672   21.1927   32.8830 C   0  0  0  0  0  0  0  0  0  0  0  0
   36.5376   21.7697   31.4623 C   0  0  0  0  0  0  0  0  0  0  0  0
   35.9755   20.7758   30.5515 N   0  0  0  0  0  0  0  0  0  0  0  0
  1  2  1  0  0  0  0
  2  3  1  0  0  0  0
  3  4  1  0  0  0  0
  4  5  1  0  0  0  0
  5  6  1  0  0  0  0
  6  7  1  0  0  0  0
  7  8  1  0  0  0  0
  8  9  1  0  0  0  0
  9 10  1  0  0  0  0
 10 11  1  0  0  0  0
 11 12  1  0  0  0  0
 12 13  1  0  0  0  0
 13 14  1  0  0  0  0
M  END
>  <CHROM.1>
-62.39117518,-61.43453569,170.44781168,-76.66661324,173.95754830,-175.15837342
59.18169951,-163.41510175,172.50255899,-172.68182985,179.06294044,39.32944709
20.35462942,35.12270877,-0.16266918,0.80508368,-2.25539740

>  <Name>
ligand

>  <RI>
0

>  <Rbt.Current_Directory>
/home/itssahil/PROJECTS/Mol_Feturizer/New_Systems/rnas/1EVV

>  <Rbt.Executable>
rbdock ($Id: //depot/dev/client3/rdock/2013.1/src/exe/rbdock.cxx#4 $)

>  <Rbt.Library>
libRbt.so (2013.1, Build901 2013/11/27)

>  <Rbt.Parameter_File>
/export/apps/rDock/src/rDock_2013.1_src/data/scripts/dock_solv.prm

>  <Rbt.Receptor>
prm/pocket_docking_4.prm

>  <SCORE>
-2.56897

>  <SCORE.INTER>
6.64669

>  <SCORE.INTER.CONST>
1

>  <SCORE.INTER.POLAR>
0

>  <SCORE.INTER.ROT>
11

>  <SCORE.INTER.SOLV>
6.68641

>  <SCORE.INTER.VDW>
-8.73101

>  <SCORE.INTER.norm>
0.474763

>  <SCORE.INTRA>
-9.21565

>  <SCORE.INTRA.DIHEDRAL>
-19.1971

>  <SCORE.INTRA.DIHEDRAL.0>
20.2131

>  <SCORE.INTRA.POLAR>
0

>  <SCORE.INTRA.POLAR.0>
0

>  <SCORE.INTRA.REPUL>
0

>  <SCORE.INTRA.REPUL.0>
0

>  <SCORE.INTRA.SOLV>
0.583805

>  <SCORE.INTRA.SOLV.lig_0>
-48.2851

>  <SCORE.INTRA.VDW>
0.0910112

>  <SCORE.INTRA.VDW.0>
-1.08658

>  <SCORE.INTRA.norm>
-0.658261

>  <SCORE.RESTR>
0

>  <SCORE.RESTR.CAVITY>
0

>  <SCORE.RESTR.norm>
0

>  <SCORE.SYSTEM>
0

>  <SCORE.SYSTEM.CONST>
0

>  <SCORE.SYSTEM.DIHEDRAL>
0

>  <SCORE.SYSTEM.SOLV>
0

>  <SCORE.SYSTEM.norm>
0

>  <SCORE.heavy>
14

>  <SCORE.norm>
-0.183498

>  <RMSD>
5.193

$$$$
ligand
 OpenBabel11021811393D
libRbt.so/2013.1/901 2013/11/27
 14 13  0  0  0  0  0  0  0  0999 V2000
   42.4786   25.9052   39.2903 N   0  0  0  0  0  0  0  0  0  0  0  0
   41.4514   24.8942   39.4874 C   0  0  0  0  0  0  0  0  0  0  0  0
   40.9837   24.3307   38.1172 C   0  0  0  0  0  0  0  0  0  0  0  0
   39.8152   23.2820   38.1138 C   0  0  0  0  0  0  0  0  0  0  0  0
   39.3814   22.7990   36.7518 N   0  0  0  0  0  0  0  0  0  0  0  0
   38.2913   21.7814   36.7923 C   0  0  0  0  0  0  0  0  0  0  0  0
   38.7863   20.3464   36.7915 C   0  0  0  0  0  0  0  0  0  0  0  0
   37.6553   19.3395   36.6852 C   0  0  0  0  0  0  0  0  0  0  0  0
   38.2408   17.9956   36.8938 C   0  0  0  0  0  0  0  0  0  0  0  0
   37.3085   16.8578   36.7080 N   0  0  0  0  0  0  0  0  0  0  0  0
   37.6061   15.6952   37.5818 C   0  0  0  0  0  0  0  0  0  0  0  0
   38.9954   15.0229   37.3706 C   0  0  0  0  0  0  0  0  0  0  0  0
   39.0066   14.3706   35.9769 C   0  0  0  0  0  0  0  0  0  0  0  0
   38.1594   13.1809   35.9578 N   0  0  0  0  0  0  0  0  0  0  0  0
  1  2  1  0  0  0  0
  2  3  1  0  0  0  0
  3  4  1  0  0  0  0
  4  5  1  0  0  0  0
  5  6  1  0  0  0  0
  6  7  1  0  0  0  0
  7  8  1  0  0  0  0
  8  9  1  0  0  0  0
  9 10  1  0  0  0  0
 10 11  1  0  0  0  0
 11 12  1  0  0  0  0
 12 13  1  0  0  0  0
 13 14  1  0  0  0  0
M  END
>  <CHROM.1>
-176.56688889,178.46017915,178.67829078,-93.09165194,-173.94391677,-171.86520256
-174.79500690,-147.89319405,-61.91259772,-66.84236303,-72.03694191,39.15421042
19.70010692,37.32279317,-1.24960675,0.51544930,-3.10599654

>  <Name>
ligand

>  <RI>
0

>  <Rbt.Current_Directory>
/home/itssahil/PROJECTS/Mol_Feturizer/New_Systems/rnas/1EVV

>  <Rbt.Executable>
rbdock ($Id: //depot/dev/client3/rdock/2013.1/src/exe/rbdock.cxx#4 $)

>  <Rbt.Library>
libRbt.so (2013.1, Build901 2013/11/27)

>  <Rbt.Parameter_File>
/export/apps/rDock/src/rDock_2013.1_src/data/scripts/dock_solv.prm

>  <Rbt.Receptor>
prm/pocket_docking_7.prm

>  <SCORE>
-6.86479

>  <SCORE.INTER>
1.41183

>  <SCORE.INTER.CONST>
1

>  <SCORE.INTER.POLAR>
0

>  <SCORE.INTER.ROT>
11

>  <SCORE.INTER.SOLV>
5.20491

>  <SCORE.INTER.VDW>
-11.7271

>  <SCORE.INTER.norm>
0.100845

>  <SCORE.INTRA>
-8.27662

>  <SCORE.INTRA.DIHEDRAL>
-17.5741

>  <SCORE.INTRA.DIHEDRAL.0>
20.2131

>  <SCORE.INTRA.POLAR>
0

>  <SCORE.INTRA.POLAR.0>
0

>  <SCORE.INTRA.REPUL>
0

>  <SCORE.INTRA.REPUL.0>
0

>  <SCORE.INTRA.SOLV>
0.109104

>  <SCORE.INTRA.SOLV.lig_0>
-48.2851

>  <SCORE.INTRA.VDW>
0.455895

>  <SCORE.INTRA.VDW.0>
-1.08658

>  <SCORE.INTRA.norm>
-0.591187

>  <SCORE.RESTR>
0

>  <SCORE.RESTR.CAVITY>
0

>  <SCORE.RESTR.norm>
0

>  <SCORE.SYSTEM>
0

>  <SCORE.SYSTEM.CONST>
0

>  <SCORE.SYSTEM.DIHEDRAL>
0

>  <SCORE.SYSTEM.SOLV>
0

>  <SCORE.SYSTEM.norm>
0

>  <SCORE.heavy>
14

>  <SCORE.norm>
-0.490342

>  <RMSD>
5.210

$$$$
ligand
 OpenBabel11021811393D
libRbt.so/2013.1/901 2013/11/27
 14 13  0  0  0  0  0  0  0  0999 V2000
   41.0788   25.9436   37.8733 N   0  0  0  0  0  0  0  0  0  0  0  0
   40.4848   24.7731   37.2461 C   0  0  0  0  0  0  0  0  0  0  0  0
   40.2175   23.6725   38.3096 C   0  0  0  0  0  0  0  0  0  0  0  0
   39.6157   22.3076   37.8195 C   0  0  0  0  0  0  0  0  0  0  0  0
   38.2473   22.3913   37.1893 N   0  0  0  0  0  0  0  0  0  0  0  0
   38.0946   21.5507   35.9664 C   0  0  0  0  0  0  0  0  0  0  0  0
   37.5481   20.1607   36.2373 C   0  0  0  0  0  0  0  0  0  0  0  0
   38.5746   19.2456   36.8799 C   0  0  0  0  0  0  0  0  0  0  0  0
   37.9198   17.9364   37.1024 C   0  0  0  0  0  0  0  0  0  0  0  0
   37.4786   17.2273   35.8774 N   0  0  0  0  0  0  0  0  0  0  0  0
   36.7755   15.9486   36.1499 C   0  0  0  0  0  0  0  0  0  0  0  0
   37.6693   14.7720   36.6431 C   0  0  0  0  0  0  0  0  0  0  0  0
   38.6908   14.4489   35.5385 C   0  0  0  0  0  0  0  0  0  0  0  0
   39.5223   13.3110   35.9221 N   0  0  0  0  0  0  0  0  0  0  0  0
  1  2  1  0  0  0  0
  2  3  1  0  0  0  0
  3  4  1  0  0  0  0
  4  5  1  0  0  0  0
  5  6  1  0  0  0  0
  6  7  1  0  0  0  0
  7  8  1  0  0  0  0
  8  9  1  0  0  0  0
  9 10  1  0  0  0  0
 10 11  1  0  0  0  0
 11 12  1  0  0  0  0
 12 13  1  0  0  0  0
 13 14  1  0  0  0  0
M  END
>  <CHROM.1>
-178.17620276,-62.35042483,137.74074919,92.53388045,-73.98539057,179.47517835
63.03440534,-177.48424581,-72.59292468,-61.96066773,-177.54474898,38.70826675
19.54916129,36.76822022,-1.36409905,0.24611829,-3.03006603

>  <Name>
ligand

>  <RI>
0

>  <Rbt.Current_Directory>
/home/itssahil/PROJECTS/Mol_Feturizer/New_Systems/rnas/1EVV

>  <Rbt.Executable>
rbdock ($Id: //depot/dev/client3/rdock/2013.1/src/exe/rbdock.cxx#4 $)

>  <Rbt.Library>
libRbt.so (2013.1, Build901 2013/11/27)

>  <Rbt.Parameter_File>
/export/apps/rDock/src/rDock_2013.1_src/data/scripts/dock_solv.prm

>  <Rbt.Receptor>
prm/pocket_docking_8.prm

>  <SCORE>
-7.53284

>  <SCORE.INTER>
1.10305

>  <SCORE.INTER.CONST>
1

>  <SCORE.INTER.POLAR>
0

>  <SCORE.INTER.ROT>
11

>  <SCORE.INTER.SOLV>
6.3055

>  <SCORE.INTER.VDW>
-12.2998

>  <SCORE.INTER.norm>
0.0787894

>  <SCORE.INTRA>
-8.63589

>  <SCORE.INTRA.DIHEDRAL>
-17.6294

>  <SCORE.INTRA.DIHEDRAL.0>
20.2131

>  <SCORE.INTRA.POLAR>
0

>  <SCORE.INTRA.POLAR.0>
0

>  <SCORE.INTRA.REPUL>
0

>  <SCORE.INTRA.REPUL.0>
0

>  <SCORE.INTRA.SOLV>
-0.0214439

>  <SCORE.INTRA.SOLV.lig_0>
-48.2851

>  <SCORE.INTRA.VDW>
0.189525

>  <SCORE.INTRA.VDW.0>
-1.08658

>  <SCORE.INTRA.norm>
-0.616849

>  <SCORE.RESTR>
0

>  <SCORE.RESTR.CAVITY>
0

>  <SCORE.RESTR.norm>
0

>  <SCORE.SYSTEM>
0

>  <SCORE.SYSTEM.CONST>
0

>  <SCORE.SYSTEM.DIHEDRAL>
0

>  <SCORE.SYSTEM.SOLV>
0

>  <SCORE.SYSTEM.norm>
0

>  <SCORE.heavy>
14

>  <SCORE.norm>
-0.53806

>  <RMSD>
5.229

$$$$
ligand
 OpenBabel11021811393D
libRbt.so/2013.1/901 2013/11/27
 14 13  0  0  0  0  0  0  0  0999 V2000
   41.6580   17.5452   34.3177 N   0  0  0  0  0  0  0  0  0  0  0  0
   40.5976   16.9621   35.1249 C   0  0  0  0  0  0  0  0  0  0  0  0
   40.0270   15.6964   34.4276 C   0  0  0  0  0  0  0  0  0  0  0  0
   38.8071   14.9729   35.1012 C   0  0  0  0  0  0  0  0  0  0  0  0
   37.5594   15.8082   35.2500 N   0  0  0  0  0  0  0  0  0  0  0  0
   37.2014   16.1096   36.6665 C   0  0  0  0  0  0  0  0  0  0  0  0
   37.9240   17.3136   37.2428 C   0  0  0  0  0  0  0  0  0  0  0  0
   37.6697   18.5817   36.4482 C   0  0  0  0  0  0  0  0  0  0  0  0
   38.6283   19.6027   36.9290 C   0  0  0  0  0  0  0  0  0  0  0  0
   38.4962   20.9434   36.3100 N   0  0  0  0  0  0  0  0  0  0  0  0
   39.5571   21.8967   36.7216 C   0  0  0  0  0  0  0  0  0  0  0  0
   39.3311   22.6206   38.0824 C   0  0  0  0  0  0  0  0  0  0  0  0
   38.0913   23.5219   37.9468 C   0  0  0  0  0  0  0  0  0  0  0  0
   38.3346   24.5918   36.9826 N   0  0  0  0  0  0  0  0  0  0  0  0
  1  2  1  0  0  0  0
  2  3  1  0  0  0  0
  3  4  1  0  0  0  0
  4  5  1  0  0  0  0
  5  6  1  0  0  0  0
  6  7  1  0  0  0  0
  7  8  1  0  0  0  0
  8  9  1  0  0  0  0
  9 10  1  0  0  0  0
 10 11  1  0  0  0  0
 11 12  1  0  0  0  0
 12 13  1  0  0  0  0
 13 14  1  0  0  0  0
M  END
>  <CHROM.1>
-176.21461566,60.51751406,-113.33187536,84.41754481,58.21746376,-168.61781530
-177.36473291,-174.36273249,-82.55116569,-65.04353628,-65.36301090,38.84871144
19.01161692,36.25388372,-1.50906818,0.50062548,0.25942181

>  <Name>
ligand

>  <RI>
0

>  <Rbt.Current_Directory>
/home/itssahil/PROJECTS/Mol_Feturizer/New_Systems/rnas/1EVV

>  <Rbt.Executable>
rbdock ($Id: //depot/dev/client3/rdock/2013.1/src/exe/rbdock.cxx#4 $)

>  <Rbt.Library>
libRbt.so (2013.1, Build901 2013/11/27)

>  <Rbt.Parameter_File>
/export/apps/rDock/src/rDock_2013.1_src/data/scripts/dock_solv.prm

>  <Rbt.Receptor>
prm/pocket_docking_5.prm

>  <SCORE>
-7.23474

>  <SCORE.INTER>
1.19542

>  <SCORE.INTER.CONST>
1

>  <SCORE.INTER.POLAR>
0

>  <SCORE.INTER.ROT>
11

>  <SCORE.INTER.SOLV>
8.14546

>  <SCORE.INTER.VDW>
-12.8515

>  <SCORE.INTER.norm>
0.085387

>  <SCORE.INTRA>
-8.43016

>  <SCORE.INTRA.DIHEDRAL>
-17.3998

>  <SCORE.INTRA.DIHEDRAL.0>
20.2131

>  <SCORE.INTRA.POLAR>
0

>  <SCORE.INTRA.POLAR.0>
0

>  <SCORE.INTRA.REPUL>
0

>  <SCORE.INTRA.REPUL.0>
0

>  <SCORE.INTRA.SOLV>
1.3344

>  <SCORE.INTRA.SOLV.lig_0>
-48.2851

>  <SCORE.INTRA.VDW>
-0.39746

>  <SCORE.INTRA.VDW.0>
-1.08658

>  <SCORE.INTRA.norm>
-0.602154

>  <SCORE.RESTR>
0

>  <SCORE.RESTR.CAVITY>
0

>  <SCORE.RESTR.norm>
0

>  <SCORE.SYSTEM>
0

>  <SCORE.SYSTEM.CONST>
0

>  <SCORE.SYSTEM.DIHEDRAL>
0

>  <SCORE.SYSTEM.SOLV>
0

>  <SCORE.SYSTEM.norm>
0

>  <SCORE.heavy>
14

>  <SCORE.norm>
-0.516767

>  <RMSD>
5.240

$$$$
ligand
 OpenBabel11021811393D
libRbt.so/2013.1/901 2013/11/27
 14 13  0  0  0  0  0  0  0  0999 V2000
   38.5159   14.7359   35.7293 N   0  0  0  0  0  0  0  0  0  0  0  0
   37.3308   15.1961   36.4365 C   0  0  0  0  0  0  0  0  0  0  0  0
   37.3134   16.7483   36.5002 C   0  0  0  0  0  0  0  0  0  0  0  0
   38.5115   17.4682   37.2154 C   0  0  0  0  0  0  0  0  0  0  0  0
   38.4575   18.9760   37.2115 N   0  0  0  0  0  0  0  0  0  0  0  0
   39.7871   19.6261   37.0243 C   0  0  0  0  0  0  0  0  0  0  0  0
   39.8919   21.0069   37.6459 C   0  0  0  0  0  0  0  0  0  0  0  0
   38.8127   21.9527   37.1508 C   0  0  0  0  0  0  0  0  0  0  0  0
   38.8814   23.1746   37.9842 C   0  0  0  0  0  0  0  0  0  0  0  0
   37.7499   24.1195   37.8256 N   0  0  0  0  0  0  0  0  0  0  0  0
   37.9000   25.0401   36.6709 C   0  0  0  0  0  0  0  0  0  0  0  0
   36.9913   26.3053   36.6864 C   0  0  0  0  0  0  0  0  0  0  0  0
   37.2563   27.1029   35.3973 C   0  0  0  0  0  0  0  0  0  0  0  0
   38.6350   27.5837   35.3628 N   0  0  0  0  0  0  0  0  0  0  0  0
  1  2  1  0  0  0  0
  2  3  1  0  0  0  0
  3  4  1  0  0  0  0
  4  5  1  0  0  0  0
  5  6  1  0  0  0  0
  6  7  1  0  0  0  0
  7  8  1  0  0  0  0
  8  9  1  0  0  0  0
  9 10  1  0  0  0  0
 10 11  1  0  0  0  0
 11 12  1  0  0  0  0
 12 13  1  0  0  0  0
 13 14  1  0  0  0  0
M  END
>  <CHROM.1>
-59.83364414,178.36509386,-141.80676002,-152.50057338,-55.53279424,170.79839584
-169.17456379,-83.47056331,-162.63851509,-178.16499210,-63.71534462,38.28817481
21.35973944,36.77446089,1.53111615,0.67836264,-3.13982236

>  <Name>
ligand

>  <RI>
0

>  <Rbt.Current_Directory>
/home/itssahil/PROJECTS/Mol_Feturizer/New_Systems/rnas/1EVV

>  <Rbt.Executable>
rbdock ($Id: //depot/dev/client3/rdock/2013.1/src/exe/rbdock.cxx#4 $)

>  <Rbt.Library>
libRbt.so (2013.1, Build901 2013/11/27)

>  <Rbt.Parameter_File>
/export/apps/rDock/src/rDock_2013.1_src/data/scripts/dock_solv.prm

>  <Rbt.Receptor>
prm/pocket_docking_7.prm

>  <SCORE>
-6.66399

>  <SCORE.INTER>
1.37997

>  <SCORE.INTER.CONST>
1

>  <SCORE.INTER.POLAR>
0

>  <SCORE.INTER.ROT>
11

>  <SCORE.INTER.SOLV>
9.42004

>  <SCORE.INTER.VDW>
-13.1534

>  <SCORE.INTER.norm>
0.098569

>  <SCORE.INTRA>
-8.04396

>  <SCORE.INTRA.DIHEDRAL>
-17.2816

>  <SCORE.INTRA.DIHEDRAL.0>
20.2131

>  <SCORE.INTRA.POLAR>
0

>  <SCORE.INTRA.POLAR.0>
0

>  <SCORE.INTRA.REPUL>
0

>  <SCORE.INTRA.REPUL.0>
0

>  <SCORE.INTRA.SOLV>
0.54377

>  <SCORE.INTRA.SOLV.lig_0>
-48.2851

>  <SCORE.INTRA.VDW>
0.324974

>  <SCORE.INTRA.VDW.0>
-1.08658

>  <SCORE.INTRA.norm>
-0.574568

>  <SCORE.RESTR>
0

>  <SCORE.RESTR.CAVITY>
0

>  <SCORE.RESTR.norm>
0

>  <SCORE.SYSTEM>
0

>  <SCORE.SYSTEM.CONST>
0

>  <SCORE.SYSTEM.DIHEDRAL>
0

>  <SCORE.SYSTEM.SOLV>
0

>  <SCORE.SYSTEM.norm>
0

>  <SCORE.heavy>
14

>  <SCORE.norm>
-0.475999

>  <RMSD>
5.266

$$$$
ligand
 OpenBabel11021811393D
libRbt.so/2013.1/901 2013/11/27
 14 13  0  0  0  0  0  0  0  0999 V2000
   48.2436   16.6310   37.0300 N   0  0  0  0  0  0  0  0  0  0  0  0
   47.6855   17.7975   37.6963 C   0  0  0  0  0  0  0  0  0  0  0  0
   46.4547   18.3266   36.9096 C   0  0  0  0  0  0  0  0  0  0  0  0
   45.6630   19.5408   37.5132 C   0  0  0  0  0  0  0  0  0  0  0  0
   44.4354   19.9614   36.7434 N   0  0  0  0  0  0  0  0  0  0  0  0
   43.6037   20.9813   37.4460 C   0  0  0  0  0  0  0  0  0  0  0  0
   42.1654   21.0426   36.9648 C   0  0  0  0  0  0  0  0  0  0  0  0
   41.3229   22.0170   37.7678 C   0  0  0  0  0  0  0  0  0  0  0  0
   39.9587   21.9982   37.1925 C   0  0  0  0  0  0  0  0  0  0  0  0
   39.2829   20.6785   37.1961 N   0  0  0  0  0  0  0  0  0  0  0  0
   38.0584   20.6341   36.3580 C   0  0  0  0  0  0  0  0  0  0  0  0
   37.1453   19.3871   36.5526 C   0  0  0  0  0  0  0  0  0  0  0  0
   37.9475   18.1369   36.1509 C   0  0  0  0  0  0  0  0  0  0  0  0
   37.1064   16.9441   36.2085 N   0  0  0  0  0  0  0  0  0  0  0  0
  1  2  1  0  0  0  0
  2  3  1  0  0  0  0
  3  4  1  0  0  0  0
  4  5  1  0  0  0  0
  5  6  1  0  0  0  0
  6  7  1  0  0  0  0
  7  8  1  0  0  0  0
  8  9  1  0  0  0  0
  9 10  1  0  0  0  0
 10 11  1  0  0  0  0
 11 12  1  0  0  0  0
 12 13  1  0  0  0  0
 13 14  1  0  0  0  0
M  END
>  <CHROM.1>
176.78722618,-176.82781077,171.63952723,-158.90125357,175.80087795,179.22603984
58.89867618,-167.44400217,-167.59256292,-62.49000526,-175.37045292,42.07658580
19.57735586,36.98076844,0.12880679,0.10003629,-2.96579270

>  <Name>
ligand

>  <RI>
0

>  <Rbt.Current_Directory>
/home/itssahil/PROJECTS/Mol_Feturizer/New_Systems/rnas/1EVV

>  <Rbt.Executable>
rbdock ($Id: //depot/dev/client3/rdock/2013.1/src/exe/rbdock.cxx#4 $)

>  <Rbt.Library>
libRbt.so (2013.1, Build901 2013/11/27)

>  <Rbt.Parameter_File>
/export/apps/rDock/src/rDock_2013.1_src/data/scripts/dock_solv.prm

>  <Rbt.Receptor>
prm/pocket_docking_8.prm

>  <SCORE>
-6.64914

>  <SCORE.INTER>
3.33275

>  <SCORE.INTER.CONST>
1

>  <SCORE.INTER.POLAR>
0

>  <SCORE.INTER.ROT>
11

>  <SCORE.INTER.SOLV>
11.3472

>  <SCORE.INTER.VDW>
-12.4939

>  <SCORE.INTER.norm>
0.238054

>  <SCORE.INTRA>
-9.98189

>  <SCORE.INTRA.DIHEDRAL>
-19.3243

>  <SCORE.INTRA.DIHEDRAL.0>
20.2131

>  <SCORE.INTRA.POLAR>
0

>  <SCORE.INTRA.POLAR.0>
0

>  <SCORE.INTRA.REPUL>
0

>  <SCORE.INTRA.REPUL.0>
0

>  <SCORE.INTRA.SOLV>
-0.662253

>  <SCORE.INTRA.SOLV.lig_0>
-48.2851

>  <SCORE.INTRA.VDW>
0.0113904

>  <SCORE.INTRA.VDW.0>
-1.08658

>  <SCORE.INTRA.norm>
-0.712992

>  <SCORE.RESTR>
0

>  <SCORE.RESTR.CAVITY>
0

>  <SCORE.RESTR.norm>
0

>  <SCORE.SYSTEM>
0

>  <SCORE.SYSTEM.CONST>
0

>  <SCORE.SYSTEM.DIHEDRAL>
0

>  <SCORE.SYSTEM.SOLV>
0

>  <SCORE.SYSTEM.norm>
0

>  <SCORE.heavy>
14

>  <SCORE.norm>
-0.474938

>  <RMSD>
5.307

$$$$
ligand
 OpenBabel11021811393D
libRbt.so/2013.1/901 2013/11/27
 14 13  0  0  0  0  0  0  0  0999 V2000
   38.2438   13.9406   36.5526 N   0  0  0  0  0  0  0  0  0  0  0  0
   38.5308   15.2411   35.9674 C   0  0  0  0  0  0  0  0  0  0  0  0
   37.5104   16.2957   36.4777 C   0  0  0  0  0  0  0  0  0  0  0  0
   37.6601   17.7720   35.9642 C   0  0  0  0  0  0  0  0  0  0  0  0
   36.7215   18.7742   36.5896 N   0  0  0  0  0  0  0  0  0  0  0  0
   36.9666   20.1807   36.1570 C   0  0  0  0  0  0  0  0  0  0  0  0
   38.2121   20.8039   36.7606 C   0  0  0  0  0  0  0  0  0  0  0  0
   38.3460   22.2789   36.4281 C   0  0  0  0  0  0  0  0  0  0  0  0
   39.5093   22.7972   37.1833 C   0  0  0  0  0  0  0  0  0  0  0  0
   40.8273   22.2529   36.7774 N   0  0  0  0  0  0  0  0  0  0  0  0
   41.3127   21.1547   37.6503 C   0  0  0  0  0  0  0  0  0  0  0  0
   42.2569   20.1155   36.9754 C   0  0  0  0  0  0  0  0  0  0  0  0
   41.4676   19.3989   35.8658 C   0  0  0  0  0  0  0  0  0  0  0  0
   42.2981   18.3917   35.2106 N   0  0  0  0  0  0  0  0  0  0  0  0
  1  2  1  0  0  0  0
  2  3  1  0  0  0  0
  3  4  1  0  0  0  0
  4  5  1  0  0  0  0
  5  6  1  0  0  0  0
  6  7  1  0  0  0  0
  7  8  1  0  0  0  0
  8  9  1  0  0  0  0
  9 10  1  0  0  0  0
 10 11  1  0  0  0  0
 11 12  1  0  0  0  0
 12 13  1  0  0  0  0
 13 14  1  0  0  0  0
M  END
>  <CHROM.1>
179.59984250,-174.64660071,175.40003830,-73.51920354,-173.43445929,174.19443025
66.29642384,-98.71197902,151.92723262,-63.32836912,-178.98649259,39.27584825
19.24308588,36.46865120,-1.93860628,0.03394981,0.11096530

>  <Name>
ligand

>  <RI>
0

>  <Rbt.Current_Directory>
/home/itssahil/PROJECTS/Mol_Feturizer/New_Systems/rnas/1EVV

>  <Rbt.Executable>
rbdock ($Id: //depot/dev/client3/rdock/2013.1/src/exe/rbdock.cxx#4 $)

>  <Rbt.Library>
libRbt.so (2013.1, Build901 2013/11/27)

>  <Rbt.Parameter_File>
/export/apps/rDock/src/rDock_2013.1_src/data/scripts/dock_solv.prm

>  <Rbt.Receptor>
prm/pocket_docking_6.prm

>  <SCORE>
-4.91729

>  <SCORE.INTER>
4.59264

>  <SCORE.INTER.CONST>
1

>  <SCORE.INTER.POLAR>
0

>  <SCORE.INTER.ROT>
11

>  <SCORE.INTER.SOLV>
6.05317

>  <SCORE.INTER.VDW>
-9.8893

>  <SCORE.INTER.norm>
0.328046

>  <SCORE.INTRA>
-9.50993

>  <SCORE.INTRA.DIHEDRAL>
-18.0434

>  <SCORE.INTRA.DIHEDRAL.0>
20.2131

>  <SCORE.INTRA.POLAR>
0

>  <SCORE.INTRA.POLAR.0>
0

>  <SCORE.INTRA.REPUL>
0

>  <SCORE.INTRA.REPUL.0>
0

>  <SCORE.INTRA.SOLV>
-0.687951

>  <SCORE.INTRA.SOLV.lig_0>
-48.2851

>  <SCORE.INTRA.VDW>
-0.144268

>  <SCORE.INTRA.VDW.0>
-1.08658

>  <SCORE.INTRA.norm>
-0.679281

>  <SCORE.RESTR>
0

>  <SCORE.RESTR.CAVITY>
0

>  <SCORE.RESTR.norm>
0

>  <SCORE.SYSTEM>
0

>  <SCORE.SYSTEM.CONST>
0

>  <SCORE.SYSTEM.DIHEDRAL>
0

>  <SCORE.SYSTEM.SOLV>
0

>  <SCORE.SYSTEM.norm>
0

>  <SCORE.heavy>
14

>  <SCORE.norm>
-0.351235

>  <RMSD>
5.309

$$$$
ligand
 OpenBabel11021811393D
libRbt.so/2013.1/901 2013/11/27
 14 13  0  0  0  0  0  0  0  0999 V2000
   41.0998   22.8934   37.4574 N   0  0  0  0  0  0  0  0  0  0  0  0
   39.9094   23.7041   37.2526 C   0  0  0  0  0  0  0  0  0  0  0  0
   38.6333   22.8625   37.5296 C   0  0  0  0  0  0  0  0  0  0  0  0
   38.3991   21.5751   36.6617 C   0  0  0  0  0  0  0  0  0  0  0  0
   37.1113   20.8366   36.9317 N   0  0  0  0  0  0  0  0  0  0  0  0
   37.0220   19.5123   36.2508 C   0  0  0  0  0  0  0  0  0  0  0  0
   37.8831   18.4340   36.8831 C   0  0  0  0  0  0  0  0  0  0  0  0
   37.4744   17.0360   36.4554 C   0  0  0  0  0  0  0  0  0  0  0  0
   38.4891   16.0981   36.9875 C   0  0  0  0  0  0  0  0  0  0  0  0
   39.7704   16.0546   36.2428 N   0  0  0  0  0  0  0  0  0  0  0  0
   40.7843   17.0154   36.7452 C   0  0  0  0  0  0  0  0  0  0  0  0
   41.9067   17.4087   35.7392 C   0  0  0  0  0  0  0  0  0  0  0  0
   42.8860   18.3538   36.4575 C   0  0  0  0  0  0  0  0  0  0  0  0
   43.8886   18.8629   35.5252 N   0  0  0  0  0  0  0  0  0  0  0  0
  1  2  1  0  0  0  0
  2  3  1  0  0  0  0
  3  4  1  0  0  0  0
  4  5  1  0  0  0  0
  5  6  1  0  0  0  0
  6  7  1  0  0  0  0
  7  8  1  0  0  0  0
  8  9  1  0  0  0  0
  9 10  1  0  0  0  0
 10 11  1  0  0  0  0
 11 12  1  0  0  0  0
 12 13  1  0  0  0  0
 13 14  1  0  0  0  0
M  END
>  <CHROM.1>
-59.68424420,-177.19773713,-170.84422300,74.30578514,162.86508331,172.60800272
-77.11019954,90.48391498,-158.08285703,-177.52525596,-174.36876160,39.66092130
19.33183960,36.65144497,-1.81563281,-0.10207346,-3.01505611

>  <Name>
ligand

>  <RI>
0

>  <Rbt.Current_Directory>
/home/itssahil/PROJECTS/Mol_Feturizer/New_Systems/rnas/1EVV

>  <Rbt.Executable>
rbdock ($Id: //depot/dev/client3/rdock/2013.1/src/exe/rbdock.cxx#4 $)

>  <Rbt.Library>
libRbt.so (2013.1, Build901 2013/11/27)

>  <Rbt.Parameter_File>
/export/apps/rDock/src/rDock_2013.1_src/data/scripts/dock_solv.prm

>  <Rbt.Receptor>
prm/pocket_docking_4.prm

>  <SCORE>
-6.52641

>  <SCORE.INTER>
1.69484

>  <SCORE.INTER.CONST>
1

>  <SCORE.INTER.POLAR>
0

>  <SCORE.INTER.ROT>
11

>  <SCORE.INTER.SOLV>
7.54191

>  <SCORE.INTER.VDW>
-12.3174

>  <SCORE.INTER.norm>
0.12106

>  <SCORE.INTRA>
-8.22125

>  <SCORE.INTRA.DIHEDRAL>
-16.5437

>  <SCORE.INTRA.DIHEDRAL.0>
20.2131

>  <SCORE.INTRA.POLAR>
0

>  <SCORE.INTRA.POLAR.0>
0

>  <SCORE.INTRA.REPUL>
0

>  <SCORE.INTRA.REPUL.0>
0

>  <SCORE.INTRA.SOLV>
-0.372131

>  <SCORE.INTRA.SOLV.lig_0>
-48.2851

>  <SCORE.INTRA.VDW>
0.236688

>  <SCORE.INTRA.VDW.0>
-1.08658

>  <SCORE.INTRA.norm>
-0.587232

>  <SCORE.RESTR>
0

>  <SCORE.RESTR.CAVITY>
0

>  <SCORE.RESTR.norm>
0

>  <SCORE.SYSTEM>
0

>  <SCORE.SYSTEM.CONST>
0

>  <SCORE.SYSTEM.DIHEDRAL>
0

>  <SCORE.SYSTEM.SOLV>
0

>  <SCORE.SYSTEM.norm>
0

>  <SCORE.heavy>
14

>  <SCORE.norm>
-0.466172

>  <RMSD>
5.315

$$$$
ligand
 OpenBabel11021811393D
libRbt.so/2013.1/901 2013/11/27
 14 13  0  0  0  0  0  0  0  0999 V2000
   39.8774   13.8598   34.8791 N   0  0  0  0  0  0  0  0  0  0  0  0
   39.4248   14.9594   35.7170 C   0  0  0  0  0  0  0  0  0  0  0  0
   38.0604   14.6082   36.3718 C   0  0  0  0  0  0  0  0  0  0  0  0
   37.4028   15.6750   37.3178 C   0  0  0  0  0  0  0  0  0  0  0  0
   37.1063   17.0106   36.6815 N   0  0  0  0  0  0  0  0  0  0  0  0
   38.1643   18.0365   36.9130 C   0  0  0  0  0  0  0  0  0  0  0  0
   37.7367   19.4521   36.5704 C   0  0  0  0  0  0  0  0  0  0  0  0
   38.8393   20.4679   36.8082 C   0  0  0  0  0  0  0  0  0  0  0  0
   38.2469   21.8124   36.6247 C   0  0  0  0  0  0  0  0  0  0  0  0
   39.1539   22.9524   36.9006 N   0  0  0  0  0  0  0  0  0  0  0  0
   38.4734   24.2716   36.8878 C   0  0  0  0  0  0  0  0  0  0  0  0
   39.3520   25.4867   36.4657 C   0  0  0  0  0  0  0  0  0  0  0  0
   38.4456   26.7270   36.3766 C   0  0  0  0  0  0  0  0  0  0  0  0
   37.4759   26.5802   35.2942 N   0  0  0  0  0  0  0  0  0  0  0  0
  1  2  1  0  0  0  0
  2  3  1  0  0  0  0
  3  4  1  0  0  0  0
  4  5  1  0  0  0  0
  5  6  1  0  0  0  0
  6  7  1  0  0  0  0
  7  8  1  0  0  0  0
  8  9  1  0  0  0  0
  9 10  1  0  0  0  0
 10 11  1  0  0  0  0
 11 12  1  0  0  0  0
 12 13  1  0  0  0  0
 13 14  1  0  0  0  0
M  END
>  <CHROM.1>
-179.98568539,59.38148339,-96.26484291,-166.25200874,-179.58896428,-172.14793828
176.28498195,-172.01429980,-150.77265586,174.38710902,-65.95324259,38.41140868
20.13571990,36.41508178,-1.56406788,0.52552935,0.01195684

>  <Name>
ligand

>  <RI>
0

>  <Rbt.Current_Directory>
/home/itssahil/PROJECTS/Mol_Feturizer/New_Systems/rnas/1EVV

>  <Rbt.Executable>
rbdock ($Id: //depot/dev/client3/rdock/2013.1/src/exe/rbdock.cxx#4 $)

>  <Rbt.Library>
libRbt.so (2013.1, Build901 2013/11/27)

>  <Rbt.Parameter_File>
/export/apps/rDock/src/rDock_2013.1_src/data/scripts/dock_solv.prm

>  <Rbt.Receptor>
prm/pocket_docking_6.prm

>  <SCORE>
-5.94662

>  <SCORE.INTER>
3.3743

>  <SCORE.INTER.CONST>
1

>  <SCORE.INTER.POLAR>
0

>  <SCORE.INTER.ROT>
11

>  <SCORE.INTER.SOLV>
6.33495

>  <SCORE.INTER.VDW>
-10.7954

>  <SCORE.INTER.norm>
0.241022

>  <SCORE.INTRA>
-9.32093

>  <SCORE.INTRA.DIHEDRAL>
-18.0831

>  <SCORE.INTRA.DIHEDRAL.0>
20.2131

>  <SCORE.INTRA.POLAR>
0

>  <SCORE.INTRA.POLAR.0>
0

>  <SCORE.INTRA.REPUL>
0

>  <SCORE.INTRA.REPUL.0>
0

>  <SCORE.INTRA.SOLV>
-0.288854

>  <SCORE.INTRA.SOLV.lig_0>
-48.2851

>  <SCORE.INTRA.VDW>
-0.134956

>  <SCORE.INTRA.VDW.0>
-1.08658

>  <SCORE.INTRA.norm>
-0.66578

>  <SCORE.RESTR>
0

>  <SCORE.RESTR.CAVITY>
0

>  <SCORE.RESTR.norm>
0

>  <SCORE.SYSTEM>
0

>  <SCORE.SYSTEM.CONST>
0

>  <SCORE.SYSTEM.DIHEDRAL>
0

>  <SCORE.SYSTEM.SOLV>
0

>  <SCORE.SYSTEM.norm>
0

>  <SCORE.heavy>
14

>  <SCORE.norm>
-0.424759

>  <RMSD>
5.328

$$$$
ligand
 OpenBabel11021811393D
libRbt.so/2013.1/901 2013/11/27
 14 13  0  0  0  0  0  0  0  0999 V2000
   43.0082   24.7923   38.6832 N   0  0  0  0  0  0  0  0  0  0  0  0
   42.0709   23.7423   38.3157 C   0  0  0  0  0  0  0  0  0  0  0  0
   40.6126   24.2095   38.5775 C   0  0  0  0  0  0  0  0  0  0  0  0
   39.4505   23.2000   38.2681 C   0  0  0  0  0  0  0  0  0  0  0  0
   39.3350   22.7661   36.8276 N   0  0  0  0  0  0  0  0  0  0  0  0
   38.1695   21.8747   36.5583 C   0  0  0  0  0  0  0  0  0  0  0  0
   38.4843   20.3945   36.6768 C   0  0  0  0  0  0  0  0  0  0  0  0
   37.2741   19.5178   36.4105 C   0  0  0  0  0  0  0  0  0  0  0  0
   37.6920   18.1134   36.6232 C   0  0  0  0  0  0  0  0  0  0  0  0
   36.6699   17.0881   36.3031 N   0  0  0  0  0  0  0  0  0  0  0  0
   37.0127   15.7308   36.7968 C   0  0  0  0  0  0  0  0  0  0  0  0
   38.1437   14.9904   36.0227 C   0  0  0  0  0  0  0  0  0  0  0  0
   38.3402   13.6067   36.6666 C   0  0  0  0  0  0  0  0  0  0  0  0
   39.3921   12.8626   35.9787 N   0  0  0  0  0  0  0  0  0  0  0  0
  1  2  1  0  0  0  0
  2  3  1  0  0  0  0
  3  4  1  0  0  0  0
  4  5  1  0  0  0  0
  5  6  1  0  0  0  0
  6  7  1  0  0  0  0
  7  8  1  0  0  0  0
  8  9  1  0  0  0  0
  9 10  1  0  0  0  0
 10 11  1  0  0  0  0
 11 12  1  0  0  0  0
 12 13  1  0  0  0  0
 13 14  1  0  0  0  0
M  END
>  <CHROM.1>
-178.84135945,-61.82521807,-176.41732536,-91.77362890,179.42183423,-177.17455849
-175.23492942,-167.61737339,-73.07582129,-179.31342534,179.93919885,38.97514283
19.49212220,37.05066818,-1.25102966,0.27378637,-3.03511293

>  <Name>
ligand

>  <RI>
0

>  <Rbt.Current_Directory>
/home/itssahil/PROJECTS/Mol_Feturizer/New_Systems/rnas/1EVV

>  <Rbt.Executable>
rbdock ($Id: //depot/dev/client3/rdock/2013.1/src/exe/rbdock.cxx#4 $)

>  <Rbt.Library>
libRbt.so (2013.1, Build901 2013/11/27)

>  <Rbt.Parameter_File>
/export/apps/rDock/src/rDock_2013.1_src/data/scripts/dock_solv.prm

>  <Rbt.Receptor>
prm/pocket_docking_7.prm

>  <SCORE>
-9.38601

>  <SCORE.INTER>
0.666369

>  <SCORE.INTER.CONST>
1

>  <SCORE.INTER.POLAR>
0

>  <SCORE.INTER.ROT>
11

>  <SCORE.INTER.SOLV>
4.96434

>  <SCORE.INTER.VDW>
-12.1439

>  <SCORE.INTER.norm>
0.0475978

>  <SCORE.INTRA>
-10.0524

>  <SCORE.INTRA.DIHEDRAL>
-19.1504

>  <SCORE.INTRA.DIHEDRAL.0>
20.2131

>  <SCORE.INTRA.POLAR>
0

>  <SCORE.INTRA.POLAR.0>
0

>  <SCORE.INTRA.REPUL>
0

>  <SCORE.INTRA.REPUL.0>
0

>  <SCORE.INTRA.SOLV>
-1.12734

>  <SCORE.INTRA.SOLV.lig_0>
-48.2851

>  <SCORE.INTRA.VDW>
0.0864882

>  <SCORE.INTRA.VDW.0>
-1.08658

>  <SCORE.INTRA.norm>
-0.718027

>  <SCORE.RESTR>
0

>  <SCORE.RESTR.CAVITY>
0

>  <SCORE.RESTR.norm>
0

>  <SCORE.SYSTEM>
0

>  <SCORE.SYSTEM.CONST>
0

>  <SCORE.SYSTEM.DIHEDRAL>
0

>  <SCORE.SYSTEM.SOLV>
0

>  <SCORE.SYSTEM.norm>
0

>  <SCORE.heavy>
14

>  <SCORE.norm>
-0.670429

>  <RMSD>
5.344

$$$$
ligand
 OpenBabel11021811393D
libRbt.so/2013.1/901 2013/11/27
 14 13  0  0  0  0  0  0  0  0999 V2000
   43.4662   18.6915   35.6553 N   0  0  0  0  0  0  0  0  0  0  0  0
   42.1422   18.1340   35.4262 C   0  0  0  0  0  0  0  0  0  0  0  0
   41.6537   18.4837   33.9935 C   0  0  0  0  0  0  0  0  0  0  0  0
   41.5378   20.0010   33.6063 C   0  0  0  0  0  0  0  0  0  0  0  0
   40.5443   20.8016   34.4117 N   0  0  0  0  0  0  0  0  0  0  0  0
   39.1609   20.7817   33.8539 C   0  0  0  0  0  0  0  0  0  0  0  0
   38.2148   19.8453   34.5833 C   0  0  0  0  0  0  0  0  0  0  0  0
   37.9117   20.3075   35.9970 C   0  0  0  0  0  0  0  0  0  0  0  0
   37.0420   19.2831   36.6187 C   0  0  0  0  0  0  0  0  0  0  0  0
   37.6911   17.9798   36.8987 N   0  0  0  0  0  0  0  0  0  0  0  0
   36.9271   16.8126   36.3911 C   0  0  0  0  0  0  0  0  0  0  0  0
   37.2920   16.3327   34.9547 C   0  0  0  0  0  0  0  0  0  0  0  0
   38.7246   15.7715   34.9853 C   0  0  0  0  0  0  0  0  0  0  0  0
   39.1650   15.4092   33.6406 N   0  0  0  0  0  0  0  0  0  0  0  0
  1  2  1  0  0  0  0
  2  3  1  0  0  0  0
  3  4  1  0  0  0  0
  4  5  1  0  0  0  0
  5  6  1  0  0  0  0
  6  7  1  0  0  0  0
  7  8  1  0  0  0  0
  8  9  1  0  0  0  0
  9 10  1  0  0  0  0
 10 11  1  0  0  0  0
 11 12  1  0  0  0  0
 12 13  1  0  0  0  0
 13 14  1  0  0  0  0
M  END
>  <CHROM.1>
-59.10173788,-62.62053660,-88.21206205,102.11293772,67.46111035,-177.18730356
69.10684015,-129.87260432,91.66528921,66.87914171,-175.18835494,39.39063549
18.47404839,35.07257544,-0.43879024,-0.28017936,-3.12025890

>  <Name>
ligand

>  <RI>
0

>  <Rbt.Current_Directory>
/home/itssahil/PROJECTS/Mol_Feturizer/New_Systems/rnas/1EVV

>  <Rbt.Executable>
rbdock ($Id: //depot/dev/client3/rdock/2013.1/src/exe/rbdock.cxx#4 $)

>  <Rbt.Library>
libRbt.so (2013.1, Build901 2013/11/27)

>  <Rbt.Parameter_File>
/export/apps/rDock/src/rDock_2013.1_src/data/scripts/dock_solv.prm

>  <Rbt.Receptor>
prm/pocket_docking_5.prm

>  <SCORE>
-3.18637

>  <SCORE.INTER>
5.01046

>  <SCORE.INTER.CONST>
1

>  <SCORE.INTER.POLAR>
0

>  <SCORE.INTER.ROT>
11

>  <SCORE.INTER.SOLV>
5.73227

>  <SCORE.INTER.VDW>
-9.50378

>  <SCORE.INTER.norm>
0.35789

>  <SCORE.INTRA>
-8.19683

>  <SCORE.INTRA.DIHEDRAL>
-16.0977

>  <SCORE.INTRA.DIHEDRAL.0>
20.2131

>  <SCORE.INTRA.POLAR>
0

>  <SCORE.INTRA.POLAR.0>
0

>  <SCORE.INTRA.REPUL>
0

>  <SCORE.INTRA.REPUL.0>
0

>  <SCORE.INTRA.SOLV>
2.08665

>  <SCORE.INTRA.SOLV.lig_0>
-48.2851

>  <SCORE.INTRA.VDW>
-1.19132

>  <SCORE.INTRA.VDW.0>
-1.08658

>  <SCORE.INTRA.norm>
-0.585488

>  <SCORE.RESTR>
0

>  <SCORE.RESTR.CAVITY>
0

>  <SCORE.RESTR.norm>
0

>  <SCORE.SYSTEM>
0

>  <SCORE.SYSTEM.CONST>
0

>  <SCORE.SYSTEM.DIHEDRAL>
0

>  <SCORE.SYSTEM.SOLV>
0

>  <SCORE.SYSTEM.norm>
0

>  <SCORE.heavy>
14

>  <SCORE.norm>
-0.227598

>  <RMSD>
5.349

$$$$
ligand
 OpenBabel11021811393D
libRbt.so/2013.1/901 2013/11/27
 14 13  0  0  0  0  0  0  0  0999 V2000
   39.5048   24.5252   36.0722 N   0  0  0  0  0  0  0  0  0  0  0  0
   38.2953   24.2435   36.8297 C   0  0  0  0  0  0  0  0  0  0  0  0
   38.4851   22.9608   37.6855 C   0  0  0  0  0  0  0  0  0  0  0  0
   38.7412   21.6065   36.9332 C   0  0  0  0  0  0  0  0  0  0  0  0
   37.6186   21.1386   36.0402 N   0  0  0  0  0  0  0  0  0  0  0  0
   37.0273   19.8318   36.4502 C   0  0  0  0  0  0  0  0  0  0  0  0
   37.8366   18.6242   36.0136 C   0  0  0  0  0  0  0  0  0  0  0  0
   37.1703   17.3112   36.3828 C   0  0  0  0  0  0  0  0  0  0  0  0
   38.0752   16.2213   35.9519 C   0  0  0  0  0  0  0  0  0  0  0  0
   38.2997   16.1189   34.4899 N   0  0  0  0  0  0  0  0  0  0  0  0
   39.3427   15.1313   34.1152 C   0  0  0  0  0  0  0  0  0  0  0  0
   39.7787   15.1361   32.6197 C   0  0  0  0  0  0  0  0  0  0  0  0
   40.3162   16.5375   32.2806 C   0  0  0  0  0  0  0  0  0  0  0  0
   40.7438   16.6020   30.8854 N   0  0  0  0  0  0  0  0  0  0  0  0
  1  2  1  0  0  0  0
  2  3  1  0  0  0  0
  3  4  1  0  0  0  0
  4  5  1  0  0  0  0
  5  6  1  0  0  0  0
  6  7  1  0  0  0  0
  7  8  1  0  0  0  0
  8  9  1  0  0  0  0
  9 10  1  0  0  0  0
 10 11  1  0  0  0  0
 11 12  1  0  0  0  0
 12 13  1  0  0  0  0
 13 14  1  0  0  0  0
M  END
>  <CHROM.1>
-62.75920399,-63.01731057,-117.83328452,-80.08679424,-176.98318458,-177.92059224
-64.23040569,172.58239885,-170.87697571,58.90982502,179.92345514,38.65952623
18.99896412,35.19675830,-1.78693287,-0.92592883,-2.84815439

>  <Name>
ligand

>  <RI>
0

>  <Rbt.Current_Directory>
/home/itssahil/PROJECTS/Mol_Feturizer/New_Systems/rnas/1EVV

>  <Rbt.Executable>
rbdock ($Id: //depot/dev/client3/rdock/2013.1/src/exe/rbdock.cxx#4 $)

>  <Rbt.Library>
libRbt.so (2013.1, Build901 2013/11/27)

>  <Rbt.Parameter_File>
/export/apps/rDock/src/rDock_2013.1_src/data/scripts/dock_solv.prm

>  <Rbt.Receptor>
prm/pocket_docking_7.prm

>  <SCORE>
-9.09417

>  <SCORE.INTER>
-0.38122

>  <SCORE.INTER.CONST>
1

>  <SCORE.INTER.POLAR>
0

>  <SCORE.INTER.ROT>
11

>  <SCORE.INTER.SOLV>
7.18355

>  <SCORE.INTER.VDW>
-13.582

>  <SCORE.INTER.norm>
-0.02723

>  <SCORE.INTRA>
-8.71295

>  <SCORE.INTRA.DIHEDRAL>
-18.4152

>  <SCORE.INTRA.DIHEDRAL.0>
20.2131

>  <SCORE.INTRA.POLAR>
0

>  <SCORE.INTRA.POLAR.0>
0

>  <SCORE.INTRA.REPUL>
0

>  <SCORE.INTRA.REPUL.0>
0

>  <SCORE.INTRA.SOLV>
0.839808

>  <SCORE.INTRA.SOLV.lig_0>
-48.2851

>  <SCORE.INTRA.VDW>
0.0747567

>  <SCORE.INTRA.VDW.0>
-1.08658

>  <SCORE.INTRA.norm>
-0.622354

>  <SCORE.RESTR>
0

>  <SCORE.RESTR.CAVITY>
0

>  <SCORE.RESTR.norm>
0

>  <SCORE.SYSTEM>
0

>  <SCORE.SYSTEM.CONST>
0

>  <SCORE.SYSTEM.DIHEDRAL>
0

>  <SCORE.SYSTEM.SOLV>
0

>  <SCORE.SYSTEM.norm>
0

>  <SCORE.heavy>
14

>  <SCORE.norm>
-0.649584

>  <RMSD>
5.349

$$$$
ligand
 OpenBabel11021811393D
libRbt.so/2013.1/901 2013/11/27
 14 13  0  0  0  0  0  0  0  0999 V2000
   39.5126   13.5934   35.7423 N   0  0  0  0  0  0  0  0  0  0  0  0
   40.2580   14.6923   36.3364 C   0  0  0  0  0  0  0  0  0  0  0  0
   39.2967   15.6353   37.1112 C   0  0  0  0  0  0  0  0  0  0  0  0
   39.9112   16.9030   37.8045 C   0  0  0  0  0  0  0  0  0  0  0  0
   40.6305   17.8597   36.8859 N   0  0  0  0  0  0  0  0  0  0  0  0
   40.7511   19.2430   37.4312 C   0  0  0  0  0  0  0  0  0  0  0  0
   39.5838   20.1481   37.0816 C   0  0  0  0  0  0  0  0  0  0  0  0
   39.7604   21.5591   37.6129 C   0  0  0  0  0  0  0  0  0  0  0  0
   38.5593   22.3311   37.2208 C   0  0  0  0  0  0  0  0  0  0  0  0
   38.5031   23.7238   37.7262 N   0  0  0  0  0  0  0  0  0  0  0  0
   39.3373   24.6739   36.9484 C   0  0  0  0  0  0  0  0  0  0  0  0
   38.5615   25.6900   36.0584 C   0  0  0  0  0  0  0  0  0  0  0  0
   37.7904   24.8992   34.9869 C   0  0  0  0  0  0  0  0  0  0  0  0
   37.1435   25.8064   34.0425 N   0  0  0  0  0  0  0  0  0  0  0  0
  1  2  1  0  0  0  0
  2  3  1  0  0  0  0
  3  4  1  0  0  0  0
  4  5  1  0  0  0  0
  5  6  1  0  0  0  0
  6  7  1  0  0  0  0
  7  8  1  0  0  0  0
  8  9  1  0  0  0  0
  9 10  1  0  0  0  0
 10 11  1  0  0  0  0
 11 12  1  0  0  0  0
 12 13  1  0  0  0  0
 13 14  1  0  0  0  0
M  END
>  <CHROM.1>
-178.88225381,58.66508894,158.42382831,-89.13713109,-178.11234785,-179.42078744
176.25846130,79.11871325,108.50789794,-63.44050128,-174.62850299,39.25720821
20.48284329,36.64231028,1.22529656,1.02761135,-2.92737380

>  <Name>
ligand

>  <RI>
0

>  <Rbt.Current_Directory>
/home/itssahil/PROJECTS/Mol_Feturizer/New_Systems/rnas/1EVV

>  <Rbt.Executable>
rbdock ($Id: //depot/dev/client3/rdock/2013.1/src/exe/rbdock.cxx#4 $)

>  <Rbt.Library>
libRbt.so (2013.1, Build901 2013/11/27)

>  <Rbt.Parameter_File>
/export/apps/rDock/src/rDock_2013.1_src/data/scripts/dock_solv.prm

>  <Rbt.Receptor>
prm/pocket_docking_7.prm

>  <SCORE>
-4.25581

>  <SCORE.INTER>
4.89636

>  <SCORE.INTER.CONST>
1

>  <SCORE.INTER.POLAR>
0

>  <SCORE.INTER.ROT>
11

>  <SCORE.INTER.SOLV>
6.02671

>  <SCORE.INTER.VDW>
-9.678

>  <SCORE.INTER.norm>
0.34974

>  <SCORE.INTRA>
-9.15217

>  <SCORE.INTRA.DIHEDRAL>
-17.6932

>  <SCORE.INTRA.DIHEDRAL.0>
20.2131

>  <SCORE.INTRA.POLAR>
0

>  <SCORE.INTRA.POLAR.0>
0

>  <SCORE.INTRA.REPUL>
0

>  <SCORE.INTRA.REPUL.0>
0

>  <SCORE.INTRA.SOLV>
-0.777437

>  <SCORE.INTRA.SOLV.lig_0>
-48.2851

>  <SCORE.INTRA.VDW>
0.0831338

>  <SCORE.INTRA.VDW.0>
-1.08658

>  <SCORE.INTRA.norm>
-0.653727

>  <SCORE.RESTR>
0

>  <SCORE.RESTR.CAVITY>
0

>  <SCORE.RESTR.norm>
0

>  <SCORE.SYSTEM>
0

>  <SCORE.SYSTEM.CONST>
0

>  <SCORE.SYSTEM.DIHEDRAL>
0

>  <SCORE.SYSTEM.SOLV>
0

>  <SCORE.SYSTEM.norm>
0

>  <SCORE.heavy>
14

>  <SCORE.norm>
-0.303987

>  <RMSD>
5.353

$$$$
ligand
 OpenBabel11021811393D
libRbt.so/2013.1/901 2013/11/27
 14 13  0  0  0  0  0  0  0  0999 V2000
   42.3411   17.6497   35.1316 N   0  0  0  0  0  0  0  0  0  0  0  0
   41.2720   16.7590   35.5556 C   0  0  0  0  0  0  0  0  0  0  0  0
   40.8134   15.8685   34.3680 C   0  0  0  0  0  0  0  0  0  0  0  0
   39.5942   14.9063   34.5987 C   0  0  0  0  0  0  0  0  0  0  0  0
   38.2753   15.5854   34.8738 N   0  0  0  0  0  0  0  0  0  0  0  0
   38.0472   15.8973   36.3147 C   0  0  0  0  0  0  0  0  0  0  0  0
   37.1986   17.1334   36.5518 C   0  0  0  0  0  0  0  0  0  0  0  0
   37.8580   18.4006   36.0382 C   0  0  0  0  0  0  0  0  0  0  0  0
   36.9847   19.5354   36.4147 C   0  0  0  0  0  0  0  0  0  0  0  0
   37.4715   20.8764   36.0109 N   0  0  0  0  0  0  0  0  0  0  0  0
   38.5493   21.4064   36.8833 C   0  0  0  0  0  0  0  0  0  0  0  0
   38.8132   22.9385   36.7847 C   0  0  0  0  0  0  0  0  0  0  0  0
   39.9666   23.2898   37.7409 C   0  0  0  0  0  0  0  0  0  0  0  0
   40.3159   24.7037   37.6298 N   0  0  0  0  0  0  0  0  0  0  0  0
  1  2  1  0  0  0  0
  2  3  1  0  0  0  0
  3  4  1  0  0  0  0
  4  5  1  0  0  0  0
  5  6  1  0  0  0  0
  6  7  1  0  0  0  0
  7  8  1  0  0  0  0
  8  9  1  0  0  0  0
  9 10  1  0  0  0  0
 10 11  1  0  0  0  0
 11 12  1  0  0  0  0
 12 13  1  0  0  0  0
 13 14  1  0  0  0  0
M  END
>  <CHROM.1>
-175.79753764,64.73530480,-87.15371881,149.40981790,-63.61549256,-175.95450224
179.29159044,-77.58286049,-162.80406779,-179.27451223,176.46141563,39.10701462
18.92470632,36.06411796,-1.53608907,0.15722133,0.27271046

>  <Name>
ligand

>  <RI>
0

>  <Rbt.Current_Directory>
/home/itssahil/PROJECTS/Mol_Feturizer/New_Systems/rnas/1EVV

>  <Rbt.Executable>
rbdock ($Id: //depot/dev/client3/rdock/2013.1/src/exe/rbdock.cxx#4 $)

>  <Rbt.Library>
libRbt.so (2013.1, Build901 2013/11/27)

>  <Rbt.Parameter_File>
/export/apps/rDock/src/rDock_2013.1_src/data/scripts/dock_solv.prm

>  <Rbt.Receptor>
prm/pocket_docking_6.prm

>  <SCORE>
-8.16541

>  <SCORE.INTER>
1.58684

>  <SCORE.INTER.CONST>
1

>  <SCORE.INTER.POLAR>
0

>  <SCORE.INTER.ROT>
11

>  <SCORE.INTER.SOLV>
7.43162

>  <SCORE.INTER.VDW>
-12.3526

>  <SCORE.INTER.norm>
0.113346

>  <SCORE.INTRA>
-9.75225

>  <SCORE.INTRA.DIHEDRAL>
-18.2999

>  <SCORE.INTRA.DIHEDRAL.0>
20.2131

>  <SCORE.INTRA.POLAR>
0

>  <SCORE.INTRA.POLAR.0>
0

>  <SCORE.INTRA.REPUL>
0

>  <SCORE.INTRA.REPUL.0>
0

>  <SCORE.INTRA.SOLV>
-0.679043

>  <SCORE.INTRA.SOLV.lig_0>
-48.2851

>  <SCORE.INTRA.VDW>
-0.262787

>  <SCORE.INTRA.VDW.0>
-1.08658

>  <SCORE.INTRA.norm>
-0.69659

>  <SCORE.RESTR>
0

>  <SCORE.RESTR.CAVITY>
0

>  <SCORE.RESTR.norm>
0

>  <SCORE.SYSTEM>
0

>  <SCORE.SYSTEM.CONST>
0

>  <SCORE.SYSTEM.DIHEDRAL>
0

>  <SCORE.SYSTEM.SOLV>
0

>  <SCORE.SYSTEM.norm>
0

>  <SCORE.heavy>
14

>  <SCORE.norm>
-0.583244

>  <RMSD>
5.355

$$$$
ligand
 OpenBabel11021811393D
libRbt.so/2013.1/901 2013/11/27
 14 13  0  0  0  0  0  0  0  0999 V2000
   39.9934   17.6824   32.8155 N   0  0  0  0  0  0  0  0  0  0  0  0
   39.8187   16.2736   32.4976 C   0  0  0  0  0  0  0  0  0  0  0  0
   40.3242   15.3921   33.6727 C   0  0  0  0  0  0  0  0  0  0  0  0
   39.5653   15.4893   35.0439 C   0  0  0  0  0  0  0  0  0  0  0  0
   38.1011   15.1277   35.0015 N   0  0  0  0  0  0  0  0  0  0  0  0
   37.3692   15.4289   36.2661 C   0  0  0  0  0  0  0  0  0  0  0  0
   36.8086   16.8379   36.3341 C   0  0  0  0  0  0  0  0  0  0  0  0
   37.8852   17.8834   36.5622 C   0  0  0  0  0  0  0  0  0  0  0  0
   37.2324   19.2106   36.4922 C   0  0  0  0  0  0  0  0  0  0  0  0
   38.1302   20.3742   36.6879 N   0  0  0  0  0  0  0  0  0  0  0  0
   37.9605   21.4362   35.6645 C   0  0  0  0  0  0  0  0  0  0  0  0
   38.8727   22.6886   35.8255 C   0  0  0  0  0  0  0  0  0  0  0  0
   38.5845   23.3194   37.1992 C   0  0  0  0  0  0  0  0  0  0  0  0
   39.3882   24.5237   37.3923 N   0  0  0  0  0  0  0  0  0  0  0  0
  1  2  1  0  0  0  0
  2  3  1  0  0  0  0
  3  4  1  0  0  0  0
  4  5  1  0  0  0  0
  5  6  1  0  0  0  0
  6  7  1  0  0  0  0
  7  8  1  0  0  0  0
  8  9  1  0  0  0  0
  9 10  1  0  0  0  0
 10 11  1  0  0  0  0
 11 12  1  0  0  0  0
 12 13  1  0  0  0  0
 13 14  1  0  0  0  0
M  END
>  <CHROM.1>
64.70441328,59.73467697,-171.19025144,87.97828238,-73.63769875,175.21723892
-179.80085641,131.83745775,179.62707853,-59.23555610,-178.47258316,38.57373850
18.69027679,35.53255034,-1.50871519,0.85339673,0.26507428

>  <Name>
ligand

>  <RI>
0

>  <Rbt.Current_Directory>
/home/itssahil/PROJECTS/Mol_Feturizer/New_Systems/rnas/1EVV

>  <Rbt.Executable>
rbdock ($Id: //depot/dev/client3/rdock/2013.1/src/exe/rbdock.cxx#4 $)

>  <Rbt.Library>
libRbt.so (2013.1, Build901 2013/11/27)

>  <Rbt.Parameter_File>
/export/apps/rDock/src/rDock_2013.1_src/data/scripts/dock_solv.prm

>  <Rbt.Receptor>
prm/pocket_docking_5.prm

>  <SCORE>
-7.19819

>  <SCORE.INTER>
1.37516

>  <SCORE.INTER.CONST>
1

>  <SCORE.INTER.POLAR>
0

>  <SCORE.INTER.ROT>
11

>  <SCORE.INTER.SOLV>
5.67759

>  <SCORE.INTER.VDW>
-11.9091

>  <SCORE.INTER.norm>
0.0982258

>  <SCORE.INTRA>
-8.59161

>  <SCORE.INTRA.DIHEDRAL>
-17.6609

>  <SCORE.INTRA.DIHEDRAL.0>
20.2131

>  <SCORE.INTRA.POLAR>
0

>  <SCORE.INTRA.POLAR.0>
0

>  <SCORE.INTRA.REPUL>
0

>  <SCORE.INTRA.REPUL.0>
0

>  <SCORE.INTRA.SOLV>
1.07205

>  <SCORE.INTRA.SOLV.lig_0>
-48.2851

>  <SCORE.INTRA.VDW>
-0.297208

>  <SCORE.INTRA.VDW.0>
-1.08658

>  <SCORE.INTRA.norm>
-0.613687

>  <SCORE.RESTR>
0.01826

>  <SCORE.RESTR.CAVITY>
0.01826

>  <SCORE.RESTR.norm>
0.00130428

>  <SCORE.SYSTEM>
0

>  <SCORE.SYSTEM.CONST>
0

>  <SCORE.SYSTEM.DIHEDRAL>
0

>  <SCORE.SYSTEM.SOLV>
0

>  <SCORE.SYSTEM.norm>
0

>  <SCORE.heavy>
14

>  <SCORE.norm>
-0.514156

>  <RMSD>
5.370

$$$$
ligand
 OpenBabel11021811393D
libRbt.so/2013.1/901 2013/11/27
 14 13  0  0  0  0  0  0  0  0999 V2000
   39.4678   24.0327   37.4250 N   0  0  0  0  0  0  0  0  0  0  0  0
   38.8958   22.7047   37.5849 C   0  0  0  0  0  0  0  0  0  0  0  0
   39.9003   21.6257   37.0946 C   0  0  0  0  0  0  0  0  0  0  0  0
   39.4013   20.1390   37.0150 C   0  0  0  0  0  0  0  0  0  0  0  0
   38.3069   19.8754   36.0103 N   0  0  0  0  0  0  0  0  0  0  0  0
   37.1785   19.0612   36.5482 C   0  0  0  0  0  0  0  0  0  0  0  0
   37.4910   17.5813   36.6752 C   0  0  0  0  0  0  0  0  0  0  0  0
   37.6490   16.9009   35.3275 C   0  0  0  0  0  0  0  0  0  0  0  0
   39.0052   17.2224   34.8279 C   0  0  0  0  0  0  0  0  0  0  0  0
   40.1267   16.6998   35.6450 N   0  0  0  0  0  0  0  0  0  0  0  0
   41.3530   16.4127   34.8591 C   0  0  0  0  0  0  0  0  0  0  0  0
   42.2910   17.6276   34.5932 C   0  0  0  0  0  0  0  0  0  0  0  0
   42.8578   18.1013   35.9432 C   0  0  0  0  0  0  0  0  0  0  0  0
   43.7337   19.2555   35.7581 N   0  0  0  0  0  0  0  0  0  0  0  0
  1  2  1  0  0  0  0
  2  3  1  0  0  0  0
  3  4  1  0  0  0  0
  4  5  1  0  0  0  0
  5  6  1  0  0  0  0
  6  7  1  0  0  0  0
  7  8  1  0  0  0  0
  8  9  1  0  0  0  0
  9 10  1  0  0  0  0
 10 11  1  0  0  0  0
 11 12  1  0  0  0  0
 12 13  1  0  0  0  0
 13 14  1  0  0  0  0
M  END
>  <CHROM.1>
-172.41944399,64.89255572,-133.18123765,-76.23337759,-68.40548506,79.16514332
63.78721853,150.63729196,83.81607461,65.37552422,-179.19847013,39.83248935
19.08822105,36.09333438,-1.90048132,-0.12368818,-2.80612671

>  <Name>
ligand

>  <RI>
0

>  <Rbt.Current_Directory>
/home/itssahil/PROJECTS/Mol_Feturizer/New_Systems/rnas/1EVV

>  <Rbt.Executable>
rbdock ($Id: //depot/dev/client3/rdock/2013.1/src/exe/rbdock.cxx#4 $)

>  <Rbt.Library>
libRbt.so (2013.1, Build901 2013/11/27)

>  <Rbt.Parameter_File>
/export/apps/rDock/src/rDock_2013.1_src/data/scripts/dock_solv.prm

>  <Rbt.Receptor>
prm/pocket_docking_4.prm

>  <SCORE>
-5.07937

>  <SCORE.INTER>
1.96667

>  <SCORE.INTER.CONST>
1

>  <SCORE.INTER.POLAR>
0

>  <SCORE.INTER.ROT>
11

>  <SCORE.INTER.SOLV>
5.33784

>  <SCORE.INTER.VDW>
-11.4015

>  <SCORE.INTER.norm>
0.140477

>  <SCORE.INTRA>
-7.04604

>  <SCORE.INTRA.DIHEDRAL>
-15.8089

>  <SCORE.INTRA.DIHEDRAL.0>
20.2131

>  <SCORE.INTRA.POLAR>
0

>  <SCORE.INTRA.POLAR.0>
0

>  <SCORE.INTRA.REPUL>
0

>  <SCORE.INTRA.REPUL.0>
0

>  <SCORE.INTRA.SOLV>
1.49069

>  <SCORE.INTRA.SOLV.lig_0>
-48.2851

>  <SCORE.INTRA.VDW>
0.11308

>  <SCORE.INTRA.VDW.0>
-1.08658

>  <SCORE.INTRA.norm>
-0.503289

>  <SCORE.RESTR>
0

>  <SCORE.RESTR.CAVITY>
0

>  <SCORE.RESTR.norm>
0

>  <SCORE.SYSTEM>
0

>  <SCORE.SYSTEM.CONST>
0

>  <SCORE.SYSTEM.DIHEDRAL>
0

>  <SCORE.SYSTEM.SOLV>
0

>  <SCORE.SYSTEM.norm>
0

>  <SCORE.heavy>
14

>  <SCORE.norm>
-0.362812

>  <RMSD>
5.378

$$$$
ligand
 OpenBabel11021811393D
libRbt.so/2013.1/901 2013/11/27
 14 13  0  0  0  0  0  0  0  0999 V2000
   38.9225   25.3311   36.6728 N   0  0  0  0  0  0  0  0  0  0  0  0
   38.4357   24.0428   36.2044 C   0  0  0  0  0  0  0  0  0  0  0  0
   39.1430   22.8914   36.9710 C   0  0  0  0  0  0  0  0  0  0  0  0
   38.8014   21.4153   36.5589 C   0  0  0  0  0  0  0  0  0  0  0  0
   37.3685   20.9961   36.7777 N   0  0  0  0  0  0  0  0  0  0  0  0
   37.0347   19.6640   36.1951 C   0  0  0  0  0  0  0  0  0  0  0  0
   37.6134   18.4910   36.9655 C   0  0  0  0  0  0  0  0  0  0  0  0
   37.1806   17.1509   36.3991 C   0  0  0  0  0  0  0  0  0  0  0  0
   37.7992   16.0980   37.2365 C   0  0  0  0  0  0  0  0  0  0  0  0
   39.2753   15.9946   37.1441 N   0  0  0  0  0  0  0  0  0  0  0  0
   39.9887   16.6143   38.2889 C   0  0  0  0  0  0  0  0  0  0  0  0
   41.3607   17.2743   37.9593 C   0  0  0  0  0  0  0  0  0  0  0  0
   41.1123   18.4364   36.9817 C   0  0  0  0  0  0  0  0  0  0  0  0
   42.3723   19.0728   36.6065 N   0  0  0  0  0  0  0  0  0  0  0  0
  1  2  1  0  0  0  0
  2  3  1  0  0  0  0
  3  4  1  0  0  0  0
  4  5  1  0  0  0  0
  5  6  1  0  0  0  0
  6  7  1  0  0  0  0
  7  8  1  0  0  0  0
  8  9  1  0  0  0  0
  9 10  1  0  0  0  0
 10 11  1  0  0  0  0
 11 12  1  0  0  0  0
 12 13  1  0  0  0  0
 13 14  1  0  0  0  0
M  END
>  <CHROM.1>
-177.14114484,-63.50206283,171.57212379,73.45903973,176.26886728,-179.63885390
-67.69411892,101.67930577,-146.26887276,62.94680149,-178.44836648,39.02896559
19.53345391,36.92587179,-1.68254737,0.14115533,3.04404477

>  <Name>
ligand

>  <RI>
0

>  <Rbt.Current_Directory>
/home/itssahil/PROJECTS/Mol_Feturizer/New_Systems/rnas/1EVV

>  <Rbt.Executable>
rbdock ($Id: //depot/dev/client3/rdock/2013.1/src/exe/rbdock.cxx#4 $)

>  <Rbt.Library>
libRbt.so (2013.1, Build901 2013/11/27)

>  <Rbt.Parameter_File>
/export/apps/rDock/src/rDock_2013.1_src/data/scripts/dock_solv.prm

>  <Rbt.Receptor>
prm/pocket_docking_6.prm

>  <SCORE>
-7.57148

>  <SCORE.INTER>
1.75455

>  <SCORE.INTER.CONST>
1

>  <SCORE.INTER.POLAR>
0

>  <SCORE.INTER.ROT>
11

>  <SCORE.INTER.SOLV>
7.78403

>  <SCORE.INTER.VDW>
-12.3583

>  <SCORE.INTER.norm>
0.125325

>  <SCORE.INTRA>
-9.32604

>  <SCORE.INTRA.DIHEDRAL>
-17.9588

>  <SCORE.INTRA.DIHEDRAL.0>
20.2131

>  <SCORE.INTRA.POLAR>
0

>  <SCORE.INTRA.POLAR.0>
0

>  <SCORE.INTRA.REPUL>
0

>  <SCORE.INTRA.REPUL.0>
0

>  <SCORE.INTRA.SOLV>
0.0192532

>  <SCORE.INTRA.SOLV.lig_0>
-48.2851

>  <SCORE.INTRA.VDW>
-0.35628

>  <SCORE.INTRA.VDW.0>
-1.08658

>  <SCORE.INTRA.norm>
-0.666145

>  <SCORE.RESTR>
0

>  <SCORE.RESTR.CAVITY>
0

>  <SCORE.RESTR.norm>
0

>  <SCORE.SYSTEM>
0

>  <SCORE.SYSTEM.CONST>
0

>  <SCORE.SYSTEM.DIHEDRAL>
0

>  <SCORE.SYSTEM.SOLV>
0

>  <SCORE.SYSTEM.norm>
0

>  <SCORE.heavy>
14

>  <SCORE.norm>
-0.54082

>  <RMSD>
5.378

$$$$
ligand
 OpenBabel11021811393D
libRbt.so/2013.1/901 2013/11/27
 14 13  0  0  0  0  0  0  0  0999 V2000
   40.3370   15.9015   31.7672 N   0  0  0  0  0  0  0  0  0  0  0  0
   40.1192   15.7500   33.1975 C   0  0  0  0  0  0  0  0  0  0  0  0
   39.7589   14.2762   33.5318 C   0  0  0  0  0  0  0  0  0  0  0  0
   39.4163   13.9234   35.0230 C   0  0  0  0  0  0  0  0  0  0  0  0
   38.2700   14.6976   35.6255 N   0  0  0  0  0  0  0  0  0  0  0  0
   38.3729   14.8744   37.1032 C   0  0  0  0  0  0  0  0  0  0  0  0
   39.3821   15.9247   37.5303 C   0  0  0  0  0  0  0  0  0  0  0  0
   38.9928   17.3226   37.0847 C   0  0  0  0  0  0  0  0  0  0  0  0
   40.0832   18.2359   37.4961 C   0  0  0  0  0  0  0  0  0  0  0  0
   39.8946   19.6603   37.1300 N   0  0  0  0  0  0  0  0  0  0  0  0
   40.8289   20.5822   37.8233 C   0  0  0  0  0  0  0  0  0  0  0  0
   40.7285   22.0834   37.4198 C   0  0  0  0  0  0  0  0  0  0  0  0
   39.3532   22.6099   37.8662 C   0  0  0  0  0  0  0  0  0  0  0  0
   39.1638   23.9912   37.4308 N   0  0  0  0  0  0  0  0  0  0  0  0
  1  2  1  0  0  0  0
  2  3  1  0  0  0  0
  3  4  1  0  0  0  0
  4  5  1  0  0  0  0
  5  6  1  0  0  0  0
  6  7  1  0  0  0  0
  7  8  1  0  0  0  0
  8  9  1  0  0  0  0
  9 10  1  0  0  0  0
 10 11  1  0  0  0  0
 11 12  1  0  0  0  0
 12 13  1  0  0  0  0
 13 14  1  0  0  0  0
M  END
>  <CHROM.1>
-177.05164575,57.74578355,-151.43454886,76.02429761,65.06910717,-177.06683893
179.21931762,166.41756308,176.81624479,65.74932128,-176.04773533,39.62162523
17.84493822,36.14523300,-1.76104869,1.27195253,0.59263362

>  <Name>
ligand

>  <RI>
0

>  <Rbt.Current_Directory>
/home/itssahil/PROJECTS/Mol_Feturizer/New_Systems/rnas/1EVV

>  <Rbt.Executable>
rbdock ($Id: //depot/dev/client3/rdock/2013.1/src/exe/rbdock.cxx#4 $)

>  <Rbt.Library>
libRbt.so (2013.1, Build901 2013/11/27)

>  <Rbt.Parameter_File>
/export/apps/rDock/src/rDock_2013.1_src/data/scripts/dock_solv.prm

>  <Rbt.Receptor>
prm/pocket_docking_6.prm

>  <SCORE>
-7.50706

>  <SCORE.INTER>
2.41017

>  <SCORE.INTER.CONST>
1

>  <SCORE.INTER.POLAR>
0

>  <SCORE.INTER.ROT>
11

>  <SCORE.INTER.SOLV>
8.24358

>  <SCORE.INTER.VDW>
-12.0744

>  <SCORE.INTER.norm>
0.172155

>  <SCORE.INTRA>
-9.91828

>  <SCORE.INTRA.DIHEDRAL>
-18.9353

>  <SCORE.INTRA.DIHEDRAL.0>
20.2131

>  <SCORE.INTRA.POLAR>
0

>  <SCORE.INTRA.POLAR.0>
0

>  <SCORE.INTRA.REPUL>
0

>  <SCORE.INTRA.REPUL.0>
0

>  <SCORE.INTRA.SOLV>
-0.395692

>  <SCORE.INTRA.SOLV.lig_0>
-48.2851

>  <SCORE.INTRA.VDW>
-0.252775

>  <SCORE.INTRA.VDW.0>
-1.08658

>  <SCORE.INTRA.norm>
-0.708449

>  <SCORE.RESTR>
0.00104506

>  <SCORE.RESTR.CAVITY>
0.00104506

>  <SCORE.RESTR.norm>
7.46471e-05

>  <SCORE.SYSTEM>
0

>  <SCORE.SYSTEM.CONST>
0

>  <SCORE.SYSTEM.DIHEDRAL>
0

>  <SCORE.SYSTEM.SOLV>
0

>  <SCORE.SYSTEM.norm>
0

>  <SCORE.heavy>
14

>  <SCORE.norm>
-0.536219

>  <RMSD>
5.395

$$$$
ligand
 OpenBabel11021811393D
libRbt.so/2013.1/901 2013/11/27
 14 13  0  0  0  0  0  0  0  0999 V2000
   41.3874   18.2932   36.3145 N   0  0  0  0  0  0  0  0  0  0  0  0
   41.2068   16.9227   36.7676 C   0  0  0  0  0  0  0  0  0  0  0  0
   40.1952   16.8764   37.9459 C   0  0  0  0  0  0  0  0  0  0  0  0
   38.7082   17.2879   37.6547 C   0  0  0  0  0  0  0  0  0  0  0  0
   38.5134   18.6923   37.1386 N   0  0  0  0  0  0  0  0  0  0  0  0
   37.1231   18.9779   36.6790 C   0  0  0  0  0  0  0  0  0  0  0  0
   36.9402   20.3656   36.0916 C   0  0  0  0  0  0  0  0  0  0  0  0
   37.7344   20.5673   34.8139 C   0  0  0  0  0  0  0  0  0  0  0  0
   37.5622   21.9803   34.4064 C   0  0  0  0  0  0  0  0  0  0  0  0
   38.0815   22.9878   35.3622 N   0  0  0  0  0  0  0  0  0  0  0  0
   37.6501   24.3753   35.0582 C   0  0  0  0  0  0  0  0  0  0  0  0
   37.7667   25.3964   36.2288 C   0  0  0  0  0  0  0  0  0  0  0  0
   37.1673   26.7342   35.7608 C   0  0  0  0  0  0  0  0  0  0  0  0
   37.2880   27.7470   36.8064 N   0  0  0  0  0  0  0  0  0  0  0  0
  1  2  1  0  0  0  0
  2  3  1  0  0  0  0
  3  4  1  0  0  0  0
  4  5  1  0  0  0  0
  5  6  1  0  0  0  0
  6  7  1  0  0  0  0
  7  8  1  0  0  0  0
  8  9  1  0  0  0  0
  9 10  1  0  0  0  0
 10 11  1  0  0  0  0
 11 12  1  0  0  0  0
 12 13  1  0  0  0  0
 13 14  1  0  0  0  0
M  END
>  <CHROM.1>
65.13945228,-59.56310457,171.19881372,-176.95670125,64.81108960,-175.41357438
62.55834543,-168.23983220,161.37664161,-175.29529339,-178.17895582,38.38014065
21.22859329,36.21625302,-1.27850298,-0.34865649,-0.03969205

>  <Name>
ligand

>  <RI>
0

>  <Rbt.Current_Directory>
/home/itssahil/PROJECTS/Mol_Feturizer/New_Systems/rnas/1EVV

>  <Rbt.Executable>
rbdock ($Id: //depot/dev/client3/rdock/2013.1/src/exe/rbdock.cxx#4 $)

>  <Rbt.Library>
libRbt.so (2013.1, Build901 2013/11/27)

>  <Rbt.Parameter_File>
/export/apps/rDock/src/rDock_2013.1_src/data/scripts/dock_solv.prm

>  <Rbt.Receptor>
prm/pocket_docking_8.prm

>  <SCORE>
-5.39709

>  <SCORE.INTER>
3.54398

>  <SCORE.INTER.CONST>
1

>  <SCORE.INTER.POLAR>
0

>  <SCORE.INTER.ROT>
11

>  <SCORE.INTER.SOLV>
7.73847

>  <SCORE.INTER.VDW>
-11.1502

>  <SCORE.INTER.norm>
0.253142

>  <SCORE.INTRA>
-8.94107

>  <SCORE.INTRA.DIHEDRAL>
-19.3738

>  <SCORE.INTRA.DIHEDRAL.0>
20.2131

>  <SCORE.INTRA.POLAR>
0

>  <SCORE.INTRA.POLAR.0>
0

>  <SCORE.INTRA.REPUL>
0

>  <SCORE.INTRA.REPUL.0>
0

>  <SCORE.INTRA.SOLV>
2.13221

>  <SCORE.INTRA.SOLV.lig_0>
-48.2851

>  <SCORE.INTRA.VDW>
-0.320256

>  <SCORE.INTRA.VDW.0>
-1.08658

>  <SCORE.INTRA.norm>
-0.638648

>  <SCORE.RESTR>
0

>  <SCORE.RESTR.CAVITY>
0

>  <SCORE.RESTR.norm>
0

>  <SCORE.SYSTEM>
0

>  <SCORE.SYSTEM.CONST>
0

>  <SCORE.SYSTEM.DIHEDRAL>
0

>  <SCORE.SYSTEM.SOLV>
0

>  <SCORE.SYSTEM.norm>
0

>  <SCORE.heavy>
14

>  <SCORE.norm>
-0.385506

>  <RMSD>
5.416

$$$$
ligand
 OpenBabel11021811393D
libRbt.so/2013.1/901 2013/11/27
 14 13  0  0  0  0  0  0  0  0999 V2000
   38.6872   14.7497   35.6029 N   0  0  0  0  0  0  0  0  0  0  0  0
   37.5213   14.8297   36.4692 C   0  0  0  0  0  0  0  0  0  0  0  0
   37.0317   16.3003   36.5748 C   0  0  0  0  0  0  0  0  0  0  0  0
   38.0062   17.3558   37.2086 C   0  0  0  0  0  0  0  0  0  0  0  0
   37.5041   18.7786   37.2174 N   0  0  0  0  0  0  0  0  0  0  0  0
   37.8473   19.5463   35.9852 C   0  0  0  0  0  0  0  0  0  0  0  0
   37.7807   21.0528   36.1582 C   0  0  0  0  0  0  0  0  0  0  0  0
   38.8583   21.5813   37.0876 C   0  0  0  0  0  0  0  0  0  0  0  0
   38.4530   22.9435   37.5027 C   0  0  0  0  0  0  0  0  0  0  0  0
   38.4893   23.9728   36.4362 N   0  0  0  0  0  0  0  0  0  0  0  0
   37.6752   25.1760   36.7417 C   0  0  0  0  0  0  0  0  0  0  0  0
   38.2787   26.5390   36.2891 C   0  0  0  0  0  0  0  0  0  0  0  0
   37.3454   27.6622   36.7743 C   0  0  0  0  0  0  0  0  0  0  0  0
   37.8452   28.9673   36.3492 N   0  0  0  0  0  0  0  0  0  0  0  0
  1  2  1  0  0  0  0
  2  3  1  0  0  0  0
  3  4  1  0  0  0  0
  4  5  1  0  0  0  0
  5  6  1  0  0  0  0
  6  7  1  0  0  0  0
  7  8  1  0  0  0  0
  8  9  1  0  0  0  0
  9 10  1  0  0  0  0
 10 11  1  0  0  0  0
 11 12  1  0  0  0  0
 12 13  1  0  0  0  0
 13 14  1  0  0  0  0
M  END
>  <CHROM.1>
-62.59704854,176.89904075,-88.73505311,-160.32293258,67.74632268,-162.96834263
-68.95378964,160.80126742,142.14631152,-176.21723309,-178.61628830,37.95161722
21.38956653,36.59988214,-1.58019077,0.60061475,0.01952280

>  <Name>
ligand

>  <RI>
0

>  <Rbt.Current_Directory>
/home/itssahil/PROJECTS/Mol_Feturizer/New_Systems/rnas/1EVV

>  <Rbt.Executable>
rbdock ($Id: //depot/dev/client3/rdock/2013.1/src/exe/rbdock.cxx#4 $)

>  <Rbt.Library>
libRbt.so (2013.1, Build901 2013/11/27)

>  <Rbt.Parameter_File>
/export/apps/rDock/src/rDock_2013.1_src/data/scripts/dock_solv.prm

>  <Rbt.Receptor>
prm/pocket_docking_8.prm

>  <SCORE>
-7.38391

>  <SCORE.INTER>
0.949957

>  <SCORE.INTER.CONST>
1

>  <SCORE.INTER.POLAR>
0

>  <SCORE.INTER.ROT>
11

>  <SCORE.INTER.SOLV>
6.46868

>  <SCORE.INTER.VDW>
-12.4563

>  <SCORE.INTER.norm>
0.0678541

>  <SCORE.INTRA>
-8.33387

>  <SCORE.INTRA.DIHEDRAL>
-16.4604

>  <SCORE.INTRA.DIHEDRAL.0>
20.2131

>  <SCORE.INTRA.POLAR>
0

>  <SCORE.INTRA.POLAR.0>
0

>  <SCORE.INTRA.REPUL>
0

>  <SCORE.INTRA.REPUL.0>
0

>  <SCORE.INTRA.SOLV>
0.0485961

>  <SCORE.INTRA.SOLV.lig_0>
-48.2851

>  <SCORE.INTRA.VDW>
-0.127989

>  <SCORE.INTRA.VDW.0>
-1.08658

>  <SCORE.INTRA.norm>
-0.595277

>  <SCORE.RESTR>
0

>  <SCORE.RESTR.CAVITY>
0

>  <SCORE.RESTR.norm>
0

>  <SCORE.SYSTEM>
0

>  <SCORE.SYSTEM.CONST>
0

>  <SCORE.SYSTEM.DIHEDRAL>
0

>  <SCORE.SYSTEM.SOLV>
0

>  <SCORE.SYSTEM.norm>
0

>  <SCORE.heavy>
14

>  <SCORE.norm>
-0.527422

>  <RMSD>
5.419

$$$$
ligand
 OpenBabel11021811393D
libRbt.so/2013.1/901 2013/11/27
 14 13  0  0  0  0  0  0  0  0999 V2000
   37.6477   15.2708   36.4238 N   0  0  0  0  0  0  0  0  0  0  0  0
   38.3808   16.5251   36.3496 C   0  0  0  0  0  0  0  0  0  0  0  0
   37.4105   17.7248   36.5306 C   0  0  0  0  0  0  0  0  0  0  0  0
   38.0068   19.1739   36.4309 C   0  0  0  0  0  0  0  0  0  0  0  0
   39.0666   19.5105   37.4509 N   0  0  0  0  0  0  0  0  0  0  0  0
   39.9829   20.6091   37.0277 C   0  0  0  0  0  0  0  0  0  0  0  0
   39.6453   21.9607   37.6304 C   0  0  0  0  0  0  0  0  0  0  0  0
   38.2409   22.4198   37.2828 C   0  0  0  0  0  0  0  0  0  0  0  0
   38.1629   23.8672   37.5850 C   0  0  0  0  0  0  0  0  0  0  0  0
   38.9239   24.7518   36.6703 N   0  0  0  0  0  0  0  0  0  0  0  0
   38.2935   26.0800   36.4648 C   0  0  0  0  0  0  0  0  0  0  0  0
   36.9100   26.0733   35.7488 C   0  0  0  0  0  0  0  0  0  0  0  0
   36.4415   27.5310   35.5953 C   0  0  0  0  0  0  0  0  0  0  0  0
   36.2039   28.1365   36.9031 N   0  0  0  0  0  0  0  0  0  0  0  0
  1  2  1  0  0  0  0
  2  3  1  0  0  0  0
  3  4  1  0  0  0  0
  4  5  1  0  0  0  0
  5  6  1  0  0  0  0
  6  7  1  0  0  0  0
  7  8  1  0  0  0  0
  8  9  1  0  0  0  0
  9 10  1  0  0  0  0
 10 11  1  0  0  0  0
 11 12  1  0  0  0  0
 12 13  1  0  0  0  0
 13 14  1  0  0  0  0
M  END
>  <CHROM.1>
-177.89081622,-60.83554836,156.46674316,100.10139477,-58.81768818,-164.37473967
70.95365082,147.32947347,-64.84789410,-178.49291406,-64.75747596,38.09413952
22.11682913,36.72095323,1.45034986,0.43088752,-3.11674000

>  <Name>
ligand

>  <RI>
0

>  <Rbt.Current_Directory>
/home/itssahil/PROJECTS/Mol_Feturizer/New_Systems/rnas/1EVV

>  <Rbt.Executable>
rbdock ($Id: //depot/dev/client3/rdock/2013.1/src/exe/rbdock.cxx#4 $)

>  <Rbt.Library>
libRbt.so (2013.1, Build901 2013/11/27)

>  <Rbt.Parameter_File>
/export/apps/rDock/src/rDock_2013.1_src/data/scripts/dock_solv.prm

>  <Rbt.Receptor>
prm/pocket_docking_8.prm

>  <SCORE>
-4.23154

>  <SCORE.INTER>
3.35493

>  <SCORE.INTER.CONST>
1

>  <SCORE.INTER.POLAR>
0

>  <SCORE.INTER.ROT>
11

>  <SCORE.INTER.SOLV>
7.61185

>  <SCORE.INTER.VDW>
-11.234

>  <SCORE.INTER.norm>
0.239638

>  <SCORE.INTRA>
-7.58647

>  <SCORE.INTRA.DIHEDRAL>
-16.6784

>  <SCORE.INTRA.DIHEDRAL.0>
20.2131

>  <SCORE.INTRA.POLAR>
0

>  <SCORE.INTRA.POLAR.0>
0

>  <SCORE.INTRA.REPUL>
0

>  <SCORE.INTRA.REPUL.0>
0

>  <SCORE.INTRA.SOLV>
0.499055

>  <SCORE.INTRA.SOLV.lig_0>
-48.2851

>  <SCORE.INTRA.VDW>
0.50323

>  <SCORE.INTRA.VDW.0>
-1.08658

>  <SCORE.INTRA.norm>
-0.541891

>  <SCORE.RESTR>
0

>  <SCORE.RESTR.CAVITY>
0

>  <SCORE.RESTR.norm>
0

>  <SCORE.SYSTEM>
0

>  <SCORE.SYSTEM.CONST>
0

>  <SCORE.SYSTEM.DIHEDRAL>
0

>  <SCORE.SYSTEM.SOLV>
0

>  <SCORE.SYSTEM.norm>
0

>  <SCORE.heavy>
14

>  <SCORE.norm>
-0.302253

>  <RMSD>
5.449

$$$$
ligand
 OpenBabel11021811393D
libRbt.so/2013.1/901 2013/11/27
 14 13  0  0  0  0  0  0  0  0999 V2000
   38.9005   25.2105   36.7712 N   0  0  0  0  0  0  0  0  0  0  0  0
   38.3393   23.9201   37.1399 C   0  0  0  0  0  0  0  0  0  0  0  0
   39.3018   22.7762   36.7168 C   0  0  0  0  0  0  0  0  0  0  0  0
   38.8001   21.2969   36.8759 C   0  0  0  0  0  0  0  0  0  0  0  0
   37.5806   20.9350   36.0645 N   0  0  0  0  0  0  0  0  0  0  0  0
   36.9279   19.6635   36.4920 C   0  0  0  0  0  0  0  0  0  0  0  0
   37.6910   18.4136   36.0929 C   0  0  0  0  0  0  0  0  0  0  0  0
   36.9318   17.1391   36.4147 C   0  0  0  0  0  0  0  0  0  0  0  0
   37.8287   16.0021   36.1065 C   0  0  0  0  0  0  0  0  0  0  0  0
   38.2272   15.8710   34.6844 N   0  0  0  0  0  0  0  0  0  0  0  0
   39.2649   14.8358   34.4496 C   0  0  0  0  0  0  0  0  0  0  0  0
   39.5334   14.4668   32.9602 C   0  0  0  0  0  0  0  0  0  0  0  0
   40.0508   15.7242   32.2395 C   0  0  0  0  0  0  0  0  0  0  0  0
   39.0116   16.7490   32.1808 N   0  0  0  0  0  0  0  0  0  0  0  0
  1  2  1  0  0  0  0
  2  3  1  0  0  0  0
  3  4  1  0  0  0  0
  4  5  1  0  0  0  0
  5  6  1  0  0  0  0
  6  7  1  0  0  0  0
  7  8  1  0  0  0  0
  8  9  1  0  0  0  0
  9 10  1  0  0  0  0
 10 11  1  0  0  0  0
 11 12  1  0  0  0  0
 12 13  1  0  0  0  0
 13 14  1  0  0  0  0
M  END
>  <CHROM.1>
-172.98634976,61.65683587,-165.10470850,-73.91108937,-174.05790817,-174.46333684
-62.96928411,172.23607587,169.08694770,62.30611995,-66.06865881,38.45641012
18.78562554,35.37081052,-1.66367093,-0.91912510,-2.83285162

>  <Name>
ligand

>  <RI>
0

>  <Rbt.Current_Directory>
/home/itssahil/PROJECTS/Mol_Feturizer/New_Systems/rnas/1EVV

>  <Rbt.Executable>
rbdock ($Id: //depot/dev/client3/rdock/2013.1/src/exe/rbdock.cxx#4 $)

>  <Rbt.Library>
libRbt.so (2013.1, Build901 2013/11/27)

>  <Rbt.Parameter_File>
/export/apps/rDock/src/rDock_2013.1_src/data/scripts/dock_solv.prm

>  <Rbt.Receptor>
prm/pocket_docking_6.prm

>  <SCORE>
-8.61788

>  <SCORE.INTER>
-0.588895

>  <SCORE.INTER.CONST>
1

>  <SCORE.INTER.POLAR>
0

>  <SCORE.INTER.ROT>
11

>  <SCORE.INTER.SOLV>
6.84497

>  <SCORE.INTER.VDW>
-13.6076

>  <SCORE.INTER.norm>
-0.0420639

>  <SCORE.INTRA>
-8.03028

>  <SCORE.INTRA.DIHEDRAL>
-19.0971

>  <SCORE.INTRA.DIHEDRAL.0>
20.2131

>  <SCORE.INTRA.POLAR>
0

>  <SCORE.INTRA.POLAR.0>
0

>  <SCORE.INTRA.REPUL>
0

>  <SCORE.INTRA.REPUL.0>
0

>  <SCORE.INTRA.SOLV>
2.4951

>  <SCORE.INTRA.SOLV.lig_0>
-48.2851

>  <SCORE.INTRA.VDW>
0.270727

>  <SCORE.INTRA.VDW.0>
-1.08658

>  <SCORE.INTRA.norm>
-0.573591

>  <SCORE.RESTR>
0.00129012

>  <SCORE.RESTR.CAVITY>
0.00129012

>  <SCORE.RESTR.norm>
9.21515e-05

>  <SCORE.SYSTEM>
0

>  <SCORE.SYSTEM.CONST>
0

>  <SCORE.SYSTEM.DIHEDRAL>
0

>  <SCORE.SYSTEM.SOLV>
0

>  <SCORE.SYSTEM.norm>
0

>  <SCORE.heavy>
14

>  <SCORE.norm>
-0.615563

>  <RMSD>
5.451

$$$$
ligand
 OpenBabel11021811393D
libRbt.so/2013.1/901 2013/11/27
 14 13  0  0  0  0  0  0  0  0999 V2000
   40.2927   24.0641   38.3555 N   0  0  0  0  0  0  0  0  0  0  0  0
   39.3001   23.0099   38.2149 C   0  0  0  0  0  0  0  0  0  0  0  0
   39.0395   22.7158   36.7118 C   0  0  0  0  0  0  0  0  0  0  0  0
   38.0366   21.5627   36.3515 C   0  0  0  0  0  0  0  0  0  0  0  0
   38.4043   20.1964   36.8757 N   0  0  0  0  0  0  0  0  0  0  0  0
   37.3770   19.1497   36.6026 C   0  0  0  0  0  0  0  0  0  0  0  0
   37.9015   17.7289   36.7042 C   0  0  0  0  0  0  0  0  0  0  0  0
   36.8620   16.6942   36.3129 C   0  0  0  0  0  0  0  0  0  0  0  0
   37.5167   15.3676   36.3719 C   0  0  0  0  0  0  0  0  0  0  0  0
   38.5870   15.1392   35.3716 N   0  0  0  0  0  0  0  0  0  0  0  0
   39.9251   14.9113   35.9725 C   0  0  0  0  0  0  0  0  0  0  0  0
   40.8315   16.1703   36.1134 C   0  0  0  0  0  0  0  0  0  0  0  0
   41.1416   16.6993   34.7021 C   0  0  0  0  0  0  0  0  0  0  0  0
   41.9684   17.9014   34.7722 N   0  0  0  0  0  0  0  0  0  0  0  0
  1  2  1  0  0  0  0
  2  3  1  0  0  0  0
  3  4  1  0  0  0  0
  4  5  1  0  0  0  0
  5  6  1  0  0  0  0
  6  7  1  0  0  0  0
  7  8  1  0  0  0  0
  8  9  1  0  0  0  0
  9 10  1  0  0  0  0
 10 11  1  0  0  0  0
 11 12  1  0  0  0  0
 12 13  1  0  0  0  0
 13 14  1  0  0  0  0
M  END
>  <CHROM.1>
177.57637576,-59.35629147,175.57731877,161.12194518,-175.41268661,176.53729530
-66.50599312,117.33752134,-94.11963973,-63.68579145,178.79202086,39.08428275
18.66479868,36.38808045,-1.57694678,-0.24460556,-2.89410659

>  <Name>
ligand

>  <RI>
0

>  <Rbt.Current_Directory>
/home/itssahil/PROJECTS/Mol_Feturizer/New_Systems/rnas/1EVV

>  <Rbt.Executable>
rbdock ($Id: //depot/dev/client3/rdock/2013.1/src/exe/rbdock.cxx#4 $)

>  <Rbt.Library>
libRbt.so (2013.1, Build901 2013/11/27)

>  <Rbt.Parameter_File>
/export/apps/rDock/src/rDock_2013.1_src/data/scripts/dock_solv.prm

>  <Rbt.Receptor>
prm/pocket_docking_5.prm

>  <SCORE>
-8.63568

>  <SCORE.INTER>
0.766089

>  <SCORE.INTER.CONST>
1

>  <SCORE.INTER.POLAR>
0

>  <SCORE.INTER.ROT>
11

>  <SCORE.INTER.SOLV>
8.4199

>  <SCORE.INTER.VDW>
-13.2292

>  <SCORE.INTER.norm>
0.0547207

>  <SCORE.INTRA>
-9.40177

>  <SCORE.INTRA.DIHEDRAL>
-17.636

>  <SCORE.INTRA.DIHEDRAL.0>
20.2131

>  <SCORE.INTRA.POLAR>
0

>  <SCORE.INTRA.POLAR.0>
0

>  <SCORE.INTRA.REPUL>
0

>  <SCORE.INTRA.REPUL.0>
0

>  <SCORE.INTRA.SOLV>
-0.244697

>  <SCORE.INTRA.SOLV.lig_0>
-48.2851

>  <SCORE.INTRA.VDW>
-0.461413

>  <SCORE.INTRA.VDW.0>
-1.08658

>  <SCORE.INTRA.norm>
-0.671555

>  <SCORE.RESTR>
0

>  <SCORE.RESTR.CAVITY>
0

>  <SCORE.RESTR.norm>
0

>  <SCORE.SYSTEM>
0

>  <SCORE.SYSTEM.CONST>
0

>  <SCORE.SYSTEM.DIHEDRAL>
0

>  <SCORE.SYSTEM.SOLV>
0

>  <SCORE.SYSTEM.norm>
0

>  <SCORE.heavy>
14

>  <SCORE.norm>
-0.616834

>  <RMSD>
5.479

$$$$
ligand
 OpenBabel11021811393D
libRbt.so/2013.1/901 2013/11/27
 14 13  0  0  0  0  0  0  0  0999 V2000
   44.6894   20.3743   34.4276 N   0  0  0  0  0  0  0  0  0  0  0  0
   43.5551   19.9934   35.2548 C   0  0  0  0  0  0  0  0  0  0  0  0
   43.8197   18.6180   35.9272 C   0  0  0  0  0  0  0  0  0  0  0  0
   42.6877   18.0116   36.8307 C   0  0  0  0  0  0  0  0  0  0  0  0
   41.3901   17.7039   36.1251 N   0  0  0  0  0  0  0  0  0  0  0  0
   41.4615   16.5182   35.2225 C   0  0  0  0  0  0  0  0  0  0  0  0
   40.1475   16.1811   34.5414 C   0  0  0  0  0  0  0  0  0  0  0  0
   40.2751   15.0226   33.5690 C   0  0  0  0  0  0  0  0  0  0  0  0
   38.9576   14.8478   32.9164 C   0  0  0  0  0  0  0  0  0  0  0  0
   38.4839   16.0024   32.1159 N   0  0  0  0  0  0  0  0  0  0  0  0
   37.3647   16.7458   32.7471 C   0  0  0  0  0  0  0  0  0  0  0  0
   36.8316   17.9759   31.9539 C   0  0  0  0  0  0  0  0  0  0  0  0
   36.1850   17.4658   30.6540 C   0  0  0  0  0  0  0  0  0  0  0  0
   35.6723   18.5803   29.8614 N   0  0  0  0  0  0  0  0  0  0  0  0
  1  2  1  0  0  0  0
  2  3  1  0  0  0  0
  3  4  1  0  0  0  0
  4  5  1  0  0  0  0
  5  6  1  0  0  0  0
  6  7  1  0  0  0  0
  7  8  1  0  0  0  0
  8  9  1  0  0  0  0
  9 10  1  0  0  0  0
 10 11  1  0  0  0  0
 11 12  1  0  0  0  0
 12 13  1  0  0  0  0
 13 14  1  0  0  0  0
M  END
>  <CHROM.1>
-178.19806977,62.41517504,72.43834282,178.32577654,176.59306155,-176.65477978
62.08667646,-107.71992958,179.62854781,66.20294889,-179.64009488,40.10866888
17.43121343,33.72503479,-0.02062635,-0.61613711,-0.39366478

>  <Name>
ligand

>  <RI>
0

>  <Rbt.Current_Directory>
/home/itssahil/PROJECTS/Mol_Feturizer/New_Systems/rnas/1EVV

>  <Rbt.Executable>
rbdock ($Id: //depot/dev/client3/rdock/2013.1/src/exe/rbdock.cxx#4 $)

>  <Rbt.Library>
libRbt.so (2013.1, Build901 2013/11/27)

>  <Rbt.Parameter_File>
/export/apps/rDock/src/rDock_2013.1_src/data/scripts/dock_solv.prm

>  <Rbt.Receptor>
prm/pocket_docking_7.prm

>  <SCORE>
-7.02619

>  <SCORE.INTER>
2.40954

>  <SCORE.INTER.CONST>
1

>  <SCORE.INTER.POLAR>
0

>  <SCORE.INTER.ROT>
11

>  <SCORE.INTER.SOLV>
10.1988

>  <SCORE.INTER.VDW>
-12.7266

>  <SCORE.INTER.norm>
0.17211

>  <SCORE.INTRA>
-9.43574

>  <SCORE.INTRA.DIHEDRAL>
-18.7216

>  <SCORE.INTRA.DIHEDRAL.0>
20.2131

>  <SCORE.INTRA.POLAR>
0

>  <SCORE.INTRA.POLAR.0>
0

>  <SCORE.INTRA.REPUL>
0

>  <SCORE.INTRA.REPUL.0>
0

>  <SCORE.INTRA.SOLV>
-0.37473

>  <SCORE.INTRA.SOLV.lig_0>
-48.2851

>  <SCORE.INTRA.VDW>
0.112406

>  <SCORE.INTRA.VDW.0>
-1.08658

>  <SCORE.INTRA.norm>
-0.673981

>  <SCORE.RESTR>
0

>  <SCORE.RESTR.CAVITY>
0

>  <SCORE.RESTR.norm>
0

>  <SCORE.SYSTEM>
0

>  <SCORE.SYSTEM.CONST>
0

>  <SCORE.SYSTEM.DIHEDRAL>
0

>  <SCORE.SYSTEM.SOLV>
0

>  <SCORE.SYSTEM.norm>
0

>  <SCORE.heavy>
14

>  <SCORE.norm>
-0.501871

>  <RMSD>
5.490

$$$$
ligand
 OpenBabel11021811393D
libRbt.so/2013.1/901 2013/11/27
 14 13  0  0  0  0  0  0  0  0999 V2000
   40.4320   16.0297   32.8780 N   0  0  0  0  0  0  0  0  0  0  0  0
   39.5417   14.8820   32.9572 C   0  0  0  0  0  0  0  0  0  0  0  0
   39.6970   14.1769   34.3329 C   0  0  0  0  0  0  0  0  0  0  0  0
   39.3282   14.9928   35.6228 C   0  0  0  0  0  0  0  0  0  0  0  0
   37.9050   15.4893   35.6911 N   0  0  0  0  0  0  0  0  0  0  0  0
   37.5969   16.2672   36.9262 C   0  0  0  0  0  0  0  0  0  0  0  0
   38.1930   17.6631   36.9411 C   0  0  0  0  0  0  0  0  0  0  0  0
   37.7056   18.5177   35.7851 C   0  0  0  0  0  0  0  0  0  0  0  0
   38.5430   19.7384   35.7559 C   0  0  0  0  0  0  0  0  0  0  0  0
   38.3892   20.6456   36.9185 N   0  0  0  0  0  0  0  0  0  0  0  0
   39.4983   21.6217   37.0632 C   0  0  0  0  0  0  0  0  0  0  0  0
   39.3542   22.6482   38.2260 C   0  0  0  0  0  0  0  0  0  0  0  0
   38.1208   23.5239   37.9435 C   0  0  0  0  0  0  0  0  0  0  0  0
   38.3491   24.3759   36.7792 N   0  0  0  0  0  0  0  0  0  0  0  0
  1  2  1  0  0  0  0
  2  3  1  0  0  0  0
  3  4  1  0  0  0  0
  4  5  1  0  0  0  0
  5  6  1  0  0  0  0
  6  7  1  0  0  0  0
  7  8  1  0  0  0  0
  8  9  1  0  0  0  0
  9 10  1  0  0  0  0
 10 11  1  0  0  0  0
 11 12  1  0  0  0  0
 12 13  1  0  0  0  0
 13 14  1  0  0  0  0
M  END
>  <CHROM.1>
62.49396612,59.52658784,-179.60344598,73.91709421,59.60234746,-169.18146438
-66.21822390,162.84671026,177.02217801,-63.67641054,-67.84371032,38.76099749
18.61209034,35.98736708,-1.43526335,1.00247746,0.24938516

>  <Name>
ligand

>  <RI>
0

>  <Rbt.Current_Directory>
/home/itssahil/PROJECTS/Mol_Feturizer/New_Systems/rnas/1EVV

>  <Rbt.Executable>
rbdock ($Id: //depot/dev/client3/rdock/2013.1/src/exe/rbdock.cxx#4 $)

>  <Rbt.Library>
libRbt.so (2013.1, Build901 2013/11/27)

>  <Rbt.Parameter_File>
/export/apps/rDock/src/rDock_2013.1_src/data/scripts/dock_solv.prm

>  <Rbt.Receptor>
prm/pocket_docking_6.prm

>  <SCORE>
-8.19626

>  <SCORE.INTER>
-0.128294

>  <SCORE.INTER.CONST>
1

>  <SCORE.INTER.POLAR>
0

>  <SCORE.INTER.ROT>
11

>  <SCORE.INTER.SOLV>
8.11486

>  <SCORE.INTER.VDW>
-13.7238

>  <SCORE.INTER.norm>
-0.00916386

>  <SCORE.INTRA>
-8.06797

>  <SCORE.INTRA.DIHEDRAL>
-18.8988

>  <SCORE.INTRA.DIHEDRAL.0>
20.2131

>  <SCORE.INTRA.POLAR>
0

>  <SCORE.INTRA.POLAR.0>
0

>  <SCORE.INTRA.REPUL>
0

>  <SCORE.INTRA.REPUL.0>
0

>  <SCORE.INTRA.SOLV>
2.65517

>  <SCORE.INTRA.SOLV.lig_0>
-48.2851

>  <SCORE.INTRA.VDW>
0.053852

>  <SCORE.INTRA.VDW.0>
-1.08658

>  <SCORE.INTRA.norm>
-0.576284

>  <SCORE.RESTR>
0

>  <SCORE.RESTR.CAVITY>
0

>  <SCORE.RESTR.norm>
0

>  <SCORE.SYSTEM>
0

>  <SCORE.SYSTEM.CONST>
0

>  <SCORE.SYSTEM.DIHEDRAL>
0

>  <SCORE.SYSTEM.SOLV>
0

>  <SCORE.SYSTEM.norm>
0

>  <SCORE.heavy>
14

>  <SCORE.norm>
-0.585447

>  <RMSD>
5.500

$$$$
ligand
 OpenBabel11021811393D
libRbt.so/2013.1/901 2013/11/27
 14 13  0  0  0  0  0  0  0  0999 V2000
   42.8289   25.3309   38.6557 N   0  0  0  0  0  0  0  0  0  0  0  0
   41.8299   24.3613   39.0776 C   0  0  0  0  0  0  0  0  0  0  0  0
   40.6797   24.2885   38.0357 C   0  0  0  0  0  0  0  0  0  0  0  0
   39.4865   23.3099   38.3252 C   0  0  0  0  0  0  0  0  0  0  0  0
   38.3582   23.3494   37.3242 N   0  0  0  0  0  0  0  0  0  0  0  0
   38.4629   22.3123   36.2570 C   0  0  0  0  0  0  0  0  0  0  0  0
   37.9440   20.9470   36.6702 C   0  0  0  0  0  0  0  0  0  0  0  0
   37.9713   19.9436   35.5315 C   0  0  0  0  0  0  0  0  0  0  0  0
   37.4813   18.6539   36.0687 C   0  0  0  0  0  0  0  0  0  0  0  0
   38.3538   18.0113   37.0806 N   0  0  0  0  0  0  0  0  0  0  0  0
   37.9770   16.6087   37.3877 C   0  0  0  0  0  0  0  0  0  0  0  0
   38.9390   15.8385   38.3406 C   0  0  0  0  0  0  0  0  0  0  0  0
   38.4093   14.4025   38.4998 C   0  0  0  0  0  0  0  0  0  0  0  0
   39.3029   13.6141   39.3445 N   0  0  0  0  0  0  0  0  0  0  0  0
  1  2  1  0  0  0  0
  2  3  1  0  0  0  0
  3  4  1  0  0  0  0
  4  5  1  0  0  0  0
  5  6  1  0  0  0  0
  6  7  1  0  0  0  0
  7  8  1  0  0  0  0
  8  9  1  0  0  0  0
  9 10  1  0  0  0  0
 10 11  1  0  0  0  0
 11 12  1  0  0  0  0
 12 13  1  0  0  0  0
 13 14  1  0  0  0  0
M  END
>  <CHROM.1>
-179.01999025,176.15946688,95.17577071,82.24875941,175.80993293,178.43699165
-66.54009540,-168.23993827,174.33812163,-178.18961478,177.78499947,39.14439284
20.06941296,37.61401590,-1.24000026,0.71429985,2.92121959

>  <Name>
ligand

>  <RI>
0

>  <Rbt.Current_Directory>
/home/itssahil/PROJECTS/Mol_Feturizer/New_Systems/rnas/1EVV

>  <Rbt.Executable>
rbdock ($Id: //depot/dev/client3/rdock/2013.1/src/exe/rbdock.cxx#4 $)

>  <Rbt.Library>
libRbt.so (2013.1, Build901 2013/11/27)

>  <Rbt.Parameter_File>
/export/apps/rDock/src/rDock_2013.1_src/data/scripts/dock_solv.prm

>  <Rbt.Receptor>
prm/pocket_docking_7.prm

>  <SCORE>
-7.53904

>  <SCORE.INTER>
2.15675

>  <SCORE.INTER.CONST>
1

>  <SCORE.INTER.POLAR>
0

>  <SCORE.INTER.ROT>
11

>  <SCORE.INTER.SOLV>
6.44448

>  <SCORE.INTER.VDW>
-11.6437

>  <SCORE.INTER.norm>
0.154054

>  <SCORE.INTRA>
-9.69579

>  <SCORE.INTRA.DIHEDRAL>
-18.6262

>  <SCORE.INTRA.DIHEDRAL.0>
20.2131

>  <SCORE.INTRA.POLAR>
0

>  <SCORE.INTRA.POLAR.0>
0

>  <SCORE.INTRA.REPUL>
0

>  <SCORE.INTRA.REPUL.0>
0

>  <SCORE.INTRA.SOLV>
-1.0167

>  <SCORE.INTRA.SOLV.lig_0>
-48.2851

>  <SCORE.INTRA.VDW>
0.125658

>  <SCORE.INTRA.VDW.0>
-1.08658

>  <SCORE.INTRA.norm>
-0.692557

>  <SCORE.RESTR>
0

>  <SCORE.RESTR.CAVITY>
0

>  <SCORE.RESTR.norm>
0

>  <SCORE.SYSTEM>
0

>  <SCORE.SYSTEM.CONST>
0

>  <SCORE.SYSTEM.DIHEDRAL>
0

>  <SCORE.SYSTEM.SOLV>
0

>  <SCORE.SYSTEM.norm>
0

>  <SCORE.heavy>
14

>  <SCORE.norm>
-0.538503

>  <RMSD>
5.512

$$$$
ligand
 OpenBabel11021811393D
libRbt.so/2013.1/901 2013/11/27
 14 13  0  0  0  0  0  0  0  0999 V2000
   41.8494   23.6273   38.6364 N   0  0  0  0  0  0  0  0  0  0  0  0
   40.5174   23.8710   38.1048 C   0  0  0  0  0  0  0  0  0  0  0  0
   39.8024   22.5233   37.8111 C   0  0  0  0  0  0  0  0  0  0  0  0
   38.3702   22.5756   37.1697 C   0  0  0  0  0  0  0  0  0  0  0  0
   37.7256   21.2357   36.9129 N   0  0  0  0  0  0  0  0  0  0  0  0
   38.2167   20.5575   35.6782 C   0  0  0  0  0  0  0  0  0  0  0  0
   37.2229   20.5693   34.5309 C   0  0  0  0  0  0  0  0  0  0  0  0
   37.7716   19.9121   33.2774 C   0  0  0  0  0  0  0  0  0  0  0  0
   37.8288   18.4548   33.5328 C   0  0  0  0  0  0  0  0  0  0  0  0
   38.2642   17.6226   32.3856 N   0  0  0  0  0  0  0  0  0  0  0  0
   38.4426   16.1882   32.7239 C   0  0  0  0  0  0  0  0  0  0  0  0
   39.8967   15.7447   33.0637 C   0  0  0  0  0  0  0  0  0  0  0  0
   39.8562   14.2765   33.5228 C   0  0  0  0  0  0  0  0  0  0  0  0
   39.1769   14.1575   34.8103 N   0  0  0  0  0  0  0  0  0  0  0  0
  1  2  1  0  0  0  0
  2  3  1  0  0  0  0
  3  4  1  0  0  0  0
  4  5  1  0  0  0  0
  5  6  1  0  0  0  0
  6  7  1  0  0  0  0
  7  8  1  0  0  0  0
  8  9  1  0  0  0  0
  9 10  1  0  0  0  0
 10 11  1  0  0  0  0
 11 12  1  0  0  0  0
 12 13  1  0  0  0  0
 13 14  1  0  0  0  0
M  END
>  <CHROM.1>
-177.36656637,-179.78445924,-79.48156053,-106.49183644,178.10451348,71.64220366
176.36672926,174.01211822,-96.26222704,174.31189001,-68.28406232,38.92426048
19.37982442,35.15411110,-1.44146796,0.69775874,-2.68088294

>  <Name>
ligand

>  <RI>
0

>  <Rbt.Current_Directory>
/home/itssahil/PROJECTS/Mol_Feturizer/New_Systems/rnas/1EVV

>  <Rbt.Executable>
rbdock ($Id: //depot/dev/client3/rdock/2013.1/src/exe/rbdock.cxx#4 $)

>  <Rbt.Library>
libRbt.so (2013.1, Build901 2013/11/27)

>  <Rbt.Parameter_File>
/export/apps/rDock/src/rDock_2013.1_src/data/scripts/dock_solv.prm

>  <Rbt.Receptor>
prm/pocket_docking_6.prm

>  <SCORE>
-4.8391

>  <SCORE.INTER>
2.94495

>  <SCORE.INTER.CONST>
1

>  <SCORE.INTER.POLAR>
0

>  <SCORE.INTER.ROT>
11

>  <SCORE.INTER.SOLV>
8.41081

>  <SCORE.INTER.VDW>
-11.7736

>  <SCORE.INTER.norm>
0.210354

>  <SCORE.INTRA>
-7.78405

>  <SCORE.INTRA.DIHEDRAL>
-17.0306

>  <SCORE.INTRA.DIHEDRAL.0>
20.2131

>  <SCORE.INTRA.POLAR>
0

>  <SCORE.INTRA.POLAR.0>
0

>  <SCORE.INTRA.REPUL>
0

>  <SCORE.INTRA.REPUL.0>
0

>  <SCORE.INTRA.SOLV>
-0.405848

>  <SCORE.INTRA.SOLV.lig_0>
-48.2851

>  <SCORE.INTRA.VDW>
0.934167

>  <SCORE.INTRA.VDW.0>
-1.08658

>  <SCORE.INTRA.norm>
-0.556004

>  <SCORE.RESTR>
0

>  <SCORE.RESTR.CAVITY>
0

>  <SCORE.RESTR.norm>
0

>  <SCORE.SYSTEM>
0

>  <SCORE.SYSTEM.CONST>
0

>  <SCORE.SYSTEM.DIHEDRAL>
0

>  <SCORE.SYSTEM.SOLV>
0

>  <SCORE.SYSTEM.norm>
0

>  <SCORE.heavy>
14

>  <SCORE.norm>
-0.34565

>  <RMSD>
5.518

$$$$
ligand
 OpenBabel11021811393D
libRbt.so/2013.1/901 2013/11/27
 14 13  0  0  0  0  0  0  0  0999 V2000
   35.4369   23.4058   32.5483 N   0  0  0  0  0  0  0  0  0  0  0  0
   36.6500   22.7575   32.0746 C   0  0  0  0  0  0  0  0  0  0  0  0
   36.8064   21.3617   32.7386 C   0  0  0  0  0  0  0  0  0  0  0  0
   36.9525   21.3032   34.3008 C   0  0  0  0  0  0  0  0  0  0  0  0
   37.2435   19.9381   34.8741 N   0  0  0  0  0  0  0  0  0  0  0  0
   37.0975   19.8637   36.3568 C   0  0  0  0  0  0  0  0  0  0  0  0
   37.8964   18.7448   37.0002 C   0  0  0  0  0  0  0  0  0  0  0  0
   37.4402   17.3689   36.5497 C   0  0  0  0  0  0  0  0  0  0  0  0
   38.2923   16.3741   37.2400 C   0  0  0  0  0  0  0  0  0  0  0  0
   39.7208   16.3726   36.8430 N   0  0  0  0  0  0  0  0  0  0  0  0
   40.5998   17.1186   37.7782 C   0  0  0  0  0  0  0  0  0  0  0  0
   41.9714   17.5800   37.2015 C   0  0  0  0  0  0  0  0  0  0  0  0
   41.7014   18.5502   36.0380 C   0  0  0  0  0  0  0  0  0  0  0  0
   42.9548   18.9779   35.4220 N   0  0  0  0  0  0  0  0  0  0  0  0
  1  2  1  0  0  0  0
  2  3  1  0  0  0  0
  3  4  1  0  0  0  0
  4  5  1  0  0  0  0
  5  6  1  0  0  0  0
  6  7  1  0  0  0  0
  7  8  1  0  0  0  0
  8  9  1  0  0  0  0
  9 10  1  0  0  0  0
 10 11  1  0  0  0  0
 11 12  1  0  0  0  0
 12 13  1  0  0  0  0
 13 14  1  0  0  0  0
M  END
>  <CHROM.1>
-61.84033096,-173.93220330,-168.05095394,-156.28099656,-63.49302937,179.87551248
-66.95677122,98.63647382,-159.52270300,62.10542600,-177.81197646,38.62591219
19.26534619,35.49778356,-2.17974980,-0.03645523,2.43320980

>  <Name>
ligand

>  <RI>
0

>  <Rbt.Current_Directory>
/home/itssahil/PROJECTS/Mol_Feturizer/New_Systems/rnas/1EVV

>  <Rbt.Executable>
rbdock ($Id: //depot/dev/client3/rdock/2013.1/src/exe/rbdock.cxx#4 $)

>  <Rbt.Library>
libRbt.so (2013.1, Build901 2013/11/27)

>  <Rbt.Parameter_File>
/export/apps/rDock/src/rDock_2013.1_src/data/scripts/dock_solv.prm

>  <Rbt.Receptor>
prm/pocket_docking_4.prm

>  <SCORE>
-5.5044

>  <SCORE.INTER>
3.43447

>  <SCORE.INTER.CONST>
1

>  <SCORE.INTER.POLAR>
0

>  <SCORE.INTER.ROT>
11

>  <SCORE.INTER.SOLV>
5.70406

>  <SCORE.INTER.VDW>
-10.545

>  <SCORE.INTER.norm>
0.245319

>  <SCORE.INTRA>
-8.93887

>  <SCORE.INTRA.DIHEDRAL>
-18.1051

>  <SCORE.INTRA.DIHEDRAL.0>
20.2131

>  <SCORE.INTRA.POLAR>
0

>  <SCORE.INTRA.POLAR.0>
0

>  <SCORE.INTRA.REPUL>
0

>  <SCORE.INTRA.REPUL.0>
0

>  <SCORE.INTRA.SOLV>
0.40479

>  <SCORE.INTRA.SOLV.lig_0>
-48.2851

>  <SCORE.INTRA.VDW>
-0.0887369

>  <SCORE.INTRA.VDW.0>
-1.08658

>  <SCORE.INTRA.norm>
-0.638491

>  <SCORE.RESTR>
0

>  <SCORE.RESTR.CAVITY>
0

>  <SCORE.RESTR.norm>
0

>  <SCORE.SYSTEM>
0

>  <SCORE.SYSTEM.CONST>
0

>  <SCORE.SYSTEM.DIHEDRAL>
0

>  <SCORE.SYSTEM.SOLV>
0

>  <SCORE.SYSTEM.norm>
0

>  <SCORE.heavy>
14

>  <SCORE.norm>
-0.393172

>  <RMSD>
5.524

$$$$
ligand
 OpenBabel11021811393D
libRbt.so/2013.1/901 2013/11/27
 14 13  0  0  0  0  0  0  0  0999 V2000
   40.1725   15.2828   32.2358 N   0  0  0  0  0  0  0  0  0  0  0  0
   39.6737   15.5551   33.5749 C   0  0  0  0  0  0  0  0  0  0  0  0
   39.4784   14.2258   34.3550 C   0  0  0  0  0  0  0  0  0  0  0  0
   38.9088   14.3077   35.8159 C   0  0  0  0  0  0  0  0  0  0  0  0
   37.5234   14.8924   35.9398 N   0  0  0  0  0  0  0  0  0  0  0  0
   37.4538   16.0962   36.8182 C   0  0  0  0  0  0  0  0  0  0  0  0
   37.7078   17.4051   36.0927 C   0  0  0  0  0  0  0  0  0  0  0  0
   37.7750   18.5917   37.0370 C   0  0  0  0  0  0  0  0  0  0  0  0
   38.0315   19.7956   36.2143 C   0  0  0  0  0  0  0  0  0  0  0  0
   38.2720   21.0470   36.9722 N   0  0  0  0  0  0  0  0  0  0  0  0
   38.3981   22.2499   36.1115 C   0  0  0  0  0  0  0  0  0  0  0  0
   38.4609   23.6165   36.8565 C   0  0  0  0  0  0  0  0  0  0  0  0
   38.4450   24.7387   35.8037 C   0  0  0  0  0  0  0  0  0  0  0  0
   38.4918   26.0494   36.4467 N   0  0  0  0  0  0  0  0  0  0  0  0
  1  2  1  0  0  0  0
  2  3  1  0  0  0  0
  3  4  1  0  0  0  0
  4  5  1  0  0  0  0
  5  6  1  0  0  0  0
  6  7  1  0  0  0  0
  7  8  1  0  0  0  0
  8  9  1  0  0  0  0
  9 10  1  0  0  0  0
 10 11  1  0  0  0  0
 11 12  1  0  0  0  0
 12 13  1  0  0  0  0
 13 14  1  0  0  0  0
M  END
>  <CHROM.1>
-178.48183098,61.87518607,-121.63943695,88.43131834,-173.94459409,179.71748976
-173.89747066,-174.59334525,172.13467117,-174.31688535,179.55756023,38.48513559
18.84651354,35.73401645,-1.46407648,1.01399599,0.09297673

>  <Name>
ligand

>  <RI>
0

>  <Rbt.Current_Directory>
/home/itssahil/PROJECTS/Mol_Feturizer/New_Systems/rnas/1EVV

>  <Rbt.Executable>
rbdock ($Id: //depot/dev/client3/rdock/2013.1/src/exe/rbdock.cxx#4 $)

>  <Rbt.Library>
libRbt.so (2013.1, Build901 2013/11/27)

>  <Rbt.Parameter_File>
/export/apps/rDock/src/rDock_2013.1_src/data/scripts/dock_solv.prm

>  <Rbt.Receptor>
prm/pocket_docking_7.prm

>  <SCORE>
-7.45239

>  <SCORE.INTER>
2.51649

>  <SCORE.INTER.CONST>
1

>  <SCORE.INTER.POLAR>
0

>  <SCORE.INTER.ROT>
11

>  <SCORE.INTER.SOLV>
8.95614

>  <SCORE.INTER.VDW>
-12.2411

>  <SCORE.INTER.norm>
0.179749

>  <SCORE.INTRA>
-9.96887

>  <SCORE.INTRA.DIHEDRAL>
-17.9689

>  <SCORE.INTRA.DIHEDRAL.0>
20.2131

>  <SCORE.INTRA.POLAR>
0

>  <SCORE.INTRA.POLAR.0>
0

>  <SCORE.INTRA.REPUL>
0

>  <SCORE.INTRA.REPUL.0>
0

>  <SCORE.INTRA.SOLV>
-1.11832

>  <SCORE.INTRA.SOLV.lig_0>
-48.2851

>  <SCORE.INTRA.VDW>
-0.425268

>  <SCORE.INTRA.VDW.0>
-1.08658

>  <SCORE.INTRA.norm>
-0.712062

>  <SCORE.RESTR>
0

>  <SCORE.RESTR.CAVITY>
0

>  <SCORE.RESTR.norm>
0

>  <SCORE.SYSTEM>
0

>  <SCORE.SYSTEM.CONST>
0

>  <SCORE.SYSTEM.DIHEDRAL>
0

>  <SCORE.SYSTEM.SOLV>
0

>  <SCORE.SYSTEM.norm>
0

>  <SCORE.heavy>
14

>  <SCORE.norm>
-0.532313

>  <RMSD>
5.525

$$$$
ligand
 OpenBabel11021811393D
libRbt.so/2013.1/901 2013/11/27
 14 13  0  0  0  0  0  0  0  0999 V2000
   39.6416   12.6941   36.1184 N   0  0  0  0  0  0  0  0  0  0  0  0
   39.1554   13.3246   34.9009 C   0  0  0  0  0  0  0  0  0  0  0  0
   40.2711   14.2020   34.2691 C   0  0  0  0  0  0  0  0  0  0  0  0
   40.7668   15.4544   35.0761 C   0  0  0  0  0  0  0  0  0  0  0  0
   39.7389   16.5388   35.2860 N   0  0  0  0  0  0  0  0  0  0  0  0
   40.1765   17.6096   36.2281 C   0  0  0  0  0  0  0  0  0  0  0  0
   39.3329   18.8698   36.1648 C   0  0  0  0  0  0  0  0  0  0  0  0
   39.7599   19.9093   37.1853 C   0  0  0  0  0  0  0  0  0  0  0  0
   38.9404   21.1200   36.9505 C   0  0  0  0  0  0  0  0  0  0  0  0
   39.1194   22.2126   37.9366 N   0  0  0  0  0  0  0  0  0  0  0  0
   38.4981   23.4958   37.5231 C   0  0  0  0  0  0  0  0  0  0  0  0
   39.3834   24.4287   36.6442 C   0  0  0  0  0  0  0  0  0  0  0  0
   38.5296   25.6336   36.2116 C   0  0  0  0  0  0  0  0  0  0  0  0
   37.4632   25.2116   35.3071 N   0  0  0  0  0  0  0  0  0  0  0  0
  1  2  1  0  0  0  0
  2  3  1  0  0  0  0
  3  4  1  0  0  0  0
  4  5  1  0  0  0  0
  5  6  1  0  0  0  0
  6  7  1  0  0  0  0
  7  8  1  0  0  0  0
  8  9  1  0  0  0  0
  9 10  1  0  0  0  0
 10 11  1  0  0  0  0
 11 12  1  0  0  0  0
 12 13  1  0  0  0  0
 13 14  1  0  0  0  0
M  END
>  <CHROM.1>
-64.91896723,-64.69875672,171.10090056,164.49157275,177.00710066,175.53483986
174.38787623,168.40330595,-87.16936671,174.77979499,-66.90341890,39.34137252
19.33613932,36.12868925,-1.08408725,-1.28873133,0.60620366

>  <Name>
ligand

>  <RI>
0

>  <Rbt.Current_Directory>
/home/itssahil/PROJECTS/Mol_Feturizer/New_Systems/rnas/1EVV

>  <Rbt.Executable>
rbdock ($Id: //depot/dev/client3/rdock/2013.1/src/exe/rbdock.cxx#4 $)

>  <Rbt.Library>
libRbt.so (2013.1, Build901 2013/11/27)

>  <Rbt.Parameter_File>
/export/apps/rDock/src/rDock_2013.1_src/data/scripts/dock_solv.prm

>  <Rbt.Receptor>
prm/pocket_docking_7.prm

>  <SCORE>
-5.26014

>  <SCORE.INTER>
3.7332

>  <SCORE.INTER.CONST>
1

>  <SCORE.INTER.POLAR>
0

>  <SCORE.INTER.ROT>
11

>  <SCORE.INTER.SOLV>
6.41061

>  <SCORE.INTER.VDW>
-10.5814

>  <SCORE.INTER.norm>
0.266657

>  <SCORE.INTRA>
-8.99335

>  <SCORE.INTRA.DIHEDRAL>
-18.653

>  <SCORE.INTRA.DIHEDRAL.0>
20.2131

>  <SCORE.INTRA.POLAR>
0

>  <SCORE.INTRA.POLAR.0>
0

>  <SCORE.INTRA.REPUL>
0

>  <SCORE.INTRA.REPUL.0>
0

>  <SCORE.INTRA.SOLV>
0.820033

>  <SCORE.INTRA.SOLV.lig_0>
-48.2851

>  <SCORE.INTRA.VDW>
-0.0768535

>  <SCORE.INTRA.VDW.0>
-1.08658

>  <SCORE.INTRA.norm>
-0.642382

>  <SCORE.RESTR>
0

>  <SCORE.RESTR.CAVITY>
0

>  <SCORE.RESTR.norm>
0

>  <SCORE.SYSTEM>
0

>  <SCORE.SYSTEM.CONST>
0

>  <SCORE.SYSTEM.DIHEDRAL>
0

>  <SCORE.SYSTEM.SOLV>
0

>  <SCORE.SYSTEM.norm>
0

>  <SCORE.heavy>
14

>  <SCORE.norm>
-0.375725

>  <RMSD>
5.545

$$$$
ligand
 OpenBabel11021811393D
libRbt.so/2013.1/901 2013/11/27
 14 13  0  0  0  0  0  0  0  0999 V2000
   39.2971   13.0528   37.3491 N   0  0  0  0  0  0  0  0  0  0  0  0
   38.2655   13.4339   38.3013 C   0  0  0  0  0  0  0  0  0  0  0  0
   38.2097   14.9802   38.4411 C   0  0  0  0  0  0  0  0  0  0  0  0
   37.7962   15.8179   37.1791 C   0  0  0  0  0  0  0  0  0  0  0  0
   37.8300   17.3159   37.3558 N   0  0  0  0  0  0  0  0  0  0  0  0
   37.2740   18.0722   36.1963 C   0  0  0  0  0  0  0  0  0  0  0  0
   37.1176   19.5608   36.4482 C   0  0  0  0  0  0  0  0  0  0  0  0
   38.4513   20.2711   36.5930 C   0  0  0  0  0  0  0  0  0  0  0  0
   38.1675   21.7177   36.7311 C   0  0  0  0  0  0  0  0  0  0  0  0
   39.3575   22.5904   36.8750 N   0  0  0  0  0  0  0  0  0  0  0  0
   39.5326   23.1379   38.2437 C   0  0  0  0  0  0  0  0  0  0  0  0
   40.7643   24.0685   38.4521 C   0  0  0  0  0  0  0  0  0  0  0  0
   42.0354   23.2614   38.1342 C   0  0  0  0  0  0  0  0  0  0  0  0
   43.2296   24.0746   38.3488 N   0  0  0  0  0  0  0  0  0  0  0  0
  1  2  1  0  0  0  0
  2  3  1  0  0  0  0
  3  4  1  0  0  0  0
  4  5  1  0  0  0  0
  5  6  1  0  0  0  0
  6  7  1  0  0  0  0
  7  8  1  0  0  0  0
  8  9  1  0  0  0  0
  9 10  1  0  0  0  0
 10 11  1  0  0  0  0
 11 12  1  0  0  0  0
 12 13  1  0  0  0  0
 13 14  1  0  0  0  0
M  END
>  <CHROM.1>
64.18322412,-176.92786160,-172.92990127,171.52126602,67.66257809,175.82872274
-179.55035284,-107.68305133,-179.71800548,-60.33833676,-178.42272837,39.09453637
19.38255499,37.47491195,-1.90507181,-0.43566651,-0.10860998

>  <Name>
ligand

>  <RI>
0

>  <Rbt.Current_Directory>
/home/itssahil/PROJECTS/Mol_Feturizer/New_Systems/rnas/1EVV

>  <Rbt.Executable>
rbdock ($Id: //depot/dev/client3/rdock/2013.1/src/exe/rbdock.cxx#4 $)

>  <Rbt.Library>
libRbt.so (2013.1, Build901 2013/11/27)

>  <Rbt.Parameter_File>
/export/apps/rDock/src/rDock_2013.1_src/data/scripts/dock_solv.prm

>  <Rbt.Receptor>
prm/pocket_docking_7.prm

>  <SCORE>
-8.50801

>  <SCORE.INTER>
0.949743

>  <SCORE.INTER.CONST>
1

>  <SCORE.INTER.POLAR>
0

>  <SCORE.INTER.ROT>
11

>  <SCORE.INTER.SOLV>
5.1581

>  <SCORE.INTER.VDW>
-12.0195

>  <SCORE.INTER.norm>
0.0678388

>  <SCORE.INTRA>
-9.45776

>  <SCORE.INTRA.DIHEDRAL>
-18.6307

>  <SCORE.INTRA.DIHEDRAL.0>
20.2131

>  <SCORE.INTRA.POLAR>
0

>  <SCORE.INTRA.POLAR.0>
0

>  <SCORE.INTRA.REPUL>
0

>  <SCORE.INTRA.REPUL.0>
0

>  <SCORE.INTRA.SOLV>
-0.0630113

>  <SCORE.INTRA.SOLV.lig_0>
-48.2851

>  <SCORE.INTRA.VDW>
-0.110887

>  <SCORE.INTRA.VDW.0>
-1.08658

>  <SCORE.INTRA.norm>
-0.675554

>  <SCORE.RESTR>
0

>  <SCORE.RESTR.CAVITY>
0

>  <SCORE.RESTR.norm>
0

>  <SCORE.SYSTEM>
0

>  <SCORE.SYSTEM.CONST>
0

>  <SCORE.SYSTEM.DIHEDRAL>
0

>  <SCORE.SYSTEM.SOLV>
0

>  <SCORE.SYSTEM.norm>
0

>  <SCORE.heavy>
14

>  <SCORE.norm>
-0.607715

>  <RMSD>
5.588

$$$$
ligand
 OpenBabel11021811393D
libRbt.so/2013.1/901 2013/11/27
 14 13  0  0  0  0  0  0  0  0999 V2000
   39.2767   24.3599   37.4808 N   0  0  0  0  0  0  0  0  0  0  0  0
   38.6716   23.0397   37.5650 C   0  0  0  0  0  0  0  0  0  0  0  0
   39.7295   21.9443   37.2575 C   0  0  0  0  0  0  0  0  0  0  0  0
   39.2418   20.4541   37.1743 C   0  0  0  0  0  0  0  0  0  0  0  0
   38.2679   20.1518   36.0622 N   0  0  0  0  0  0  0  0  0  0  0  0
   37.3266   19.0367   36.3722 C   0  0  0  0  0  0  0  0  0  0  0  0
   38.0131   17.7359   36.7471 C   0  0  0  0  0  0  0  0  0  0  0  0
   37.0937   16.5345   36.6229 C   0  0  0  0  0  0  0  0  0  0  0  0
   37.8025   15.3746   37.2099 C   0  0  0  0  0  0  0  0  0  0  0  0
   39.1562   15.1117   36.6652 N   0  0  0  0  0  0  0  0  0  0  0  0
   39.1511   14.6461   35.2557 C   0  0  0  0  0  0  0  0  0  0  0  0
   39.6464   15.6757   34.1969 C   0  0  0  0  0  0  0  0  0  0  0  0
   39.5740   15.0117   32.8106 C   0  0  0  0  0  0  0  0  0  0  0  0
   40.1225   15.8964   31.7859 N   0  0  0  0  0  0  0  0  0  0  0  0
  1  2  1  0  0  0  0
  2  3  1  0  0  0  0
  3  4  1  0  0  0  0
  4  5  1  0  0  0  0
  5  6  1  0  0  0  0
  6  7  1  0  0  0  0
  7  8  1  0  0  0  0
  8  9  1  0  0  0  0
  9 10  1  0  0  0  0
 10 11  1  0  0  0  0
 11 12  1  0  0  0  0
 12 13  1  0  0  0  0
 13 14  1  0  0  0  0
M  END
>  <CHROM.1>
-174.73957591,63.70092023,-150.76254693,-56.07229207,-161.64237112,-171.36815091
-53.65444545,-68.35329091,107.48194936,179.73284148,-175.71614813,38.79078875
18.21210455,35.94348048,-1.62011080,-1.07295286,-2.81243602

>  <Name>
ligand

>  <RI>
0

>  <Rbt.Current_Directory>
/home/itssahil/PROJECTS/Mol_Feturizer/New_Systems/rnas/1EVV

>  <Rbt.Executable>
rbdock ($Id: //depot/dev/client3/rdock/2013.1/src/exe/rbdock.cxx#4 $)

>  <Rbt.Library>
libRbt.so (2013.1, Build901 2013/11/27)

>  <Rbt.Parameter_File>
/export/apps/rDock/src/rDock_2013.1_src/data/scripts/dock_solv.prm

>  <Rbt.Receptor>
prm/pocket_docking_6.prm

>  <SCORE>
-7.01444

>  <SCORE.INTER>
0.439225

>  <SCORE.INTER.CONST>
1

>  <SCORE.INTER.POLAR>
0

>  <SCORE.INTER.ROT>
11

>  <SCORE.INTER.SOLV>
7.19389

>  <SCORE.INTER.VDW>
-13.0385

>  <SCORE.INTER.norm>
0.0313732

>  <SCORE.INTRA>
-7.45367

>  <SCORE.INTRA.DIHEDRAL>
-16.6292

>  <SCORE.INTRA.DIHEDRAL.0>
20.2131

>  <SCORE.INTRA.POLAR>
0

>  <SCORE.INTRA.POLAR.0>
0

>  <SCORE.INTRA.REPUL>
0

>  <SCORE.INTRA.REPUL.0>
0

>  <SCORE.INTRA.SOLV>
-0.649303

>  <SCORE.INTRA.SOLV.lig_0>
-48.2851

>  <SCORE.INTRA.VDW>
1.18559

>  <SCORE.INTRA.VDW.0>
-1.08658

>  <SCORE.INTRA.norm>
-0.532405

>  <SCORE.RESTR>
0

>  <SCORE.RESTR.CAVITY>
0

>  <SCORE.RESTR.norm>
0

>  <SCORE.SYSTEM>
0

>  <SCORE.SYSTEM.CONST>
0

>  <SCORE.SYSTEM.DIHEDRAL>
0

>  <SCORE.SYSTEM.SOLV>
0

>  <SCORE.SYSTEM.norm>
0

>  <SCORE.heavy>
14

>  <SCORE.norm>
-0.501032

>  <RMSD>
5.594

$$$$
ligand
 OpenBabel11021811393D
libRbt.so/2013.1/901 2013/11/27
 14 13  0  0  0  0  0  0  0  0999 V2000
   39.2554   12.5957   36.9668 N   0  0  0  0  0  0  0  0  0  0  0  0
   37.9908   13.2126   36.5976 C   0  0  0  0  0  0  0  0  0  0  0  0
   38.1880   14.7338   36.3509 C   0  0  0  0  0  0  0  0  0  0  0  0
   36.9313   15.5808   35.9401 C   0  0  0  0  0  0  0  0  0  0  0  0
   37.1978   17.0374   35.6503 N   0  0  0  0  0  0  0  0  0  0  0  0
   37.6686   17.8113   36.8356 C   0  0  0  0  0  0  0  0  0  0  0  0
   37.3867   19.3004   36.7520 C   0  0  0  0  0  0  0  0  0  0  0  0
   38.2320   19.9958   35.7003 C   0  0  0  0  0  0  0  0  0  0  0  0
   38.1499   21.4511   35.9605 C   0  0  0  0  0  0  0  0  0  0  0  0
   38.7006   21.8985   37.2623 N   0  0  0  0  0  0  0  0  0  0  0  0
   38.3702   23.3067   37.5965 C   0  0  0  0  0  0  0  0  0  0  0  0
   39.4735   24.3589   37.2772 C   0  0  0  0  0  0  0  0  0  0  0  0
   40.7010   24.0482   38.1517 C   0  0  0  0  0  0  0  0  0  0  0  0
   41.7524   25.0387   37.9349 N   0  0  0  0  0  0  0  0  0  0  0  0
  1  2  1  0  0  0  0
  2  3  1  0  0  0  0
  3  4  1  0  0  0  0
  4  5  1  0  0  0  0
  5  6  1  0  0  0  0
  6  7  1  0  0  0  0
  7  8  1  0  0  0  0
  8  9  1  0  0  0  0
  9 10  1  0  0  0  0
 10 11  1  0  0  0  0
 11 12  1  0  0  0  0
 12 13  1  0  0  0  0
 13 14  1  0  0  0  0
M  END
>  <CHROM.1>
-179.99389209,-177.19683018,-64.61483961,-155.51782772,-69.65431156,-164.78743689
62.99231732,-168.97237132,-97.78853076,-63.77927887,-177.67393995,38.57103887
19.31220798,36.78399196,-1.78749570,-0.45124103,0.01931738

>  <Name>
ligand

>  <RI>
0

>  <Rbt.Current_Directory>
/home/itssahil/PROJECTS/Mol_Feturizer/New_Systems/rnas/1EVV

>  <Rbt.Executable>
rbdock ($Id: //depot/dev/client3/rdock/2013.1/src/exe/rbdock.cxx#4 $)

>  <Rbt.Library>
libRbt.so (2013.1, Build901 2013/11/27)

>  <Rbt.Parameter_File>
/export/apps/rDock/src/rDock_2013.1_src/data/scripts/dock_solv.prm

>  <Rbt.Receptor>
prm/pocket_docking_7.prm

>  <SCORE>
-7.74528

>  <SCORE.INTER>
0.755643

>  <SCORE.INTER.CONST>
1

>  <SCORE.INTER.POLAR>
0

>  <SCORE.INTER.ROT>
11

>  <SCORE.INTER.SOLV>
4.5759

>  <SCORE.INTER.VDW>
-11.9549

>  <SCORE.INTER.norm>
0.0539745

>  <SCORE.INTRA>
-8.50092

>  <SCORE.INTRA.DIHEDRAL>
-17.428

>  <SCORE.INTRA.DIHEDRAL.0>
20.2131

>  <SCORE.INTRA.POLAR>
0

>  <SCORE.INTRA.POLAR.0>
0

>  <SCORE.INTRA.REPUL>
0

>  <SCORE.INTRA.REPUL.0>
0

>  <SCORE.INTRA.SOLV>
-0.292446

>  <SCORE.INTRA.SOLV.lig_0>
-48.2851

>  <SCORE.INTRA.VDW>
0.359293

>  <SCORE.INTRA.VDW.0>
-1.08658

>  <SCORE.INTRA.norm>
-0.607209

>  <SCORE.RESTR>
0

>  <SCORE.RESTR.CAVITY>
0

>  <SCORE.RESTR.norm>
0

>  <SCORE.SYSTEM>
0

>  <SCORE.SYSTEM.CONST>
0

>  <SCORE.SYSTEM.DIHEDRAL>
0

>  <SCORE.SYSTEM.SOLV>
0

>  <SCORE.SYSTEM.norm>
0

>  <SCORE.heavy>
14

>  <SCORE.norm>
-0.553234

>  <RMSD>
5.609

$$$$
ligand
 OpenBabel11021811393D
libRbt.so/2013.1/901 2013/11/27
 14 13  0  0  0  0  0  0  0  0999 V2000
   40.7296   24.5625   37.4559 N   0  0  0  0  0  0  0  0  0  0  0  0
   40.3289   23.5160   36.5283 C   0  0  0  0  0  0  0  0  0  0  0  0
   39.1803   22.6678   37.1405 C   0  0  0  0  0  0  0  0  0  0  0  0
   38.5868   21.5001   36.2747 C   0  0  0  0  0  0  0  0  0  0  0  0
   37.4594   20.7273   36.9138 N   0  0  0  0  0  0  0  0  0  0  0  0
   37.0636   19.5034   36.1582 C   0  0  0  0  0  0  0  0  0  0  0  0
   37.6132   18.2139   36.7406 C   0  0  0  0  0  0  0  0  0  0  0  0
   36.8709   16.9867   36.2436 C   0  0  0  0  0  0  0  0  0  0  0  0
   37.5491   15.8005   36.8139 C   0  0  0  0  0  0  0  0  0  0  0  0
   38.8479   15.4476   36.1919 N   0  0  0  0  0  0  0  0  0  0  0  0
   38.9307   14.0337   35.7471 C   0  0  0  0  0  0  0  0  0  0  0  0
   40.1209   13.6853   34.8045 C   0  0  0  0  0  0  0  0  0  0  0  0
   39.8574   14.3389   33.4365 C   0  0  0  0  0  0  0  0  0  0  0  0
   39.9802   15.7916   33.5270 N   0  0  0  0  0  0  0  0  0  0  0  0
  1  2  1  0  0  0  0
  2  3  1  0  0  0  0
  3  4  1  0  0  0  0
  4  5  1  0  0  0  0
  5  6  1  0  0  0  0
  6  7  1  0  0  0  0
  7  8  1  0  0  0  0
  8  9  1  0  0  0  0
  9 10  1  0  0  0  0
 10 11  1  0  0  0  0
 11 12  1  0  0  0  0
 12 13  1  0  0  0  0
 13 14  1  0  0  0  0
M  END
>  <CHROM.1>
178.76932097,-179.04143122,-171.12332852,101.23357997,162.10488655,176.61832555
-74.75202848,-127.25222433,166.48043875,-70.57920957,69.86966194,38.79402258
18.34077144,35.99830905,-1.53228814,-0.49773871,-2.89304809

>  <Name>
ligand

>  <RI>
0

>  <Rbt.Current_Directory>
/home/itssahil/PROJECTS/Mol_Feturizer/New_Systems/rnas/1EVV

>  <Rbt.Executable>
rbdock ($Id: //depot/dev/client3/rdock/2013.1/src/exe/rbdock.cxx#4 $)

>  <Rbt.Library>
libRbt.so (2013.1, Build901 2013/11/27)

>  <Rbt.Parameter_File>
/export/apps/rDock/src/rDock_2013.1_src/data/scripts/dock_solv.prm

>  <Rbt.Receptor>
prm/pocket_docking_6.prm

>  <SCORE>
-6.78133

>  <SCORE.INTER>
-0.00240376

>  <SCORE.INTER.CONST>
1

>  <SCORE.INTER.POLAR>
0

>  <SCORE.INTER.ROT>
11

>  <SCORE.INTER.SOLV>
5.34097

>  <SCORE.INTER.VDW>
-12.7153

>  <SCORE.INTER.norm>
-0.000171697

>  <SCORE.INTRA>
-6.77893

>  <SCORE.INTRA.DIHEDRAL>
-15.1763

>  <SCORE.INTRA.DIHEDRAL.0>
20.2131

>  <SCORE.INTRA.POLAR>
0

>  <SCORE.INTRA.POLAR.0>
0

>  <SCORE.INTRA.REPUL>
0

>  <SCORE.INTRA.REPUL.0>
0

>  <SCORE.INTRA.SOLV>
2.11225

>  <SCORE.INTRA.SOLV.lig_0>
-48.2851

>  <SCORE.INTRA.VDW>
-0.246902

>  <SCORE.INTRA.VDW.0>
-1.08658

>  <SCORE.INTRA.norm>
-0.484209

>  <SCORE.RESTR>
0

>  <SCORE.RESTR.CAVITY>
0

>  <SCORE.RESTR.norm>
0

>  <SCORE.SYSTEM>
0

>  <SCORE.SYSTEM.CONST>
0

>  <SCORE.SYSTEM.DIHEDRAL>
0

>  <SCORE.SYSTEM.SOLV>
0

>  <SCORE.SYSTEM.norm>
0

>  <SCORE.heavy>
14

>  <SCORE.norm>
-0.484381

>  <RMSD>
5.640

$$$$
ligand
 OpenBabel11021811393D
libRbt.so/2013.1/901 2013/11/27
 14 13  0  0  0  0  0  0  0  0999 V2000
   43.1080   18.7545   35.3623 N   0  0  0  0  0  0  0  0  0  0  0  0
   42.4917   17.8614   36.3312 C   0  0  0  0  0  0  0  0  0  0  0  0
   41.3448   17.0543   35.6626 C   0  0  0  0  0  0  0  0  0  0  0  0
   40.5273   16.0581   36.5597 C   0  0  0  0  0  0  0  0  0  0  0  0
   39.8410   16.6746   37.7537 N   0  0  0  0  0  0  0  0  0  0  0  0
   38.4715   17.1894   37.4621 C   0  0  0  0  0  0  0  0  0  0  0  0
   38.4498   18.5930   36.8846 C   0  0  0  0  0  0  0  0  0  0  0  0
   37.0420   19.0858   36.6027 C   0  0  0  0  0  0  0  0  0  0  0  0
   37.1583   20.4421   36.0202 C   0  0  0  0  0  0  0  0  0  0  0  0
   37.7662   20.5064   34.6695 N   0  0  0  0  0  0  0  0  0  0  0  0
   37.9907   21.8907   34.1826 C   0  0  0  0  0  0  0  0  0  0  0  0
   36.7493   22.6076   33.5731 C   0  0  0  0  0  0  0  0  0  0  0  0
   37.1747   24.0226   33.1433 C   0  0  0  0  0  0  0  0  0  0  0  0
   36.0364   24.7613   32.6028 N   0  0  0  0  0  0  0  0  0  0  0  0
  1  2  1  0  0  0  0
  2  3  1  0  0  0  0
  3  4  1  0  0  0  0
  4  5  1  0  0  0  0
  5  6  1  0  0  0  0
  6  7  1  0  0  0  0
  7  8  1  0  0  0  0
  8  9  1  0  0  0  0
  9 10  1  0  0  0  0
 10 11  1  0  0  0  0
 11 12  1  0  0  0  0
 12 13  1  0  0  0  0
 13 14  1  0  0  0  0
M  END
>  <CHROM.1>
-178.38916597,58.39333434,88.18830515,-84.44144856,-179.89301511,-178.79485912
67.84110580,-174.08172261,-81.22592787,179.42372922,-178.11621823,38.86785162
19.67848886,35.48661595,-1.01971361,0.24096880,-0.62109900

>  <Name>
ligand

>  <RI>
0

>  <Rbt.Current_Directory>
/home/itssahil/PROJECTS/Mol_Feturizer/New_Systems/rnas/1EVV

>  <Rbt.Executable>
rbdock ($Id: //depot/dev/client3/rdock/2013.1/src/exe/rbdock.cxx#4 $)

>  <Rbt.Library>
libRbt.so (2013.1, Build901 2013/11/27)

>  <Rbt.Parameter_File>
/export/apps/rDock/src/rDock_2013.1_src/data/scripts/dock_solv.prm

>  <Rbt.Receptor>
prm/pocket_docking_4.prm

>  <SCORE>
-6.19063

>  <SCORE.INTER>
3.47076

>  <SCORE.INTER.CONST>
1

>  <SCORE.INTER.POLAR>
0

>  <SCORE.INTER.ROT>
11

>  <SCORE.INTER.SOLV>
5.14659

>  <SCORE.INTER.VDW>
-10.335

>  <SCORE.INTER.norm>
0.247911

>  <SCORE.INTRA>
-9.66139

>  <SCORE.INTRA.DIHEDRAL>
-18.6099

>  <SCORE.INTRA.DIHEDRAL.0>
20.2131

>  <SCORE.INTRA.POLAR>
0

>  <SCORE.INTRA.POLAR.0>
0

>  <SCORE.INTRA.REPUL>
0

>  <SCORE.INTRA.REPUL.0>
0

>  <SCORE.INTRA.SOLV>
-0.705689

>  <SCORE.INTRA.SOLV.lig_0>
-48.2851

>  <SCORE.INTRA.VDW>
-0.00360906

>  <SCORE.INTRA.VDW.0>
-1.08658

>  <SCORE.INTRA.norm>
-0.690099

>  <SCORE.RESTR>
0

>  <SCORE.RESTR.CAVITY>
0

>  <SCORE.RESTR.norm>
0

>  <SCORE.SYSTEM>
0

>  <SCORE.SYSTEM.CONST>
0

>  <SCORE.SYSTEM.DIHEDRAL>
0

>  <SCORE.SYSTEM.SOLV>
0

>  <SCORE.SYSTEM.norm>
0

>  <SCORE.heavy>
14

>  <SCORE.norm>
-0.442188

>  <RMSD>
5.644

$$$$
ligand
 OpenBabel11021811393D
libRbt.so/2013.1/901 2013/11/27
 14 13  0  0  0  0  0  0  0  0999 V2000
   40.4300   23.8525   38.3090 N   0  0  0  0  0  0  0  0  0  0  0  0
   39.1458   23.2207   38.5695 C   0  0  0  0  0  0  0  0  0  0  0  0
   38.3535   23.0501   37.2440 C   0  0  0  0  0  0  0  0  0  0  0  0
   38.9484   22.0937   36.1500 C   0  0  0  0  0  0  0  0  0  0  0  0
   38.9731   20.6294   36.5130 N   0  0  0  0  0  0  0  0  0  0  0  0
   40.1188   20.2447   37.3876 C   0  0  0  0  0  0  0  0  0  0  0  0
   40.7108   18.8844   37.0663 C   0  0  0  0  0  0  0  0  0  0  0  0
   41.4817   18.8780   35.7588 C   0  0  0  0  0  0  0  0  0  0  0  0
   41.7458   17.4635   35.4098 C   0  0  0  0  0  0  0  0  0  0  0  0
   40.5553   16.6686   35.0237 N   0  0  0  0  0  0  0  0  0  0  0  0
   40.7069   15.2121   35.2672 C   0  0  0  0  0  0  0  0  0  0  0  0
   39.8757   14.2767   34.3395 C   0  0  0  0  0  0  0  0  0  0  0  0
   40.1272   12.8221   34.7743 C   0  0  0  0  0  0  0  0  0  0  0  0
   39.6043   12.5879   36.1178 N   0  0  0  0  0  0  0  0  0  0  0  0
  1  2  1  0  0  0  0
  2  3  1  0  0  0  0
  3  4  1  0  0  0  0
  4  5  1  0  0  0  0
  5  6  1  0  0  0  0
  6  7  1  0  0  0  0
  7  8  1  0  0  0  0
  8  9  1  0  0  0  0
  9 10  1  0  0  0  0
 10 11  1  0  0  0  0
 11 12  1  0  0  0  0
 12 13  1  0  0  0  0
 13 14  1  0  0  0  0
M  END
>  <CHROM.1>
64.55865091,67.28149268,-80.66518414,-142.26508694,71.32846964,-167.71052628
68.96244380,-154.16710000,-152.40335398,-178.09684079,65.35915380,40.05559438
18.56322415,36.28066550,-1.66452326,-0.19864559,-2.88467512

>  <Name>
ligand

>  <RI>
0

>  <Rbt.Current_Directory>
/home/itssahil/PROJECTS/Mol_Feturizer/New_Systems/rnas/1EVV

>  <Rbt.Executable>
rbdock ($Id: //depot/dev/client3/rdock/2013.1/src/exe/rbdock.cxx#4 $)

>  <Rbt.Library>
libRbt.so (2013.1, Build901 2013/11/27)

>  <Rbt.Parameter_File>
/export/apps/rDock/src/rDock_2013.1_src/data/scripts/dock_solv.prm

>  <Rbt.Receptor>
prm/pocket_docking_8.prm

>  <SCORE>
-5.95016

>  <SCORE.INTER>
1.12305

>  <SCORE.INTER.CONST>
1

>  <SCORE.INTER.POLAR>
0

>  <SCORE.INTER.ROT>
11

>  <SCORE.INTER.SOLV>
6.72368

>  <SCORE.INTER.VDW>
-12.4259

>  <SCORE.INTER.norm>
0.0802179

>  <SCORE.INTRA>
-7.07321

>  <SCORE.INTRA.DIHEDRAL>
-16.2838

>  <SCORE.INTRA.DIHEDRAL.0>
20.2131

>  <SCORE.INTRA.POLAR>
0

>  <SCORE.INTRA.POLAR.0>
0

>  <SCORE.INTRA.REPUL>
0

>  <SCORE.INTRA.REPUL.0>
0

>  <SCORE.INTRA.SOLV>
2.30298

>  <SCORE.INTRA.SOLV.lig_0>
-48.2851

>  <SCORE.INTRA.VDW>
-0.0828003

>  <SCORE.INTRA.VDW.0>
-1.08658

>  <SCORE.INTRA.norm>
-0.505229

>  <SCORE.RESTR>
0

>  <SCORE.RESTR.CAVITY>
0

>  <SCORE.RESTR.norm>
0

>  <SCORE.SYSTEM>
0

>  <SCORE.SYSTEM.CONST>
0

>  <SCORE.SYSTEM.DIHEDRAL>
0

>  <SCORE.SYSTEM.SOLV>
0

>  <SCORE.SYSTEM.norm>
0

>  <SCORE.heavy>
14

>  <SCORE.norm>
-0.425011

>  <RMSD>
5.647

$$$$
ligand
 OpenBabel11021811393D
libRbt.so/2013.1/901 2013/11/27
 14 13  0  0  0  0  0  0  0  0999 V2000
   35.3331   28.1015   35.1996 N   0  0  0  0  0  0  0  0  0  0  0  0
   36.6703   27.5307   35.1501 C   0  0  0  0  0  0  0  0  0  0  0  0
   36.7958   26.3693   36.1744 C   0  0  0  0  0  0  0  0  0  0  0  0
   38.1818   25.6414   36.2941 C   0  0  0  0  0  0  0  0  0  0  0  0
   38.2188   24.4696   37.2439 N   0  0  0  0  0  0  0  0  0  0  0  0
   39.5771   23.8780   37.4184 C   0  0  0  0  0  0  0  0  0  0  0  0
   39.5690   22.3871   37.7033 C   0  0  0  0  0  0  0  0  0  0  0  0
   38.8809   21.5884   36.6111 C   0  0  0  0  0  0  0  0  0  0  0  0
   38.9948   20.1573   36.9734 C   0  0  0  0  0  0  0  0  0  0  0  0
   38.2031   19.2227   36.1379 N   0  0  0  0  0  0  0  0  0  0  0  0
   37.9401   17.9162   36.7917 C   0  0  0  0  0  0  0  0  0  0  0  0
   37.2296   16.8453   35.9112 C   0  0  0  0  0  0  0  0  0  0  0  0
   37.1174   15.5475   36.7304 C   0  0  0  0  0  0  0  0  0  0  0  0
   38.4425   15.0441   37.0827 N   0  0  0  0  0  0  0  0  0  0  0  0
  1  2  1  0  0  0  0
  2  3  1  0  0  0  0
  3  4  1  0  0  0  0
  4  5  1  0  0  0  0
  5  6  1  0  0  0  0
  6  7  1  0  0  0  0
  7  8  1  0  0  0  0
  8  9  1  0  0  0  0
  9 10  1  0  0  0  0
 10 11  1  0  0  0  0
 11 12  1  0  0  0  0
 12 13  1  0  0  0  0
 13 14  1  0  0  0  0
M  END
>  <CHROM.1>
-178.71760191,-176.45452646,-175.06357806,-149.03157854,58.20331835,177.42003439
170.96494271,-159.04929550,-174.42961599,176.86850209,-61.56224903,37.93975457
21.76424166,36.53021454,1.67145592,-0.51466039,-0.02224912

>  <Name>
ligand

>  <RI>
0

>  <Rbt.Current_Directory>
/home/itssahil/PROJECTS/Mol_Feturizer/New_Systems/rnas/1EVV

>  <Rbt.Executable>
rbdock ($Id: //depot/dev/client3/rdock/2013.1/src/exe/rbdock.cxx#4 $)

>  <Rbt.Library>
libRbt.so (2013.1, Build901 2013/11/27)

>  <Rbt.Parameter_File>
/export/apps/rDock/src/rDock_2013.1_src/data/scripts/dock_solv.prm

>  <Rbt.Receptor>
prm/pocket_docking_8.prm

>  <SCORE>
-6.80577

>  <SCORE.INTER>
2.57502

>  <SCORE.INTER.CONST>
1

>  <SCORE.INTER.POLAR>
0

>  <SCORE.INTER.ROT>
11

>  <SCORE.INTER.SOLV>
5.70722

>  <SCORE.INTER.VDW>
-11.1191

>  <SCORE.INTER.norm>
0.18393

>  <SCORE.INTRA>
-9.38079

>  <SCORE.INTRA.DIHEDRAL>
-18.7681

>  <SCORE.INTRA.DIHEDRAL.0>
20.2131

>  <SCORE.INTRA.POLAR>
0

>  <SCORE.INTRA.POLAR.0>
0

>  <SCORE.INTRA.REPUL>
0

>  <SCORE.INTRA.REPUL.0>
0

>  <SCORE.INTRA.SOLV>
-0.11905

>  <SCORE.INTRA.SOLV.lig_0>
-48.2851

>  <SCORE.INTRA.VDW>
0.0628071

>  <SCORE.INTRA.VDW.0>
-1.08658

>  <SCORE.INTRA.norm>
-0.670056

>  <SCORE.RESTR>
0

>  <SCORE.RESTR.CAVITY>
0

>  <SCORE.RESTR.norm>
0

>  <SCORE.SYSTEM>
0

>  <SCORE.SYSTEM.CONST>
0

>  <SCORE.SYSTEM.DIHEDRAL>
0

>  <SCORE.SYSTEM.SOLV>
0

>  <SCORE.SYSTEM.norm>
0

>  <SCORE.heavy>
14

>  <SCORE.norm>
-0.486126

>  <RMSD>
5.648

$$$$
ligand
 OpenBabel11021811393D
libRbt.so/2013.1/901 2013/11/27
 14 13  0  0  0  0  0  0  0  0999 V2000
   39.8261   24.5117   37.6195 N   0  0  0  0  0  0  0  0  0  0  0  0
   39.8696   23.0641   37.7561 C   0  0  0  0  0  0  0  0  0  0  0  0
   38.7954   22.4071   36.8460 C   0  0  0  0  0  0  0  0  0  0  0  0
   38.7543   20.8393   36.7715 C   0  0  0  0  0  0  0  0  0  0  0  0
   37.6338   20.2587   35.9445 N   0  0  0  0  0  0  0  0  0  0  0  0
   37.0407   19.0170   36.5205 C   0  0  0  0  0  0  0  0  0  0  0  0
   37.8389   17.7592   36.2292 C   0  0  0  0  0  0  0  0  0  0  0  0
   37.2125   16.5172   36.8368 C   0  0  0  0  0  0  0  0  0  0  0  0
   38.1116   15.3792   36.5386 C   0  0  0  0  0  0  0  0  0  0  0  0
   38.2296   15.0178   35.1055 N   0  0  0  0  0  0  0  0  0  0  0  0
   39.5212   14.3738   34.7580 C   0  0  0  0  0  0  0  0  0  0  0  0
   39.9209   14.4184   33.2531 C   0  0  0  0  0  0  0  0  0  0  0  0
   40.0360   15.8935   32.8302 C   0  0  0  0  0  0  0  0  0  0  0  0
   40.4102   15.9985   31.4222 N   0  0  0  0  0  0  0  0  0  0  0  0
  1  2  1  0  0  0  0
  2  3  1  0  0  0  0
  3  4  1  0  0  0  0
  4  5  1  0  0  0  0
  5  6  1  0  0  0  0
  6  7  1  0  0  0  0
  7  8  1  0  0  0  0
  8  9  1  0  0  0  0
  9 10  1  0  0  0  0
 10 11  1  0  0  0  0
 11 12  1  0  0  0  0
 12 13  1  0  0  0  0
 13 14  1  0  0  0  0
M  END
>  <CHROM.1>
175.55948515,176.13241062,-141.86109315,-81.00577775,179.63364057,-177.37412443
-66.15746382,152.92942895,-159.53415785,60.34176319,179.99700857,38.79996254
18.24653300,35.60251426,-1.61550189,-0.88400624,-2.76227611

>  <Name>
ligand

>  <RI>
0

>  <Rbt.Current_Directory>
/home/itssahil/PROJECTS/Mol_Feturizer/New_Systems/rnas/1EVV

>  <Rbt.Executable>
rbdock ($Id: //depot/dev/client3/rdock/2013.1/src/exe/rbdock.cxx#4 $)

>  <Rbt.Library>
libRbt.so (2013.1, Build901 2013/11/27)

>  <Rbt.Parameter_File>
/export/apps/rDock/src/rDock_2013.1_src/data/scripts/dock_solv.prm

>  <Rbt.Receptor>
prm/pocket_docking_7.prm

>  <SCORE>
-8.69888

>  <SCORE.INTER>
0.622695

>  <SCORE.INTER.CONST>
1

>  <SCORE.INTER.POLAR>
0

>  <SCORE.INTER.ROT>
11

>  <SCORE.INTER.SOLV>
8.1368

>  <SCORE.INTER.VDW>
-13.2305

>  <SCORE.INTER.norm>
0.0444782

>  <SCORE.INTRA>
-9.32157

>  <SCORE.INTRA.DIHEDRAL>
-17.9136

>  <SCORE.INTRA.DIHEDRAL.0>
20.2131

>  <SCORE.INTRA.POLAR>
0

>  <SCORE.INTRA.POLAR.0>
0

>  <SCORE.INTRA.REPUL>
0

>  <SCORE.INTRA.REPUL.0>
0

>  <SCORE.INTRA.SOLV>
-0.686538

>  <SCORE.INTRA.SOLV.lig_0>
-48.2851

>  <SCORE.INTRA.VDW>
-0.0215213

>  <SCORE.INTRA.VDW.0>
-1.08658

>  <SCORE.INTRA.norm>
-0.665827

>  <SCORE.RESTR>
0

>  <SCORE.RESTR.CAVITY>
0

>  <SCORE.RESTR.norm>
0

>  <SCORE.SYSTEM>
0

>  <SCORE.SYSTEM.CONST>
0

>  <SCORE.SYSTEM.DIHEDRAL>
0

>  <SCORE.SYSTEM.SOLV>
0

>  <SCORE.SYSTEM.norm>
0

>  <SCORE.heavy>
14

>  <SCORE.norm>
-0.621348

>  <RMSD>
5.650

$$$$
ligand
 OpenBabel11021811393D
libRbt.so/2013.1/901 2013/11/27
 14 13  0  0  0  0  0  0  0  0999 V2000
   38.0884   24.3370   36.8543 N   0  0  0  0  0  0  0  0  0  0  0  0
   39.4389   23.8284   37.0382 C   0  0  0  0  0  0  0  0  0  0  0  0
   39.3946   22.3782   37.5939 C   0  0  0  0  0  0  0  0  0  0  0  0
   38.6842   21.2797   36.7256 C   0  0  0  0  0  0  0  0  0  0  0  0
   38.7916   19.8690   37.2501 N   0  0  0  0  0  0  0  0  0  0  0  0
   37.8962   18.8984   36.5561 C   0  0  0  0  0  0  0  0  0  0  0  0
   38.1010   17.4561   36.9827 C   0  0  0  0  0  0  0  0  0  0  0  0
   37.1688   16.4975   36.2641 C   0  0  0  0  0  0  0  0  0  0  0  0
   37.5487   15.1254   36.6707 C   0  0  0  0  0  0  0  0  0  0  0  0
   38.9512   14.7400   36.3832 N   0  0  0  0  0  0  0  0  0  0  0  0
   39.1775   14.3207   34.9773 C   0  0  0  0  0  0  0  0  0  0  0  0
   39.7679   15.4070   34.0297 C   0  0  0  0  0  0  0  0  0  0  0  0
   39.8803   14.8037   32.6185 C   0  0  0  0  0  0  0  0  0  0  0  0
   40.3915   15.7936   31.6738 N   0  0  0  0  0  0  0  0  0  0  0  0
  1  2  1  0  0  0  0
  2  3  1  0  0  0  0
  3  4  1  0  0  0  0
  4  5  1  0  0  0  0
  5  6  1  0  0  0  0
  6  7  1  0  0  0  0
  7  8  1  0  0  0  0
  8  9  1  0  0  0  0
  9 10  1  0  0  0  0
 10 11  1  0  0  0  0
 11 12  1  0  0  0  0
 12 13  1  0  0  0  0
 13 14  1  0  0  0  0
M  END
>  <CHROM.1>
60.61481188,174.19334035,168.85920171,174.14867022,179.64317620,174.92069753
-58.28535274,-80.81892043,98.36808305,-177.95731832,178.24427617,38.80567525
18.19514570,35.82999968,-1.67617963,-1.05356130,-2.88883041

>  <Name>
ligand

>  <RI>
0

>  <Rbt.Current_Directory>
/home/itssahil/PROJECTS/Mol_Feturizer/New_Systems/rnas/1EVV

>  <Rbt.Executable>
rbdock ($Id: //depot/dev/client3/rdock/2013.1/src/exe/rbdock.cxx#4 $)

>  <Rbt.Library>
libRbt.so (2013.1, Build901 2013/11/27)

>  <Rbt.Parameter_File>
/export/apps/rDock/src/rDock_2013.1_src/data/scripts/dock_solv.prm

>  <Rbt.Receptor>
prm/pocket_docking_7.prm

>  <SCORE>
-8.38477

>  <SCORE.INTER>
0.962436

>  <SCORE.INTER.CONST>
1

>  <SCORE.INTER.POLAR>
0

>  <SCORE.INTER.ROT>
11

>  <SCORE.INTER.SOLV>
9.70331

>  <SCORE.INTER.VDW>
-13.5261

>  <SCORE.INTER.norm>
0.0687454

>  <SCORE.INTRA>
-9.3472

>  <SCORE.INTRA.DIHEDRAL>
-18.6343

>  <SCORE.INTRA.DIHEDRAL.0>
20.2131

>  <SCORE.INTRA.POLAR>
0

>  <SCORE.INTRA.POLAR.0>
0

>  <SCORE.INTRA.REPUL>
0

>  <SCORE.INTRA.REPUL.0>
0

>  <SCORE.INTRA.SOLV>
-0.282991

>  <SCORE.INTRA.SOLV.lig_0>
-48.2851

>  <SCORE.INTRA.VDW>
0.111417

>  <SCORE.INTRA.VDW.0>
-1.08658

>  <SCORE.INTRA.norm>
-0.667657

>  <SCORE.RESTR>
0

>  <SCORE.RESTR.CAVITY>
0

>  <SCORE.RESTR.norm>
0

>  <SCORE.SYSTEM>
0

>  <SCORE.SYSTEM.CONST>
0

>  <SCORE.SYSTEM.DIHEDRAL>
0

>  <SCORE.SYSTEM.SOLV>
0

>  <SCORE.SYSTEM.norm>
0

>  <SCORE.heavy>
14

>  <SCORE.norm>
-0.598912

>  <RMSD>
5.663

$$$$
ligand
 OpenBabel11021811393D
libRbt.so/2013.1/901 2013/11/27
 14 13  0  0  0  0  0  0  0  0999 V2000
   38.3387   24.4373   37.0311 N   0  0  0  0  0  0  0  0  0  0  0  0
   39.5783   23.7507   37.3596 C   0  0  0  0  0  0  0  0  0  0  0  0
   39.2900   22.2681   37.7233 C   0  0  0  0  0  0  0  0  0  0  0  0
   38.5595   21.3780   36.6557 C   0  0  0  0  0  0  0  0  0  0  0  0
   38.4121   19.9208   37.0180 N   0  0  0  0  0  0  0  0  0  0  0  0
   37.3619   19.2082   36.2339 C   0  0  0  0  0  0  0  0  0  0  0  0
   37.3015   17.7147   36.4979 C   0  0  0  0  0  0  0  0  0  0  0  0
   38.5921   17.0049   36.1305 C   0  0  0  0  0  0  0  0  0  0  0  0
   38.3594   15.5524   36.2985 C   0  0  0  0  0  0  0  0  0  0  0  0
   39.5210   14.6812   35.9986 N   0  0  0  0  0  0  0  0  0  0  0  0
   39.3129   13.7931   34.8274 C   0  0  0  0  0  0  0  0  0  0  0  0
   40.0063   14.2368   33.5049 C   0  0  0  0  0  0  0  0  0  0  0  0
   39.3876   15.5750   33.0637 C   0  0  0  0  0  0  0  0  0  0  0  0
   40.0001   16.0418   31.8226 N   0  0  0  0  0  0  0  0  0  0  0  0
  1  2  1  0  0  0  0
  2  3  1  0  0  0  0
  3  4  1  0  0  0  0
  4  5  1  0  0  0  0
  5  6  1  0  0  0  0
  6  7  1  0  0  0  0
  7  8  1  0  0  0  0
  8  9  1  0  0  0  0
  9 10  1  0  0  0  0
 10 11  1  0  0  0  0
 11 12  1  0  0  0  0
 12 13  1  0  0  0  0
 13 14  1  0  0  0  0
M  END
>  <CHROM.1>
57.63035073,175.01561769,161.21919100,174.37129789,-61.37226483,-174.21384327
-179.35532865,-114.80155844,102.46214075,-64.03763214,-179.93568485,38.85858633
18.25428878,35.72622194,-1.76038246,-1.14589554,-2.95247720

>  <Name>
ligand

>  <RI>
0

>  <Rbt.Current_Directory>
/home/itssahil/PROJECTS/Mol_Feturizer/New_Systems/rnas/1EVV

>  <Rbt.Executable>
rbdock ($Id: //depot/dev/client3/rdock/2013.1/src/exe/rbdock.cxx#4 $)

>  <Rbt.Library>
libRbt.so (2013.1, Build901 2013/11/27)

>  <Rbt.Parameter_File>
/export/apps/rDock/src/rDock_2013.1_src/data/scripts/dock_solv.prm

>  <Rbt.Receptor>
prm/pocket_docking_7.prm

>  <SCORE>
-6.92532

>  <SCORE.INTER>
1.98465

>  <SCORE.INTER.CONST>
1

>  <SCORE.INTER.POLAR>
0

>  <SCORE.INTER.ROT>
11

>  <SCORE.INTER.SOLV>
8.9553

>  <SCORE.INTER.VDW>
-12.5953

>  <SCORE.INTER.norm>
0.141761

>  <SCORE.INTRA>
-8.90997

>  <SCORE.INTRA.DIHEDRAL>
-17.4534

>  <SCORE.INTRA.DIHEDRAL.0>
20.2131

>  <SCORE.INTRA.POLAR>
0

>  <SCORE.INTRA.POLAR.0>
0

>  <SCORE.INTRA.REPUL>
0

>  <SCORE.INTRA.REPUL.0>
0

>  <SCORE.INTRA.SOLV>
0.0822261

>  <SCORE.INTRA.SOLV.lig_0>
-48.2851

>  <SCORE.INTRA.VDW>
-0.224393

>  <SCORE.INTRA.VDW.0>
-1.08658

>  <SCORE.INTRA.norm>
-0.636427

>  <SCORE.RESTR>
0

>  <SCORE.RESTR.CAVITY>
0

>  <SCORE.RESTR.norm>
0

>  <SCORE.SYSTEM>
0

>  <SCORE.SYSTEM.CONST>
0

>  <SCORE.SYSTEM.DIHEDRAL>
0

>  <SCORE.SYSTEM.SOLV>
0

>  <SCORE.SYSTEM.norm>
0

>  <SCORE.heavy>
14

>  <SCORE.norm>
-0.494666

>  <RMSD>
5.673

$$$$
ligand
 OpenBabel11021811393D
libRbt.so/2013.1/901 2013/11/27
 14 13  0  0  0  0  0  0  0  0999 V2000
   40.5509   23.6797   38.6198 N   0  0  0  0  0  0  0  0  0  0  0  0
   40.1647   22.6019   37.7224 C   0  0  0  0  0  0  0  0  0  0  0  0
   38.6289   22.6233   37.4886 C   0  0  0  0  0  0  0  0  0  0  0  0
   38.0103   21.5133   36.5663 C   0  0  0  0  0  0  0  0  0  0  0  0
   38.2923   20.0913   36.9848 N   0  0  0  0  0  0  0  0  0  0  0  0
   37.1870   19.1401   36.6700 C   0  0  0  0  0  0  0  0  0  0  0  0
   37.6491   17.7139   36.4327 C   0  0  0  0  0  0  0  0  0  0  0  0
   38.3383   17.1148   37.6452 C   0  0  0  0  0  0  0  0  0  0  0  0
   38.8367   15.7769   37.2526 C   0  0  0  0  0  0  0  0  0  0  0  0
   39.8220   15.7629   36.1448 N   0  0  0  0  0  0  0  0  0  0  0  0
   40.3111   14.4045   35.7999 C   0  0  0  0  0  0  0  0  0  0  0  0
   39.6227   13.7225   34.5802 C   0  0  0  0  0  0  0  0  0  0  0  0
   39.9411   14.5515   33.3234 C   0  0  0  0  0  0  0  0  0  0  0  0
   39.2633   15.8444   33.3733 N   0  0  0  0  0  0  0  0  0  0  0  0
  1  2  1  0  0  0  0
  2  3  1  0  0  0  0
  3  4  1  0  0  0  0
  4  5  1  0  0  0  0
  5  6  1  0  0  0  0
  6  7  1  0  0  0  0
  7  8  1  0  0  0  0
  8  9  1  0  0  0  0
  9 10  1  0  0  0  0
 10 11  1  0  0  0  0
 11 12  1  0  0  0  0
 12 13  1  0  0  0  0
 13 14  1  0  0  0  0
M  END
>  <CHROM.1>
-178.77115548,56.48573402,147.02950094,151.54644903,60.95678304,-175.39270727
60.87625073,179.03349019,98.38540968,64.23598140,-68.94743848,39.04400075
18.18121629,36.32886840,-1.63176001,-0.71929724,-2.82697733

>  <Name>
ligand

>  <RI>
0

>  <Rbt.Current_Directory>
/home/itssahil/PROJECTS/Mol_Feturizer/New_Systems/rnas/1EVV

>  <Rbt.Executable>
rbdock ($Id: //depot/dev/client3/rdock/2013.1/src/exe/rbdock.cxx#4 $)

>  <Rbt.Library>
libRbt.so (2013.1, Build901 2013/11/27)

>  <Rbt.Parameter_File>
/export/apps/rDock/src/rDock_2013.1_src/data/scripts/dock_solv.prm

>  <Rbt.Receptor>
prm/pocket_docking_7.prm

>  <SCORE>
-7.08637

>  <SCORE.INTER>
0.0951991

>  <SCORE.INTER.CONST>
1

>  <SCORE.INTER.POLAR>
0

>  <SCORE.INTER.ROT>
11

>  <SCORE.INTER.SOLV>
8.52362

>  <SCORE.INTER.VDW>
-13.7111

>  <SCORE.INTER.norm>
0.00679994

>  <SCORE.INTRA>
-7.18157

>  <SCORE.INTRA.DIHEDRAL>
-17.6006

>  <SCORE.INTRA.DIHEDRAL.0>
20.2131

>  <SCORE.INTRA.POLAR>
0

>  <SCORE.INTRA.POLAR.0>
0

>  <SCORE.INTRA.REPUL>
0

>  <SCORE.INTRA.REPUL.0>
0

>  <SCORE.INTRA.SOLV>
3.50218

>  <SCORE.INTRA.SOLV.lig_0>
-48.2851

>  <SCORE.INTRA.VDW>
-0.13234

>  <SCORE.INTRA.VDW.0>
-1.08658

>  <SCORE.INTRA.norm>
-0.512969

>  <SCORE.RESTR>
0

>  <SCORE.RESTR.CAVITY>
0

>  <SCORE.RESTR.norm>
0

>  <SCORE.SYSTEM>
0

>  <SCORE.SYSTEM.CONST>
0

>  <SCORE.SYSTEM.DIHEDRAL>
0

>  <SCORE.SYSTEM.SOLV>
0

>  <SCORE.SYSTEM.norm>
0

>  <SCORE.heavy>
14

>  <SCORE.norm>
-0.506169

>  <RMSD>
5.677

$$$$
ligand
 OpenBabel11021811393D
libRbt.so/2013.1/901 2013/11/27
 14 13  0  0  0  0  0  0  0  0999 V2000
   39.6587   22.8555   36.4365 N   0  0  0  0  0  0  0  0  0  0  0  0
   38.6962   21.9545   37.0514 C   0  0  0  0  0  0  0  0  0  0  0  0
   37.8972   21.1951   35.9565 C   0  0  0  0  0  0  0  0  0  0  0  0
   36.7951   20.1786   36.4228 C   0  0  0  0  0  0  0  0  0  0  0  0
   37.2905   19.0217   37.2551 N   0  0  0  0  0  0  0  0  0  0  0  0
   37.9798   17.9616   36.4636 C   0  0  0  0  0  0  0  0  0  0  0  0
   37.1207   16.7412   36.1870 C   0  0  0  0  0  0  0  0  0  0  0  0
   37.7508   15.8018   35.1747 C   0  0  0  0  0  0  0  0  0  0  0  0
   37.5280   16.3862   33.8327 C   0  0  0  0  0  0  0  0  0  0  0  0
   38.4020   17.5315   33.4825 N   0  0  0  0  0  0  0  0  0  0  0  0
   37.6551   18.7681   33.1408 C   0  0  0  0  0  0  0  0  0  0  0  0
   37.1527   18.8754   31.6701 C   0  0  0  0  0  0  0  0  0  0  0  0
   35.9442   17.9371   31.5057 C   0  0  0  0  0  0  0  0  0  0  0  0
   35.3631   18.0738   30.1726 N   0  0  0  0  0  0  0  0  0  0  0  0
  1  2  1  0  0  0  0
  2  3  1  0  0  0  0
  3  4  1  0  0  0  0
  4  5  1  0  0  0  0
  5  6  1  0  0  0  0
  6  7  1  0  0  0  0
  7  8  1  0  0  0  0
  8  9  1  0  0  0  0
  9 10  1  0  0  0  0
 10 11  1  0  0  0  0
 11 12  1  0  0  0  0
 12 13  1  0  0  0  0
 13 14  1  0  0  0  0
M  END
>  <CHROM.1>
-179.49025752,-61.23646609,-76.31799544,-101.44759810,169.43690754,-78.12560635
76.31177227,-122.19239230,-83.78578726,74.76216023,175.52896861,37.51664173
18.80564864,34.62526481,0.12685689,-1.27427938,-0.51442796

>  <Name>
ligand

>  <RI>
0

>  <Rbt.Current_Directory>
/home/itssahil/PROJECTS/Mol_Feturizer/New_Systems/rnas/1EVV

>  <Rbt.Executable>
rbdock ($Id: //depot/dev/client3/rdock/2013.1/src/exe/rbdock.cxx#4 $)

>  <Rbt.Library>
libRbt.so (2013.1, Build901 2013/11/27)

>  <Rbt.Parameter_File>
/export/apps/rDock/src/rDock_2013.1_src/data/scripts/dock_solv.prm

>  <Rbt.Receptor>
prm/pocket_docking_8.prm

>  <SCORE>
-3.75526

>  <SCORE.INTER>
2.69361

>  <SCORE.INTER.CONST>
1

>  <SCORE.INTER.POLAR>
0

>  <SCORE.INTER.ROT>
11

>  <SCORE.INTER.SOLV>
9.45222

>  <SCORE.INTER.VDW>
-12.2883

>  <SCORE.INTER.norm>
0.192401

>  <SCORE.INTRA>
-6.44887

>  <SCORE.INTRA.DIHEDRAL>
-13.962

>  <SCORE.INTRA.DIHEDRAL.0>
20.2131

>  <SCORE.INTRA.POLAR>
0

>  <SCORE.INTRA.POLAR.0>
0

>  <SCORE.INTRA.REPUL>
0

>  <SCORE.INTRA.REPUL.0>
0

>  <SCORE.INTRA.SOLV>
0.821503

>  <SCORE.INTRA.SOLV.lig_0>
-48.2851

>  <SCORE.INTRA.VDW>
0.121381

>  <SCORE.INTRA.VDW.0>
-1.08658

>  <SCORE.INTRA.norm>
-0.460634

>  <SCORE.RESTR>
0

>  <SCORE.RESTR.CAVITY>
0

>  <SCORE.RESTR.norm>
0

>  <SCORE.SYSTEM>
0

>  <SCORE.SYSTEM.CONST>
0

>  <SCORE.SYSTEM.DIHEDRAL>
0

>  <SCORE.SYSTEM.SOLV>
0

>  <SCORE.SYSTEM.norm>
0

>  <SCORE.heavy>
14

>  <SCORE.norm>
-0.268233

>  <RMSD>
5.691

$$$$
ligand
 OpenBabel11021811393D
libRbt.so/2013.1/901 2013/11/27
 14 13  0  0  0  0  0  0  0  0999 V2000
   40.7176   24.3466   38.6948 N   0  0  0  0  0  0  0  0  0  0  0  0
   40.6999   23.1530   37.8634 C   0  0  0  0  0  0  0  0  0  0  0  0
   39.2442   22.6358   37.6987 C   0  0  0  0  0  0  0  0  0  0  0  0
   39.0145   21.3529   36.8231 C   0  0  0  0  0  0  0  0  0  0  0  0
   37.5790   20.9084   36.6882 N   0  0  0  0  0  0  0  0  0  0  0  0
   37.4135   19.6198   35.9551 C   0  0  0  0  0  0  0  0  0  0  0  0
   37.6199   18.3881   36.8178 C   0  0  0  0  0  0  0  0  0  0  0  0
   37.4866   17.0964   36.0316 C   0  0  0  0  0  0  0  0  0  0  0  0
   37.6832   15.9791   36.9830 C   0  0  0  0  0  0  0  0  0  0  0  0
   37.6983   14.6240   36.3814 N   0  0  0  0  0  0  0  0  0  0  0  0
   39.0628   14.0699   36.1957 C   0  0  0  0  0  0  0  0  0  0  0  0
   39.5032   13.8248   34.7217 C   0  0  0  0  0  0  0  0  0  0  0  0
   39.6088   15.1896   34.0187 C   0  0  0  0  0  0  0  0  0  0  0  0
   39.9414   15.0179   32.6069 N   0  0  0  0  0  0  0  0  0  0  0  0
  1  2  1  0  0  0  0
  2  3  1  0  0  0  0
  3  4  1  0  0  0  0
  4  5  1  0  0  0  0
  5  6  1  0  0  0  0
  6  7  1  0  0  0  0
  7  8  1  0  0  0  0
  8  9  1  0  0  0  0
  9 10  1  0  0  0  0
 10 11  1  0  0  0  0
 11 12  1  0  0  0  0
 12 13  1  0  0  0  0
 13 14  1  0  0  0  0
M  END
>  <CHROM.1>
179.65024842,-179.35685575,-174.72091878,82.75855111,-178.22617952,-178.98719715
-175.27865277,100.50423078,-115.53974705,66.02179476,-176.58672516,38.80513662
18.30029597,36.24864032,-1.46743278,-0.59879168,-2.75517201

>  <Name>
ligand

>  <RI>
0

>  <Rbt.Current_Directory>
/home/itssahil/PROJECTS/Mol_Feturizer/New_Systems/rnas/1EVV

>  <Rbt.Executable>
rbdock ($Id: //depot/dev/client3/rdock/2013.1/src/exe/rbdock.cxx#4 $)

>  <Rbt.Library>
libRbt.so (2013.1, Build901 2013/11/27)

>  <Rbt.Parameter_File>
/export/apps/rDock/src/rDock_2013.1_src/data/scripts/dock_solv.prm

>  <Rbt.Receptor>
prm/pocket_docking_7.prm

>  <SCORE>
-8.20413

>  <SCORE.INTER>
1.26665

>  <SCORE.INTER.CONST>
1

>  <SCORE.INTER.POLAR>
0

>  <SCORE.INTER.ROT>
11

>  <SCORE.INTER.SOLV>
11.0196

>  <SCORE.INTER.VDW>
-13.7621

>  <SCORE.INTER.norm>
0.090475

>  <SCORE.INTRA>
-9.47078

>  <SCORE.INTRA.DIHEDRAL>
-17.433

>  <SCORE.INTRA.DIHEDRAL.0>
20.2131

>  <SCORE.INTRA.POLAR>
0

>  <SCORE.INTRA.POLAR.0>
0

>  <SCORE.INTRA.REPUL>
0

>  <SCORE.INTRA.REPUL.0>
0

>  <SCORE.INTRA.SOLV>
-1.10204

>  <SCORE.INTRA.SOLV.lig_0>
-48.2851

>  <SCORE.INTRA.VDW>
-0.203274

>  <SCORE.INTRA.VDW.0>
-1.08658

>  <SCORE.INTRA.norm>
-0.676484

>  <SCORE.RESTR>
0

>  <SCORE.RESTR.CAVITY>
0

>  <SCORE.RESTR.norm>
0

>  <SCORE.SYSTEM>
0

>  <SCORE.SYSTEM.CONST>
0

>  <SCORE.SYSTEM.DIHEDRAL>
0

>  <SCORE.SYSTEM.SOLV>
0

>  <SCORE.SYSTEM.norm>
0

>  <SCORE.heavy>
14

>  <SCORE.norm>
-0.586009

>  <RMSD>
5.692

$$$$
ligand
 OpenBabel11021811393D
libRbt.so/2013.1/901 2013/11/27
 14 13  0  0  0  0  0  0  0  0999 V2000
   39.6879   24.3772   37.2908 N   0  0  0  0  0  0  0  0  0  0  0  0
   39.4998   23.3680   38.3215 C   0  0  0  0  0  0  0  0  0  0  0  0
   39.4914   21.9495   37.6878 C   0  0  0  0  0  0  0  0  0  0  0  0
   38.3880   21.6290   36.6177 C   0  0  0  0  0  0  0  0  0  0  0  0
   38.3281   20.1930   36.1583 N   0  0  0  0  0  0  0  0  0  0  0  0
   37.0947   19.4733   36.5899 C   0  0  0  0  0  0  0  0  0  0  0  0
   37.1739   17.9654   36.4347 C   0  0  0  0  0  0  0  0  0  0  0  0
   38.2256   17.3411   37.3338 C   0  0  0  0  0  0  0  0  0  0  0  0
   38.1646   15.8756   37.1315 C   0  0  0  0  0  0  0  0  0  0  0  0
   38.4153   15.4118   35.7457 N   0  0  0  0  0  0  0  0  0  0  0  0
   38.8432   13.9929   35.6607 C   0  0  0  0  0  0  0  0  0  0  0  0
   40.1610   13.7254   34.8742 C   0  0  0  0  0  0  0  0  0  0  0  0
   39.9534   14.1823   33.4195 C   0  0  0  0  0  0  0  0  0  0  0  0
   39.9119   15.6401   33.3380 N   0  0  0  0  0  0  0  0  0  0  0  0
  1  2  1  0  0  0  0
  2  3  1  0  0  0  0
  3  4  1  0  0  0  0
  4  5  1  0  0  0  0
  5  6  1  0  0  0  0
  6  7  1  0  0  0  0
  7  8  1  0  0  0  0
  8  9  1  0  0  0  0
  9 10  1  0  0  0  0
 10 11  1  0  0  0  0
 11 12  1  0  0  0  0
 12 13  1  0  0  0  0
 13 14  1  0  0  0  0
M  END
>  <CHROM.1>
-60.21396157,-173.11584929,111.94820571,-165.80115804,64.79709324,177.68818195
59.61054690,158.51014584,-126.77452599,-61.71739528,71.81337367,38.80979278
18.22289699,36.18622644,-1.61259113,-0.78419019,-2.86388289

>  <Name>
ligand

>  <RI>
0

>  <Rbt.Current_Directory>
/home/itssahil/PROJECTS/Mol_Feturizer/New_Systems/rnas/1EVV

>  <Rbt.Executable>
rbdock ($Id: //depot/dev/client3/rdock/2013.1/src/exe/rbdock.cxx#4 $)

>  <Rbt.Library>
libRbt.so (2013.1, Build901 2013/11/27)

>  <Rbt.Parameter_File>
/export/apps/rDock/src/rDock_2013.1_src/data/scripts/dock_solv.prm

>  <Rbt.Receptor>
prm/pocket_docking_6.prm

>  <SCORE>
-8.28874

>  <SCORE.INTER>
-1.4849

>  <SCORE.INTER.CONST>
1

>  <SCORE.INTER.POLAR>
0

>  <SCORE.INTER.ROT>
11

>  <SCORE.INTER.SOLV>
5.49716

>  <SCORE.INTER.VDW>
-13.7557

>  <SCORE.INTER.norm>
-0.106064

>  <SCORE.INTRA>
-6.80642

>  <SCORE.INTRA.DIHEDRAL>
-16.5937

>  <SCORE.INTRA.DIHEDRAL.0>
20.2131

>  <SCORE.INTRA.POLAR>
0

>  <SCORE.INTRA.POLAR.0>
0

>  <SCORE.INTRA.REPUL>
0

>  <SCORE.INTRA.REPUL.0>
0

>  <SCORE.INTRA.SOLV>
3.02257

>  <SCORE.INTRA.SOLV.lig_0>
-48.2851

>  <SCORE.INTRA.VDW>
-0.0208655

>  <SCORE.INTRA.VDW.0>
-1.08658

>  <SCORE.INTRA.norm>
-0.486173

>  <SCORE.RESTR>
0.00258327

>  <SCORE.RESTR.CAVITY>
0.00258327

>  <SCORE.RESTR.norm>
0.00018452

>  <SCORE.SYSTEM>
0

>  <SCORE.SYSTEM.CONST>
0

>  <SCORE.SYSTEM.DIHEDRAL>
0

>  <SCORE.SYSTEM.SOLV>
0

>  <SCORE.SYSTEM.norm>
0

>  <SCORE.heavy>
14

>  <SCORE.norm>
-0.592053

>  <RMSD>
5.742

$$$$
ligand
 OpenBabel11021811393D
libRbt.so/2013.1/901 2013/11/27
 14 13  0  0  0  0  0  0  0  0999 V2000
   41.0523   16.5611   36.3287 N   0  0  0  0  0  0  0  0  0  0  0  0
   41.2149   16.3162   34.9041 C   0  0  0  0  0  0  0  0  0  0  0  0
   40.6512   14.9169   34.5328 C   0  0  0  0  0  0  0  0  0  0  0  0
   39.1016   14.6933   34.6520 C   0  0  0  0  0  0  0  0  0  0  0  0
   38.5231   14.8858   36.0322 N   0  0  0  0  0  0  0  0  0  0  0  0
   37.0845   15.2805   36.0329 C   0  0  0  0  0  0  0  0  0  0  0  0
   36.8294   16.6823   36.5563 C   0  0  0  0  0  0  0  0  0  0  0  0
   37.5866   17.7424   35.7772 C   0  0  0  0  0  0  0  0  0  0  0  0
   37.2883   19.0490   36.4065 C   0  0  0  0  0  0  0  0  0  0  0  0
   37.9960   20.2143   35.8238 N   0  0  0  0  0  0  0  0  0  0  0  0
   37.9661   21.4219   36.6866 C   0  0  0  0  0  0  0  0  0  0  0  0
   38.5671   22.7177   36.0650 C   0  0  0  0  0  0  0  0  0  0  0  0
   38.4552   23.8461   37.1053 C   0  0  0  0  0  0  0  0  0  0  0  0
   38.9730   25.0998   36.5636 N   0  0  0  0  0  0  0  0  0  0  0  0
  1  2  1  0  0  0  0
  2  3  1  0  0  0  0
  3  4  1  0  0  0  0
  4  5  1  0  0  0  0
  5  6  1  0  0  0  0
  6  7  1  0  0  0  0
  7  8  1  0  0  0  0
  8  9  1  0  0  0  0
  9 10  1  0  0  0  0
 10 11  1  0  0  0  0
 11 12  1  0  0  0  0
 12 13  1  0  0  0  0
 13 14  1  0  0  0  0
M  END
>  <CHROM.1>
67.12948007,-60.28296457,153.70111907,-113.51129292,57.54384328,-178.30867929
177.06185624,-164.38917156,-174.01995165,-179.58665715,-178.50393783,38.66333337
18.53024894,35.96182709,-1.47313420,0.24320345,0.12167507

>  <Name>
ligand

>  <RI>
0

>  <Rbt.Current_Directory>
/home/itssahil/PROJECTS/Mol_Feturizer/New_Systems/rnas/1EVV

>  <Rbt.Executable>
rbdock ($Id: //depot/dev/client3/rdock/2013.1/src/exe/rbdock.cxx#4 $)

>  <Rbt.Library>
libRbt.so (2013.1, Build901 2013/11/27)

>  <Rbt.Parameter_File>
/export/apps/rDock/src/rDock_2013.1_src/data/scripts/dock_solv.prm

>  <Rbt.Receptor>
prm/pocket_docking_6.prm

>  <SCORE>
-6.6977

>  <SCORE.INTER>
1.73738

>  <SCORE.INTER.CONST>
1

>  <SCORE.INTER.POLAR>
0

>  <SCORE.INTER.ROT>
11

>  <SCORE.INTER.SOLV>
7.62516

>  <SCORE.INTER.VDW>
-12.3168

>  <SCORE.INTER.norm>
0.124099

>  <SCORE.INTRA>
-8.43508

>  <SCORE.INTRA.DIHEDRAL>
-18.0774

>  <SCORE.INTRA.DIHEDRAL.0>
20.2131

>  <SCORE.INTRA.POLAR>
0

>  <SCORE.INTRA.POLAR.0>
0

>  <SCORE.INTRA.REPUL>
0

>  <SCORE.INTRA.REPUL.0>
0

>  <SCORE.INTRA.SOLV>
2.79954

>  <SCORE.INTRA.SOLV.lig_0>
-48.2851

>  <SCORE.INTRA.VDW>
-0.796144

>  <SCORE.INTRA.VDW.0>
-1.08658

>  <SCORE.INTRA.norm>
-0.602506

>  <SCORE.RESTR>
0

>  <SCORE.RESTR.CAVITY>
0

>  <SCORE.RESTR.norm>
0

>  <SCORE.SYSTEM>
0

>  <SCORE.SYSTEM.CONST>
0

>  <SCORE.SYSTEM.DIHEDRAL>
0

>  <SCORE.SYSTEM.SOLV>
0

>  <SCORE.SYSTEM.norm>
0

>  <SCORE.heavy>
14

>  <SCORE.norm>
-0.478407

>  <RMSD>
5.759

$$$$
ligand
 OpenBabel11021811393D
libRbt.so/2013.1/901 2013/11/27
 14 13  0  0  0  0  0  0  0  0999 V2000
   41.2185   25.0500   39.2754 N   0  0  0  0  0  0  0  0  0  0  0  0
   41.1798   23.8681   38.4281 C   0  0  0  0  0  0  0  0  0  0  0  0
   39.7144   23.3844   38.2491 C   0  0  0  0  0  0  0  0  0  0  0  0
   39.4578   22.1447   37.3203 C   0  0  0  0  0  0  0  0  0  0  0  0
   38.0096   21.7679   37.1272 N   0  0  0  0  0  0  0  0  0  0  0  0
   37.7519   20.9814   35.8861 C   0  0  0  0  0  0  0  0  0  0  0  0
   37.1652   19.6044   36.1387 C   0  0  0  0  0  0  0  0  0  0  0  0
   38.1308   18.6828   36.8614 C   0  0  0  0  0  0  0  0  0  0  0  0
   37.5757   17.3125   36.7813 C   0  0  0  0  0  0  0  0  0  0  0  0
   38.3540   16.2665   37.4873 N   0  0  0  0  0  0  0  0  0  0  0  0
   38.3850   14.9645   36.7749 C   0  0  0  0  0  0  0  0  0  0  0  0
   39.5402   14.7786   35.7464 C   0  0  0  0  0  0  0  0  0  0  0  0
   39.4202   13.3700   35.1387 C   0  0  0  0  0  0  0  0  0  0  0  0
   39.6983   12.3488   36.1454 N   0  0  0  0  0  0  0  0  0  0  0  0
  1  2  1  0  0  0  0
  2  3  1  0  0  0  0
  3  4  1  0  0  0  0
  4  5  1  0  0  0  0
  5  6  1  0  0  0  0
  6  7  1  0  0  0  0
  7  8  1  0  0  0  0
  8  9  1  0  0  0  0
  9 10  1  0  0  0  0
 10 11  1  0  0  0  0
 11 12  1  0  0  0  0
 12 13  1  0  0  0  0
 13 14  1  0  0  0  0
M  END
>  <CHROM.1>
177.83173893,-176.86547871,157.48566001,119.53402677,-66.07547793,-167.67361541
-177.44102402,-142.63887633,88.87118005,178.88726961,-67.46808693,38.97138206
18.89462143,36.95408232,-1.46149435,0.38988963,-2.96864648

>  <Name>
ligand

>  <RI>
0

>  <Rbt.Current_Directory>
/home/itssahil/PROJECTS/Mol_Feturizer/New_Systems/rnas/1EVV

>  <Rbt.Executable>
rbdock ($Id: //depot/dev/client3/rdock/2013.1/src/exe/rbdock.cxx#4 $)

>  <Rbt.Library>
libRbt.so (2013.1, Build901 2013/11/27)

>  <Rbt.Parameter_File>
/export/apps/rDock/src/rDock_2013.1_src/data/scripts/dock_solv.prm

>  <Rbt.Receptor>
prm/pocket_docking_7.prm

>  <SCORE>
-6.89617

>  <SCORE.INTER>
1.41842

>  <SCORE.INTER.CONST>
1

>  <SCORE.INTER.POLAR>
0

>  <SCORE.INTER.ROT>
11

>  <SCORE.INTER.SOLV>
8.52379

>  <SCORE.INTER.VDW>
-12.829

>  <SCORE.INTER.norm>
0.101315

>  <SCORE.INTRA>
-8.31458

>  <SCORE.INTRA.DIHEDRAL>
-16.2058

>  <SCORE.INTRA.DIHEDRAL.0>
20.2131

>  <SCORE.INTRA.POLAR>
0

>  <SCORE.INTRA.POLAR.0>
0

>  <SCORE.INTRA.REPUL>
0

>  <SCORE.INTRA.REPUL.0>
0

>  <SCORE.INTRA.SOLV>
-0.303179

>  <SCORE.INTRA.SOLV.lig_0>
-48.2851

>  <SCORE.INTRA.VDW>
-0.0600967

>  <SCORE.INTRA.VDW.0>
-1.08658

>  <SCORE.INTRA.norm>
-0.593899

>  <SCORE.RESTR>
0

>  <SCORE.RESTR.CAVITY>
0

>  <SCORE.RESTR.norm>
0

>  <SCORE.SYSTEM>
0

>  <SCORE.SYSTEM.CONST>
0

>  <SCORE.SYSTEM.DIHEDRAL>
0

>  <SCORE.SYSTEM.SOLV>
0

>  <SCORE.SYSTEM.norm>
0

>  <SCORE.heavy>
14

>  <SCORE.norm>
-0.492583

>  <RMSD>
5.759

$$$$
ligand
 OpenBabel11021811393D
libRbt.so/2013.1/901 2013/11/27
 14 13  0  0  0  0  0  0  0  0999 V2000
   40.5112   14.8844   33.7560 N   0  0  0  0  0  0  0  0  0  0  0  0
   40.0558   13.6415   34.3592 C   0  0  0  0  0  0  0  0  0  0  0  0
   38.7871   13.8962   35.2191 C   0  0  0  0  0  0  0  0  0  0  0  0
   38.9275   14.8208   36.4803 C   0  0  0  0  0  0  0  0  0  0  0  0
   37.6286   15.2555   37.1133 N   0  0  0  0  0  0  0  0  0  0  0  0
   37.1175   16.5613   36.6041 C   0  0  0  0  0  0  0  0  0  0  0  0
   38.0070   17.7450   36.9387 C   0  0  0  0  0  0  0  0  0  0  0  0
   37.3968   19.0700   36.5189 C   0  0  0  0  0  0  0  0  0  0  0  0
   38.4298   20.1125   36.7146 C   0  0  0  0  0  0  0  0  0  0  0  0
   37.9501   21.5121   36.6179 N   0  0  0  0  0  0  0  0  0  0  0  0
   38.7407   22.4702   37.4307 C   0  0  0  0  0  0  0  0  0  0  0  0
   38.1780   23.9206   37.5114 C   0  0  0  0  0  0  0  0  0  0  0  0
   38.2895   24.5575   36.1150 C   0  0  0  0  0  0  0  0  0  0  0  0
   37.8896   25.9617   36.1554 N   0  0  0  0  0  0  0  0  0  0  0  0
  1  2  1  0  0  0  0
  2  3  1  0  0  0  0
  3  4  1  0  0  0  0
  4  5  1  0  0  0  0
  5  6  1  0  0  0  0
  6  7  1  0  0  0  0
  7  8  1  0  0  0  0
  8  9  1  0  0  0  0
  9 10  1  0  0  0  0
 10 11  1  0  0  0  0
 11 12  1  0  0  0  0
 12 13  1  0  0  0  0
 13 14  1  0  0  0  0
M  END
>  <CHROM.1>
-64.30181808,168.24183135,-92.57714874,-65.13189754,-174.73058730,-171.91460071
-168.34290887,151.37109472,-172.59629596,-67.46183989,-174.81285055,38.42206077
18.88616566,36.25261190,-1.42752535,0.84749808,0.03009524

>  <Name>
ligand

>  <RI>
0

>  <Rbt.Current_Directory>
/home/itssahil/PROJECTS/Mol_Feturizer/New_Systems/rnas/1EVV

>  <Rbt.Executable>
rbdock ($Id: //depot/dev/client3/rdock/2013.1/src/exe/rbdock.cxx#4 $)

>  <Rbt.Library>
libRbt.so (2013.1, Build901 2013/11/27)

>  <Rbt.Parameter_File>
/export/apps/rDock/src/rDock_2013.1_src/data/scripts/dock_solv.prm

>  <Rbt.Receptor>
prm/pocket_docking_7.prm

>  <SCORE>
-7.84146

>  <SCORE.INTER>
0.666147

>  <SCORE.INTER.CONST>
1

>  <SCORE.INTER.POLAR>
0

>  <SCORE.INTER.ROT>
11

>  <SCORE.INTER.SOLV>
10.3506

>  <SCORE.INTER.VDW>
-13.9394

>  <SCORE.INTER.norm>
0.0475819

>  <SCORE.INTRA>
-8.50761

>  <SCORE.INTRA.DIHEDRAL>
-17.1509

>  <SCORE.INTRA.DIHEDRAL.0>
20.2131

>  <SCORE.INTRA.POLAR>
0

>  <SCORE.INTRA.POLAR.0>
0

>  <SCORE.INTRA.REPUL>
0

>  <SCORE.INTRA.REPUL.0>
0

>  <SCORE.INTRA.SOLV>
-0.460052

>  <SCORE.INTRA.SOLV.lig_0>
-48.2851

>  <SCORE.INTRA.VDW>
0.297868

>  <SCORE.INTRA.VDW.0>
-1.08658

>  <SCORE.INTRA.norm>
-0.607686

>  <SCORE.RESTR>
0

>  <SCORE.RESTR.CAVITY>
0

>  <SCORE.RESTR.norm>
0

>  <SCORE.SYSTEM>
0

>  <SCORE.SYSTEM.CONST>
0

>  <SCORE.SYSTEM.DIHEDRAL>
0

>  <SCORE.SYSTEM.SOLV>
0

>  <SCORE.SYSTEM.norm>
0

>  <SCORE.heavy>
14

>  <SCORE.norm>
-0.560104

>  <RMSD>
5.763

$$$$
ligand
 OpenBabel11021811393D
libRbt.so/2013.1/901 2013/11/27
 14 13  0  0  0  0  0  0  0  0999 V2000
   39.2704   23.7911   37.4657 N   0  0  0  0  0  0  0  0  0  0  0  0
   39.3615   22.3461   37.6070 C   0  0  0  0  0  0  0  0  0  0  0  0
   38.4058   21.6477   36.6007 C   0  0  0  0  0  0  0  0  0  0  0  0
   38.4360   20.0796   36.5256 C   0  0  0  0  0  0  0  0  0  0  0  0
   37.5045   19.4611   35.5126 N   0  0  0  0  0  0  0  0  0  0  0  0
   37.6857   17.9896   35.3470 C   0  0  0  0  0  0  0  0  0  0  0  0
   37.1103   17.1651   36.4842 C   0  0  0  0  0  0  0  0  0  0  0  0
   36.9791   15.6949   36.1302 C   0  0  0  0  0  0  0  0  0  0  0  0
   38.3492   15.1456   36.0136 C   0  0  0  0  0  0  0  0  0  0  0  0
   39.0611   15.4689   34.7539 N   0  0  0  0  0  0  0  0  0  0  0  0
   40.5116   15.1552   34.7921 C   0  0  0  0  0  0  0  0  0  0  0  0
   41.4390   16.2871   35.3264 C   0  0  0  0  0  0  0  0  0  0  0  0
   41.3602   17.4737   34.3498 C   0  0  0  0  0  0  0  0  0  0  0  0
   42.2571   18.5474   34.7697 N   0  0  0  0  0  0  0  0  0  0  0  0
  1  2  1  0  0  0  0
  2  3  1  0  0  0  0
  3  4  1  0  0  0  0
  4  5  1  0  0  0  0
  5  6  1  0  0  0  0
  6  7  1  0  0  0  0
  7  8  1  0  0  0  0
  8  9  1  0  0  0  0
  9 10  1  0  0  0  0
 10 11  1  0  0  0  0
 11 12  1  0  0  0  0
 12 13  1  0  0  0  0
 13 14  1  0  0  0  0
M  END
>  <CHROM.1>
175.64413749,-178.92469118,172.59137420,75.41074739,164.94678972,68.53321114
-77.76128831,167.68670801,-88.44126909,-64.66102976,-177.54392398,39.12351039
18.30337881,35.83426305,-1.64966566,-0.27647377,-2.89350037

>  <Name>
ligand

>  <RI>
0

>  <Rbt.Current_Directory>
/home/itssahil/PROJECTS/Mol_Feturizer/New_Systems/rnas/1EVV

>  <Rbt.Executable>
rbdock ($Id: //depot/dev/client3/rdock/2013.1/src/exe/rbdock.cxx#4 $)

>  <Rbt.Library>
libRbt.so (2013.1, Build901 2013/11/27)

>  <Rbt.Parameter_File>
/export/apps/rDock/src/rDock_2013.1_src/data/scripts/dock_solv.prm

>  <Rbt.Receptor>
prm/pocket_docking_5.prm

>  <SCORE>
-6.04969

>  <SCORE.INTER>
1.55129

>  <SCORE.INTER.CONST>
1

>  <SCORE.INTER.POLAR>
0

>  <SCORE.INTER.ROT>
11

>  <SCORE.INTER.SOLV>
5.49502

>  <SCORE.INTER.VDW>
-11.7308

>  <SCORE.INTER.norm>
0.110806

>  <SCORE.INTRA>
-7.60098

>  <SCORE.INTRA.DIHEDRAL>
-16.9075

>  <SCORE.INTRA.DIHEDRAL.0>
20.2131

>  <SCORE.INTRA.POLAR>
0

>  <SCORE.INTRA.POLAR.0>
0

>  <SCORE.INTRA.REPUL>
0

>  <SCORE.INTRA.REPUL.0>
0

>  <SCORE.INTRA.SOLV>
0.233592

>  <SCORE.INTRA.SOLV.lig_0>
-48.2851

>  <SCORE.INTRA.VDW>
0.735976

>  <SCORE.INTRA.VDW.0>
-1.08658

>  <SCORE.INTRA.norm>
-0.542927

>  <SCORE.RESTR>
0

>  <SCORE.RESTR.CAVITY>
0

>  <SCORE.RESTR.norm>
0

>  <SCORE.SYSTEM>
0

>  <SCORE.SYSTEM.CONST>
0

>  <SCORE.SYSTEM.DIHEDRAL>
0

>  <SCORE.SYSTEM.SOLV>
0

>  <SCORE.SYSTEM.norm>
0

>  <SCORE.heavy>
14

>  <SCORE.norm>
-0.432121

>  <RMSD>
5.768

$$$$
ligand
 OpenBabel11021811393D
libRbt.so/2013.1/901 2013/11/27
 14 13  0  0  0  0  0  0  0  0999 V2000
   43.0672   18.7246   35.2708 N   0  0  0  0  0  0  0  0  0  0  0  0
   42.3441   17.6793   35.9784 C   0  0  0  0  0  0  0  0  0  0  0  0
   41.3231   16.9957   35.0277 C   0  0  0  0  0  0  0  0  0  0  0  0
   40.3841   15.8905   35.6295 C   0  0  0  0  0  0  0  0  0  0  0  0
   39.4366   16.3604   36.7056 N   0  0  0  0  0  0  0  0  0  0  0  0
   38.0090   16.4034   36.2747 C   0  0  0  0  0  0  0  0  0  0  0  0
   37.5581   17.7612   35.7677 C   0  0  0  0  0  0  0  0  0  0  0  0
   37.5743   18.8234   36.8520 C   0  0  0  0  0  0  0  0  0  0  0  0
   36.9662   20.0463   36.2801 C   0  0  0  0  0  0  0  0  0  0  0  0
   37.7253   20.6795   35.1751 N   0  0  0  0  0  0  0  0  0  0  0  0
   37.0535   20.5762   33.8553 C   0  0  0  0  0  0  0  0  0  0  0  0
   36.0708   21.7313   33.4994 C   0  0  0  0  0  0  0  0  0  0  0  0
   36.8819   23.0341   33.3858 C   0  0  0  0  0  0  0  0  0  0  0  0
   36.0397   24.1251   32.9022 N   0  0  0  0  0  0  0  0  0  0  0  0
  1  2  1  0  0  0  0
  2  3  1  0  0  0  0
  3  4  1  0  0  0  0
  4  5  1  0  0  0  0
  5  6  1  0  0  0  0
  6  7  1  0  0  0  0
  7  8  1  0  0  0  0
  8  9  1  0  0  0  0
  9 10  1  0  0  0  0
 10 11  1  0  0  0  0
 11 12  1  0  0  0  0
 12 13  1  0  0  0  0
 13 14  1  0  0  0  0
M  END
>  <CHROM.1>
-176.61133057,63.02884216,108.90849790,-94.30458984,-65.29435698,-173.34748763
-65.58394485,111.20645085,89.20859975,64.48007348,173.43862548,38.60223783
19.20190003,35.18610812,-0.92905335,0.14301625,-0.48542370

>  <Name>
ligand

>  <RI>
0

>  <Rbt.Current_Directory>
/home/itssahil/PROJECTS/Mol_Feturizer/New_Systems/rnas/1EVV

>  <Rbt.Executable>
rbdock ($Id: //depot/dev/client3/rdock/2013.1/src/exe/rbdock.cxx#4 $)

>  <Rbt.Library>
libRbt.so (2013.1, Build901 2013/11/27)

>  <Rbt.Parameter_File>
/export/apps/rDock/src/rDock_2013.1_src/data/scripts/dock_solv.prm

>  <Rbt.Receptor>
prm/pocket_docking_4.prm

>  <SCORE>
-6.05954

>  <SCORE.INTER>
2.14095

>  <SCORE.INTER.CONST>
1

>  <SCORE.INTER.POLAR>
0

>  <SCORE.INTER.ROT>
11

>  <SCORE.INTER.SOLV>
5.06679

>  <SCORE.INTER.VDW>
-11.195

>  <SCORE.INTER.norm>
0.152925

>  <SCORE.INTRA>
-8.20049

>  <SCORE.INTRA.DIHEDRAL>
-15.9437

>  <SCORE.INTRA.DIHEDRAL.0>
20.2131

>  <SCORE.INTRA.POLAR>
0

>  <SCORE.INTRA.POLAR.0>
0

>  <SCORE.INTRA.REPUL>
0

>  <SCORE.INTRA.REPUL.0>
0

>  <SCORE.INTRA.SOLV>
-0.0442101

>  <SCORE.INTRA.SOLV.lig_0>
-48.2851

>  <SCORE.INTRA.VDW>
-0.206562

>  <SCORE.INTRA.VDW.0>
-1.08658

>  <SCORE.INTRA.norm>
-0.58575

>  <SCORE.RESTR>
0

>  <SCORE.RESTR.CAVITY>
0

>  <SCORE.RESTR.norm>
0

>  <SCORE.SYSTEM>
0

>  <SCORE.SYSTEM.CONST>
0

>  <SCORE.SYSTEM.DIHEDRAL>
0

>  <SCORE.SYSTEM.SOLV>
0

>  <SCORE.SYSTEM.norm>
0

>  <SCORE.heavy>
14

>  <SCORE.norm>
-0.432825

>  <RMSD>
5.785

$$$$
ligand
 OpenBabel11021811393D
libRbt.so/2013.1/901 2013/11/27
 14 13  0  0  0  0  0  0  0  0999 V2000
   39.3708   15.9376   32.7653 N   0  0  0  0  0  0  0  0  0  0  0  0
   39.3875   14.5034   33.0086 C   0  0  0  0  0  0  0  0  0  0  0  0
   40.1956   14.1876   34.2974 C   0  0  0  0  0  0  0  0  0  0  0  0
   39.6466   14.7366   35.6622 C   0  0  0  0  0  0  0  0  0  0  0  0
   39.5111   16.2367   35.7502 N   0  0  0  0  0  0  0  0  0  0  0  0
   39.2052   16.7346   37.1228 C   0  0  0  0  0  0  0  0  0  0  0  0
   38.6360   18.1414   37.1563 C   0  0  0  0  0  0  0  0  0  0  0  0
   37.2861   18.2408   36.4692 C   0  0  0  0  0  0  0  0  0  0  0  0
   36.8343   19.6459   36.5865 C   0  0  0  0  0  0  0  0  0  0  0  0
   37.5991   20.6310   35.7846 N   0  0  0  0  0  0  0  0  0  0  0  0
   36.9995   20.9116   34.4560 C   0  0  0  0  0  0  0  0  0  0  0  0
   37.6289   22.0942   33.6611 C   0  0  0  0  0  0  0  0  0  0  0  0
   39.0861   21.7281   33.3289 C   0  0  0  0  0  0  0  0  0  0  0  0
   39.7295   22.8033   32.5783 N   0  0  0  0  0  0  0  0  0  0  0  0
  1  2  1  0  0  0  0
  2  3  1  0  0  0  0
  3  4  1  0  0  0  0
  4  5  1  0  0  0  0
  5  6  1  0  0  0  0
  6  7  1  0  0  0  0
  7  8  1  0  0  0  0
  8  9  1  0  0  0  0
  9 10  1  0  0  0  0
 10 11  1  0  0  0  0
 11 12  1  0  0  0  0
 12 13  1  0  0  0  0
 13 14  1  0  0  0  0
M  END
>  <CHROM.1>
63.90124455,-59.77779067,-170.43945991,-161.41456640,64.09838160,179.22080906
69.73320091,94.09805337,170.87076587,64.29091278,179.88820439,38.65100078
18.32353362,34.90222530,-1.06525852,1.12489263,-0.56830553

>  <Name>
ligand

>  <RI>
0

>  <Rbt.Current_Directory>
/home/itssahil/PROJECTS/Mol_Feturizer/New_Systems/rnas/1EVV

>  <Rbt.Executable>
rbdock ($Id: //depot/dev/client3/rdock/2013.1/src/exe/rbdock.cxx#4 $)

>  <Rbt.Library>
libRbt.so (2013.1, Build901 2013/11/27)

>  <Rbt.Parameter_File>
/export/apps/rDock/src/rDock_2013.1_src/data/scripts/dock_solv.prm

>  <Rbt.Receptor>
prm/pocket_docking_7.prm

>  <SCORE>
-6.67413

>  <SCORE.INTER>
1.78343

>  <SCORE.INTER.CONST>
1

>  <SCORE.INTER.POLAR>
0

>  <SCORE.INTER.ROT>
11

>  <SCORE.INTER.SOLV>
4.92922

>  <SCORE.INTER.VDW>
-11.3875

>  <SCORE.INTER.norm>
0.127388

>  <SCORE.INTRA>
-8.45755

>  <SCORE.INTRA.DIHEDRAL>
-18.5386

>  <SCORE.INTRA.DIHEDRAL.0>
20.2131

>  <SCORE.INTRA.POLAR>
0

>  <SCORE.INTRA.POLAR.0>
0

>  <SCORE.INTRA.REPUL>
0

>  <SCORE.INTRA.REPUL.0>
0

>  <SCORE.INTRA.SOLV>
2.22048

>  <SCORE.INTRA.SOLV.lig_0>
-48.2851

>  <SCORE.INTRA.VDW>
-0.298506

>  <SCORE.INTRA.VDW.0>
-1.08658

>  <SCORE.INTRA.norm>
-0.604111

>  <SCORE.RESTR>
0

>  <SCORE.RESTR.CAVITY>
0

>  <SCORE.RESTR.norm>
0

>  <SCORE.SYSTEM>
0

>  <SCORE.SYSTEM.CONST>
0

>  <SCORE.SYSTEM.DIHEDRAL>
0

>  <SCORE.SYSTEM.SOLV>
0

>  <SCORE.SYSTEM.norm>
0

>  <SCORE.heavy>
14

>  <SCORE.norm>
-0.476723

>  <RMSD>
5.793

$$$$
ligand
 OpenBabel11021811393D
libRbt.so/2013.1/901 2013/11/27
 14 13  0  0  0  0  0  0  0  0999 V2000
   38.3500   24.2187   36.5868 N   0  0  0  0  0  0  0  0  0  0  0  0
   38.2730   23.5203   37.8605 C   0  0  0  0  0  0  0  0  0  0  0  0
   39.4248   22.4839   37.9743 C   0  0  0  0  0  0  0  0  0  0  0  0
   39.4490   21.2962   36.9476 C   0  0  0  0  0  0  0  0  0  0  0  0
   38.1946   20.4594   36.8945 N   0  0  0  0  0  0  0  0  0  0  0  0
   38.4151   19.0746   36.3853 C   0  0  0  0  0  0  0  0  0  0  0  0
   37.1857   18.1873   36.4578 C   0  0  0  0  0  0  0  0  0  0  0  0
   37.4008   16.8377   35.7972 C   0  0  0  0  0  0  0  0  0  0  0  0
   38.2162   16.0189   36.7230 C   0  0  0  0  0  0  0  0  0  0  0  0
   38.5609   14.6607   36.2385 N   0  0  0  0  0  0  0  0  0  0  0  0
   39.9579   14.5387   35.7515 C   0  0  0  0  0  0  0  0  0  0  0  0
   40.1557   13.6985   34.4547 C   0  0  0  0  0  0  0  0  0  0  0  0
   39.5015   14.4569   33.2865 C   0  0  0  0  0  0  0  0  0  0  0  0
   40.1906   15.7215   33.0426 N   0  0  0  0  0  0  0  0  0  0  0  0
  1  2  1  0  0  0  0
  2  3  1  0  0  0  0
  3  4  1  0  0  0  0
  4  5  1  0  0  0  0
  5  6  1  0  0  0  0
  6  7  1  0  0  0  0
  7  8  1  0  0  0  0
  8  9  1  0  0  0  0
  9 10  1  0  0  0  0
 10 11  1  0  0  0  0
 11 12  1  0  0  0  0
 12 13  1  0  0  0  0
 13 14  1  0  0  0  0
M  END
>  <CHROM.1>
-63.36935014,-55.65809749,-155.90866421,174.31278096,173.83051607,76.39944558
-178.74660346,102.99440090,-138.84049413,67.43684659,64.81741627,38.80541916
18.22645313,36.02876065,-1.72612502,-0.89986014,-2.95322577

>  <Name>
ligand

>  <RI>
0

>  <Rbt.Current_Directory>
/home/itssahil/PROJECTS/Mol_Feturizer/New_Systems/rnas/1EVV

>  <Rbt.Executable>
rbdock ($Id: //depot/dev/client3/rdock/2013.1/src/exe/rbdock.cxx#4 $)

>  <Rbt.Library>
libRbt.so (2013.1, Build901 2013/11/27)

>  <Rbt.Parameter_File>
/export/apps/rDock/src/rDock_2013.1_src/data/scripts/dock_solv.prm

>  <Rbt.Receptor>
prm/pocket_docking_8.prm

>  <SCORE>
-6.84533

>  <SCORE.INTER>
-0.390216

>  <SCORE.INTER.CONST>
1

>  <SCORE.INTER.POLAR>
0

>  <SCORE.INTER.ROT>
11

>  <SCORE.INTER.SOLV>
8.36357

>  <SCORE.INTER.VDW>
-13.9813

>  <SCORE.INTER.norm>
-0.0278726

>  <SCORE.INTRA>
-6.45512

>  <SCORE.INTRA.DIHEDRAL>
-16.244

>  <SCORE.INTRA.DIHEDRAL.0>
20.2131

>  <SCORE.INTRA.POLAR>
0

>  <SCORE.INTRA.POLAR.0>
0

>  <SCORE.INTRA.REPUL>
0

>  <SCORE.INTRA.REPUL.0>
0

>  <SCORE.INTRA.SOLV>
2.91751

>  <SCORE.INTRA.SOLV.lig_0>
-48.2851

>  <SCORE.INTRA.VDW>
0.208131

>  <SCORE.INTRA.VDW.0>
-1.08658

>  <SCORE.INTRA.norm>
-0.46108

>  <SCORE.RESTR>
0

>  <SCORE.RESTR.CAVITY>
0

>  <SCORE.RESTR.norm>
0

>  <SCORE.SYSTEM>
0

>  <SCORE.SYSTEM.CONST>
0

>  <SCORE.SYSTEM.DIHEDRAL>
0

>  <SCORE.SYSTEM.SOLV>
0

>  <SCORE.SYSTEM.norm>
0

>  <SCORE.heavy>
14

>  <SCORE.norm>
-0.488952

>  <RMSD>
5.802

$$$$
ligand
 OpenBabel11021811393D
libRbt.so/2013.1/901 2013/11/27
 14 13  0  0  0  0  0  0  0  0999 V2000
   40.0975   15.9313   31.9302 N   0  0  0  0  0  0  0  0  0  0  0  0
   39.2694   15.4923   33.0427 C   0  0  0  0  0  0  0  0  0  0  0  0
   40.0302   14.4390   33.8945 C   0  0  0  0  0  0  0  0  0  0  0  0
   39.2927   13.8286   35.1391 C   0  0  0  0  0  0  0  0  0  0  0  0
   38.8984   14.8174   36.2084 N   0  0  0  0  0  0  0  0  0  0  0  0
   37.4443   15.1506   36.2143 C   0  0  0  0  0  0  0  0  0  0  0  0
   37.1358   16.5584   36.6908 C   0  0  0  0  0  0  0  0  0  0  0  0
   37.7761   17.6228   35.8184 C   0  0  0  0  0  0  0  0  0  0  0  0
   37.5148   18.9325   36.4578 C   0  0  0  0  0  0  0  0  0  0  0  0
   38.0285   20.1143   35.7245 N   0  0  0  0  0  0  0  0  0  0  0  0
   38.0532   21.3557   36.5381 C   0  0  0  0  0  0  0  0  0  0  0  0
   39.3727   21.6317   37.3187 C   0  0  0  0  0  0  0  0  0  0  0  0
   39.2105   22.9577   38.0825 C   0  0  0  0  0  0  0  0  0  0  0  0
   39.0981   24.0781   37.1522 N   0  0  0  0  0  0  0  0  0  0  0  0
  1  2  1  0  0  0  0
  2  3  1  0  0  0  0
  3  4  1  0  0  0  0
  4  5  1  0  0  0  0
  5  6  1  0  0  0  0
  6  7  1  0  0  0  0
  7  8  1  0  0  0  0
  8  9  1  0  0  0  0
  9 10  1  0  0  0  0
 10 11  1  0  0  0  0
 11 12  1  0  0  0  0
 12 13  1  0  0  0  0
 13 14  1  0  0  0  0
M  END
>  <CHROM.1>
-179.32986824,-61.16500265,104.05175250,-149.36995077,60.68772123,-174.54603018
-178.07086338,-165.57811319,90.80524770,179.41068910,-66.21072948,38.65859392
18.06474593,35.72963525,-1.49321802,1.00158679,0.28996322

>  <Name>
ligand

>  <RI>
0

>  <Rbt.Current_Directory>
/home/itssahil/PROJECTS/Mol_Feturizer/New_Systems/rnas/1EVV

>  <Rbt.Executable>
rbdock ($Id: //depot/dev/client3/rdock/2013.1/src/exe/rbdock.cxx#4 $)

>  <Rbt.Library>
libRbt.so (2013.1, Build901 2013/11/27)

>  <Rbt.Parameter_File>
/export/apps/rDock/src/rDock_2013.1_src/data/scripts/dock_solv.prm

>  <Rbt.Receptor>
prm/pocket_docking_6.prm

>  <SCORE>
-10.0985

>  <SCORE.INTER>
-1.00206

>  <SCORE.INTER.CONST>
1

>  <SCORE.INTER.POLAR>
0

>  <SCORE.INTER.ROT>
11

>  <SCORE.INTER.SOLV>
6.58072

>  <SCORE.INTER.VDW>
-13.7949

>  <SCORE.INTER.norm>
-0.0715759

>  <SCORE.INTRA>
-9.0964

>  <SCORE.INTRA.DIHEDRAL>
-17.5097

>  <SCORE.INTRA.DIHEDRAL.0>
20.2131

>  <SCORE.INTRA.POLAR>
0

>  <SCORE.INTRA.POLAR.0>
0

>  <SCORE.INTRA.REPUL>
0

>  <SCORE.INTRA.REPUL.0>
0

>  <SCORE.INTRA.SOLV>
0.0919605

>  <SCORE.INTRA.SOLV.lig_0>
-48.2851

>  <SCORE.INTRA.VDW>
-0.387529

>  <SCORE.INTRA.VDW.0>
-1.08658

>  <SCORE.INTRA.norm>
-0.649743

>  <SCORE.RESTR>
0

>  <SCORE.RESTR.CAVITY>
0

>  <SCORE.RESTR.norm>
0

>  <SCORE.SYSTEM>
0

>  <SCORE.SYSTEM.CONST>
0

>  <SCORE.SYSTEM.DIHEDRAL>
0

>  <SCORE.SYSTEM.SOLV>
0

>  <SCORE.SYSTEM.norm>
0

>  <SCORE.heavy>
14

>  <SCORE.norm>
-0.721319

>  <RMSD>
5.817

$$$$
ligand
 OpenBabel11021811393D
libRbt.so/2013.1/901 2013/11/27
 14 13  0  0  0  0  0  0  0  0999 V2000
   39.8898   16.8384   32.4691 N   0  0  0  0  0  0  0  0  0  0  0  0
   40.0335   15.4138   32.2125 C   0  0  0  0  0  0  0  0  0  0  0  0
   39.1088   14.6022   33.1611 C   0  0  0  0  0  0  0  0  0  0  0  0
   39.3620   14.7132   34.7068 C   0  0  0  0  0  0  0  0  0  0  0  0
   38.3029   14.0917   35.5835 N   0  0  0  0  0  0  0  0  0  0  0  0
   38.1982   14.7143   36.9352 C   0  0  0  0  0  0  0  0  0  0  0  0
   37.3834   15.9946   36.9634 C   0  0  0  0  0  0  0  0  0  0  0  0
   38.0230   17.1108   36.1577 C   0  0  0  0  0  0  0  0  0  0  0  0
   37.2912   18.3583   36.4746 C   0  0  0  0  0  0  0  0  0  0  0  0
   37.7993   19.5825   35.8101 N   0  0  0  0  0  0  0  0  0  0  0  0
   37.5878   20.8209   36.6008 C   0  0  0  0  0  0  0  0  0  0  0  0
   38.7133   21.8932   36.5003 C   0  0  0  0  0  0  0  0  0  0  0  0
   38.3875   23.0257   37.4901 C   0  0  0  0  0  0  0  0  0  0  0  0
   39.3733   24.0986   37.3883 N   0  0  0  0  0  0  0  0  0  0  0  0
  1  2  1  0  0  0  0
  2  3  1  0  0  0  0
  3  4  1  0  0  0  0
  4  5  1  0  0  0  0
  5  6  1  0  0  0  0
  6  7  1  0  0  0  0
  7  8  1  0  0  0  0
  8  9  1  0  0  0  0
  9 10  1  0  0  0  0
 10 11  1  0  0  0  0
 11 12  1  0  0  0  0
 12 13  1  0  0  0  0
 13 14  1  0  0  0  0
M  END
>  <CHROM.1>
-62.06299508,170.33961811,-153.07730007,81.46589569,-64.74848444,-169.14389562
178.18292322,-149.81439349,144.35367440,-174.26824757,-176.92657962,38.53230567
17.94673375,35.60394851,-1.44606910,1.07269492,0.23419435

>  <Name>
ligand

>  <RI>
0

>  <Rbt.Current_Directory>
/home/itssahil/PROJECTS/Mol_Feturizer/New_Systems/rnas/1EVV

>  <Rbt.Executable>
rbdock ($Id: //depot/dev/client3/rdock/2013.1/src/exe/rbdock.cxx#4 $)

>  <Rbt.Library>
libRbt.so (2013.1, Build901 2013/11/27)

>  <Rbt.Parameter_File>
/export/apps/rDock/src/rDock_2013.1_src/data/scripts/dock_solv.prm

>  <Rbt.Receptor>
prm/pocket_docking_6.prm

>  <SCORE>
-8.61503

>  <SCORE.INTER>
-0.481582

>  <SCORE.INTER.CONST>
1

>  <SCORE.INTER.POLAR>
0

>  <SCORE.INTER.ROT>
11

>  <SCORE.INTER.SOLV>
6.02876

>  <SCORE.INTER.VDW>
-13.264

>  <SCORE.INTER.norm>
-0.0343987

>  <SCORE.INTRA>
-8.13698

>  <SCORE.INTRA.DIHEDRAL>
-16.8888

>  <SCORE.INTRA.DIHEDRAL.0>
20.2131

>  <SCORE.INTRA.POLAR>
0

>  <SCORE.INTRA.POLAR.0>
0

>  <SCORE.INTRA.REPUL>
0

>  <SCORE.INTRA.REPUL.0>
0

>  <SCORE.INTRA.SOLV>
0.0422905

>  <SCORE.INTRA.SOLV.lig_0>
-48.2851

>  <SCORE.INTRA.VDW>
0.286265

>  <SCORE.INTRA.VDW.0>
-1.08658

>  <SCORE.INTRA.norm>
-0.581213

>  <SCORE.RESTR>
0.00353344

>  <SCORE.RESTR.CAVITY>
0.00353344

>  <SCORE.RESTR.norm>
0.000252389

>  <SCORE.SYSTEM>
0

>  <SCORE.SYSTEM.CONST>
0

>  <SCORE.SYSTEM.DIHEDRAL>
0

>  <SCORE.SYSTEM.SOLV>
0

>  <SCORE.SYSTEM.norm>
0

>  <SCORE.heavy>
14

>  <SCORE.norm>
-0.615359

>  <RMSD>
5.870

$$$$
ligand
 OpenBabel11021811393D
libRbt.so/2013.1/901 2013/11/27
 14 13  0  0  0  0  0  0  0  0999 V2000
   41.4654   24.3042   38.9546 N   0  0  0  0  0  0  0  0  0  0  0  0
   40.6971   23.7136   37.8697 C   0  0  0  0  0  0  0  0  0  0  0  0
   39.2983   23.2720   38.3817 C   0  0  0  0  0  0  0  0  0  0  0  0
   38.3329   22.5651   37.3651 C   0  0  0  0  0  0  0  0  0  0  0  0
   38.8364   21.2640   36.7904 N   0  0  0  0  0  0  0  0  0  0  0  0
   37.7672   20.2460   36.5762 C   0  0  0  0  0  0  0  0  0  0  0  0
   38.2858   18.8264   36.4360 C   0  0  0  0  0  0  0  0  0  0  0  0
   37.1680   17.8038   36.3415 C   0  0  0  0  0  0  0  0  0  0  0  0
   37.7997   16.4688   36.2361 C   0  0  0  0  0  0  0  0  0  0  0  0
   38.5453   16.2131   34.9803 N   0  0  0  0  0  0  0  0  0  0  0  0
   39.6169   15.1955   35.1206 C   0  0  0  0  0  0  0  0  0  0  0  0
   39.1388   13.7293   35.3399 C   0  0  0  0  0  0  0  0  0  0  0  0
   40.3761   12.8568   35.6156 C   0  0  0  0  0  0  0  0  0  0  0  0
   39.9810   11.4848   35.9239 N   0  0  0  0  0  0  0  0  0  0  0  0
  1  2  1  0  0  0  0
  2  3  1  0  0  0  0
  3  4  1  0  0  0  0
  4  5  1  0  0  0  0
  5  6  1  0  0  0  0
  6  7  1  0  0  0  0
  7  8  1  0  0  0  0
  8  9  1  0  0  0  0
  9 10  1  0  0  0  0
 10 11  1  0  0  0  0
 11 12  1  0  0  0  0
 12 13  1  0  0  0  0
 13 14  1  0  0  0  0
M  END
>  <CHROM.1>
-178.02057422,61.39014519,143.89056365,-161.25553716,174.97629925,-178.90944620
-67.52021915,154.56176453,69.64226115,-173.85620633,175.96735343,39.09323663
18.42457592,36.56651599,-1.53481403,0.28764987,-2.90473804

>  <Name>
ligand

>  <RI>
0

>  <Rbt.Current_Directory>
/home/itssahil/PROJECTS/Mol_Feturizer/New_Systems/rnas/1EVV

>  <Rbt.Executable>
rbdock ($Id: //depot/dev/client3/rdock/2013.1/src/exe/rbdock.cxx#4 $)

>  <Rbt.Library>
libRbt.so (2013.1, Build901 2013/11/27)

>  <Rbt.Parameter_File>
/export/apps/rDock/src/rDock_2013.1_src/data/scripts/dock_solv.prm

>  <Rbt.Receptor>
prm/pocket_docking_8.prm

>  <SCORE>
-8.04831

>  <SCORE.INTER>
1.21359

>  <SCORE.INTER.CONST>
1

>  <SCORE.INTER.POLAR>
0

>  <SCORE.INTER.ROT>
11

>  <SCORE.INTER.SOLV>
7.74139

>  <SCORE.INTER.VDW>
-12.7047

>  <SCORE.INTER.norm>
0.0866849

>  <SCORE.INTRA>
-9.2619

>  <SCORE.INTRA.DIHEDRAL>
-18.0889

>  <SCORE.INTRA.DIHEDRAL.0>
20.2131

>  <SCORE.INTRA.POLAR>
0

>  <SCORE.INTRA.POLAR.0>
0

>  <SCORE.INTRA.REPUL>
0

>  <SCORE.INTRA.REPUL.0>
0

>  <SCORE.INTRA.SOLV>
-0.71801

>  <SCORE.INTRA.SOLV.lig_0>
-48.2851

>  <SCORE.INTRA.VDW>
0.141563

>  <SCORE.INTRA.VDW.0>
-1.08658

>  <SCORE.INTRA.norm>
-0.661564

>  <SCORE.RESTR>
0

>  <SCORE.RESTR.CAVITY>
0

>  <SCORE.RESTR.norm>
0

>  <SCORE.SYSTEM>
0

>  <SCORE.SYSTEM.CONST>
0

>  <SCORE.SYSTEM.DIHEDRAL>
0

>  <SCORE.SYSTEM.SOLV>
0

>  <SCORE.SYSTEM.norm>
0

>  <SCORE.heavy>
14

>  <SCORE.norm>
-0.574879

>  <RMSD>
6.020

$$$$
ligand
 OpenBabel11021811393D
libRbt.so/2013.1/901 2013/11/27
 14 13  0  0  0  0  0  0  0  0999 V2000
   39.7243   24.1703   37.3814 N   0  0  0  0  0  0  0  0  0  0  0  0
   38.5400   23.3257   37.3634 C   0  0  0  0  0  0  0  0  0  0  0  0
   38.8592   21.9693   36.6765 C   0  0  0  0  0  0  0  0  0  0  0  0
   37.6818   20.9489   36.4820 C   0  0  0  0  0  0  0  0  0  0  0  0
   38.0801   19.5921   35.9556 N   0  0  0  0  0  0  0  0  0  0  0  0
   37.3638   18.4582   36.6089 C   0  0  0  0  0  0  0  0  0  0  0  0
   37.7515   17.0922   36.0724 C   0  0  0  0  0  0  0  0  0  0  0  0
   37.1158   15.9569   36.8541 C   0  0  0  0  0  0  0  0  0  0  0  0
   37.5152   14.6916   36.1969 C   0  0  0  0  0  0  0  0  0  0  0  0
   38.9704   14.4076   36.1906 N   0  0  0  0  0  0  0  0  0  0  0  0
   39.3869   13.4555   35.1305 C   0  0  0  0  0  0  0  0  0  0  0  0
   40.1179   14.0791   33.9044 C   0  0  0  0  0  0  0  0  0  0  0  0
   39.1630   15.0837   33.2358 C   0  0  0  0  0  0  0  0  0  0  0  0
   39.8042   15.7184   32.0871 N   0  0  0  0  0  0  0  0  0  0  0  0
  1  2  1  0  0  0  0
  2  3  1  0  0  0  0
  3  4  1  0  0  0  0
  4  5  1  0  0  0  0
  5  6  1  0  0  0  0
  6  7  1  0  0  0  0
  7  8  1  0  0  0  0
  8  9  1  0  0  0  0
  9 10  1  0  0  0  0
 10 11  1  0  0  0  0
 11 12  1  0  0  0  0
 12 13  1  0  0  0  0
 13 14  1  0  0  0  0
M  END
>  <CHROM.1>
-176.42651153,-173.28373301,139.29029773,179.42082483,174.00126406,177.28840984
62.49495634,-158.26646950,104.90024617,-60.64204075,179.11448422,38.57648052
17.78182077,35.72439404,-1.64506389,-0.95221092,-2.91083327

>  <Name>
ligand

>  <RI>
0

>  <Rbt.Current_Directory>
/home/itssahil/PROJECTS/Mol_Feturizer/New_Systems/rnas/1EVV

>  <Rbt.Executable>
rbdock ($Id: //depot/dev/client3/rdock/2013.1/src/exe/rbdock.cxx#4 $)

>  <Rbt.Library>
libRbt.so (2013.1, Build901 2013/11/27)

>  <Rbt.Parameter_File>
/export/apps/rDock/src/rDock_2013.1_src/data/scripts/dock_solv.prm

>  <Rbt.Receptor>
prm/pocket_docking_8.prm

>  <SCORE>
-9.99618

>  <SCORE.INTER>
-0.663163

>  <SCORE.INTER.CONST>
1

>  <SCORE.INTER.POLAR>
0

>  <SCORE.INTER.ROT>
11

>  <SCORE.INTER.SOLV>
6.8654

>  <SCORE.INTER.VDW>
-13.6639

>  <SCORE.INTER.norm>
-0.0473688

>  <SCORE.INTRA>
-9.33301

>  <SCORE.INTRA.DIHEDRAL>
-17.5124

>  <SCORE.INTRA.DIHEDRAL.0>
20.2131

>  <SCORE.INTRA.POLAR>
0

>  <SCORE.INTRA.POLAR.0>
0

>  <SCORE.INTRA.REPUL>
0

>  <SCORE.INTRA.REPUL.0>
0

>  <SCORE.INTRA.SOLV>
-0.640399

>  <SCORE.INTRA.SOLV.lig_0>
-48.2851

>  <SCORE.INTRA.VDW>
-0.25659

>  <SCORE.INTRA.VDW.0>
-1.08658

>  <SCORE.INTRA.norm>
-0.666644

>  <SCORE.RESTR>
0

>  <SCORE.RESTR.CAVITY>
0

>  <SCORE.RESTR.norm>
0

>  <SCORE.SYSTEM>
0

>  <SCORE.SYSTEM.CONST>
0

>  <SCORE.SYSTEM.DIHEDRAL>
0

>  <SCORE.SYSTEM.SOLV>
0

>  <SCORE.SYSTEM.norm>
0

>  <SCORE.heavy>
14

>  <SCORE.norm>
-0.714013

>  <RMSD>
6.041

$$$$
ligand
 OpenBabel11021811393D
libRbt.so/2013.1/901 2013/11/27
 14 13  0  0  0  0  0  0  0  0999 V2000
   39.3741   11.7440   35.8622 N   0  0  0  0  0  0  0  0  0  0  0  0
   40.3069   12.6135   35.1621 C   0  0  0  0  0  0  0  0  0  0  0  0
   39.6342   13.9778   34.8461 C   0  0  0  0  0  0  0  0  0  0  0  0
   39.0813   14.8210   36.0497 C   0  0  0  0  0  0  0  0  0  0  0  0
   38.4719   16.1518   35.6832 N   0  0  0  0  0  0  0  0  0  0  0  0
   37.6326   16.7480   36.7629 C   0  0  0  0  0  0  0  0  0  0  0  0
   37.0909   18.1270   36.4329 C   0  0  0  0  0  0  0  0  0  0  0  0
   38.1714   19.1932   36.4324 C   0  0  0  0  0  0  0  0  0  0  0  0
   37.5089   20.4919   36.1737 C   0  0  0  0  0  0  0  0  0  0  0  0
   38.4088   21.6694   36.1286 N   0  0  0  0  0  0  0  0  0  0  0  0
   38.4138   22.4636   37.3827 C   0  0  0  0  0  0  0  0  0  0  0  0
   38.9986   23.9034   37.2743 C   0  0  0  0  0  0  0  0  0  0  0  0
   38.0801   24.7268   36.3543 C   0  0  0  0  0  0  0  0  0  0  0  0
   38.5716   26.0963   36.2271 N   0  0  0  0  0  0  0  0  0  0  0  0
  1  2  1  0  0  0  0
  2  3  1  0  0  0  0
  3  4  1  0  0  0  0
  4  5  1  0  0  0  0
  5  6  1  0  0  0  0
  6  7  1  0  0  0  0
  7  8  1  0  0  0  0
  8  9  1  0  0  0  0
  9 10  1  0  0  0  0
 10 11  1  0  0  0  0
 11 12  1  0  0  0  0
 12 13  1  0  0  0  0
 13 14  1  0  0  0  0
M  END
>  <CHROM.1>
58.34123379,178.46730692,163.97318162,176.26604421,-70.88748546,-176.93222981
-179.73522333,-100.27003473,-163.17513670,65.28995794,179.32928147,38.55315525
18.76621251,36.19810429,-1.47471935,0.37838359,0.06235093

>  <Name>
ligand

>  <RI>
0

>  <Rbt.Current_Directory>
/home/itssahil/PROJECTS/Mol_Feturizer/New_Systems/rnas/1EVV

>  <Rbt.Executable>
rbdock ($Id: //depot/dev/client3/rdock/2013.1/src/exe/rbdock.cxx#4 $)

>  <Rbt.Library>
libRbt.so (2013.1, Build901 2013/11/27)

>  <Rbt.Parameter_File>
/export/apps/rDock/src/rDock_2013.1_src/data/scripts/dock_solv.prm

>  <Rbt.Receptor>
prm/pocket_docking_8.prm

>  <SCORE>
-8.88257

>  <SCORE.INTER>
0.377618

>  <SCORE.INTER.CONST>
1

>  <SCORE.INTER.POLAR>
0

>  <SCORE.INTER.ROT>
11

>  <SCORE.INTER.SOLV>
4.66496

>  <SCORE.INTER.VDW>
-12.2366

>  <SCORE.INTER.norm>
0.0269727

>  <SCORE.INTRA>
-9.26018

>  <SCORE.INTRA.DIHEDRAL>
-18.2748

>  <SCORE.INTRA.DIHEDRAL.0>
20.2131

>  <SCORE.INTRA.POLAR>
0

>  <SCORE.INTRA.POLAR.0>
0

>  <SCORE.INTRA.REPUL>
0

>  <SCORE.INTRA.REPUL.0>
0

>  <SCORE.INTRA.SOLV>
-0.0506831

>  <SCORE.INTRA.SOLV.lig_0>
-48.2851

>  <SCORE.INTRA.VDW>
-0.0974412

>  <SCORE.INTRA.VDW.0>
-1.08658

>  <SCORE.INTRA.norm>
-0.661442

>  <SCORE.RESTR>
0

>  <SCORE.RESTR.CAVITY>
0

>  <SCORE.RESTR.norm>
0

>  <SCORE.SYSTEM>
0

>  <SCORE.SYSTEM.CONST>
0

>  <SCORE.SYSTEM.DIHEDRAL>
0

>  <SCORE.SYSTEM.SOLV>
0

>  <SCORE.SYSTEM.norm>
0

>  <SCORE.heavy>
14

>  <SCORE.norm>
-0.634469

>  <RMSD>
6.100

$$$$
ligand
 OpenBabel11021811393D
libRbt.so/2013.1/901 2013/11/27
 14 13  0  0  0  0  0  0  0  0999 V2000
   38.7759   13.1177   35.6549 N   0  0  0  0  0  0  0  0  0  0  0  0
   39.9173   13.9689   35.3572 C   0  0  0  0  0  0  0  0  0  0  0  0
   40.1594   14.0242   33.8235 C   0  0  0  0  0  0  0  0  0  0  0  0
   39.0314   14.6425   32.9231 C   0  0  0  0  0  0  0  0  0  0  0  0
   38.7930   16.1211   33.1065 N   0  0  0  0  0  0  0  0  0  0  0  0
   37.8543   16.4466   34.2193 C   0  0  0  0  0  0  0  0  0  0  0  0
   38.2838   17.6343   35.0614 C   0  0  0  0  0  0  0  0  0  0  0  0
   37.2814   17.9696   36.1509 C   0  0  0  0  0  0  0  0  0  0  0  0
   37.7808   19.1731   36.8540 C   0  0  0  0  0  0  0  0  0  0  0  0
   37.9360   20.3846   36.0136 N   0  0  0  0  0  0  0  0  0  0  0  0
   38.1035   21.6349   36.7962 C   0  0  0  0  0  0  0  0  0  0  0  0
   39.4841   21.8219   37.4930 C   0  0  0  0  0  0  0  0  0  0  0  0
   39.4599   23.1579   38.2563 C   0  0  0  0  0  0  0  0  0  0  0  0
   39.3522   24.2803   37.3278 N   0  0  0  0  0  0  0  0  0  0  0  0
  1  2  1  0  0  0  0
  2  3  1  0  0  0  0
  3  4  1  0  0  0  0
  4  5  1  0  0  0  0
  5  6  1  0  0  0  0
  6  7  1  0  0  0  0
  7  8  1  0  0  0  0
  8  9  1  0  0  0  0
  9 10  1  0  0  0  0
 10 11  1  0  0  0  0
 11 12  1  0  0  0  0
 12 13  1  0  0  0  0
 13 14  1  0  0  0  0
M  END
>  <CHROM.1>
62.92858437,67.07010847,-85.60218635,138.42589171,177.86044502,-177.42010699
60.56054336,165.46132511,73.20819001,-179.55049825,-65.57135814,38.72949632
18.16969781,35.64560604,-1.49548035,-1.20910442,0.43761252

>  <Name>
ligand

>  <RI>
0

>  <Rbt.Current_Directory>
/home/itssahil/PROJECTS/Mol_Feturizer/New_Systems/rnas/1EVV

>  <Rbt.Executable>
rbdock ($Id: //depot/dev/client3/rdock/2013.1/src/exe/rbdock.cxx#4 $)

>  <Rbt.Library>
libRbt.so (2013.1, Build901 2013/11/27)

>  <Rbt.Parameter_File>
/export/apps/rDock/src/rDock_2013.1_src/data/scripts/dock_solv.prm

>  <Rbt.Receptor>
prm/pocket_docking_7.prm

>  <SCORE>
-7.51709

>  <SCORE.INTER>
0.328216

>  <SCORE.INTER.CONST>
1

>  <SCORE.INTER.POLAR>
0

>  <SCORE.INTER.ROT>
11

>  <SCORE.INTER.SOLV>
6.59942

>  <SCORE.INTER.VDW>
-12.9143

>  <SCORE.INTER.norm>
0.023444

>  <SCORE.INTRA>
-7.84531

>  <SCORE.INTRA.DIHEDRAL>
-18.1218

>  <SCORE.INTRA.DIHEDRAL.0>
20.2131

>  <SCORE.INTRA.POLAR>
0

>  <SCORE.INTRA.POLAR.0>
0

>  <SCORE.INTRA.REPUL>
0

>  <SCORE.INTRA.REPUL.0>
0

>  <SCORE.INTRA.SOLV>
2.04837

>  <SCORE.INTRA.SOLV.lig_0>
-48.2851

>  <SCORE.INTRA.VDW>
0.191396

>  <SCORE.INTRA.VDW.0>
-1.08658

>  <SCORE.INTRA.norm>
-0.560379

>  <SCORE.RESTR>
0

>  <SCORE.RESTR.CAVITY>
0

>  <SCORE.RESTR.norm>
0

>  <SCORE.SYSTEM>
0

>  <SCORE.SYSTEM.CONST>
0

>  <SCORE.SYSTEM.DIHEDRAL>
0

>  <SCORE.SYSTEM.SOLV>
0

>  <SCORE.SYSTEM.norm>
0

>  <SCORE.heavy>
14

>  <SCORE.norm>
-0.536935

>  <RMSD>
6.123

$$$$
ligand
 OpenBabel11021811393D
libRbt.so/2013.1/901 2013/11/27
 14 13  0  0  0  0  0  0  0  0999 V2000
   40.6564   23.8350   37.9287 N   0  0  0  0  0  0  0  0  0  0  0  0
   39.4136   23.2651   38.4254 C   0  0  0  0  0  0  0  0  0  0  0  0
   38.3145   23.3385   37.3299 C   0  0  0  0  0  0  0  0  0  0  0  0
   38.5481   22.5381   35.9994 C   0  0  0  0  0  0  0  0  0  0  0  0
   38.5634   21.0359   36.1408 N   0  0  0  0  0  0  0  0  0  0  0  0
   37.2068   20.4292   36.2712 C   0  0  0  0  0  0  0  0  0  0  0  0
   37.2220   18.9596   36.6511 C   0  0  0  0  0  0  0  0  0  0  0  0
   37.8385   18.0853   35.5743 C   0  0  0  0  0  0  0  0  0  0  0  0
   37.7212   16.6803   36.0267 C   0  0  0  0  0  0  0  0  0  0  0  0
   38.2101   15.6589   35.0697 N   0  0  0  0  0  0  0  0  0  0  0  0
   39.6793   15.4520   35.1183 C   0  0  0  0  0  0  0  0  0  0  0  0
   40.1741   14.2990   36.0417 C   0  0  0  0  0  0  0  0  0  0  0  0
   39.6846   12.9657   35.4494 C   0  0  0  0  0  0  0  0  0  0  0  0
   40.0606   11.8492   36.3129 N   0  0  0  0  0  0  0  0  0  0  0  0
  1  2  1  0  0  0  0
  2  3  1  0  0  0  0
  3  4  1  0  0  0  0
  4  5  1  0  0  0  0
  5  6  1  0  0  0  0
  6  7  1  0  0  0  0
  7  8  1  0  0  0  0
  8  9  1  0  0  0  0
  9 10  1  0  0  0  0
 10 11  1  0  0  0  0
 11 12  1  0  0  0  0
 12 13  1  0  0  0  0
 13 14  1  0  0  0  0
M  END
>  <CHROM.1>
62.86386536,66.24526651,77.72735859,-170.02315830,-65.24379881,-176.70711435
177.00970138,82.44198331,93.94530110,66.33391272,-177.05728265,38.80641918
18.45671695,36.30994738,-1.63443377,0.41296343,-2.94649904

>  <Name>
ligand

>  <RI>
0

>  <Rbt.Current_Directory>
/home/itssahil/PROJECTS/Mol_Feturizer/New_Systems/rnas/1EVV

>  <Rbt.Executable>
rbdock ($Id: //depot/dev/client3/rdock/2013.1/src/exe/rbdock.cxx#4 $)

>  <Rbt.Library>
libRbt.so (2013.1, Build901 2013/11/27)

>  <Rbt.Parameter_File>
/export/apps/rDock/src/rDock_2013.1_src/data/scripts/dock_solv.prm

>  <Rbt.Receptor>
prm/pocket_docking_8.prm

>  <SCORE>
-8.50099

>  <SCORE.INTER>
0.162264

>  <SCORE.INTER.CONST>
1

>  <SCORE.INTER.POLAR>
0

>  <SCORE.INTER.ROT>
11

>  <SCORE.INTER.SOLV>
6.38413

>  <SCORE.INTER.VDW>
-12.9532

>  <SCORE.INTER.norm>
0.0115903

>  <SCORE.INTRA>
-8.66325

>  <SCORE.INTRA.DIHEDRAL>
-18.2581

>  <SCORE.INTRA.DIHEDRAL.0>
20.2131

>  <SCORE.INTRA.POLAR>
0

>  <SCORE.INTRA.POLAR.0>
0

>  <SCORE.INTRA.REPUL>
0

>  <SCORE.INTRA.REPUL.0>
0

>  <SCORE.INTRA.SOLV>
0.702684

>  <SCORE.INTRA.SOLV.lig_0>
-48.2851

>  <SCORE.INTRA.VDW>
0.114449

>  <SCORE.INTRA.VDW.0>
-1.08658

>  <SCORE.INTRA.norm>
-0.618804

>  <SCORE.RESTR>
0

>  <SCORE.RESTR.CAVITY>
0

>  <SCORE.RESTR.norm>
0

>  <SCORE.SYSTEM>
0

>  <SCORE.SYSTEM.CONST>
0

>  <SCORE.SYSTEM.DIHEDRAL>
0

>  <SCORE.SYSTEM.SOLV>
0

>  <SCORE.SYSTEM.norm>
0

>  <SCORE.heavy>
14

>  <SCORE.norm>
-0.607213

>  <RMSD>
6.135

$$$$
ligand
 OpenBabel11021811393D
libRbt.so/2013.1/901 2013/11/27
 14 13  0  0  0  0  0  0  0  0999 V2000
   39.0383   15.4069   33.2110 N   0  0  0  0  0  0  0  0  0  0  0  0
   39.9154   14.2498   33.1222 C   0  0  0  0  0  0  0  0  0  0  0  0
   40.2968   13.7556   34.5449 C   0  0  0  0  0  0  0  0  0  0  0  0
   39.1561   13.1660   35.4486 C   0  0  0  0  0  0  0  0  0  0  0  0
   38.0145   14.1062   35.7476 N   0  0  0  0  0  0  0  0  0  0  0  0
   38.0730   14.7109   37.1101 C   0  0  0  0  0  0  0  0  0  0  0  0
   37.3868   16.0607   37.2162 C   0  0  0  0  0  0  0  0  0  0  0  0
   38.0770   17.1321   36.3917 C   0  0  0  0  0  0  0  0  0  0  0  0
   37.3241   18.3920   36.5873 C   0  0  0  0  0  0  0  0  0  0  0  0
   37.8797   19.5810   35.8975 N   0  0  0  0  0  0  0  0  0  0  0  0
   38.7306   20.4309   36.7678 C   0  0  0  0  0  0  0  0  0  0  0  0
   38.5856   21.9691   36.5683 C   0  0  0  0  0  0  0  0  0  0  0  0
   39.4821   22.6740   37.6015 C   0  0  0  0  0  0  0  0  0  0  0  0
   39.4453   24.1220   37.4132 N   0  0  0  0  0  0  0  0  0  0  0  0
  1  2  1  0  0  0  0
  2  3  1  0  0  0  0
  3  4  1  0  0  0  0
  4  5  1  0  0  0  0
  5  6  1  0  0  0  0
  6  7  1  0  0  0  0
  7  8  1  0  0  0  0
  8  9  1  0  0  0  0
  9 10  1  0  0  0  0
 10 11  1  0  0  0  0
 11 12  1  0  0  0  0
 12 13  1  0  0  0  0
 13 14  1  0  0  0  0
M  END
>  <CHROM.1>
66.09826697,-59.61558491,-101.97443712,153.16860646,-65.61112964,-179.56255616
177.70470498,-96.98019789,-141.10245609,177.01672960,176.80961316,38.67184570
17.55377329,35.97359027,-1.54321955,0.95369226,0.23707396

>  <Name>
ligand

>  <RI>
0

>  <Rbt.Current_Directory>
/home/itssahil/PROJECTS/Mol_Feturizer/New_Systems/rnas/1EVV

>  <Rbt.Executable>
rbdock ($Id: //depot/dev/client3/rdock/2013.1/src/exe/rbdock.cxx#4 $)

>  <Rbt.Library>
libRbt.so (2013.1, Build901 2013/11/27)

>  <Rbt.Parameter_File>
/export/apps/rDock/src/rDock_2013.1_src/data/scripts/dock_solv.prm

>  <Rbt.Receptor>
prm/pocket_docking_8.prm

>  <SCORE>
-7.96854

>  <SCORE.INTER>
-0.319776

>  <SCORE.INTER.CONST>
1

>  <SCORE.INTER.POLAR>
0

>  <SCORE.INTER.ROT>
11

>  <SCORE.INTER.SOLV>
6.16894

>  <SCORE.INTER.VDW>
-13.2028

>  <SCORE.INTER.norm>
-0.0228412

>  <SCORE.INTRA>
-7.64877

>  <SCORE.INTRA.DIHEDRAL>
-16.7252

>  <SCORE.INTRA.DIHEDRAL.0>
20.2131

>  <SCORE.INTRA.POLAR>
0

>  <SCORE.INTRA.POLAR.0>
0

>  <SCORE.INTRA.REPUL>
0

>  <SCORE.INTRA.REPUL.0>
0

>  <SCORE.INTRA.SOLV>
2.59673

>  <SCORE.INTRA.SOLV.lig_0>
-48.2851

>  <SCORE.INTRA.VDW>
-0.584539

>  <SCORE.INTRA.VDW.0>
-1.08658

>  <SCORE.INTRA.norm>
-0.54634

>  <SCORE.RESTR>
0

>  <SCORE.RESTR.CAVITY>
0

>  <SCORE.RESTR.norm>
0

>  <SCORE.SYSTEM>
0

>  <SCORE.SYSTEM.CONST>
0

>  <SCORE.SYSTEM.DIHEDRAL>
0

>  <SCORE.SYSTEM.SOLV>
0

>  <SCORE.SYSTEM.norm>
0

>  <SCORE.heavy>
14

>  <SCORE.norm>
-0.569182

>  <RMSD>
6.146

$$$$
ligand
 OpenBabel11021811393D
libRbt.so/2013.1/901 2013/11/27
 14 13  0  0  0  0  0  0  0  0999 V2000
   41.6646   23.2405   37.5610 N   0  0  0  0  0  0  0  0  0  0  0  0
   40.4839   23.8605   38.1421 C   0  0  0  0  0  0  0  0  0  0  0  0
   39.2985   22.8562   38.1473 C   0  0  0  0  0  0  0  0  0  0  0  0
   38.8309   22.2639   36.7703 C   0  0  0  0  0  0  0  0  0  0  0  0
   37.7508   21.2134   36.8497 N   0  0  0  0  0  0  0  0  0  0  0  0
   37.3925   20.6166   35.5303 C   0  0  0  0  0  0  0  0  0  0  0  0
   37.8444   19.1774   35.3608 C   0  0  0  0  0  0  0  0  0  0  0  0
   37.2212   18.2461   36.3848 C   0  0  0  0  0  0  0  0  0  0  0  0
   37.5496   16.8609   35.9780 C   0  0  0  0  0  0  0  0  0  0  0  0
   36.9656   15.7922   36.8237 N   0  0  0  0  0  0  0  0  0  0  0  0
   37.7634   15.4914   38.0389 C   0  0  0  0  0  0  0  0  0  0  0  0
   39.1498   14.8242   37.7951 C   0  0  0  0  0  0  0  0  0  0  0  0
   39.8285   14.6141   39.1601 C   0  0  0  0  0  0  0  0  0  0  0  0
   39.1205   13.5999   39.9371 N   0  0  0  0  0  0  0  0  0  0  0  0
  1  2  1  0  0  0  0
  2  3  1  0  0  0  0
  3  4  1  0  0  0  0
  4  5  1  0  0  0  0
  5  6  1  0  0  0  0
  6  7  1  0  0  0  0
  7  8  1  0  0  0  0
  8  9  1  0  0  0  0
  9 10  1  0  0  0  0
 10 11  1  0  0  0  0
 11 12  1  0  0  0  0
 12 13  1  0  0  0  0
 13 14  1  0  0  0  0
M  END
>  <CHROM.1>
-58.69786280,175.33744823,-176.48814911,109.34805082,61.01608979,170.52761502
-177.01926556,-83.83728635,-68.16398267,179.10167297,68.38432194,38.63306213
18.76136177,37.31975236,-1.37710408,0.75540186,2.89203245

>  <Name>
ligand

>  <RI>
0

>  <Rbt.Current_Directory>
/home/itssahil/PROJECTS/Mol_Feturizer/New_Systems/rnas/1EVV

>  <Rbt.Executable>
rbdock ($Id: //depot/dev/client3/rdock/2013.1/src/exe/rbdock.cxx#4 $)

>  <Rbt.Library>
libRbt.so (2013.1, Build901 2013/11/27)

>  <Rbt.Parameter_File>
/export/apps/rDock/src/rDock_2013.1_src/data/scripts/dock_solv.prm

>  <Rbt.Receptor>
prm/pocket_docking_8.prm

>  <SCORE>
-6.49418

>  <SCORE.INTER>
1.69696

>  <SCORE.INTER.CONST>
1

>  <SCORE.INTER.POLAR>
0

>  <SCORE.INTER.ROT>
11

>  <SCORE.INTER.SOLV>
8.48816

>  <SCORE.INTER.VDW>
-12.6314

>  <SCORE.INTER.norm>
0.121212

>  <SCORE.INTRA>
-8.19114

>  <SCORE.INTRA.DIHEDRAL>
-17.871

>  <SCORE.INTRA.DIHEDRAL.0>
20.2131

>  <SCORE.INTRA.POLAR>
0

>  <SCORE.INTRA.POLAR.0>
0

>  <SCORE.INTRA.REPUL>
0

>  <SCORE.INTRA.REPUL.0>
0

>  <SCORE.INTRA.SOLV>
0.40177

>  <SCORE.INTRA.SOLV.lig_0>
-48.2851

>  <SCORE.INTRA.VDW>
0.543498

>  <SCORE.INTRA.VDW.0>
-1.08658

>  <SCORE.INTRA.norm>
-0.585082

>  <SCORE.RESTR>
0

>  <SCORE.RESTR.CAVITY>
0

>  <SCORE.RESTR.norm>
0

>  <SCORE.SYSTEM>
0

>  <SCORE.SYSTEM.CONST>
0

>  <SCORE.SYSTEM.DIHEDRAL>
0

>  <SCORE.SYSTEM.SOLV>
0

>  <SCORE.SYSTEM.norm>
0

>  <SCORE.heavy>
14

>  <SCORE.norm>
-0.46387

>  <RMSD>
6.158

$$$$
ligand
 OpenBabel11021811393D
libRbt.so/2013.1/901 2013/11/27
 14 13  0  0  0  0  0  0  0  0999 V2000
   38.9295   24.4057   36.3860 N   0  0  0  0  0  0  0  0  0  0  0  0
   38.4469   23.8079   37.6212 C   0  0  0  0  0  0  0  0  0  0  0  0
   39.2654   22.5300   37.9540 C   0  0  0  0  0  0  0  0  0  0  0  0
   39.1599   21.3121   36.9687 C   0  0  0  0  0  0  0  0  0  0  0  0
   37.7592   20.8316   36.6794 N   0  0  0  0  0  0  0  0  0  0  0  0
   37.6103   20.1747   35.3484 C   0  0  0  0  0  0  0  0  0  0  0  0
   38.0803   18.7317   35.3163 C   0  0  0  0  0  0  0  0  0  0  0  0
   37.2459   17.8268   36.2046 C   0  0  0  0  0  0  0  0  0  0  0  0
   37.8118   16.4626   36.0995 C   0  0  0  0  0  0  0  0  0  0  0  0
   37.0978   15.4147   36.8680 N   0  0  0  0  0  0  0  0  0  0  0  0
   37.9982   14.3983   37.4677 C   0  0  0  0  0  0  0  0  0  0  0  0
   38.1092   13.0484   36.6981 C   0  0  0  0  0  0  0  0  0  0  0  0
   38.9248   13.2922   35.4161 C   0  0  0  0  0  0  0  0  0  0  0  0
   40.3074   13.6325   35.7415 N   0  0  0  0  0  0  0  0  0  0  0  0
  1  2  1  0  0  0  0
  2  3  1  0  0  0  0
  3  4  1  0  0  0  0
  4  5  1  0  0  0  0
  5  6  1  0  0  0  0
  6  7  1  0  0  0  0
  7  8  1  0  0  0  0
  8  9  1  0  0  0  0
  9 10  1  0  0  0  0
 10 11  1  0  0  0  0
 11 12  1  0  0  0  0
 12 13  1  0  0  0  0
 13 14  1  0  0  0  0
M  END
>  <CHROM.1>
-64.77697133,-53.96910477,152.79651209,80.02009420,64.66740378,-179.28527831
-178.01303709,-143.12092257,-100.25326691,72.28792579,66.48600285,38.33896145
18.27625098,36.48355336,-1.55472489,0.09265074,-3.06846734

>  <Name>
ligand

>  <RI>
0

>  <Rbt.Current_Directory>
/home/itssahil/PROJECTS/Mol_Feturizer/New_Systems/rnas/1EVV

>  <Rbt.Executable>
rbdock ($Id: //depot/dev/client3/rdock/2013.1/src/exe/rbdock.cxx#4 $)

>  <Rbt.Library>
libRbt.so (2013.1, Build901 2013/11/27)

>  <Rbt.Parameter_File>
/export/apps/rDock/src/rDock_2013.1_src/data/scripts/dock_solv.prm

>  <Rbt.Receptor>
prm/pocket_docking_8.prm

>  <SCORE>
-4.92005

>  <SCORE.INTER>
1.97238

>  <SCORE.INTER.CONST>
1

>  <SCORE.INTER.POLAR>
0

>  <SCORE.INTER.ROT>
11

>  <SCORE.INTER.SOLV>
8.0871

>  <SCORE.INTER.VDW>
-12.3141

>  <SCORE.INTER.norm>
0.140884

>  <SCORE.INTRA>
-6.89243

>  <SCORE.INTRA.DIHEDRAL>
-16.6509

>  <SCORE.INTRA.DIHEDRAL.0>
20.2131

>  <SCORE.INTRA.POLAR>
0

>  <SCORE.INTRA.POLAR.0>
0

>  <SCORE.INTRA.REPUL>
0

>  <SCORE.INTRA.REPUL.0>
0

>  <SCORE.INTRA.SOLV>
2.94944

>  <SCORE.INTRA.SOLV.lig_0>
-48.2851

>  <SCORE.INTRA.VDW>
-0.0416981

>  <SCORE.INTRA.VDW.0>
-1.08658

>  <SCORE.INTRA.norm>
-0.492317

>  <SCORE.RESTR>
0

>  <SCORE.RESTR.CAVITY>
0

>  <SCORE.RESTR.norm>
0

>  <SCORE.SYSTEM>
0

>  <SCORE.SYSTEM.CONST>
0

>  <SCORE.SYSTEM.DIHEDRAL>
0

>  <SCORE.SYSTEM.SOLV>
0

>  <SCORE.SYSTEM.norm>
0

>  <SCORE.heavy>
14

>  <SCORE.norm>
-0.351432

>  <RMSD>
6.171

$$$$
ligand
 OpenBabel11021811393D
libRbt.so/2013.1/901 2013/11/27
 14 13  0  0  0  0  0  0  0  0999 V2000
   40.9937   24.6055   37.6465 N   0  0  0  0  0  0  0  0  0  0  0  0
   39.6482   24.0586   37.5644 C   0  0  0  0  0  0  0  0  0  0  0  0
   39.6998   22.5732   37.1119 C   0  0  0  0  0  0  0  0  0  0  0  0
   38.3381   21.8382   36.8457 C   0  0  0  0  0  0  0  0  0  0  0  0
   38.4529   20.3968   36.4146 N   0  0  0  0  0  0  0  0  0  0  0  0
   37.1582   19.6560   36.4380 C   0  0  0  0  0  0  0  0  0  0  0  0
   37.3095   18.1470   36.3740 C   0  0  0  0  0  0  0  0  0  0  0  0
   38.1520   17.5967   37.5105 C   0  0  0  0  0  0  0  0  0  0  0  0
   38.1997   16.1254   37.3513 C   0  0  0  0  0  0  0  0  0  0  0  0
   38.9044   15.6370   36.1417 N   0  0  0  0  0  0  0  0  0  0  0  0
   38.9705   14.1570   36.0477 C   0  0  0  0  0  0  0  0  0  0  0  0
   40.0564   13.5837   35.0891 C   0  0  0  0  0  0  0  0  0  0  0  0
   39.9765   12.0477   35.1367 C   0  0  0  0  0  0  0  0  0  0  0  0
   40.2904   11.5565   36.4760 N   0  0  0  0  0  0  0  0  0  0  0  0
  1  2  1  0  0  0  0
  2  3  1  0  0  0  0
  3  4  1  0  0  0  0
  4  5  1  0  0  0  0
  5  6  1  0  0  0  0
  6  7  1  0  0  0  0
  7  8  1  0  0  0  0
  8  9  1  0  0  0  0
  9 10  1  0  0  0  0
 10 11  1  0  0  0  0
 11 12  1  0  0  0  0
 12 13  1  0  0  0  0
 13 14  1  0  0  0  0
M  END
>  <CHROM.1>
-174.93824551,-179.76147976,168.30235863,-164.42279460,58.07326659,178.86466062
65.62106298,177.91874871,-161.04719413,179.52513851,-63.19606415,39.01046603
17.99849510,36.58196526,-1.58606712,-0.02631413,-3.00606533

>  <Name>
ligand

>  <RI>
0

>  <Rbt.Current_Directory>
/home/itssahil/PROJECTS/Mol_Feturizer/New_Systems/rnas/1EVV

>  <Rbt.Executable>
rbdock ($Id: //depot/dev/client3/rdock/2013.1/src/exe/rbdock.cxx#4 $)

>  <Rbt.Library>
libRbt.so (2013.1, Build901 2013/11/27)

>  <Rbt.Parameter_File>
/export/apps/rDock/src/rDock_2013.1_src/data/scripts/dock_solv.prm

>  <Rbt.Receptor>
prm/pocket_docking_8.prm

>  <SCORE>
-8.67193

>  <SCORE.INTER>
0.71852

>  <SCORE.INTER.CONST>
1

>  <SCORE.INTER.POLAR>
0

>  <SCORE.INTER.ROT>
11

>  <SCORE.INTER.SOLV>
5.13012

>  <SCORE.INTER.VDW>
-12.1644

>  <SCORE.INTER.norm>
0.0513228

>  <SCORE.INTRA>
-9.39045

>  <SCORE.INTRA.DIHEDRAL>
-19.3657

>  <SCORE.INTRA.DIHEDRAL.0>
20.2131

>  <SCORE.INTRA.POLAR>
0

>  <SCORE.INTRA.POLAR.0>
0

>  <SCORE.INTRA.REPUL>
0

>  <SCORE.INTRA.REPUL.0>
0

>  <SCORE.INTRA.SOLV>
0.250929

>  <SCORE.INTRA.SOLV.lig_0>
-48.2851

>  <SCORE.INTRA.VDW>
0.166921

>  <SCORE.INTRA.VDW.0>
-1.08658

>  <SCORE.INTRA.norm>
-0.670747

>  <SCORE.RESTR>
0

>  <SCORE.RESTR.CAVITY>
0

>  <SCORE.RESTR.norm>
0

>  <SCORE.SYSTEM>
0

>  <SCORE.SYSTEM.CONST>
0

>  <SCORE.SYSTEM.DIHEDRAL>
0

>  <SCORE.SYSTEM.SOLV>
0

>  <SCORE.SYSTEM.norm>
0

>  <SCORE.heavy>
14

>  <SCORE.norm>
-0.619424

>  <RMSD>
6.253

$$$$
ligand
 OpenBabel11021811393D
libRbt.so/2013.1/901 2013/11/27
 14 13  0  0  0  0  0  0  0  0999 V2000
   40.2403   11.5672   36.4306 N   0  0  0  0  0  0  0  0  0  0  0  0
   40.5267   12.3448   35.2350 C   0  0  0  0  0  0  0  0  0  0  0  0
   39.3590   13.3266   34.9413 C   0  0  0  0  0  0  0  0  0  0  0  0
   39.4809   14.2585   33.6835 C   0  0  0  0  0  0  0  0  0  0  0  0
   40.6905   15.1600   33.6593 N   0  0  0  0  0  0  0  0  0  0  0  0
   40.7208   16.1576   34.7681 C   0  0  0  0  0  0  0  0  0  0  0  0
   42.0450   16.8866   34.9062 C   0  0  0  0  0  0  0  0  0  0  0  0
   42.1066   17.7530   36.1511 C   0  0  0  0  0  0  0  0  0  0  0  0
   43.4212   18.4342   36.1494 C   0  0  0  0  0  0  0  0  0  0  0  0
   43.7239   19.2400   37.3566 N   0  0  0  0  0  0  0  0  0  0  0  0
   45.1181   19.7479   37.3996 C   0  0  0  0  0  0  0  0  0  0  0  0
   45.6743   20.0909   38.8137 C   0  0  0  0  0  0  0  0  0  0  0  0
   47.1055   20.6316   38.6488 C   0  0  0  0  0  0  0  0  0  0  0  0
   47.0949   21.9132   37.9483 N   0  0  0  0  0  0  0  0  0  0  0  0
  1  2  1  0  0  0  0
  2  3  1  0  0  0  0
  3  4  1  0  0  0  0
  4  5  1  0  0  0  0
  5  6  1  0  0  0  0
  6  7  1  0  0  0  0
  7  8  1  0  0  0  0
  8  9  1  0  0  0  0
  9 10  1  0  0  0  0
 10 11  1  0  0  0  0
 11 12  1  0  0  0  0
 12 13  1  0  0  0  0
 13 14  1  0  0  0  0
M  END
>  <CHROM.1>
-179.97600572,-57.97033369,-63.35535529,169.09526583,-172.27400065,-178.41215946
-174.75038556,171.91840728,-156.63360050,-178.52036329,66.46423373,42.66472461
16.96514276,36.14931422,-2.66262359,-0.81677254,-0.52701933

>  <Name>
ligand

>  <RI>
0

>  <Rbt.Current_Directory>
/home/itssahil/PROJECTS/Mol_Feturizer/New_Systems/rnas/1EVV

>  <Rbt.Executable>
rbdock ($Id: //depot/dev/client3/rdock/2013.1/src/exe/rbdock.cxx#4 $)

>  <Rbt.Library>
libRbt.so (2013.1, Build901 2013/11/27)

>  <Rbt.Parameter_File>
/export/apps/rDock/src/rDock_2013.1_src/data/scripts/dock_solv.prm

>  <Rbt.Receptor>
prm/pocket_docking_8.prm

>  <SCORE>
-7.32179

>  <SCORE.INTER>
2.18019

>  <SCORE.INTER.CONST>
1

>  <SCORE.INTER.POLAR>
0

>  <SCORE.INTER.ROT>
11

>  <SCORE.INTER.SOLV>
11.6593

>  <SCORE.INTER.VDW>
-13.3663

>  <SCORE.INTER.norm>
0.155728

>  <SCORE.INTRA>
-9.50198

>  <SCORE.INTRA.DIHEDRAL>
-19.1427

>  <SCORE.INTRA.DIHEDRAL.0>
20.2131

>  <SCORE.INTRA.POLAR>
0

>  <SCORE.INTRA.POLAR.0>
0

>  <SCORE.INTRA.REPUL>
0

>  <SCORE.INTRA.REPUL.0>
0

>  <SCORE.INTRA.SOLV>
-0.331746

>  <SCORE.INTRA.SOLV.lig_0>
-48.2851

>  <SCORE.INTRA.VDW>
0.235224

>  <SCORE.INTRA.VDW.0>
-1.08658

>  <SCORE.INTRA.norm>
-0.678713

>  <SCORE.RESTR>
0

>  <SCORE.RESTR.CAVITY>
0

>  <SCORE.RESTR.norm>
0

>  <SCORE.SYSTEM>
0

>  <SCORE.SYSTEM.CONST>
0

>  <SCORE.SYSTEM.DIHEDRAL>
0

>  <SCORE.SYSTEM.SOLV>
0

>  <SCORE.SYSTEM.norm>
0

>  <SCORE.heavy>
14

>  <SCORE.norm>
-0.522985

>  <RMSD>
6.254

$$$$
ligand
 OpenBabel11021811393D
libRbt.so/2013.1/901 2013/11/27
 14 13  0  0  0  0  0  0  0  0999 V2000
   42.0899   19.0677   34.1013 N   0  0  0  0  0  0  0  0  0  0  0  0
   42.9729   18.2007   34.8660 C   0  0  0  0  0  0  0  0  0  0  0  0
   42.1396   17.2248   35.7419 C   0  0  0  0  0  0  0  0  0  0  0  0
   41.3007   16.1161   35.0122 C   0  0  0  0  0  0  0  0  0  0  0  0
   40.2444   16.6230   34.0615 N   0  0  0  0  0  0  0  0  0  0  0  0
   39.5355   15.5421   33.3166 C   0  0  0  0  0  0  0  0  0  0  0  0
   38.4781   16.0484   32.3525 C   0  0  0  0  0  0  0  0  0  0  0  0
   37.3402   16.7637   33.0579 C   0  0  0  0  0  0  0  0  0  0  0  0
   36.4085   17.2469   32.0135 C   0  0  0  0  0  0  0  0  0  0  0  0
   36.8917   18.3948   31.2091 N   0  0  0  0  0  0  0  0  0  0  0  0
   36.4806   19.7153   31.7487 C   0  0  0  0  0  0  0  0  0  0  0  0
   37.3495   20.2747   32.9144 C   0  0  0  0  0  0  0  0  0  0  0  0
   36.6925   21.5693   33.4246 C   0  0  0  0  0  0  0  0  0  0  0  0
   37.4695   22.1449   34.5194 N   0  0  0  0  0  0  0  0  0  0  0  0
  1  2  1  0  0  0  0
  2  3  1  0  0  0  0
  3  4  1  0  0  0  0
  4  5  1  0  0  0  0
  5  6  1  0  0  0  0
  6  7  1  0  0  0  0
  7  8  1  0  0  0  0
  8  9  1  0  0  0  0
  9 10  1  0  0  0  0
 10 11  1  0  0  0  0
 11 12  1  0  0  0  0
 12 13  1  0  0  0  0
 13 14  1  0  0  0  0
M  END
>  <CHROM.1>
68.09885602,-60.58275245,175.89988822,-179.62923480,-63.72378372,178.02307664
-72.46407958,-92.45968481,81.51870221,-174.55818829,-179.76005379,38.95658748
18.20910354,33.45281403,-0.37296984,-0.50026864,0.23452587

>  <Name>
ligand

>  <RI>
0

>  <Rbt.Current_Directory>
/home/itssahil/PROJECTS/Mol_Feturizer/New_Systems/rnas/1EVV

>  <Rbt.Executable>
rbdock ($Id: //depot/dev/client3/rdock/2013.1/src/exe/rbdock.cxx#4 $)

>  <Rbt.Library>
libRbt.so (2013.1, Build901 2013/11/27)

>  <Rbt.Parameter_File>
/export/apps/rDock/src/rDock_2013.1_src/data/scripts/dock_solv.prm

>  <Rbt.Receptor>
prm/pocket_docking_5.prm

>  <SCORE>
-4.56608

>  <SCORE.INTER>
3.86881

>  <SCORE.INTER.CONST>
1

>  <SCORE.INTER.POLAR>
0

>  <SCORE.INTER.ROT>
11

>  <SCORE.INTER.SOLV>
10.076

>  <SCORE.INTER.VDW>
-11.7128

>  <SCORE.INTER.norm>
0.276344

>  <SCORE.INTRA>
-8.43489

>  <SCORE.INTRA.DIHEDRAL>
-18.1869

>  <SCORE.INTRA.DIHEDRAL.0>
20.2131

>  <SCORE.INTRA.POLAR>
0

>  <SCORE.INTRA.POLAR.0>
0

>  <SCORE.INTRA.REPUL>
0

>  <SCORE.INTRA.REPUL.0>
0

>  <SCORE.INTRA.SOLV>
1.81625

>  <SCORE.INTRA.SOLV.lig_0>
-48.2851

>  <SCORE.INTRA.VDW>
-0.249581

>  <SCORE.INTRA.VDW.0>
-1.08658

>  <SCORE.INTRA.norm>
-0.602492

>  <SCORE.RESTR>
0

>  <SCORE.RESTR.CAVITY>
0

>  <SCORE.RESTR.norm>
0

>  <SCORE.SYSTEM>
0

>  <SCORE.SYSTEM.CONST>
0

>  <SCORE.SYSTEM.DIHEDRAL>
0

>  <SCORE.SYSTEM.SOLV>
0

>  <SCORE.SYSTEM.norm>
0

>  <SCORE.heavy>
14

>  <SCORE.norm>
-0.326149

>  <RMSD>
6.264

$$$$
ligand
 OpenBabel11021811393D
libRbt.so/2013.1/901 2013/11/27
 14 13  0  0  0  0  0  0  0  0999 V2000
   35.5084   25.4828   30.7001 N   0  0  0  0  0  0  0  0  0  0  0  0
   35.1277   25.5289   32.1034 C   0  0  0  0  0  0  0  0  0  0  0  0
   36.3308   25.9923   32.9703 C   0  0  0  0  0  0  0  0  0  0  0  0
   36.1184   26.1052   34.5220 C   0  0  0  0  0  0  0  0  0  0  0  0
   37.3207   26.5649   35.3092 N   0  0  0  0  0  0  0  0  0  0  0  0
   37.5215   25.8254   36.5892 C   0  0  0  0  0  0  0  0  0  0  0  0
   38.1564   24.4573   36.4184 C   0  0  0  0  0  0  0  0  0  0  0  0
   38.2601   23.6951   37.7271 C   0  0  0  0  0  0  0  0  0  0  0  0
   38.8553   22.3742   37.4218 C   0  0  0  0  0  0  0  0  0  0  0  0
   38.0496   21.5010   36.5348 N   0  0  0  0  0  0  0  0  0  0  0  0
   38.4026   20.0626   36.6345 C   0  0  0  0  0  0  0  0  0  0  0  0
   37.2199   19.0596   36.4867 C   0  0  0  0  0  0  0  0  0  0  0  0
   37.7625   17.6390   36.7220 C   0  0  0  0  0  0  0  0  0  0  0  0
   38.7141   17.2709   35.6769 N   0  0  0  0  0  0  0  0  0  0  0  0
  1  2  1  0  0  0  0
  2  3  1  0  0  0  0
  3  4  1  0  0  0  0
  4  5  1  0  0  0  0
  5  6  1  0  0  0  0
  6  7  1  0  0  0  0
  7  8  1  0  0  0  0
  8  9  1  0  0  0  0
  9 10  1  0  0  0  0
 10 11  1  0  0  0  0
 11 12  1  0  0  0  0
 12 13  1  0  0  0  0
 13 14  1  0  0  0  0
M  END
>  <CHROM.1>
-179.95678454,-179.77538702,-138.68975305,78.67257364,-176.12316310,178.43209347
-63.44620279,-159.31582269,144.79396774,-175.83945384,-65.07353782,37.38198709
22.96861259,35.41579902,2.17709224,-1.12484543,0.13328964

>  <Name>
ligand

>  <RI>
0

>  <Rbt.Current_Directory>
/home/itssahil/PROJECTS/Mol_Feturizer/New_Systems/rnas/1EVV

>  <Rbt.Executable>
rbdock ($Id: //depot/dev/client3/rdock/2013.1/src/exe/rbdock.cxx#4 $)

>  <Rbt.Library>
libRbt.so (2013.1, Build901 2013/11/27)

>  <Rbt.Parameter_File>
/export/apps/rDock/src/rDock_2013.1_src/data/scripts/dock_solv.prm

>  <Rbt.Receptor>
prm/pocket_docking_6.prm

>  <SCORE>
-5.69086

>  <SCORE.INTER>
2.97782

>  <SCORE.INTER.CONST>
1

>  <SCORE.INTER.POLAR>
0

>  <SCORE.INTER.ROT>
11

>  <SCORE.INTER.SOLV>
4.75877

>  <SCORE.INTER.VDW>
-10.5344

>  <SCORE.INTER.norm>
0.212701

>  <SCORE.INTRA>
-8.66867

>  <SCORE.INTRA.DIHEDRAL>
-17.6592

>  <SCORE.INTRA.DIHEDRAL.0>
20.2131

>  <SCORE.INTRA.POLAR>
0

>  <SCORE.INTRA.POLAR.0>
0

>  <SCORE.INTRA.REPUL>
0

>  <SCORE.INTRA.REPUL.0>
0

>  <SCORE.INTRA.SOLV>
-0.239717

>  <SCORE.INTRA.SOLV.lig_0>
-48.2851

>  <SCORE.INTRA.VDW>
0.280796

>  <SCORE.INTRA.VDW.0>
-1.08658

>  <SCORE.INTRA.norm>
-0.619191

>  <SCORE.RESTR>
0

>  <SCORE.RESTR.CAVITY>
0

>  <SCORE.RESTR.norm>
0

>  <SCORE.SYSTEM>
0

>  <SCORE.SYSTEM.CONST>
0

>  <SCORE.SYSTEM.DIHEDRAL>
0

>  <SCORE.SYSTEM.SOLV>
0

>  <SCORE.SYSTEM.norm>
0

>  <SCORE.heavy>
14

>  <SCORE.norm>
-0.40649

>  <RMSD>
6.294

$$$$
ligand
 OpenBabel11021811393D
libRbt.so/2013.1/901 2013/11/27
 14 13  0  0  0  0  0  0  0  0999 V2000
   40.3083   22.1675   37.1993 N   0  0  0  0  0  0  0  0  0  0  0  0
   39.6133   20.9377   36.8520 C   0  0  0  0  0  0  0  0  0  0  0  0
   38.2485   21.2631   36.1849 C   0  0  0  0  0  0  0  0  0  0  0  0
   37.4030   20.0670   35.6194 C   0  0  0  0  0  0  0  0  0  0  0  0
   36.8920   19.0901   36.6495 N   0  0  0  0  0  0  0  0  0  0  0  0
   37.9172   18.1092   37.1104 C   0  0  0  0  0  0  0  0  0  0  0  0
   37.5302   16.6592   36.8828 C   0  0  0  0  0  0  0  0  0  0  0  0
   38.5223   15.6877   37.4962 C   0  0  0  0  0  0  0  0  0  0  0  0
   38.0579   14.3198   37.1715 C   0  0  0  0  0  0  0  0  0  0  0  0
   38.0845   13.9617   35.7330 N   0  0  0  0  0  0  0  0  0  0  0  0
   39.4251   13.5497   35.2464 C   0  0  0  0  0  0  0  0  0  0  0  0
   39.7408   13.8827   33.7577 C   0  0  0  0  0  0  0  0  0  0  0  0
   39.7050   15.4119   33.5895 C   0  0  0  0  0  0  0  0  0  0  0  0
   40.0457   15.7879   32.2198 N   0  0  0  0  0  0  0  0  0  0  0  0
  1  2  1  0  0  0  0
  2  3  1  0  0  0  0
  3  4  1  0  0  0  0
  4  5  1  0  0  0  0
  5  6  1  0  0  0  0
  6  7  1  0  0  0  0
  7  8  1  0  0  0  0
  8  9  1  0  0  0  0
  9 10  1  0  0  0  0
 10 11  1  0  0  0  0
 11 12  1  0  0  0  0
 12 13  1  0  0  0  0
 13 14  1  0  0  0  0
M  END
>  <CHROM.1>
174.63057934,65.37897141,-79.25295703,-121.62667193,-173.79286410,-178.29748779
65.75898181,81.11860296,-148.68310660,62.29208785,177.80946295,38.67807177
17.20657595,35.83676619,-1.68336831,-1.03945764,-2.96135389

>  <Name>
ligand

>  <RI>
0

>  <Rbt.Current_Directory>
/home/itssahil/PROJECTS/Mol_Feturizer/New_Systems/rnas/1EVV

>  <Rbt.Executable>
rbdock ($Id: //depot/dev/client3/rdock/2013.1/src/exe/rbdock.cxx#4 $)

>  <Rbt.Library>
libRbt.so (2013.1, Build901 2013/11/27)

>  <Rbt.Parameter_File>
/export/apps/rDock/src/rDock_2013.1_src/data/scripts/dock_solv.prm

>  <Rbt.Receptor>
prm/pocket_docking_7.prm

>  <SCORE>
-7.67286

>  <SCORE.INTER>
1.14178

>  <SCORE.INTER.CONST>
1

>  <SCORE.INTER.POLAR>
0

>  <SCORE.INTER.ROT>
11

>  <SCORE.INTER.SOLV>
8.54164

>  <SCORE.INTER.VDW>
-13.0194

>  <SCORE.INTER.norm>
0.0815557

>  <SCORE.INTRA>
-8.81464

>  <SCORE.INTRA.DIHEDRAL>
-17.2269

>  <SCORE.INTRA.DIHEDRAL.0>
20.2131

>  <SCORE.INTRA.POLAR>
0

>  <SCORE.INTRA.POLAR.0>
0

>  <SCORE.INTRA.REPUL>
0

>  <SCORE.INTRA.REPUL.0>
0

>  <SCORE.INTRA.SOLV>
-0.369349

>  <SCORE.INTRA.SOLV.lig_0>
-48.2851

>  <SCORE.INTRA.VDW>
-0.0165311

>  <SCORE.INTRA.VDW.0>
-1.08658

>  <SCORE.INTRA.norm>
-0.629617

>  <SCORE.RESTR>
0

>  <SCORE.RESTR.CAVITY>
0

>  <SCORE.RESTR.norm>
0

>  <SCORE.SYSTEM>
0

>  <SCORE.SYSTEM.CONST>
0

>  <SCORE.SYSTEM.DIHEDRAL>
0

>  <SCORE.SYSTEM.SOLV>
0

>  <SCORE.SYSTEM.norm>
0

>  <SCORE.heavy>
14

>  <SCORE.norm>
-0.548062

>  <RMSD>
6.316

$$$$
ligand
 OpenBabel11021811393D
libRbt.so/2013.1/901 2013/11/27
 14 13  0  0  0  0  0  0  0  0999 V2000
   36.2589   23.8226   33.0600 N   0  0  0  0  0  0  0  0  0  0  0  0
   37.1183   22.8788   33.7578 C   0  0  0  0  0  0  0  0  0  0  0  0
   36.4534   21.4751   33.7958 C   0  0  0  0  0  0  0  0  0  0  0  0
   37.2407   20.3074   34.4901 C   0  0  0  0  0  0  0  0  0  0  0  0
   37.4499   20.4606   35.9766 N   0  0  0  0  0  0  0  0  0  0  0  0
   38.5218   19.5817   36.5279 C   0  0  0  0  0  0  0  0  0  0  0  0
   38.0117   18.2728   37.1029 C   0  0  0  0  0  0  0  0  0  0  0  0
   37.2715   17.4341   36.0768 C   0  0  0  0  0  0  0  0  0  0  0  0
   37.0304   16.1057   36.6845 C   0  0  0  0  0  0  0  0  0  0  0  0
   38.2435   15.2951   36.9485 N   0  0  0  0  0  0  0  0  0  0  0  0
   38.6819   14.4831   35.7858 C   0  0  0  0  0  0  0  0  0  0  0  0
   39.4087   15.2602   34.6480 C   0  0  0  0  0  0  0  0  0  0  0  0
   39.6946   14.2756   33.5005 C   0  0  0  0  0  0  0  0  0  0  0  0
   40.2436   14.9780   32.3434 N   0  0  0  0  0  0  0  0  0  0  0  0
  1  2  1  0  0  0  0
  2  3  1  0  0  0  0
  3  4  1  0  0  0  0
  4  5  1  0  0  0  0
  5  6  1  0  0  0  0
  6  7  1  0  0  0  0
  7  8  1  0  0  0  0
  8  9  1  0  0  0  0
  9 10  1  0  0  0  0
 10 11  1  0  0  0  0
 11 12  1  0  0  0  0
 12 13  1  0  0  0  0
 13 14  1  0  0  0  0
M  END
>  <CHROM.1>
179.03936622,65.72439340,-162.61098666,-95.14252905,59.28045326,170.58598063
-66.37268132,-86.43303701,76.20978017,-176.13636417,173.76744813,37.97345834
18.18772917,35.05009972,-2.33940939,-1.14875999,2.30352728

>  <Name>
ligand

>  <RI>
0

>  <Rbt.Current_Directory>
/home/itssahil/PROJECTS/Mol_Feturizer/New_Systems/rnas/1EVV

>  <Rbt.Executable>
rbdock ($Id: //depot/dev/client3/rdock/2013.1/src/exe/rbdock.cxx#4 $)

>  <Rbt.Library>
libRbt.so (2013.1, Build901 2013/11/27)

>  <Rbt.Parameter_File>
/export/apps/rDock/src/rDock_2013.1_src/data/scripts/dock_solv.prm

>  <Rbt.Receptor>
prm/pocket_docking_8.prm

>  <SCORE>
-6.69821

>  <SCORE.INTER>
1.95999

>  <SCORE.INTER.CONST>
1

>  <SCORE.INTER.POLAR>
0

>  <SCORE.INTER.ROT>
11

>  <SCORE.INTER.SOLV>
8.46147

>  <SCORE.INTER.VDW>
-12.4472

>  <SCORE.INTER.norm>
0.139999

>  <SCORE.INTRA>
-8.6582

>  <SCORE.INTRA.DIHEDRAL>
-17.6826

>  <SCORE.INTRA.DIHEDRAL.0>
20.2131

>  <SCORE.INTRA.POLAR>
0

>  <SCORE.INTRA.POLAR.0>
0

>  <SCORE.INTRA.REPUL>
0

>  <SCORE.INTRA.REPUL.0>
0

>  <SCORE.INTRA.SOLV>
-0.294601

>  <SCORE.INTRA.SOLV.lig_0>
-48.2851

>  <SCORE.INTRA.VDW>
0.33038

>  <SCORE.INTRA.VDW.0>
-1.08658

>  <SCORE.INTRA.norm>
-0.618443

>  <SCORE.RESTR>
0

>  <SCORE.RESTR.CAVITY>
0

>  <SCORE.RESTR.norm>
0

>  <SCORE.SYSTEM>
0

>  <SCORE.SYSTEM.CONST>
0

>  <SCORE.SYSTEM.DIHEDRAL>
0

>  <SCORE.SYSTEM.SOLV>
0

>  <SCORE.SYSTEM.norm>
0

>  <SCORE.heavy>
14

>  <SCORE.norm>
-0.478444

>  <RMSD>
6.339

$$$$
ligand
 OpenBabel11021811393D
libRbt.so/2013.1/901 2013/11/27
 14 13  0  0  0  0  0  0  0  0999 V2000
   39.2428   16.5684   32.3868 N   0  0  0  0  0  0  0  0  0  0  0  0
   38.7750   15.2395   32.7490 C   0  0  0  0  0  0  0  0  0  0  0  0
   39.9250   14.4266   33.4051 C   0  0  0  0  0  0  0  0  0  0  0  0
   40.5415   14.9729   34.7418 C   0  0  0  0  0  0  0  0  0  0  0  0
   39.5909   15.0483   35.9111 N   0  0  0  0  0  0  0  0  0  0  0  0
   40.0640   15.9314   37.0164 C   0  0  0  0  0  0  0  0  0  0  0  0
   39.5257   17.3489   36.9472 C   0  0  0  0  0  0  0  0  0  0  0  0
   38.0131   17.4045   37.0611 C   0  0  0  0  0  0  0  0  0  0  0  0
   37.6068   18.8129   36.8526 C   0  0  0  0  0  0  0  0  0  0  0  0
   37.8416   19.3497   35.4906 N   0  0  0  0  0  0  0  0  0  0  0  0
   37.0243   20.5477   35.1734 C   0  0  0  0  0  0  0  0  0  0  0  0
   36.9224   20.9223   33.6648 C   0  0  0  0  0  0  0  0  0  0  0  0
   35.9960   22.1441   33.5348 C   0  0  0  0  0  0  0  0  0  0  0  0
   35.9000   22.5722   32.1416 N   0  0  0  0  0  0  0  0  0  0  0  0
  1  2  1  0  0  0  0
  2  3  1  0  0  0  0
  3  4  1  0  0  0  0
  4  5  1  0  0  0  0
  5  6  1  0  0  0  0
  6  7  1  0  0  0  0
  7  8  1  0  0  0  0
  8  9  1  0  0  0  0
  9 10  1  0  0  0  0
 10 11  1  0  0  0  0
 11 12  1  0  0  0  0
 12 13  1  0  0  0  0
 13 14  1  0  0  0  0
M  END
>  <CHROM.1>
61.65650758,62.66623296,-162.47888346,94.84295440,62.08097090,-174.76866611
66.64879781,159.83610675,-163.75643161,177.71623443,177.96830417,38.35502868
17.94906036,34.79150018,-0.04648297,1.08675299,-1.72846135

>  <Name>
ligand

>  <RI>
0

>  <Rbt.Current_Directory>
/home/itssahil/PROJECTS/Mol_Feturizer/New_Systems/rnas/1EVV

>  <Rbt.Executable>
rbdock ($Id: //depot/dev/client3/rdock/2013.1/src/exe/rbdock.cxx#4 $)

>  <Rbt.Library>
libRbt.so (2013.1, Build901 2013/11/27)

>  <Rbt.Parameter_File>
/export/apps/rDock/src/rDock_2013.1_src/data/scripts/dock_solv.prm

>  <Rbt.Receptor>
prm/pocket_docking_6.prm

>  <SCORE>
-7.48797

>  <SCORE.INTER>
1.53985

>  <SCORE.INTER.CONST>
1

>  <SCORE.INTER.POLAR>
0

>  <SCORE.INTER.ROT>
11

>  <SCORE.INTER.SOLV>
6.88986

>  <SCORE.INTER.VDW>
-12.2034

>  <SCORE.INTER.norm>
0.10999

>  <SCORE.INTRA>
-9.02783

>  <SCORE.INTRA.DIHEDRAL>
-18.3501

>  <SCORE.INTRA.DIHEDRAL.0>
20.2131

>  <SCORE.INTRA.POLAR>
0

>  <SCORE.INTRA.POLAR.0>
0

>  <SCORE.INTRA.REPUL>
0

>  <SCORE.INTRA.REPUL.0>
0

>  <SCORE.INTRA.SOLV>
0.989259

>  <SCORE.INTRA.SOLV.lig_0>
-48.2851

>  <SCORE.INTRA.VDW>
-0.347409

>  <SCORE.INTRA.VDW.0>
-1.08658

>  <SCORE.INTRA.norm>
-0.644845

>  <SCORE.RESTR>
0

>  <SCORE.RESTR.CAVITY>
0

>  <SCORE.RESTR.norm>
0

>  <SCORE.SYSTEM>
0

>  <SCORE.SYSTEM.CONST>
0

>  <SCORE.SYSTEM.DIHEDRAL>
0

>  <SCORE.SYSTEM.SOLV>
0

>  <SCORE.SYSTEM.norm>
0

>  <SCORE.heavy>
14

>  <SCORE.norm>
-0.534855

>  <RMSD>
6.377

$$$$
ligand
 OpenBabel11021811393D
libRbt.so/2013.1/901 2013/11/27
 14 13  0  0  0  0  0  0  0  0999 V2000
   39.0421   16.5311   32.4165 N   0  0  0  0  0  0  0  0  0  0  0  0
   39.9289   15.3830   32.3086 C   0  0  0  0  0  0  0  0  0  0  0  0
   40.2507   14.8195   33.7202 C   0  0  0  0  0  0  0  0  0  0  0  0
   39.0830   14.1491   34.5278 C   0  0  0  0  0  0  0  0  0  0  0  0
   39.3980   13.8130   35.9647 N   0  0  0  0  0  0  0  0  0  0  0  0
   38.2302   13.9430   36.8838 C   0  0  0  0  0  0  0  0  0  0  0  0
   37.7587   15.3719   37.0842 C   0  0  0  0  0  0  0  0  0  0  0  0
   38.8649   16.2873   37.5767 C   0  0  0  0  0  0  0  0  0  0  0  0
   38.2899   17.6460   37.7011 C   0  0  0  0  0  0  0  0  0  0  0  0
   37.8875   18.2877   36.4265 N   0  0  0  0  0  0  0  0  0  0  0  0
   36.9638   19.4362   36.6035 C   0  0  0  0  0  0  0  0  0  0  0  0
   37.0479   20.5508   35.5184 C   0  0  0  0  0  0  0  0  0  0  0  0
   38.4398   21.2014   35.6051 C   0  0  0  0  0  0  0  0  0  0  0  0
   38.5513   22.3082   34.6585 N   0  0  0  0  0  0  0  0  0  0  0  0
  1  2  1  0  0  0  0
  2  3  1  0  0  0  0
  3  4  1  0  0  0  0
  4  5  1  0  0  0  0
  5  6  1  0  0  0  0
  6  7  1  0  0  0  0
  7  8  1  0  0  0  0
  8  9  1  0  0  0  0
  9 10  1  0  0  0  0
 10 11  1  0  0  0  0
 11 12  1  0  0  0  0
 12 13  1  0  0  0  0
 13 14  1  0  0  0  0
M  END
>  <CHROM.1>
67.59461924,-171.00289179,146.43484311,-68.00506824,-55.80005842,178.71943742
-66.48627844,162.60485154,150.69302130,-64.68751910,-176.80707960,38.55255147
17.12317472,35.49995077,-0.95752266,1.20588199,-0.47147439

>  <Name>
ligand

>  <RI>
0

>  <Rbt.Current_Directory>
/home/itssahil/PROJECTS/Mol_Feturizer/New_Systems/rnas/1EVV

>  <Rbt.Executable>
rbdock ($Id: //depot/dev/client3/rdock/2013.1/src/exe/rbdock.cxx#4 $)

>  <Rbt.Library>
libRbt.so (2013.1, Build901 2013/11/27)

>  <Rbt.Parameter_File>
/export/apps/rDock/src/rDock_2013.1_src/data/scripts/dock_solv.prm

>  <Rbt.Receptor>
prm/pocket_docking_6.prm

>  <SCORE>
-8.13443

>  <SCORE.INTER>
0.469653

>  <SCORE.INTER.CONST>
1

>  <SCORE.INTER.POLAR>
0

>  <SCORE.INTER.ROT>
11

>  <SCORE.INTER.SOLV>
5.53615

>  <SCORE.INTER.VDW>
-12.4656

>  <SCORE.INTER.norm>
0.0335466

>  <SCORE.INTRA>
-8.61082

>  <SCORE.INTRA.DIHEDRAL>
-17.7713

>  <SCORE.INTRA.DIHEDRAL.0>
20.2131

>  <SCORE.INTRA.POLAR>
0

>  <SCORE.INTRA.POLAR.0>
0

>  <SCORE.INTRA.REPUL>
0

>  <SCORE.INTRA.REPUL.0>
0

>  <SCORE.INTRA.SOLV>
0.37897

>  <SCORE.INTRA.SOLV.lig_0>
-48.2851

>  <SCORE.INTRA.VDW>
0.0853471

>  <SCORE.INTRA.VDW.0>
-1.08658

>  <SCORE.INTRA.norm>
-0.615059

>  <SCORE.RESTR>
0.00673699

>  <SCORE.RESTR.CAVITY>
0.00673699

>  <SCORE.RESTR.norm>
0.000481214

>  <SCORE.SYSTEM>
0

>  <SCORE.SYSTEM.CONST>
0

>  <SCORE.SYSTEM.DIHEDRAL>
0

>  <SCORE.SYSTEM.SOLV>
0

>  <SCORE.SYSTEM.norm>
0

>  <SCORE.heavy>
14

>  <SCORE.norm>
-0.581031

>  <RMSD>
6.415

$$$$
ligand
 OpenBabel11021811393D
libRbt.so/2013.1/901 2013/11/27
 14 13  0  0  0  0  0  0  0  0999 V2000
   40.4727   24.1997   38.4820 N   0  0  0  0  0  0  0  0  0  0  0  0
   39.8697   22.9489   38.0482 C   0  0  0  0  0  0  0  0  0  0  0  0
   39.0566   23.1700   36.7430 C   0  0  0  0  0  0  0  0  0  0  0  0
   38.4373   21.9098   36.0404 C   0  0  0  0  0  0  0  0  0  0  0  0
   37.5149   21.0778   36.8968 N   0  0  0  0  0  0  0  0  0  0  0  0
   36.8284   19.9813   36.1539 C   0  0  0  0  0  0  0  0  0  0  0  0
   37.6466   18.7080   36.0381 C   0  0  0  0  0  0  0  0  0  0  0  0
   37.9320   18.0735   37.3872 C   0  0  0  0  0  0  0  0  0  0  0  0
   38.5889   16.7714   37.1317 C   0  0  0  0  0  0  0  0  0  0  0  0
   38.8872   15.9600   38.3363 N   0  0  0  0  0  0  0  0  0  0  0  0
   39.9017   14.9012   38.1050 C   0  0  0  0  0  0  0  0  0  0  0  0
   39.4199   13.6627   37.2922 C   0  0  0  0  0  0  0  0  0  0  0  0
   40.5948   12.6754   37.1796 C   0  0  0  0  0  0  0  0  0  0  0  0
   40.2208   11.5193   36.3691 N   0  0  0  0  0  0  0  0  0  0  0  0
  1  2  1  0  0  0  0
  2  3  1  0  0  0  0
  3  4  1  0  0  0  0
  4  5  1  0  0  0  0
  5  6  1  0  0  0  0
  6  7  1  0  0  0  0
  7  8  1  0  0  0  0
  8  9  1  0  0  0  0
  9 10  1  0  0  0  0
 10 11  1  0  0  0  0
 11 12  1  0  0  0  0
 12 13  1  0  0  0  0
 13 14  1  0  0  0  0
M  END
>  <CHROM.1>
174.43637686,56.83500619,173.49249310,84.88765943,63.36920048,173.44190827
-176.97830228,-161.61817081,-74.05170149,-179.04603413,-177.23047281,38.95497910
18.25422778,37.15722367,-1.67556386,0.54427195,-3.08256038

>  <Name>
ligand

>  <RI>
0

>  <Rbt.Current_Directory>
/home/itssahil/PROJECTS/Mol_Feturizer/New_Systems/rnas/1EVV

>  <Rbt.Executable>
rbdock ($Id: //depot/dev/client3/rdock/2013.1/src/exe/rbdock.cxx#4 $)

>  <Rbt.Library>
libRbt.so (2013.1, Build901 2013/11/27)

>  <Rbt.Parameter_File>
/export/apps/rDock/src/rDock_2013.1_src/data/scripts/dock_solv.prm

>  <Rbt.Receptor>
prm/pocket_docking_8.prm

>  <SCORE>
-5.61612

>  <SCORE.INTER>
4.08046

>  <SCORE.INTER.CONST>
1

>  <SCORE.INTER.POLAR>
0

>  <SCORE.INTER.ROT>
11

>  <SCORE.INTER.SOLV>
10.6071

>  <SCORE.INTER.VDW>
-11.7487

>  <SCORE.INTER.norm>
0.291461

>  <SCORE.INTRA>
-9.69658

>  <SCORE.INTRA.DIHEDRAL>
-18.8826

>  <SCORE.INTRA.DIHEDRAL.0>
20.2131

>  <SCORE.INTRA.POLAR>
0

>  <SCORE.INTRA.POLAR.0>
0

>  <SCORE.INTRA.REPUL>
0

>  <SCORE.INTRA.REPUL.0>
0

>  <SCORE.INTRA.SOLV>
-0.720765

>  <SCORE.INTRA.SOLV.lig_0>
-48.2851

>  <SCORE.INTRA.VDW>
0.1051

>  <SCORE.INTRA.VDW.0>
-1.08658

>  <SCORE.INTRA.norm>
-0.692613

>  <SCORE.RESTR>
0

>  <SCORE.RESTR.CAVITY>
0

>  <SCORE.RESTR.norm>
0

>  <SCORE.SYSTEM>
0

>  <SCORE.SYSTEM.CONST>
0

>  <SCORE.SYSTEM.DIHEDRAL>
0

>  <SCORE.SYSTEM.SOLV>
0

>  <SCORE.SYSTEM.norm>
0

>  <SCORE.heavy>
14

>  <SCORE.norm>
-0.401151

>  <RMSD>
6.434

$$$$
ligand
 OpenBabel11021811393D
libRbt.so/2013.1/901 2013/11/27
 14 13  0  0  0  0  0  0  0  0999 V2000
   47.4632   18.4671   38.6240 N   0  0  0  0  0  0  0  0  0  0  0  0
   48.0363   18.7112   39.9386 C   0  0  0  0  0  0  0  0  0  0  0  0
   47.8155   20.1921   40.3532 C   0  0  0  0  0  0  0  0  0  0  0  0
   46.3377   20.6998   40.5073 C   0  0  0  0  0  0  0  0  0  0  0  0
   46.1866   22.1633   40.8417 N   0  0  0  0  0  0  0  0  0  0  0  0
   44.7686   22.6202   40.9201 C   0  0  0  0  0  0  0  0  0  0  0  0
   44.5821   24.1025   40.6518 C   0  0  0  0  0  0  0  0  0  0  0  0
   43.1200   24.4966   40.5466 C   0  0  0  0  0  0  0  0  0  0  0  0
   42.6052   23.9442   39.2729 C   0  0  0  0  0  0  0  0  0  0  0  0
   41.1885   24.2574   38.9680 N   0  0  0  0  0  0  0  0  0  0  0  0
   40.5400   23.2692   38.0699 C   0  0  0  0  0  0  0  0  0  0  0  0
   39.0728   23.5872   37.6543 C   0  0  0  0  0  0  0  0  0  0  0  0
   39.0838   24.8593   36.7884 C   0  0  0  0  0  0  0  0  0  0  0  0
   37.7261   25.2259   36.3936 N   0  0  0  0  0  0  0  0  0  0  0  0
  1  2  1  0  0  0  0
  2  3  1  0  0  0  0
  3  4  1  0  0  0  0
  4  5  1  0  0  0  0
  5  6  1  0  0  0  0
  6  7  1  0  0  0  0
  7  8  1  0  0  0  0
  8  9  1  0  0  0  0
  9 10  1  0  0  0  0
 10 11  1  0  0  0  0
 11 12  1  0  0  0  0
 12 13  1  0  0  0  0
 13 14  1  0  0  0  0
M  END
>  <CHROM.1>
61.99803316,-176.97254937,177.43671730,-154.78267840,171.95679550,-71.21136040
-178.38563136,-154.77554270,-176.89190292,65.86419423,-178.65646277,43.46631212
22.61403411,39.25239394,0.20821451,0.54660278,-2.48072973

>  <Name>
ligand

>  <RI>
0

>  <Rbt.Current_Directory>
/home/itssahil/PROJECTS/Mol_Feturizer/New_Systems/rnas/1EVV

>  <Rbt.Executable>
rbdock ($Id: //depot/dev/client3/rdock/2013.1/src/exe/rbdock.cxx#4 $)

>  <Rbt.Library>
libRbt.so (2013.1, Build901 2013/11/27)

>  <Rbt.Parameter_File>
/export/apps/rDock/src/rDock_2013.1_src/data/scripts/dock_solv.prm

>  <Rbt.Receptor>
prm/pocket_docking_8.prm

>  <SCORE>
-8.4217

>  <SCORE.INTER>
0.181406

>  <SCORE.INTER.CONST>
1

>  <SCORE.INTER.POLAR>
0

>  <SCORE.INTER.ROT>
11

>  <SCORE.INTER.SOLV>
13.6671

>  <SCORE.INTER.VDW>
-15.3681

>  <SCORE.INTER.norm>
0.0129576

>  <SCORE.INTRA>
-8.6031

>  <SCORE.INTRA.DIHEDRAL>
-18.3481

>  <SCORE.INTRA.DIHEDRAL.0>
20.2131

>  <SCORE.INTRA.POLAR>
0

>  <SCORE.INTRA.POLAR.0>
0

>  <SCORE.INTRA.REPUL>
0

>  <SCORE.INTRA.REPUL.0>
0

>  <SCORE.INTRA.SOLV>
-0.180008

>  <SCORE.INTRA.SOLV.lig_0>
-48.2851

>  <SCORE.INTRA.VDW>
0.660942

>  <SCORE.INTRA.VDW.0>
-1.08658

>  <SCORE.INTRA.norm>
-0.614507

>  <SCORE.RESTR>
0

>  <SCORE.RESTR.CAVITY>
0

>  <SCORE.RESTR.norm>
0

>  <SCORE.SYSTEM>
0

>  <SCORE.SYSTEM.CONST>
0

>  <SCORE.SYSTEM.DIHEDRAL>
0

>  <SCORE.SYSTEM.SOLV>
0

>  <SCORE.SYSTEM.norm>
0

>  <SCORE.heavy>
14

>  <SCORE.norm>
-0.60155

>  <RMSD>
6.534

$$$$
ligand
 OpenBabel11021811393D
libRbt.so/2013.1/901 2013/11/27
 14 13  0  0  0  0  0  0  0  0999 V2000
   37.6352   18.2692   36.2590 N   0  0  0  0  0  0  0  0  0  0  0  0
   37.8810   16.9232   35.7649 C   0  0  0  0  0  0  0  0  0  0  0  0
   37.3672   15.8739   36.7889 C   0  0  0  0  0  0  0  0  0  0  0  0
   37.6313   14.3568   36.4820 C   0  0  0  0  0  0  0  0  0  0  0  0
   39.0816   13.9404   36.4714 N   0  0  0  0  0  0  0  0  0  0  0  0
   39.4377   13.0260   35.3478 C   0  0  0  0  0  0  0  0  0  0  0  0
   40.0751   13.7257   34.1610 C   0  0  0  0  0  0  0  0  0  0  0  0
   39.1107   14.6530   33.4439 C   0  0  0  0  0  0  0  0  0  0  0  0
   39.9219   15.6547   32.7154 C   0  0  0  0  0  0  0  0  0  0  0  0
   40.8441   16.4595   33.5522 N   0  0  0  0  0  0  0  0  0  0  0  0
   41.0909   17.8243   33.0231 C   0  0  0  0  0  0  0  0  0  0  0  0
   42.4067   18.5105   33.4970 C   0  0  0  0  0  0  0  0  0  0  0  0
   42.4150   18.5224   35.0357 C   0  0  0  0  0  0  0  0  0  0  0  0
   43.6082   19.1975   35.5396 N   0  0  0  0  0  0  0  0  0  0  0  0
  1  2  1  0  0  0  0
  2  3  1  0  0  0  0
  3  4  1  0  0  0  0
  4  5  1  0  0  0  0
  5  6  1  0  0  0  0
  6  7  1  0  0  0  0
  7  8  1  0  0  0  0
  8  9  1  0  0  0  0
  9 10  1  0  0  0  0
 10 11  1  0  0  0  0
 11 12  1  0  0  0  0
 12 13  1  0  0  0  0
 13 14  1  0  0  0  0
M  END
>  <CHROM.1>
-175.85326384,64.99384263,-137.19317866,98.09569610,-67.23030471,157.14537184
-57.87372427,-149.96722436,-157.42845755,-55.43429861,-178.04699658,39.89316734
16.20947495,34.86274500,2.61237526,-0.64217605,-2.71475491

>  <Name>
ligand

>  <RI>
0

>  <Rbt.Current_Directory>
/home/itssahil/PROJECTS/Mol_Feturizer/New_Systems/rnas/1EVV

>  <Rbt.Executable>
rbdock ($Id: //depot/dev/client3/rdock/2013.1/src/exe/rbdock.cxx#4 $)

>  <Rbt.Library>
libRbt.so (2013.1, Build901 2013/11/27)

>  <Rbt.Parameter_File>
/export/apps/rDock/src/rDock_2013.1_src/data/scripts/dock_solv.prm

>  <Rbt.Receptor>
prm/pocket_docking_7.prm

>  <SCORE>
-6.50969

>  <SCORE.INTER>
1.45417

>  <SCORE.INTER.CONST>
1

>  <SCORE.INTER.POLAR>
0

>  <SCORE.INTER.ROT>
11

>  <SCORE.INTER.SOLV>
6.23081

>  <SCORE.INTER.VDW>
-12.0408

>  <SCORE.INTER.norm>
0.103869

>  <SCORE.INTRA>
-7.96386

>  <SCORE.INTRA.DIHEDRAL>
-15.0143

>  <SCORE.INTRA.DIHEDRAL.0>
20.2131

>  <SCORE.INTRA.POLAR>
0

>  <SCORE.INTRA.POLAR.0>
0

>  <SCORE.INTRA.REPUL>
0

>  <SCORE.INTRA.REPUL.0>
0

>  <SCORE.INTRA.SOLV>
0.67095

>  <SCORE.INTRA.SOLV.lig_0>
-48.2851

>  <SCORE.INTRA.VDW>
-0.792193

>  <SCORE.INTRA.VDW.0>
-1.08658

>  <SCORE.INTRA.norm>
-0.568847

>  <SCORE.RESTR>
0

>  <SCORE.RESTR.CAVITY>
0

>  <SCORE.RESTR.norm>
0

>  <SCORE.SYSTEM>
0

>  <SCORE.SYSTEM.CONST>
0

>  <SCORE.SYSTEM.DIHEDRAL>
0

>  <SCORE.SYSTEM.SOLV>
0

>  <SCORE.SYSTEM.norm>
0

>  <SCORE.heavy>
14

>  <SCORE.norm>
-0.464978

>  <RMSD>
6.587

$$$$
ligand
 OpenBabel11021811393D
libRbt.so/2013.1/901 2013/11/27
 14 13  0  0  0  0  0  0  0  0999 V2000
   40.8647   24.6267   37.3076 N   0  0  0  0  0  0  0  0  0  0  0  0
   40.3240   24.0130   38.5106 C   0  0  0  0  0  0  0  0  0  0  0  0
   39.0490   23.1940   38.1680 C   0  0  0  0  0  0  0  0  0  0  0  0
   39.1994   21.9744   37.1905 C   0  0  0  0  0  0  0  0  0  0  0  0
   37.9162   21.2620   36.8405 N   0  0  0  0  0  0  0  0  0  0  0  0
   38.1194   19.9872   36.0929 C   0  0  0  0  0  0  0  0  0  0  0  0
   37.2197   18.8534   36.5502 C   0  0  0  0  0  0  0  0  0  0  0  0
   37.6874   17.4992   36.0487 C   0  0  0  0  0  0  0  0  0  0  0  0
   36.6973   16.4956   36.5014 C   0  0  0  0  0  0  0  0  0  0  0  0
   37.1606   15.0874   36.4794 N   0  0  0  0  0  0  0  0  0  0  0  0
   37.9795   14.7112   37.6591 C   0  0  0  0  0  0  0  0  0  0  0  0
   38.5231   13.2514   37.6729 C   0  0  0  0  0  0  0  0  0  0  0  0
   39.3401   13.0553   38.9621 C   0  0  0  0  0  0  0  0  0  0  0  0
   39.8898   11.7034   39.0233 N   0  0  0  0  0  0  0  0  0  0  0  0
  1  2  1  0  0  0  0
  2  3  1  0  0  0  0
  3  4  1  0  0  0  0
  4  5  1  0  0  0  0
  5  6  1  0  0  0  0
  6  7  1  0  0  0  0
  7  8  1  0  0  0  0
  8  9  1  0  0  0  0
  9 10  1  0  0  0  0
 10 11  1  0  0  0  0
 11 12  1  0  0  0  0
 12 13  1  0  0  0  0
 13 14  1  0  0  0  0
M  END
>  <CHROM.1>
62.39691080,-176.99461245,-170.72194113,138.15769034,-164.73044211,-177.20688683
-162.18763933,81.17498451,-178.57893205,179.96798171,-179.36429922,38.56913848
18.26533906,37.35763470,-1.43896328,0.67866106,3.01620536

>  <Name>
ligand

>  <RI>
0

>  <Rbt.Current_Directory>
/home/itssahil/PROJECTS/Mol_Feturizer/New_Systems/rnas/1EVV

>  <Rbt.Executable>
rbdock ($Id: //depot/dev/client3/rdock/2013.1/src/exe/rbdock.cxx#4 $)

>  <Rbt.Library>
libRbt.so (2013.1, Build901 2013/11/27)

>  <Rbt.Parameter_File>
/export/apps/rDock/src/rDock_2013.1_src/data/scripts/dock_solv.prm

>  <Rbt.Receptor>
prm/pocket_docking_8.prm

>  <SCORE>
-7.90022

>  <SCORE.INTER>
0.844454

>  <SCORE.INTER.CONST>
1

>  <SCORE.INTER.POLAR>
0

>  <SCORE.INTER.ROT>
11

>  <SCORE.INTER.SOLV>
5.95918

>  <SCORE.INTER.VDW>
-12.3568

>  <SCORE.INTER.norm>
0.0603182

>  <SCORE.INTRA>
-8.74467

>  <SCORE.INTRA.DIHEDRAL>
-16.8189

>  <SCORE.INTRA.DIHEDRAL.0>
20.2131

>  <SCORE.INTRA.POLAR>
0

>  <SCORE.INTRA.POLAR.0>
0

>  <SCORE.INTRA.REPUL>
0

>  <SCORE.INTRA.REPUL.0>
0

>  <SCORE.INTRA.SOLV>
-0.75306

>  <SCORE.INTRA.SOLV.lig_0>
-48.2851

>  <SCORE.INTRA.VDW>
0.041315

>  <SCORE.INTRA.VDW.0>
-1.08658

>  <SCORE.INTRA.norm>
-0.624619

>  <SCORE.RESTR>
0

>  <SCORE.RESTR.CAVITY>
0

>  <SCORE.RESTR.norm>
0

>  <SCORE.SYSTEM>
0

>  <SCORE.SYSTEM.CONST>
0

>  <SCORE.SYSTEM.DIHEDRAL>
0

>  <SCORE.SYSTEM.SOLV>
0

>  <SCORE.SYSTEM.norm>
0

>  <SCORE.heavy>
14

>  <SCORE.norm>
-0.564301

>  <RMSD>
6.589

$$$$
ligand
 OpenBabel11021811393D
libRbt.so/2013.1/901 2013/11/27
 14 13  0  0  0  0  0  0  0  0999 V2000
   40.2083   11.4298   36.8171 N   0  0  0  0  0  0  0  0  0  0  0  0
   40.6347   12.5372   35.9758 C   0  0  0  0  0  0  0  0  0  0  0  0
   39.6326   12.7385   34.8058 C   0  0  0  0  0  0  0  0  0  0  0  0
   39.8913   13.9269   33.8126 C   0  0  0  0  0  0  0  0  0  0  0  0
   39.9219   15.2996   34.4382 N   0  0  0  0  0  0  0  0  0  0  0  0
   38.5933   15.7677   34.9294 C   0  0  0  0  0  0  0  0  0  0  0  0
   38.6482   17.0645   35.7163 C   0  0  0  0  0  0  0  0  0  0  0  0
   37.2739   17.5433   36.1480 C   0  0  0  0  0  0  0  0  0  0  0  0
   37.4660   18.7834   36.9338 C   0  0  0  0  0  0  0  0  0  0  0  0
   38.1439   19.8923   36.2203 N   0  0  0  0  0  0  0  0  0  0  0  0
   39.4904   20.2113   36.7577 C   0  0  0  0  0  0  0  0  0  0  0  0
   39.6026   21.5351   37.5711 C   0  0  0  0  0  0  0  0  0  0  0  0
   39.1446   22.6939   36.6680 C   0  0  0  0  0  0  0  0  0  0  0  0
   39.2925   23.9736   37.3566 N   0  0  0  0  0  0  0  0  0  0  0  0
  1  2  1  0  0  0  0
  2  3  1  0  0  0  0
  3  4  1  0  0  0  0
  4  5  1  0  0  0  0
  5  6  1  0  0  0  0
  6  7  1  0  0  0  0
  7  8  1  0  0  0  0
  8  9  1  0  0  0  0
  9 10  1  0  0  0  0
 10 11  1  0  0  0  0
 11 12  1  0  0  0  0
 12 13  1  0  0  0  0
 13 14  1  0  0  0  0
M  END
>  <CHROM.1>
177.73613971,-59.20388534,-69.36661987,172.55450659,177.47347675,178.36330501
59.06328710,-112.55460694,-107.07565494,-57.67271999,-177.11903637,39.13876376
17.38539536,36.01068384,-1.44986054,-0.57319773,0.25055465

>  <Name>
ligand

>  <RI>
0

>  <Rbt.Current_Directory>
/home/itssahil/PROJECTS/Mol_Feturizer/New_Systems/rnas/1EVV

>  <Rbt.Executable>
rbdock ($Id: //depot/dev/client3/rdock/2013.1/src/exe/rbdock.cxx#4 $)

>  <Rbt.Library>
libRbt.so (2013.1, Build901 2013/11/27)

>  <Rbt.Parameter_File>
/export/apps/rDock/src/rDock_2013.1_src/data/scripts/dock_solv.prm

>  <Rbt.Receptor>
prm/pocket_docking_8.prm

>  <SCORE>
-6.82124

>  <SCORE.INTER>
1.93599

>  <SCORE.INTER.CONST>
1

>  <SCORE.INTER.POLAR>
0

>  <SCORE.INTER.ROT>
11

>  <SCORE.INTER.SOLV>
5.24143

>  <SCORE.INTER.VDW>
-11.3898

>  <SCORE.INTER.norm>
0.138285

>  <SCORE.INTRA>
-8.75723

>  <SCORE.INTRA.DIHEDRAL>
-17.7624

>  <SCORE.INTRA.DIHEDRAL.0>
20.2131

>  <SCORE.INTRA.POLAR>
0

>  <SCORE.INTRA.POLAR.0>
0

>  <SCORE.INTRA.REPUL>
0

>  <SCORE.INTRA.REPUL.0>
0

>  <SCORE.INTRA.SOLV>
-0.306084

>  <SCORE.INTRA.SOLV.lig_0>
-48.2851

>  <SCORE.INTRA.VDW>
0.277015

>  <SCORE.INTRA.VDW.0>
-1.08658

>  <SCORE.INTRA.norm>
-0.625516

>  <SCORE.RESTR>
0

>  <SCORE.RESTR.CAVITY>
0

>  <SCORE.RESTR.norm>
0

>  <SCORE.SYSTEM>
0

>  <SCORE.SYSTEM.CONST>
0

>  <SCORE.SYSTEM.DIHEDRAL>
0

>  <SCORE.SYSTEM.SOLV>
0

>  <SCORE.SYSTEM.norm>
0

>  <SCORE.heavy>
14

>  <SCORE.norm>
-0.487231

>  <RMSD>
6.668

$$$$
ligand
 OpenBabel11021811393D
libRbt.so/2013.1/901 2013/11/27
 14 13  0  0  0  0  0  0  0  0999 V2000
   36.6843   22.3961   32.2947 N   0  0  0  0  0  0  0  0  0  0  0  0
   37.3777   22.1778   33.5547 C   0  0  0  0  0  0  0  0  0  0  0  0
   36.7259   20.9985   34.3282 C   0  0  0  0  0  0  0  0  0  0  0  0
   37.3196   20.6229   35.7323 C   0  0  0  0  0  0  0  0  0  0  0  0
   36.6818   19.4347   36.4091 N   0  0  0  0  0  0  0  0  0  0  0  0
   37.6557   18.3847   36.8269 C   0  0  0  0  0  0  0  0  0  0  0  0
   37.2052   16.9680   36.5201 C   0  0  0  0  0  0  0  0  0  0  0  0
   38.2947   15.9419   36.7734 C   0  0  0  0  0  0  0  0  0  0  0  0
   37.7779   14.6298   36.3221 C   0  0  0  0  0  0  0  0  0  0  0  0
   38.8083   13.6045   36.0300 N   0  0  0  0  0  0  0  0  0  0  0  0
   39.1875   13.5326   34.5966 C   0  0  0  0  0  0  0  0  0  0  0  0
   39.9534   14.7663   34.0325 C   0  0  0  0  0  0  0  0  0  0  0  0
   39.9087   14.6978   32.4958 C   0  0  0  0  0  0  0  0  0  0  0  0
   40.4232   15.9328   31.9096 N   0  0  0  0  0  0  0  0  0  0  0  0
  1  2  1  0  0  0  0
  2  3  1  0  0  0  0
  3  4  1  0  0  0  0
  4  5  1  0  0  0  0
  5  6  1  0  0  0  0
  6  7  1  0  0  0  0
  7  8  1  0  0  0  0
  8  9  1  0  0  0  0
  9 10  1  0  0  0  0
 10 11  1  0  0  0  0
 11 12  1  0  0  0  0
 12 13  1  0  0  0  0
 13 14  1  0  0  0  0
M  END
>  <CHROM.1>
-178.90894803,-177.60267982,126.56939723,-136.43067559,171.80911985,-174.88143512
159.15105000,-95.23015661,67.89606827,-164.28203363,170.98480883,38.14314455
17.43471776,34.84499732,-2.25484113,-1.06901758,2.45207932

>  <Name>
ligand

>  <RI>
0

>  <Rbt.Current_Directory>
/home/itssahil/PROJECTS/Mol_Feturizer/New_Systems/rnas/1EVV

>  <Rbt.Executable>
rbdock ($Id: //depot/dev/client3/rdock/2013.1/src/exe/rbdock.cxx#4 $)

>  <Rbt.Library>
libRbt.so (2013.1, Build901 2013/11/27)

>  <Rbt.Parameter_File>
/export/apps/rDock/src/rDock_2013.1_src/data/scripts/dock_solv.prm

>  <Rbt.Receptor>
prm/pocket_docking_8.prm

>  <SCORE>
-7.30974

>  <SCORE.INTER>
0.379848

>  <SCORE.INTER.CONST>
1

>  <SCORE.INTER.POLAR>
0

>  <SCORE.INTER.ROT>
11

>  <SCORE.INTER.SOLV>
8.55307

>  <SCORE.INTER.VDW>
-13.5311

>  <SCORE.INTER.norm>
0.027132

>  <SCORE.INTRA>
-7.68959

>  <SCORE.INTRA.DIHEDRAL>
-14.1862

>  <SCORE.INTRA.DIHEDRAL.0>
20.2131

>  <SCORE.INTRA.POLAR>
0

>  <SCORE.INTRA.POLAR.0>
0

>  <SCORE.INTRA.REPUL>
0

>  <SCORE.INTRA.REPUL.0>
0

>  <SCORE.INTRA.SOLV>
-1.41622

>  <SCORE.INTRA.SOLV.lig_0>
-48.2851

>  <SCORE.INTRA.VDW>
0.111628

>  <SCORE.INTRA.VDW.0>
-1.08658

>  <SCORE.INTRA.norm>
-0.549257

>  <SCORE.RESTR>
0

>  <SCORE.RESTR.CAVITY>
0

>  <SCORE.RESTR.norm>
0

>  <SCORE.SYSTEM>
0

>  <SCORE.SYSTEM.CONST>
0

>  <SCORE.SYSTEM.DIHEDRAL>
0

>  <SCORE.SYSTEM.SOLV>
0

>  <SCORE.SYSTEM.norm>
0

>  <SCORE.heavy>
14

>  <SCORE.norm>
-0.522125

>  <RMSD>
6.719

$$$$
ligand
 OpenBabel11021811393D
libRbt.so/2013.1/901 2013/11/27
 14 13  0  0  0  0  0  0  0  0999 V2000
   39.9648   16.7863   32.4310 N   0  0  0  0  0  0  0  0  0  0  0  0
   40.1166   15.9517   33.6127 C   0  0  0  0  0  0  0  0  0  0  0  0
   39.7781   14.4740   33.2726 C   0  0  0  0  0  0  0  0  0  0  0  0
   39.7998   13.4270   34.4425 C   0  0  0  0  0  0  0  0  0  0  0  0
   38.8667   13.7193   35.5916 N   0  0  0  0  0  0  0  0  0  0  0  0
   39.5656   14.0966   36.8544 C   0  0  0  0  0  0  0  0  0  0  0  0
   38.6309   14.3754   38.0174 C   0  0  0  0  0  0  0  0  0  0  0  0
   37.7554   15.5930   37.7830 C   0  0  0  0  0  0  0  0  0  0  0  0
   38.6333   16.7841   37.8371 C   0  0  0  0  0  0  0  0  0  0  0  0
   37.9359   18.0923   37.8155 N   0  0  0  0  0  0  0  0  0  0  0  0
   37.3657   18.4415   36.4901 C   0  0  0  0  0  0  0  0  0  0  0  0
   37.0851   19.9543   36.2470 C   0  0  0  0  0  0  0  0  0  0  0  0
   38.4312   20.7001   36.2564 C   0  0  0  0  0  0  0  0  0  0  0  0
   38.2305   22.1289   36.0287 N   0  0  0  0  0  0  0  0  0  0  0  0
  1  2  1  0  0  0  0
  2  3  1  0  0  0  0
  3  4  1  0  0  0  0
  4  5  1  0  0  0  0
  5  6  1  0  0  0  0
  6  7  1  0  0  0  0
  7  8  1  0  0  0  0
  8  9  1  0  0  0  0
  9 10  1  0  0  0  0
 10 11  1  0  0  0  0
 11 12  1  0  0  0  0
 12 13  1  0  0  0  0
 13 14  1  0  0  0  0
M  END
>  <CHROM.1>
-176.41175220,58.46558395,-110.91850311,-179.30798859,-65.17089474,-69.84121630
-171.94939479,-72.84942513,-158.88869411,64.79820386,179.84615279,38.72567425
16.75136357,35.90589685,-0.85196823,1.18860929,-0.45461878

>  <Name>
ligand

>  <RI>
0

>  <Rbt.Current_Directory>
/home/itssahil/PROJECTS/Mol_Feturizer/New_Systems/rnas/1EVV

>  <Rbt.Executable>
rbdock ($Id: //depot/dev/client3/rdock/2013.1/src/exe/rbdock.cxx#4 $)

>  <Rbt.Library>
libRbt.so (2013.1, Build901 2013/11/27)

>  <Rbt.Parameter_File>
/export/apps/rDock/src/rDock_2013.1_src/data/scripts/dock_solv.prm

>  <Rbt.Receptor>
prm/pocket_docking_8.prm

>  <SCORE>
-8.45826

>  <SCORE.INTER>
-0.221268

>  <SCORE.INTER.CONST>
1

>  <SCORE.INTER.POLAR>
0

>  <SCORE.INTER.ROT>
11

>  <SCORE.INTER.SOLV>
8.33182

>  <SCORE.INTER.VDW>
-13.8581

>  <SCORE.INTER.norm>
-0.0158048

>  <SCORE.INTRA>
-8.23699

>  <SCORE.INTRA.DIHEDRAL>
-17.7342

>  <SCORE.INTRA.DIHEDRAL.0>
20.2131

>  <SCORE.INTRA.POLAR>
0

>  <SCORE.INTRA.POLAR.0>
0

>  <SCORE.INTRA.REPUL>
0

>  <SCORE.INTRA.REPUL.0>
0

>  <SCORE.INTRA.SOLV>
-0.0544196

>  <SCORE.INTRA.SOLV.lig_0>
-48.2851

>  <SCORE.INTRA.VDW>
0.657297

>  <SCORE.INTRA.VDW.0>
-1.08658

>  <SCORE.INTRA.norm>
-0.588356

>  <SCORE.RESTR>
0

>  <SCORE.RESTR.CAVITY>
0

>  <SCORE.RESTR.norm>
0

>  <SCORE.SYSTEM>
0

>  <SCORE.SYSTEM.CONST>
0

>  <SCORE.SYSTEM.DIHEDRAL>
0

>  <SCORE.SYSTEM.SOLV>
0

>  <SCORE.SYSTEM.norm>
0

>  <SCORE.heavy>
14

>  <SCORE.norm>
-0.604161

>  <RMSD>
6.727

$$$$
ligand
 OpenBabel11021811393D
libRbt.so/2013.1/901 2013/11/27
 14 13  0  0  0  0  0  0  0  0999 V2000
   40.0367   16.2307   31.9806 N   0  0  0  0  0  0  0  0  0  0  0  0
   39.4804   15.1268   32.7475 C   0  0  0  0  0  0  0  0  0  0  0  0
   40.3414   14.8664   34.0142 C   0  0  0  0  0  0  0  0  0  0  0  0
   39.8904   13.7188   34.9864 C   0  0  0  0  0  0  0  0  0  0  0  0
   38.5326   13.9010   35.6186 N   0  0  0  0  0  0  0  0  0  0  0  0
   38.5854   14.2830   37.0597 C   0  0  0  0  0  0  0  0  0  0  0  0
   38.7228   15.7758   37.2978 C   0  0  0  0  0  0  0  0  0  0  0  0
   37.5249   16.5595   36.7929 C   0  0  0  0  0  0  0  0  0  0  0  0
   37.8272   17.9967   36.9815 C   0  0  0  0  0  0  0  0  0  0  0  0
   36.7538   18.9336   36.5714 N   0  0  0  0  0  0  0  0  0  0  0  0
   37.2440   20.2980   36.2523 C   0  0  0  0  0  0  0  0  0  0  0  0
   37.0146   20.7787   34.7884 C   0  0  0  0  0  0  0  0  0  0  0  0
   37.8462   19.8835   33.8530 C   0  0  0  0  0  0  0  0  0  0  0  0
   37.7075   20.3184   32.4655 N   0  0  0  0  0  0  0  0  0  0  0  0
  1  2  1  0  0  0  0
  2  3  1  0  0  0  0
  3  4  1  0  0  0  0
  4  5  1  0  0  0  0
  5  6  1  0  0  0  0
  6  7  1  0  0  0  0
  7  8  1  0  0  0  0
  8  9  1  0  0  0  0
  9 10  1  0  0  0  0
 10 11  1  0  0  0  0
 11 12  1  0  0  0  0
 12 13  1  0  0  0  0
 13 14  1  0  0  0  0
M  END
>  <CHROM.1>
179.24017903,-61.68486777,-105.96901027,85.80065058,63.73893808,-175.48411136
-178.68974113,-156.71376936,117.95706049,-64.93603191,-177.99426981,38.39346890
17.04781652,35.10109806,-0.71088543,1.09828133,-0.82777409

>  <Name>
ligand

>  <RI>
0

>  <Rbt.Current_Directory>
/home/itssahil/PROJECTS/Mol_Feturizer/New_Systems/rnas/1EVV

>  <Rbt.Executable>
rbdock ($Id: //depot/dev/client3/rdock/2013.1/src/exe/rbdock.cxx#4 $)

>  <Rbt.Library>
libRbt.so (2013.1, Build901 2013/11/27)

>  <Rbt.Parameter_File>
/export/apps/rDock/src/rDock_2013.1_src/data/scripts/dock_solv.prm

>  <Rbt.Receptor>
prm/pocket_docking_6.prm

>  <SCORE>
-8.37778

>  <SCORE.INTER>
0.807702

>  <SCORE.INTER.CONST>
1

>  <SCORE.INTER.POLAR>
0

>  <SCORE.INTER.ROT>
11

>  <SCORE.INTER.SOLV>
8.33411

>  <SCORE.INTER.VDW>
-13.1729

>  <SCORE.INTER.norm>
0.057693

>  <SCORE.INTRA>
-9.18548

>  <SCORE.INTRA.DIHEDRAL>
-16.8447

>  <SCORE.INTRA.DIHEDRAL.0>
20.2131

>  <SCORE.INTRA.POLAR>
0

>  <SCORE.INTRA.POLAR.0>
0

>  <SCORE.INTRA.REPUL>
0

>  <SCORE.INTRA.REPUL.0>
0

>  <SCORE.INTRA.SOLV>
-0.357282

>  <SCORE.INTRA.SOLV.lig_0>
-48.2851

>  <SCORE.INTRA.VDW>
-0.584516

>  <SCORE.INTRA.VDW.0>
-1.08658

>  <SCORE.INTRA.norm>
-0.656106

>  <SCORE.RESTR>
0

>  <SCORE.RESTR.CAVITY>
0

>  <SCORE.RESTR.norm>
0

>  <SCORE.SYSTEM>
0

>  <SCORE.SYSTEM.CONST>
0

>  <SCORE.SYSTEM.DIHEDRAL>
0

>  <SCORE.SYSTEM.SOLV>
0

>  <SCORE.SYSTEM.norm>
0

>  <SCORE.heavy>
14

>  <SCORE.norm>
-0.598413

>  <RMSD>
6.772

$$$$
ligand
 OpenBabel11021811393D
libRbt.so/2013.1/901 2013/11/27
 14 13  0  0  0  0  0  0  0  0999 V2000
   38.5054   23.3677   38.7197 N   0  0  0  0  0  0  0  0  0  0  0  0
   39.3561   23.6952   37.5860 C   0  0  0  0  0  0  0  0  0  0  0  0
   40.8515   23.6363   38.0032 C   0  0  0  0  0  0  0  0  0  0  0  0
   41.3484   24.6421   39.1018 C   0  0  0  0  0  0  0  0  0  0  0  0
   42.7940   24.4960   39.5083 N   0  0  0  0  0  0  0  0  0  0  0  0
   43.1629   25.2879   40.7176 C   0  0  0  0  0  0  0  0  0  0  0  0
   44.4410   24.8243   41.3926 C   0  0  0  0  0  0  0  0  0  0  0  0
   44.3424   23.4020   41.9138 C   0  0  0  0  0  0  0  0  0  0  0  0
   45.6375   23.0762   42.5532 C   0  0  0  0  0  0  0  0  0  0  0  0
   46.7580   22.8025   41.6216 N   0  0  0  0  0  0  0  0  0  0  0  0
   47.0655   21.3584   41.4677 C   0  0  0  0  0  0  0  0  0  0  0  0
   46.2565   20.6033   40.3714 C   0  0  0  0  0  0  0  0  0  0  0  0
   46.6099   21.2171   39.0053 C   0  0  0  0  0  0  0  0  0  0  0  0
   45.8722   20.5514   37.9347 N   0  0  0  0  0  0  0  0  0  0  0  0
  1  2  1  0  0  0  0
  2  3  1  0  0  0  0
  3  4  1  0  0  0  0
  4  5  1  0  0  0  0
  5  6  1  0  0  0  0
  6  7  1  0  0  0  0
  7  8  1  0  0  0  0
  8  9  1  0  0  0  0
  9 10  1  0  0  0  0
 10 11  1  0  0  0  0
 11 12  1  0  0  0  0
 12 13  1  0  0  0  0
 13 14  1  0  0  0  0
M  END
>  <CHROM.1>
-62.91407436,177.40543951,-169.37267679,161.35726193,-62.36651576,-179.57311401
-75.21680559,-102.41668570,87.48743690,63.23469840,-179.66911409,43.78594364
23.06871127,39.99285208,-3.10970937,-0.46196096,0.81936123

>  <Name>
ligand

>  <RI>
0

>  <Rbt.Current_Directory>
/home/itssahil/PROJECTS/Mol_Feturizer/New_Systems/rnas/1EVV

>  <Rbt.Executable>
rbdock ($Id: //depot/dev/client3/rdock/2013.1/src/exe/rbdock.cxx#4 $)

>  <Rbt.Library>
libRbt.so (2013.1, Build901 2013/11/27)

>  <Rbt.Parameter_File>
/export/apps/rDock/src/rDock_2013.1_src/data/scripts/dock_solv.prm

>  <Rbt.Receptor>
prm/pocket_docking_8.prm

>  <SCORE>
-6.66609

>  <SCORE.INTER>
2.1364

>  <SCORE.INTER.CONST>
1

>  <SCORE.INTER.POLAR>
0

>  <SCORE.INTER.ROT>
11

>  <SCORE.INTER.SOLV>
12.237

>  <SCORE.INTER.VDW>
-13.5881

>  <SCORE.INTER.norm>
0.1526

>  <SCORE.INTRA>
-8.80249

>  <SCORE.INTRA.DIHEDRAL>
-17.4243

>  <SCORE.INTRA.DIHEDRAL.0>
20.2131

>  <SCORE.INTRA.POLAR>
0

>  <SCORE.INTRA.POLAR.0>
0

>  <SCORE.INTRA.REPUL>
0

>  <SCORE.INTRA.REPUL.0>
0

>  <SCORE.INTRA.SOLV>
0.314488

>  <SCORE.INTRA.SOLV.lig_0>
-48.2851

>  <SCORE.INTRA.VDW>
-0.247582

>  <SCORE.INTRA.VDW.0>
-1.08658

>  <SCORE.INTRA.norm>
-0.628749

>  <SCORE.RESTR>
0

>  <SCORE.RESTR.CAVITY>
0

>  <SCORE.RESTR.norm>
0

>  <SCORE.SYSTEM>
0

>  <SCORE.SYSTEM.CONST>
0

>  <SCORE.SYSTEM.DIHEDRAL>
0

>  <SCORE.SYSTEM.SOLV>
0

>  <SCORE.SYSTEM.norm>
0

>  <SCORE.heavy>
14

>  <SCORE.norm>
-0.476149

>  <RMSD>
6.795

$$$$
ligand
 OpenBabel11021811393D
libRbt.so/2013.1/901 2013/11/27
 14 13  0  0  0  0  0  0  0  0999 V2000
   37.9758   12.7648   36.3654 N   0  0  0  0  0  0  0  0  0  0  0  0
   38.1092   13.9794   37.1547 C   0  0  0  0  0  0  0  0  0  0  0  0
   37.5065   15.1874   36.3859 C   0  0  0  0  0  0  0  0  0  0  0  0
   37.6550   16.6138   37.0252 C   0  0  0  0  0  0  0  0  0  0  0  0
   37.0821   17.7503   36.2149 N   0  0  0  0  0  0  0  0  0  0  0  0
   37.3987   19.1010   36.7635 C   0  0  0  0  0  0  0  0  0  0  0  0
   36.8535   20.2481   35.9322 C   0  0  0  0  0  0  0  0  0  0  0  0
   37.3875   20.2437   34.5112 C   0  0  0  0  0  0  0  0  0  0  0  0
   36.6707   21.3048   33.7678 C   0  0  0  0  0  0  0  0  0  0  0  0
   36.9995   22.6951   34.1645 N   0  0  0  0  0  0  0  0  0  0  0  0
   36.1347   23.7176   33.5240 C   0  0  0  0  0  0  0  0  0  0  0  0
   36.3809   25.1909   33.9660 C   0  0  0  0  0  0  0  0  0  0  0  0
   35.4024   26.0938   33.1944 C   0  0  0  0  0  0  0  0  0  0  0  0
   35.6283   27.4987   33.5238 N   0  0  0  0  0  0  0  0  0  0  0  0
  1  2  1  0  0  0  0
  2  3  1  0  0  0  0
  3  4  1  0  0  0  0
  4  5  1  0  0  0  0
  5  6  1  0  0  0  0
  6  7  1  0  0  0  0
  7  8  1  0  0  0  0
  8  9  1  0  0  0  0
  9 10  1  0  0  0  0
 10 11  1  0  0  0  0
 11 12  1  0  0  0  0
 12 13  1  0  0  0  0
 13 14  1  0  0  0  0
M  END
>  <CHROM.1>
-175.29259114,178.44999898,-172.38032860,178.55331973,-59.48119723,173.67476992
69.39855635,-172.42498102,176.63982222,179.73236202,-177.42976893,36.94177260
20.17067222,35.17814771,0.30616077,1.40208930,-2.16583186

>  <Name>
ligand

>  <RI>
0

>  <Rbt.Current_Directory>
/home/itssahil/PROJECTS/Mol_Feturizer/New_Systems/rnas/1EVV

>  <Rbt.Executable>
rbdock ($Id: //depot/dev/client3/rdock/2013.1/src/exe/rbdock.cxx#4 $)

>  <Rbt.Library>
libRbt.so (2013.1, Build901 2013/11/27)

>  <Rbt.Parameter_File>
/export/apps/rDock/src/rDock_2013.1_src/data/scripts/dock_solv.prm

>  <Rbt.Receptor>
prm/pocket_docking_8.prm

>  <SCORE>
-6.49812

>  <SCORE.INTER>
3.61806

>  <SCORE.INTER.CONST>
1

>  <SCORE.INTER.POLAR>
0

>  <SCORE.INTER.ROT>
11

>  <SCORE.INTER.SOLV>
7.03057

>  <SCORE.INTER.VDW>
-10.8648

>  <SCORE.INTER.norm>
0.258433

>  <SCORE.INTRA>
-10.1162

>  <SCORE.INTRA.DIHEDRAL>
-19.4959

>  <SCORE.INTRA.DIHEDRAL.0>
20.2131

>  <SCORE.INTRA.POLAR>
0

>  <SCORE.INTRA.POLAR.0>
0

>  <SCORE.INTRA.REPUL>
0

>  <SCORE.INTRA.REPUL.0>
0

>  <SCORE.INTRA.SOLV>
-0.600315

>  <SCORE.INTRA.SOLV.lig_0>
-48.2851

>  <SCORE.INTRA.VDW>
-0.0680644

>  <SCORE.INTRA.VDW.0>
-1.08658

>  <SCORE.INTRA.norm>
-0.722584

>  <SCORE.RESTR>
0

>  <SCORE.RESTR.CAVITY>
0

>  <SCORE.RESTR.norm>
0

>  <SCORE.SYSTEM>
0

>  <SCORE.SYSTEM.CONST>
0

>  <SCORE.SYSTEM.DIHEDRAL>
0

>  <SCORE.SYSTEM.SOLV>
0

>  <SCORE.SYSTEM.norm>
0

>  <SCORE.heavy>
14

>  <SCORE.norm>
-0.464151

>  <RMSD>
6.799

$$$$
ligand
 OpenBabel11021811393D
libRbt.so/2013.1/901 2013/11/27
 14 13  0  0  0  0  0  0  0  0999 V2000
   36.4994   18.6795   30.5493 N   0  0  0  0  0  0  0  0  0  0  0  0
   36.6679   20.1195   30.6690 C   0  0  0  0  0  0  0  0  0  0  0  0
   36.6183   20.5428   32.1630 C   0  0  0  0  0  0  0  0  0  0  0  0
   36.7913   22.0663   32.5014 C   0  0  0  0  0  0  0  0  0  0  0  0
   36.8087   22.4060   33.9714 N   0  0  0  0  0  0  0  0  0  0  0  0
   38.1044   22.1010   34.6449 C   0  0  0  0  0  0  0  0  0  0  0  0
   37.9756   21.1730   35.8392 C   0  0  0  0  0  0  0  0  0  0  0  0
   37.4034   19.8176   35.4654 C   0  0  0  0  0  0  0  0  0  0  0  0
   37.2650   19.0376   36.7163 C   0  0  0  0  0  0  0  0  0  0  0  0
   38.5372   18.6001   37.3395 N   0  0  0  0  0  0  0  0  0  0  0  0
   38.6084   17.1377   37.5847 C   0  0  0  0  0  0  0  0  0  0  0  0
   39.9126   16.6243   38.2645 C   0  0  0  0  0  0  0  0  0  0  0  0
   39.8788   15.0858   38.2680 C   0  0  0  0  0  0  0  0  0  0  0  0
   38.7717   14.5964   39.0854 N   0  0  0  0  0  0  0  0  0  0  0  0
  1  2  1  0  0  0  0
  2  3  1  0  0  0  0
  3  4  1  0  0  0  0
  4  5  1  0  0  0  0
  5  6  1  0  0  0  0
  6  7  1  0  0  0  0
  7  8  1  0  0  0  0
  8  9  1  0  0  0  0
  9 10  1  0  0  0  0
 10 11  1  0  0  0  0
 11 12  1  0  0  0  0
 12 13  1  0  0  0  0
 13 14  1  0  0  0  0
M  END
>  <CHROM.1>
179.62564105,-176.83087311,77.48788954,-123.69739332,60.74514956,-177.19225596
-70.22173737,-125.60654425,-178.83184425,-172.78990405,-63.97133160,37.84598880
19.14220367,35.21869111,2.82978257,-1.26334907,0.35837786

>  <Name>
ligand

>  <RI>
0

>  <Rbt.Current_Directory>
/home/itssahil/PROJECTS/Mol_Feturizer/New_Systems/rnas/1EVV

>  <Rbt.Executable>
rbdock ($Id: //depot/dev/client3/rdock/2013.1/src/exe/rbdock.cxx#4 $)

>  <Rbt.Library>
libRbt.so (2013.1, Build901 2013/11/27)

>  <Rbt.Parameter_File>
/export/apps/rDock/src/rDock_2013.1_src/data/scripts/dock_solv.prm

>  <Rbt.Receptor>
prm/pocket_docking_7.prm

>  <SCORE>
-2.66225

>  <SCORE.INTER>
5.69691

>  <SCORE.INTER.CONST>
1

>  <SCORE.INTER.POLAR>
0

>  <SCORE.INTER.ROT>
11

>  <SCORE.INTER.SOLV>
7.81716

>  <SCORE.INTER.VDW>
-9.74111

>  <SCORE.INTER.norm>
0.406922

>  <SCORE.INTRA>
-8.35916

>  <SCORE.INTRA.DIHEDRAL>
-16.9011

>  <SCORE.INTRA.DIHEDRAL.0>
20.2131

>  <SCORE.INTRA.POLAR>
0

>  <SCORE.INTRA.POLAR.0>
0

>  <SCORE.INTRA.REPUL>
0

>  <SCORE.INTRA.REPUL.0>
0

>  <SCORE.INTRA.SOLV>
0.14077

>  <SCORE.INTRA.SOLV.lig_0>
-48.2851

>  <SCORE.INTRA.VDW>
0.0210273

>  <SCORE.INTRA.VDW.0>
-1.08658

>  <SCORE.INTRA.norm>
-0.597083

>  <SCORE.RESTR>
0

>  <SCORE.RESTR.CAVITY>
0

>  <SCORE.RESTR.norm>
0

>  <SCORE.SYSTEM>
0

>  <SCORE.SYSTEM.CONST>
0

>  <SCORE.SYSTEM.DIHEDRAL>
0

>  <SCORE.SYSTEM.SOLV>
0

>  <SCORE.SYSTEM.norm>
0

>  <SCORE.heavy>
14

>  <SCORE.norm>
-0.190161

>  <RMSD>
7.152

$$$$
ligand
 OpenBabel11021811393D
libRbt.so/2013.1/901 2013/11/27
 14 13  0  0  0  0  0  0  0  0999 V2000
   41.8967   24.8330   38.7582 N   0  0  0  0  0  0  0  0  0  0  0  0
   41.7669   25.2900   40.1332 C   0  0  0  0  0  0  0  0  0  0  0  0
   43.1463   25.2429   40.8463 C   0  0  0  0  0  0  0  0  0  0  0  0
   43.8043   23.8369   41.0820 C   0  0  0  0  0  0  0  0  0  0  0  0
   45.1771   23.8603   41.7079 N   0  0  0  0  0  0  0  0  0  0  0  0
   45.6106   22.5435   42.2588 C   0  0  0  0  0  0  0  0  0  0  0  0
   46.4249   21.7067   41.2889 C   0  0  0  0  0  0  0  0  0  0  0  0
   46.9437   20.4258   41.9170 C   0  0  0  0  0  0  0  0  0  0  0  0
   47.8103   19.7635   40.9157 C   0  0  0  0  0  0  0  0  0  0  0  0
   47.1088   19.2038   39.7355 N   0  0  0  0  0  0  0  0  0  0  0  0
   47.1699   20.0771   38.5366 C   0  0  0  0  0  0  0  0  0  0  0  0
   45.9434   20.0052   37.5789 C   0  0  0  0  0  0  0  0  0  0  0  0
   46.2078   20.9439   36.3885 C   0  0  0  0  0  0  0  0  0  0  0  0
   45.0949   20.9039   35.4434 N   0  0  0  0  0  0  0  0  0  0  0  0
  1  2  1  0  0  0  0
  2  3  1  0  0  0  0
  3  4  1  0  0  0  0
  4  5  1  0  0  0  0
  5  6  1  0  0  0  0
  6  7  1  0  0  0  0
  7  8  1  0  0  0  0
  8  9  1  0  0  0  0
  9 10  1  0  0  0  0
 10 11  1  0  0  0  0
 11 12  1  0  0  0  0
 12 13  1  0  0  0  0
 13 14  1  0  0  0  0
M  END
>  <CHROM.1>
-65.92063779,176.67663639,164.01060046,93.45250719,175.36705265,-175.22765012
-69.58598100,99.35480684,-148.70049725,-178.51533847,179.21141851,45.29344000
22.04540797,39.75684517,2.64700421,-0.79329439,1.25331281

>  <Name>
ligand

>  <RI>
0

>  <Rbt.Current_Directory>
/home/itssahil/PROJECTS/Mol_Feturizer/New_Systems/rnas/1EVV

>  <Rbt.Executable>
rbdock ($Id: //depot/dev/client3/rdock/2013.1/src/exe/rbdock.cxx#4 $)

>  <Rbt.Library>
libRbt.so (2013.1, Build901 2013/11/27)

>  <Rbt.Parameter_File>
/export/apps/rDock/src/rDock_2013.1_src/data/scripts/dock_solv.prm

>  <Rbt.Receptor>
prm/pocket_docking_8.prm

>  <SCORE>
-8.96301

>  <SCORE.INTER>
-0.190214

>  <SCORE.INTER.CONST>
1

>  <SCORE.INTER.POLAR>
0

>  <SCORE.INTER.ROT>
11

>  <SCORE.INTER.SOLV>
9.02755

>  <SCORE.INTER.VDW>
-14.0693

>  <SCORE.INTER.norm>
-0.0135867

>  <SCORE.INTRA>
-8.7728

>  <SCORE.INTRA.DIHEDRAL>
-17.0837

>  <SCORE.INTRA.DIHEDRAL.0>
20.2131

>  <SCORE.INTRA.POLAR>
0

>  <SCORE.INTRA.POLAR.0>
0

>  <SCORE.INTRA.REPUL>
0

>  <SCORE.INTRA.REPUL.0>
0

>  <SCORE.INTRA.SOLV>
-0.415303

>  <SCORE.INTRA.SOLV.lig_0>
-48.2851

>  <SCORE.INTRA.VDW>
-0.0232816

>  <SCORE.INTRA.VDW.0>
-1.08658

>  <SCORE.INTRA.norm>
-0.626628

>  <SCORE.RESTR>
0

>  <SCORE.RESTR.CAVITY>
0

>  <SCORE.RESTR.norm>
0

>  <SCORE.SYSTEM>
0

>  <SCORE.SYSTEM.CONST>
0

>  <SCORE.SYSTEM.DIHEDRAL>
0

>  <SCORE.SYSTEM.SOLV>
0

>  <SCORE.SYSTEM.norm>
0

>  <SCORE.heavy>
14

>  <SCORE.norm>
-0.640215

>  <RMSD>
7.194

$$$$
ligand
 OpenBabel11021811393D
libRbt.so/2013.1/901 2013/11/27
 14 13  0  0  0  0  0  0  0  0999 V2000
   40.1936   11.7910   36.1762 N   0  0  0  0  0  0  0  0  0  0  0  0
   39.3210   12.8090   35.6119 C   0  0  0  0  0  0  0  0  0  0  0  0
   40.0396   13.5462   34.4484 C   0  0  0  0  0  0  0  0  0  0  0  0
   39.2500   14.6744   33.6940 C   0  0  0  0  0  0  0  0  0  0  0  0
   38.9391   15.9048   34.5101 N   0  0  0  0  0  0  0  0  0  0  0  0
   37.8236   15.7168   35.4826 C   0  0  0  0  0  0  0  0  0  0  0  0
   37.1609   17.0107   35.9194 C   0  0  0  0  0  0  0  0  0  0  0  0
   38.1468   17.9977   36.5176 C   0  0  0  0  0  0  0  0  0  0  0  0
   37.3802   19.2006   36.9146 C   0  0  0  0  0  0  0  0  0  0  0  0
   36.7953   19.9816   35.7983 N   0  0  0  0  0  0  0  0  0  0  0  0
   37.7872   20.8078   35.0654 C   0  0  0  0  0  0  0  0  0  0  0  0
   37.1996   21.8804   34.1006 C   0  0  0  0  0  0  0  0  0  0  0  0
   36.3853   21.1552   33.0148 C   0  0  0  0  0  0  0  0  0  0  0  0
   35.8526   22.1099   32.0461 N   0  0  0  0  0  0  0  0  0  0  0  0
  1  2  1  0  0  0  0
  2  3  1  0  0  0  0
  3  4  1  0  0  0  0
  4  5  1  0  0  0  0
  5  6  1  0  0  0  0
  6  7  1  0  0  0  0
  7  8  1  0  0  0  0
  8  9  1  0  0  0  0
  9 10  1  0  0  0  0
 10 11  1  0  0  0  0
 11 12  1  0  0  0  0
 12 13  1  0  0  0  0
 13 14  1  0  0  0  0
M  END
>  <CHROM.1>
179.20504900,66.77882428,-75.89600684,-158.28987092,-56.38999514,-179.34808180
-66.87066839,-76.08168147,-166.91605814,-61.78993954,-177.70091950,38.01965650
17.47044724,34.95011853,0.22728680,-1.22315792,1.64989438

>  <Name>
ligand

>  <RI>
0

>  <Rbt.Current_Directory>
/home/itssahil/PROJECTS/Mol_Feturizer/New_Systems/rnas/1EVV

>  <Rbt.Executable>
rbdock ($Id: //depot/dev/client3/rdock/2013.1/src/exe/rbdock.cxx#4 $)

>  <Rbt.Library>
libRbt.so (2013.1, Build901 2013/11/27)

>  <Rbt.Parameter_File>
/export/apps/rDock/src/rDock_2013.1_src/data/scripts/dock_solv.prm

>  <Rbt.Receptor>
prm/pocket_docking_8.prm

>  <SCORE>
-7.49577

>  <SCORE.INTER>
1.44726

>  <SCORE.INTER.CONST>
1

>  <SCORE.INTER.POLAR>
0

>  <SCORE.INTER.ROT>
11

>  <SCORE.INTER.SOLV>
6.77997

>  <SCORE.INTER.VDW>
-12.2285

>  <SCORE.INTER.norm>
0.103376

>  <SCORE.INTRA>
-8.94302

>  <SCORE.INTRA.DIHEDRAL>
-18.8994

>  <SCORE.INTRA.DIHEDRAL.0>
20.2131

>  <SCORE.INTRA.POLAR>
0

>  <SCORE.INTRA.POLAR.0>
0

>  <SCORE.INTRA.REPUL>
0

>  <SCORE.INTRA.REPUL.0>
0

>  <SCORE.INTRA.SOLV>
0.0880782

>  <SCORE.INTRA.SOLV.lig_0>
-48.2851

>  <SCORE.INTRA.VDW>
0.462652

>  <SCORE.INTRA.VDW.0>
-1.08658

>  <SCORE.INTRA.norm>
-0.638787

>  <SCORE.RESTR>
0

>  <SCORE.RESTR.CAVITY>
0

>  <SCORE.RESTR.norm>
0

>  <SCORE.SYSTEM>
0

>  <SCORE.SYSTEM.CONST>
0

>  <SCORE.SYSTEM.DIHEDRAL>
0

>  <SCORE.SYSTEM.SOLV>
0

>  <SCORE.SYSTEM.norm>
0

>  <SCORE.heavy>
14

>  <SCORE.norm>
-0.535412

>  <RMSD>
7.217

$$$$
ligand
 OpenBabel11021811393D
libRbt.so/2013.1/901 2013/11/27
 14 13  0  0  0  0  0  0  0  0999 V2000
   38.2677   17.0996   31.9660 N   0  0  0  0  0  0  0  0  0  0  0  0
   37.7003   18.3041   32.5519 C   0  0  0  0  0  0  0  0  0  0  0  0
   36.7391   18.9900   31.5422 C   0  0  0  0  0  0  0  0  0  0  0  0
   36.1552   20.3970   31.9228 C   0  0  0  0  0  0  0  0  0  0  0  0
   37.1712   21.5033   32.0663 N   0  0  0  0  0  0  0  0  0  0  0  0
   36.9429   22.3812   33.2506 C   0  0  0  0  0  0  0  0  0  0  0  0
   37.5949   21.8788   34.5260 C   0  0  0  0  0  0  0  0  0  0  0  0
   36.9453   20.6123   35.0533 C   0  0  0  0  0  0  0  0  0  0  0  0
   37.6353   20.2550   36.3136 C   0  0  0  0  0  0  0  0  0  0  0  0
   37.1479   19.0240   36.9810 N   0  0  0  0  0  0  0  0  0  0  0  0
   37.7092   17.7743   36.4093 C   0  0  0  0  0  0  0  0  0  0  0  0
   36.7962   16.5152   36.4979 C   0  0  0  0  0  0  0  0  0  0  0  0
   37.6355   15.2851   36.1099 C   0  0  0  0  0  0  0  0  0  0  0  0
   38.6572   15.0189   37.1192 N   0  0  0  0  0  0  0  0  0  0  0  0
  1  2  1  0  0  0  0
  2  3  1  0  0  0  0
  3  4  1  0  0  0  0
  4  5  1  0  0  0  0
  5  6  1  0  0  0  0
  6  7  1  0  0  0  0
  7  8  1  0  0  0  0
  8  9  1  0  0  0  0
  9 10  1  0  0  0  0
 10 11  1  0  0  0  0
 11 12  1  0  0  0  0
 12 13  1  0  0  0  0
 13 14  1  0  0  0  0
M  END
>  <CHROM.1>
-172.95066959,63.51997050,-136.89628355,87.41080032,-68.73596142,-178.06552117
-179.37632015,81.57500396,-150.06950024,-169.36624589,67.96519677,37.36396967
18.93165524,34.45067292,-0.34957014,1.43300591,-1.88172581

>  <Name>
ligand

>  <RI>
0

>  <Rbt.Current_Directory>
/home/itssahil/PROJECTS/Mol_Feturizer/New_Systems/rnas/1EVV

>  <Rbt.Executable>
rbdock ($Id: //depot/dev/client3/rdock/2013.1/src/exe/rbdock.cxx#4 $)

>  <Rbt.Library>
libRbt.so (2013.1, Build901 2013/11/27)

>  <Rbt.Parameter_File>
/export/apps/rDock/src/rDock_2013.1_src/data/scripts/dock_solv.prm

>  <Rbt.Receptor>
prm/pocket_docking_5.prm

>  <SCORE>
-5.26868

>  <SCORE.INTER>
3.30762

>  <SCORE.INTER.CONST>
1

>  <SCORE.INTER.POLAR>
0

>  <SCORE.INTER.ROT>
11

>  <SCORE.INTER.SOLV>
6.94207

>  <SCORE.INTER.VDW>
-11.0423

>  <SCORE.INTER.norm>
0.236259

>  <SCORE.INTRA>
-8.5763

>  <SCORE.INTRA.DIHEDRAL>
-16.5855

>  <SCORE.INTRA.DIHEDRAL.0>
20.2131

>  <SCORE.INTRA.POLAR>
0

>  <SCORE.INTRA.POLAR.0>
0

>  <SCORE.INTRA.REPUL>
0

>  <SCORE.INTRA.REPUL.0>
0

>  <SCORE.INTRA.SOLV>
0.405716

>  <SCORE.INTRA.SOLV.lig_0>
-48.2851

>  <SCORE.INTRA.VDW>
-0.486402

>  <SCORE.INTRA.VDW.0>
-1.08658

>  <SCORE.INTRA.norm>
-0.612593

>  <SCORE.RESTR>
0

>  <SCORE.RESTR.CAVITY>
0

>  <SCORE.RESTR.norm>
0

>  <SCORE.SYSTEM>
0

>  <SCORE.SYSTEM.CONST>
0

>  <SCORE.SYSTEM.DIHEDRAL>
0

>  <SCORE.SYSTEM.SOLV>
0

>  <SCORE.SYSTEM.norm>
0

>  <SCORE.heavy>
14

>  <SCORE.norm>
-0.376335

>  <RMSD>
7.226

$$$$
ligand
 OpenBabel11021811393D
libRbt.so/2013.1/901 2013/11/27
 14 13  0  0  0  0  0  0  0  0999 V2000
   46.8601   18.3072   35.4365 N   0  0  0  0  0  0  0  0  0  0  0  0
   47.8712   17.3765   35.9138 C   0  0  0  0  0  0  0  0  0  0  0  0
   47.5503   16.9359   37.3686 C   0  0  0  0  0  0  0  0  0  0  0  0
   47.5976   18.0289   38.4950 C   0  0  0  0  0  0  0  0  0  0  0  0
   46.5989   19.1509   38.3520 N   0  0  0  0  0  0  0  0  0  0  0  0
   46.4853   20.0144   39.5632 C   0  0  0  0  0  0  0  0  0  0  0  0
   45.5326   21.1847   39.3995 C   0  0  0  0  0  0  0  0  0  0  0  0
   45.3678   21.9857   40.6783 C   0  0  0  0  0  0  0  0  0  0  0  0
   44.4075   23.0764   40.3945 C   0  0  0  0  0  0  0  0  0  0  0  0
   44.0860   23.9581   41.5423 N   0  0  0  0  0  0  0  0  0  0  0  0
   43.5330   25.2768   41.1438 C   0  0  0  0  0  0  0  0  0  0  0  0
   42.1047   25.2562   40.5222 C   0  0  0  0  0  0  0  0  0  0  0  0
   41.7017   26.7052   40.1964 C   0  0  0  0  0  0  0  0  0  0  0  0
   42.5642   27.2586   39.1556 N   0  0  0  0  0  0  0  0  0  0  0  0
  1  2  1  0  0  0  0
  2  3  1  0  0  0  0
  3  4  1  0  0  0  0
  4  5  1  0  0  0  0
  5  6  1  0  0  0  0
  6  7  1  0  0  0  0
  7  8  1  0  0  0  0
  8  9  1  0  0  0  0
  9 10  1  0  0  0  0
 10 11  1  0  0  0  0
 11 12  1  0  0  0  0
 12 13  1  0  0  0  0
 13 14  1  0  0  0  0
M  END
>  <CHROM.1>
-64.99518499,62.85324694,168.50037505,177.13775795,176.04651391,-179.18059552
178.52575328,159.56697611,69.14635066,179.18903180,65.24031864,45.16154285
21.75092858,39.15462644,0.46939652,1.00817328,-1.71465351

>  <Name>
ligand

>  <RI>
0

>  <Rbt.Current_Directory>
/home/itssahil/PROJECTS/Mol_Feturizer/New_Systems/rnas/1EVV

>  <Rbt.Executable>
rbdock ($Id: //depot/dev/client3/rdock/2013.1/src/exe/rbdock.cxx#4 $)

>  <Rbt.Library>
libRbt.so (2013.1, Build901 2013/11/27)

>  <Rbt.Parameter_File>
/export/apps/rDock/src/rDock_2013.1_src/data/scripts/dock_solv.prm

>  <Rbt.Receptor>
prm/pocket_docking_7.prm

>  <SCORE>
-11.908

>  <SCORE.INTER>
-3.25768

>  <SCORE.INTER.CONST>
1

>  <SCORE.INTER.POLAR>
0

>  <SCORE.INTER.ROT>
11

>  <SCORE.INTER.SOLV>
10.5077

>  <SCORE.INTER.VDW>
-16.6077

>  <SCORE.INTER.norm>
-0.232691

>  <SCORE.INTRA>
-8.65028

>  <SCORE.INTRA.DIHEDRAL>
-19.4212

>  <SCORE.INTRA.DIHEDRAL.0>
20.2131

>  <SCORE.INTRA.POLAR>
0

>  <SCORE.INTRA.POLAR.0>
0

>  <SCORE.INTRA.REPUL>
0

>  <SCORE.INTRA.REPUL.0>
0

>  <SCORE.INTRA.SOLV>
1.84105

>  <SCORE.INTRA.SOLV.lig_0>
-48.2851

>  <SCORE.INTRA.VDW>
0.139819

>  <SCORE.INTRA.VDW.0>
-1.08658

>  <SCORE.INTRA.norm>
-0.617877

>  <SCORE.RESTR>
0

>  <SCORE.RESTR.CAVITY>
0

>  <SCORE.RESTR.norm>
0

>  <SCORE.SYSTEM>
0

>  <SCORE.SYSTEM.CONST>
0

>  <SCORE.SYSTEM.DIHEDRAL>
0

>  <SCORE.SYSTEM.SOLV>
0

>  <SCORE.SYSTEM.norm>
0

>  <SCORE.heavy>
14

>  <SCORE.norm>
-0.850568

>  <RMSD>
7.254

$$$$
ligand
 OpenBabel11021811393D
libRbt.so/2013.1/901 2013/11/27
 14 13  0  0  0  0  0  0  0  0999 V2000
   39.1118   13.5273   34.8036 N   0  0  0  0  0  0  0  0  0  0  0  0
   38.9859   14.8162   35.4663 C   0  0  0  0  0  0  0  0  0  0  0  0
   37.7121   14.8399   36.3553 C   0  0  0  0  0  0  0  0  0  0  0  0
   37.3685   16.1721   37.1120 C   0  0  0  0  0  0  0  0  0  0  0  0
   37.2579   17.4010   36.2435 N   0  0  0  0  0  0  0  0  0  0  0  0
   37.5346   18.6764   36.9663 C   0  0  0  0  0  0  0  0  0  0  0  0
   37.1001   19.9199   36.2120 C   0  0  0  0  0  0  0  0  0  0  0  0
   37.8737   20.1192   34.9212 C   0  0  0  0  0  0  0  0  0  0  0  0
   37.4038   21.3865   34.3169 C   0  0  0  0  0  0  0  0  0  0  0  0
   36.0220   21.3635   33.7800 N   0  0  0  0  0  0  0  0  0  0  0  0
   35.8543   22.1514   32.5330 C   0  0  0  0  0  0  0  0  0  0  0  0
   34.4037   22.6219   32.2151 C   0  0  0  0  0  0  0  0  0  0  0  0
   33.9394   23.5491   33.3521 C   0  0  0  0  0  0  0  0  0  0  0  0
   32.5690   23.9995   33.1229 N   0  0  0  0  0  0  0  0  0  0  0  0
  1  2  1  0  0  0  0
  2  3  1  0  0  0  0
  3  4  1  0  0  0  0
  4  5  1  0  0  0  0
  5  6  1  0  0  0  0
  6  7  1  0  0  0  0
  7  8  1  0  0  0  0
  8  9  1  0  0  0  0
  9 10  1  0  0  0  0
 10 11  1  0  0  0  0
 11 12  1  0  0  0  0
 12 13  1  0  0  0  0
 13 14  1  0  0  0  0
M  END
>  <CHROM.1>
-177.59398239,54.96970611,-154.36044065,-165.73072480,-64.63263300,-177.46339466
-69.82655504,-143.00029042,-157.60410828,61.85282933,-178.71753432,36.65280159
19.32468449,34.81442443,0.05568257,1.13284269,-1.98988411

>  <Name>
ligand

>  <RI>
0

>  <Rbt.Current_Directory>
/home/itssahil/PROJECTS/Mol_Feturizer/New_Systems/rnas/1EVV

>  <Rbt.Executable>
rbdock ($Id: //depot/dev/client3/rdock/2013.1/src/exe/rbdock.cxx#4 $)

>  <Rbt.Library>
libRbt.so (2013.1, Build901 2013/11/27)

>  <Rbt.Parameter_File>
/export/apps/rDock/src/rDock_2013.1_src/data/scripts/dock_solv.prm

>  <Rbt.Receptor>
prm/pocket_docking_7.prm

>  <SCORE>
-6.66741

>  <SCORE.INTER>
2.44475

>  <SCORE.INTER.CONST>
1

>  <SCORE.INTER.POLAR>
0

>  <SCORE.INTER.ROT>
11

>  <SCORE.INTER.SOLV>
8.37546

>  <SCORE.INTER.VDW>
-12.0953

>  <SCORE.INTER.norm>
0.174625

>  <SCORE.INTRA>
-9.11828

>  <SCORE.INTRA.DIHEDRAL>
-17.8054

>  <SCORE.INTRA.DIHEDRAL.0>
20.2131

>  <SCORE.INTRA.POLAR>
0

>  <SCORE.INTRA.POLAR.0>
0

>  <SCORE.INTRA.REPUL>
0

>  <SCORE.INTRA.REPUL.0>
0

>  <SCORE.INTRA.SOLV>
-0.0057416

>  <SCORE.INTRA.SOLV.lig_0>
-48.2851

>  <SCORE.INTRA.VDW>
-0.212709

>  <SCORE.INTRA.VDW.0>
-1.08658

>  <SCORE.INTRA.norm>
-0.651306

>  <SCORE.RESTR>
0.00611915

>  <SCORE.RESTR.CAVITY>
0.00611915

>  <SCORE.RESTR.norm>
0.000437082

>  <SCORE.SYSTEM>
0

>  <SCORE.SYSTEM.CONST>
0

>  <SCORE.SYSTEM.DIHEDRAL>
0

>  <SCORE.SYSTEM.SOLV>
0

>  <SCORE.SYSTEM.norm>
0

>  <SCORE.heavy>
14

>  <SCORE.norm>
-0.476244

>  <RMSD>
7.411

$$$$
ligand
 OpenBabel11021811393D
libRbt.so/2013.1/901 2013/11/27
 14 13  0  0  0  0  0  0  0  0999 V2000
   48.1433   18.2632   35.2476 N   0  0  0  0  0  0  0  0  0  0  0  0
   47.0038   17.7491   35.9915 C   0  0  0  0  0  0  0  0  0  0  0  0
   47.4873   17.0103   37.2699 C   0  0  0  0  0  0  0  0  0  0  0  0
   48.1213   17.8704   38.4205 C   0  0  0  0  0  0  0  0  0  0  0  0
   47.1493   18.7065   39.2159 N   0  0  0  0  0  0  0  0  0  0  0  0
   46.7755   19.9897   38.5532 C   0  0  0  0  0  0  0  0  0  0  0  0
   45.8815   20.8816   39.3954 C   0  0  0  0  0  0  0  0  0  0  0  0
   46.5715   21.3783   40.6529 C   0  0  0  0  0  0  0  0  0  0  0  0
   45.5694   22.1376   41.4348 C   0  0  0  0  0  0  0  0  0  0  0  0
   45.0035   23.3302   40.7597 N   0  0  0  0  0  0  0  0  0  0  0  0
   43.9107   23.9840   41.5225 C   0  0  0  0  0  0  0  0  0  0  0  0
   43.1552   25.1287   40.7838 C   0  0  0  0  0  0  0  0  0  0  0  0
   42.4613   24.5274   39.5488 C   0  0  0  0  0  0  0  0  0  0  0  0
   41.7758   25.5670   38.7855 N   0  0  0  0  0  0  0  0  0  0  0  0
  1  2  1  0  0  0  0
  2  3  1  0  0  0  0
  3  4  1  0  0  0  0
  4  5  1  0  0  0  0
  5  6  1  0  0  0  0
  6  7  1  0  0  0  0
  7  8  1  0  0  0  0
  8  9  1  0  0  0  0
  9 10  1  0  0  0  0
 10 11  1  0  0  0  0
 11 12  1  0  0  0  0
 12 13  1  0  0  0  0
 13 14  1  0  0  0  0
M  END
>  <CHROM.1>
69.03503645,73.14745046,-81.00885227,-175.60040877,64.98993009,-175.45261348
-61.16602559,174.38246185,-172.44044112,62.92480300,-177.85457032,45.64357225
21.18017882,39.11325009,0.68936612,0.84250094,-1.95138414

>  <Name>
ligand

>  <RI>
0

>  <Rbt.Current_Directory>
/home/itssahil/PROJECTS/Mol_Feturizer/New_Systems/rnas/1EVV

>  <Rbt.Executable>
rbdock ($Id: //depot/dev/client3/rdock/2013.1/src/exe/rbdock.cxx#4 $)

>  <Rbt.Library>
libRbt.so (2013.1, Build901 2013/11/27)

>  <Rbt.Parameter_File>
/export/apps/rDock/src/rDock_2013.1_src/data/scripts/dock_solv.prm

>  <Rbt.Receptor>
prm/pocket_docking_8.prm

>  <SCORE>
-11.1168

>  <SCORE.INTER>
-2.49859

>  <SCORE.INTER.CONST>
1

>  <SCORE.INTER.POLAR>
0

>  <SCORE.INTER.ROT>
11

>  <SCORE.INTER.SOLV>
11.644

>  <SCORE.INTER.VDW>
-16.4804

>  <SCORE.INTER.norm>
-0.178471

>  <SCORE.INTRA>
-8.6395

>  <SCORE.INTRA.DIHEDRAL>
-18.6308

>  <SCORE.INTRA.DIHEDRAL.0>
20.2131

>  <SCORE.INTRA.POLAR>
0

>  <SCORE.INTRA.POLAR.0>
0

>  <SCORE.INTRA.REPUL>
0

>  <SCORE.INTRA.REPUL.0>
0

>  <SCORE.INTRA.SOLV>
1.45953

>  <SCORE.INTRA.SOLV.lig_0>
-48.2851

>  <SCORE.INTRA.VDW>
-0.053884

>  <SCORE.INTRA.VDW.0>
-1.08658

>  <SCORE.INTRA.norm>
-0.617107

>  <SCORE.RESTR>
0.021303

>  <SCORE.RESTR.CAVITY>
0.021303

>  <SCORE.RESTR.norm>
0.00152165

>  <SCORE.SYSTEM>
0

>  <SCORE.SYSTEM.CONST>
0

>  <SCORE.SYSTEM.DIHEDRAL>
0

>  <SCORE.SYSTEM.SOLV>
0

>  <SCORE.SYSTEM.norm>
0

>  <SCORE.heavy>
14

>  <SCORE.norm>
-0.794057

>  <RMSD>
7.441

$$$$
ligand
 OpenBabel11021811393D
libRbt.so/2013.1/901 2013/11/27
 14 13  0  0  0  0  0  0  0  0999 V2000
   38.2715   18.1946   36.3857 N   0  0  0  0  0  0  0  0  0  0  0  0
   37.1225   17.3123   36.2535 C   0  0  0  0  0  0  0  0  0  0  0  0
   37.3513   16.0084   37.0666 C   0  0  0  0  0  0  0  0  0  0  0  0
   38.5830   15.1117   36.6867 C   0  0  0  0  0  0  0  0  0  0  0  0
   38.5654   14.5447   35.2885 N   0  0  0  0  0  0  0  0  0  0  0  0
   39.9173   14.1971   34.7622 C   0  0  0  0  0  0  0  0  0  0  0  0
   39.9818   14.0900   33.2495 C   0  0  0  0  0  0  0  0  0  0  0  0
   39.8397   15.4364   32.5630 C   0  0  0  0  0  0  0  0  0  0  0  0
   38.4025   15.7921   32.5836 C   0  0  0  0  0  0  0  0  0  0  0  0
   38.0572   17.0893   31.9542 N   0  0  0  0  0  0  0  0  0  0  0  0
   36.5961   17.3243   31.8370 C   0  0  0  0  0  0  0  0  0  0  0  0
   36.1430   18.2089   30.6375 C   0  0  0  0  0  0  0  0  0  0  0  0
   34.6096   18.3302   30.6823 C   0  0  0  0  0  0  0  0  0  0  0  0
   34.1348   19.2490   29.6509 N   0  0  0  0  0  0  0  0  0  0  0  0
  1  2  1  0  0  0  0
  2  3  1  0  0  0  0
  3  4  1  0  0  0  0
  4  5  1  0  0  0  0
  5  6  1  0  0  0  0
  6  7  1  0  0  0  0
  7  8  1  0  0  0  0
  8  9  1  0  0  0  0
  9 10  1  0  0  0  0
 10 11  1  0  0  0  0
 11 12  1  0  0  0  0
 12 13  1  0  0  0  0
 13 14  1  0  0  0  0
M  END
>  <CHROM.1>
-60.15246887,-62.17061970,156.19205293,-159.98033611,70.02303645,-77.79164089
179.92938898,172.40900009,-150.37255334,179.73632323,174.86819290,37.68415813
16.49174517,33.54303145,0.79844212,-0.75570998,1.53046282

>  <Name>
ligand

>  <RI>
0

>  <Rbt.Current_Directory>
/home/itssahil/PROJECTS/Mol_Feturizer/New_Systems/rnas/1EVV

>  <Rbt.Executable>
rbdock ($Id: //depot/dev/client3/rdock/2013.1/src/exe/rbdock.cxx#4 $)

>  <Rbt.Library>
libRbt.so (2013.1, Build901 2013/11/27)

>  <Rbt.Parameter_File>
/export/apps/rDock/src/rDock_2013.1_src/data/scripts/dock_solv.prm

>  <Rbt.Receptor>
prm/pocket_docking_7.prm

>  <SCORE>
-8.91805

>  <SCORE.INTER>
-0.92304

>  <SCORE.INTER.CONST>
1

>  <SCORE.INTER.POLAR>
0

>  <SCORE.INTER.ROT>
11

>  <SCORE.INTER.SOLV>
9.79667

>  <SCORE.INTER.VDW>
-14.8143

>  <SCORE.INTER.norm>
-0.0659315

>  <SCORE.INTRA>
-7.99501

>  <SCORE.INTRA.DIHEDRAL>
-17.1455

>  <SCORE.INTRA.DIHEDRAL.0>
20.2131

>  <SCORE.INTRA.POLAR>
0

>  <SCORE.INTRA.POLAR.0>
0

>  <SCORE.INTRA.REPUL>
0

>  <SCORE.INTRA.REPUL.0>
0

>  <SCORE.INTRA.SOLV>
1.56363

>  <SCORE.INTRA.SOLV.lig_0>
-48.2851

>  <SCORE.INTRA.VDW>
-0.204054

>  <SCORE.INTRA.VDW.0>
-1.08658

>  <SCORE.INTRA.norm>
-0.571072

>  <SCORE.RESTR>
0

>  <SCORE.RESTR.CAVITY>
0

>  <SCORE.RESTR.norm>
0

>  <SCORE.SYSTEM>
0

>  <SCORE.SYSTEM.CONST>
0

>  <SCORE.SYSTEM.DIHEDRAL>
0

>  <SCORE.SYSTEM.SOLV>
0

>  <SCORE.SYSTEM.norm>
0

>  <SCORE.heavy>
14

>  <SCORE.norm>
-0.637004

>  <RMSD>
7.945

$$$$
ligand
 OpenBabel11021811393D
libRbt.so/2013.1/901 2013/11/27
 14 13  0  0  0  0  0  0  0  0999 V2000
   37.6027   17.2680   36.0399 N   0  0  0  0  0  0  0  0  0  0  0  0
   36.7721   16.1617   36.4898 C   0  0  0  0  0  0  0  0  0  0  0  0
   37.6540   15.0558   37.1324 C   0  0  0  0  0  0  0  0  0  0  0  0
   38.6553   14.2818   36.2032 C   0  0  0  0  0  0  0  0  0  0  0  0
   39.7385   15.1230   35.5743 N   0  0  0  0  0  0  0  0  0  0  0  0
   40.2101   14.6102   34.2551 C   0  0  0  0  0  0  0  0  0  0  0  0
   39.2069   14.7872   33.1298 C   0  0  0  0  0  0  0  0  0  0  0  0
   38.8339   16.2413   32.9044 C   0  0  0  0  0  0  0  0  0  0  0  0
   37.6464   16.2597   32.0203 C   0  0  0  0  0  0  0  0  0  0  0  0
   37.1120   17.6046   31.6975 N   0  0  0  0  0  0  0  0  0  0  0  0
   35.7086   17.5876   31.2141 C   0  0  0  0  0  0  0  0  0  0  0  0
   35.4009   18.4943   29.9853 C   0  0  0  0  0  0  0  0  0  0  0  0
   36.2447   17.9973   28.7983 C   0  0  0  0  0  0  0  0  0  0  0  0
   36.0659   18.8671   27.6387 N   0  0  0  0  0  0  0  0  0  0  0  0
  1  2  1  0  0  0  0
  2  3  1  0  0  0  0
  3  4  1  0  0  0  0
  4  5  1  0  0  0  0
  5  6  1  0  0  0  0
  6  7  1  0  0  0  0
  7  8  1  0  0  0  0
  8  9  1  0  0  0  0
  9 10  1  0  0  0  0
 10 11  1  0  0  0  0
 11 12  1  0  0  0  0
 12 13  1  0  0  0  0
 13 14  1  0  0  0  0
M  END
>  <CHROM.1>
-66.26400726,62.94346119,-150.76122960,71.54118789,59.20916605,-167.30702640
179.07708388,-160.60747603,-136.28412136,62.09657527,-176.16825303,37.63229378
16.45251350,33.07751335,1.16386086,-0.61503319,1.75677457

>  <Name>
ligand

>  <RI>
0

>  <Rbt.Current_Directory>
/home/itssahil/PROJECTS/Mol_Feturizer/New_Systems/rnas/1EVV

>  <Rbt.Executable>
rbdock ($Id: //depot/dev/client3/rdock/2013.1/src/exe/rbdock.cxx#4 $)

>  <Rbt.Library>
libRbt.so (2013.1, Build901 2013/11/27)

>  <Rbt.Parameter_File>
/export/apps/rDock/src/rDock_2013.1_src/data/scripts/dock_solv.prm

>  <Rbt.Receptor>
prm/pocket_docking_8.prm

>  <SCORE>
-8.03694

>  <SCORE.INTER>
-0.574671

>  <SCORE.INTER.CONST>
1

>  <SCORE.INTER.POLAR>
0

>  <SCORE.INTER.ROT>
11

>  <SCORE.INTER.SOLV>
10.5877

>  <SCORE.INTER.VDW>
-14.8457

>  <SCORE.INTER.norm>
-0.0410479

>  <SCORE.INTRA>
-7.46227

>  <SCORE.INTRA.DIHEDRAL>
-17.3437

>  <SCORE.INTRA.DIHEDRAL.0>
20.2131

>  <SCORE.INTRA.POLAR>
0

>  <SCORE.INTRA.POLAR.0>
0

>  <SCORE.INTRA.REPUL>
0

>  <SCORE.INTRA.REPUL.0>
0

>  <SCORE.INTRA.SOLV>
3.64606

>  <SCORE.INTRA.SOLV.lig_0>
-48.2851

>  <SCORE.INTRA.VDW>
-0.613464

>  <SCORE.INTRA.VDW.0>
-1.08658

>  <SCORE.INTRA.norm>
-0.533019

>  <SCORE.RESTR>
0

>  <SCORE.RESTR.CAVITY>
0

>  <SCORE.RESTR.norm>
0

>  <SCORE.SYSTEM>
0

>  <SCORE.SYSTEM.CONST>
0

>  <SCORE.SYSTEM.DIHEDRAL>
0

>  <SCORE.SYSTEM.SOLV>
0

>  <SCORE.SYSTEM.norm>
0

>  <SCORE.heavy>
14

>  <SCORE.norm>
-0.574067

>  <RMSD>
8.288

$$$$
ligand
 OpenBabel11021811393D
libRbt.so/2013.1/901 2013/11/27
 14 13  0  0  0  0  0  0  0  0999 V2000
   37.5046   17.1096   36.1068 N   0  0  0  0  0  0  0  0  0  0  0  0
   36.8450   15.9632   36.7127 C   0  0  0  0  0  0  0  0  0  0  0  0
   37.6767   15.4404   37.9163 C   0  0  0  0  0  0  0  0  0  0  0  0
   39.0563   14.7542   37.6138 C   0  0  0  0  0  0  0  0  0  0  0  0
   38.9765   13.4136   36.9261 N   0  0  0  0  0  0  0  0  0  0  0  0
   40.2237   13.0330   36.2013 C   0  0  0  0  0  0  0  0  0  0  0  0
   40.1454   13.2220   34.6973 C   0  0  0  0  0  0  0  0  0  0  0  0
   39.8572   14.6597   34.3044 C   0  0  0  0  0  0  0  0  0  0  0  0
   39.7462   14.6994   32.8285 C   0  0  0  0  0  0  0  0  0  0  0  0
   39.3994   16.0198   32.2500 N   0  0  0  0  0  0  0  0  0  0  0  0
   37.9481   16.3282   32.2972 C   0  0  0  0  0  0  0  0  0  0  0  0
   37.4932   17.5862   31.4990 C   0  0  0  0  0  0  0  0  0  0  0  0
   35.9561   17.6480   31.5350 C   0  0  0  0  0  0  0  0  0  0  0  0
   35.4670   18.7770   30.7479 N   0  0  0  0  0  0  0  0  0  0  0  0
  1  2  1  0  0  0  0
  2  3  1  0  0  0  0
  3  4  1  0  0  0  0
  4  5  1  0  0  0  0
  5  6  1  0  0  0  0
  6  7  1  0  0  0  0
  7  8  1  0  0  0  0
  8  9  1  0  0  0  0
  9 10  1  0  0  0  0
 10 11  1  0  0  0  0
 11 12  1  0  0  0  0
 12 13  1  0  0  0  0
 13 14  1  0  0  0  0
M  END
>  <CHROM.1>
-69.10815835,-69.18600700,158.02021530,-102.40123349,59.29609784,-177.51941704
177.19152099,-81.27249353,-170.27624465,173.65799633,-177.37550604,38.30699840
15.61787289,34.40275291,1.06637753,-0.74653037,1.80701294

>  <Name>
ligand

>  <RI>
0

>  <Rbt.Current_Directory>
/home/itssahil/PROJECTS/Mol_Feturizer/New_Systems/rnas/1EVV

>  <Rbt.Executable>
rbdock ($Id: //depot/dev/client3/rdock/2013.1/src/exe/rbdock.cxx#4 $)

>  <Rbt.Library>
libRbt.so (2013.1, Build901 2013/11/27)

>  <Rbt.Parameter_File>
/export/apps/rDock/src/rDock_2013.1_src/data/scripts/dock_solv.prm

>  <Rbt.Receptor>
prm/pocket_docking_7.prm

>  <SCORE>
-9.89693

>  <SCORE.INTER>
-1.17046

>  <SCORE.INTER.CONST>
1

>  <SCORE.INTER.POLAR>
0

>  <SCORE.INTER.ROT>
11

>  <SCORE.INTER.SOLV>
10.779

>  <SCORE.INTER.VDW>
-15.3067

>  <SCORE.INTER.norm>
-0.0836046

>  <SCORE.INTRA>
-8.72646

>  <SCORE.INTRA.DIHEDRAL>
-17.6283

>  <SCORE.INTRA.DIHEDRAL.0>
20.2131

>  <SCORE.INTRA.POLAR>
0

>  <SCORE.INTRA.POLAR.0>
0

>  <SCORE.INTRA.REPUL>
0

>  <SCORE.INTRA.REPUL.0>
0

>  <SCORE.INTRA.SOLV>
1.52892

>  <SCORE.INTRA.SOLV.lig_0>
-48.2851

>  <SCORE.INTRA.VDW>
-0.676783

>  <SCORE.INTRA.VDW.0>
-1.08658

>  <SCORE.INTRA.norm>
-0.623319

>  <SCORE.RESTR>
0

>  <SCORE.RESTR.CAVITY>
0

>  <SCORE.RESTR.norm>
0

>  <SCORE.SYSTEM>
0

>  <SCORE.SYSTEM.CONST>
0

>  <SCORE.SYSTEM.DIHEDRAL>
0

>  <SCORE.SYSTEM.SOLV>
0

>  <SCORE.SYSTEM.norm>
0

>  <SCORE.heavy>
14

>  <SCORE.norm>
-0.706923

>  <RMSD>
8.299

$$$$
ligand
 OpenBabel11021811393D
libRbt.so/2013.1/901 2013/11/27
 14 13  0  0  0  0  0  0  0  0999 V2000
   39.9204   13.0811   40.8325 N   0  0  0  0  0  0  0  0  0  0  0  0
   38.7367   13.6170   40.1784 C   0  0  0  0  0  0  0  0  0  0  0  0
   38.8174   13.3794   38.6452 C   0  0  0  0  0  0  0  0  0  0  0  0
   39.9700   14.0908   37.8508 C   0  0  0  0  0  0  0  0  0  0  0  0
   39.9698   13.8574   36.3601 N   0  0  0  0  0  0  0  0  0  0  0  0
   38.7992   14.4573   35.6564 C   0  0  0  0  0  0  0  0  0  0  0  0
   39.1583   15.1932   34.3782 C   0  0  0  0  0  0  0  0  0  0  0  0
   39.8887   14.3103   33.3826 C   0  0  0  0  0  0  0  0  0  0  0  0
   39.9655   15.0560   32.1058 C   0  0  0  0  0  0  0  0  0  0  0  0
   40.6749   16.3564   32.1680 N   0  0  0  0  0  0  0  0  0  0  0  0
   40.2387   17.3232   31.1294 C   0  0  0  0  0  0  0  0  0  0  0  0
   41.2110   17.5159   29.9276 C   0  0  0  0  0  0  0  0  0  0  0  0
   41.4073   16.1509   29.2449 C   0  0  0  0  0  0  0  0  0  0  0  0
   42.0978   16.3080   27.9674 N   0  0  0  0  0  0  0  0  0  0  0  0
  1  2  1  0  0  0  0
  2  3  1  0  0  0  0
  3  4  1  0  0  0  0
  4  5  1  0  0  0  0
  5  6  1  0  0  0  0
  6  7  1  0  0  0  0
  7  8  1  0  0  0  0
  8  9  1  0  0  0  0
  9 10  1  0  0  0  0
 10 11  1  0  0  0  0
 11 12  1  0  0  0  0
 12 13  1  0  0  0  0
 13 14  1  0  0  0  0
M  END
>  <CHROM.1>
-63.93041337,-178.11696411,66.55311345,135.16494161,57.09183480,170.06781484
59.64580837,-154.04926376,-104.00928350,58.91613036,169.12182646,40.06089120
15.04985021,34.27335053,-1.95891175,1.05925289,-0.91768218

>  <Name>
ligand

>  <RI>
0

>  <Rbt.Current_Directory>
/home/itssahil/PROJECTS/Mol_Feturizer/New_Systems/rnas/1EVV

>  <Rbt.Executable>
rbdock ($Id: //depot/dev/client3/rdock/2013.1/src/exe/rbdock.cxx#4 $)

>  <Rbt.Library>
libRbt.so (2013.1, Build901 2013/11/27)

>  <Rbt.Parameter_File>
/export/apps/rDock/src/rDock_2013.1_src/data/scripts/dock_solv.prm

>  <Rbt.Receptor>
prm/pocket_docking_8.prm

>  <SCORE>
-4.703

>  <SCORE.INTER>
2.93528

>  <SCORE.INTER.CONST>
1

>  <SCORE.INTER.POLAR>
0

>  <SCORE.INTER.ROT>
11

>  <SCORE.INTER.SOLV>
8.88556

>  <SCORE.INTER.VDW>
-11.9383

>  <SCORE.INTER.norm>
0.209663

>  <SCORE.INTRA>
-7.63828

>  <SCORE.INTRA.DIHEDRAL>
-16.7334

>  <SCORE.INTRA.DIHEDRAL.0>
20.2131

>  <SCORE.INTRA.POLAR>
0

>  <SCORE.INTRA.POLAR.0>
0

>  <SCORE.INTRA.REPUL>
0

>  <SCORE.INTRA.REPUL.0>
0

>  <SCORE.INTRA.SOLV>
0.454213

>  <SCORE.INTRA.SOLV.lig_0>
-48.2851

>  <SCORE.INTRA.VDW>
0.501302

>  <SCORE.INTRA.VDW.0>
-1.08658

>  <SCORE.INTRA.norm>
-0.545591

>  <SCORE.RESTR>
0

>  <SCORE.RESTR.CAVITY>
0

>  <SCORE.RESTR.norm>
0

>  <SCORE.SYSTEM>
0

>  <SCORE.SYSTEM.CONST>
0

>  <SCORE.SYSTEM.DIHEDRAL>
0

>  <SCORE.SYSTEM.SOLV>
0

>  <SCORE.SYSTEM.norm>
0

>  <SCORE.heavy>
14

>  <SCORE.norm>
-0.335929

>  <RMSD>
8.883

$$$$
ligand
 OpenBabel11021811393D
libRbt.so/2013.1/901 2013/11/27
 14 13  0  0  0  0  0  0  0  0999 V2000
   35.2566   19.2898   29.4173 N   0  0  0  0  0  0  0  0  0  0  0  0
   34.7952   18.0670   30.0561 C   0  0  0  0  0  0  0  0  0  0  0  0
   35.9824   17.3431   30.7490 C   0  0  0  0  0  0  0  0  0  0  0  0
   36.6997   18.0784   31.9365 C   0  0  0  0  0  0  0  0  0  0  0  0
   37.9002   17.3663   32.5095 N   0  0  0  0  0  0  0  0  0  0  0  0
   39.1127   17.4367   31.6432 C   0  0  0  0  0  0  0  0  0  0  0  0
   40.2932   16.6399   32.1681 C   0  0  0  0  0  0  0  0  0  0  0  0
   39.9955   15.1549   32.2698 C   0  0  0  0  0  0  0  0  0  0  0  0
   39.2896   14.9338   33.5524 C   0  0  0  0  0  0  0  0  0  0  0  0
   39.1353   13.5166   33.9597 N   0  0  0  0  0  0  0  0  0  0  0  0
   40.3228   12.9652   34.6595 C   0  0  0  0  0  0  0  0  0  0  0  0
   40.3725   13.1943   36.1995 C   0  0  0  0  0  0  0  0  0  0  0  0
   39.2405   12.3748   36.8438 C   0  0  0  0  0  0  0  0  0  0  0  0
   39.2625   12.5191   38.2971 N   0  0  0  0  0  0  0  0  0  0  0  0
  1  2  1  0  0  0  0
  2  3  1  0  0  0  0
  3  4  1  0  0  0  0
  4  5  1  0  0  0  0
  5  6  1  0  0  0  0
  6  7  1  0  0  0  0
  7  8  1  0  0  0  0
  8  9  1  0  0  0  0
  9 10  1  0  0  0  0
 10 11  1  0  0  0  0
 11 12  1  0  0  0  0
 12 13  1  0  0  0  0
 13 14  1  0  0  0  0
M  END
>  <CHROM.1>
63.65642122,-176.17263853,74.60057899,-175.90084861,61.64366139,-83.01690970
-168.97663551,83.73737647,86.68586553,67.30611990,178.29822192,38.40440508
15.63426271,33.16137765,2.01209354,0.18426352,-0.90938714

>  <Name>
ligand

>  <RI>
0

>  <Rbt.Current_Directory>
/home/itssahil/PROJECTS/Mol_Feturizer/New_Systems/rnas/1EVV

>  <Rbt.Executable>
rbdock ($Id: //depot/dev/client3/rdock/2013.1/src/exe/rbdock.cxx#4 $)

>  <Rbt.Library>
libRbt.so (2013.1, Build901 2013/11/27)

>  <Rbt.Parameter_File>
/export/apps/rDock/src/rDock_2013.1_src/data/scripts/dock_solv.prm

>  <Rbt.Receptor>
prm/pocket_docking_8.prm

>  <SCORE>
-6.67201

>  <SCORE.INTER>
0.523441

>  <SCORE.INTER.CONST>
1

>  <SCORE.INTER.POLAR>
0

>  <SCORE.INTER.ROT>
11

>  <SCORE.INTER.SOLV>
8.74538

>  <SCORE.INTER.VDW>
-13.4995

>  <SCORE.INTER.norm>
0.0373886

>  <SCORE.INTRA>
-7.19545

>  <SCORE.INTRA.DIHEDRAL>
-16.3899

>  <SCORE.INTRA.DIHEDRAL.0>
20.2131

>  <SCORE.INTRA.POLAR>
0

>  <SCORE.INTRA.POLAR.0>
0

>  <SCORE.INTRA.REPUL>
0

>  <SCORE.INTRA.REPUL.0>
0

>  <SCORE.INTRA.SOLV>
0.616948

>  <SCORE.INTRA.SOLV.lig_0>
-48.2851

>  <SCORE.INTRA.VDW>
0.691022

>  <SCORE.INTRA.VDW.0>
-1.08658

>  <SCORE.INTRA.norm>
-0.513961

>  <SCORE.RESTR>
0

>  <SCORE.RESTR.CAVITY>
0

>  <SCORE.RESTR.norm>
0

>  <SCORE.SYSTEM>
0

>  <SCORE.SYSTEM.CONST>
0

>  <SCORE.SYSTEM.DIHEDRAL>
0

>  <SCORE.SYSTEM.SOLV>
0

>  <SCORE.SYSTEM.norm>
0

>  <SCORE.heavy>
14

>  <SCORE.norm>
-0.476572

>  <RMSD>
9.057

$$$$
ligand
 OpenBabel11021811393D
libRbt.so/2013.1/901 2013/11/27
 14 13  0  0  0  0  0  0  0  0999 V2000
   39.9713   11.9670   37.6062 N   0  0  0  0  0  0  0  0  0  0  0  0
   40.9471   11.6720   36.5684 C   0  0  0  0  0  0  0  0  0  0  0  0
   40.4300   12.1673   35.1897 C   0  0  0  0  0  0  0  0  0  0  0  0
   40.1945   13.7085   35.0035 C   0  0  0  0  0  0  0  0  0  0  0  0
   39.5767   14.1158   33.6885 N   0  0  0  0  0  0  0  0  0  0  0  0
   39.0021   15.4925   33.6934 C   0  0  0  0  0  0  0  0  0  0  0  0
   38.1400   15.8057   32.4840 C   0  0  0  0  0  0  0  0  0  0  0  0
   37.3546   17.0945   32.6458 C   0  0  0  0  0  0  0  0  0  0  0  0
   36.5037   17.2459   31.4435 C   0  0  0  0  0  0  0  0  0  0  0  0
   35.6949   18.4873   31.3865 N   0  0  0  0  0  0  0  0  0  0  0  0
   34.5201   18.3918   30.4841 C   0  0  0  0  0  0  0  0  0  0  0  0
   34.8172   18.5388   28.9620 C   0  0  0  0  0  0  0  0  0  0  0  0
   33.4739   18.5836   28.2126 C   0  0  0  0  0  0  0  0  0  0  0  0
   32.7509   19.8140   28.5235 N   0  0  0  0  0  0  0  0  0  0  0  0
  1  2  1  0  0  0  0
  2  3  1  0  0  0  0
  3  4  1  0  0  0  0
  4  5  1  0  0  0  0
  5  6  1  0  0  0  0
  6  7  1  0  0  0  0
  7  8  1  0  0  0  0
  8  9  1  0  0  0  0
  9 10  1  0  0  0  0
 10 11  1  0  0  0  0
 11 12  1  0  0  0  0
 12 13  1  0  0  0  0
 13 14  1  0  0  0  0
M  END
>  <CHROM.1>
62.98882826,-174.76156368,162.93054715,-168.29670216,168.64537624,-176.86763921
-177.48828092,-158.47183632,-78.60519234,-173.25311594,67.99272015,37.38422359
15.93454761,32.56359932,0.64282061,-0.78830776,1.57175117

>  <Name>
ligand

>  <RI>
0

>  <Rbt.Current_Directory>
/home/itssahil/PROJECTS/Mol_Feturizer/New_Systems/rnas/1EVV

>  <Rbt.Executable>
rbdock ($Id: //depot/dev/client3/rdock/2013.1/src/exe/rbdock.cxx#4 $)

>  <Rbt.Library>
libRbt.so (2013.1, Build901 2013/11/27)

>  <Rbt.Parameter_File>
/export/apps/rDock/src/rDock_2013.1_src/data/scripts/dock_solv.prm

>  <Rbt.Receptor>
prm/pocket_docking_8.prm

>  <SCORE>
-8.56537

>  <SCORE.INTER>
0.355558

>  <SCORE.INTER.CONST>
1

>  <SCORE.INTER.POLAR>
0

>  <SCORE.INTER.ROT>
11

>  <SCORE.INTER.SOLV>
12.0393

>  <SCORE.INTER.VDW>
-14.7094

>  <SCORE.INTER.norm>
0.025397

>  <SCORE.INTRA>
-8.92092

>  <SCORE.INTRA.DIHEDRAL>
-18.1905

>  <SCORE.INTRA.DIHEDRAL.0>
20.2131

>  <SCORE.INTRA.POLAR>
0

>  <SCORE.INTRA.POLAR.0>
0

>  <SCORE.INTRA.REPUL>
0

>  <SCORE.INTRA.REPUL.0>
0

>  <SCORE.INTRA.SOLV>
0.0239573

>  <SCORE.INTRA.SOLV.lig_0>
-48.2851

>  <SCORE.INTRA.VDW>
0.162343

>  <SCORE.INTRA.VDW.0>
-1.08658

>  <SCORE.INTRA.norm>
-0.637209

>  <SCORE.RESTR>
0

>  <SCORE.RESTR.CAVITY>
0

>  <SCORE.RESTR.norm>
0

>  <SCORE.SYSTEM>
0

>  <SCORE.SYSTEM.CONST>
0

>  <SCORE.SYSTEM.DIHEDRAL>
0

>  <SCORE.SYSTEM.SOLV>
0

>  <SCORE.SYSTEM.norm>
0

>  <SCORE.heavy>
14

>  <SCORE.norm>
-0.611812

>  <RMSD>
9.559

$$$$
ligand
 OpenBabel11021811393D
libRbt.so/2013.1/901 2013/11/27
 14 13  0  0  0  0  0  0  0  0999 V2000
   50.4758   15.8614   41.2514 N   0  0  0  0  0  0  0  0  0  0  0  0
   50.4370   17.2724   41.6032 C   0  0  0  0  0  0  0  0  0  0  0  0
   49.0864   17.8988   41.1592 C   0  0  0  0  0  0  0  0  0  0  0  0
   48.7199   17.8500   39.6332 C   0  0  0  0  0  0  0  0  0  0  0  0
   48.6602   16.4707   39.0246 N   0  0  0  0  0  0  0  0  0  0  0  0
   49.3699   16.3577   37.7173 C   0  0  0  0  0  0  0  0  0  0  0  0
   48.4740   16.5614   36.5090 C   0  0  0  0  0  0  0  0  0  0  0  0
   47.8516   17.9454   36.4713 C   0  0  0  0  0  0  0  0  0  0  0  0
   47.0476   18.0334   35.2311 C   0  0  0  0  0  0  0  0  0  0  0  0
   47.8127   17.9251   33.9657 N   0  0  0  0  0  0  0  0  0  0  0  0
   48.4755   19.1900   33.5603 C   0  0  0  0  0  0  0  0  0  0  0  0
   49.7690   19.0371   32.7057 C   0  0  0  0  0  0  0  0  0  0  0  0
   50.8063   18.2635   33.5386 C   0  0  0  0  0  0  0  0  0  0  0  0
   50.3839   16.8786   33.7307 N   0  0  0  0  0  0  0  0  0  0  0  0
  1  2  1  0  0  0  0
  2  3  1  0  0  0  0
  3  4  1  0  0  0  0
  4  5  1  0  0  0  0
  5  6  1  0  0  0  0
  6  7  1  0  0  0  0
  7  8  1  0  0  0  0
  8  9  1  0  0  0  0
  9 10  1  0  0  0  0
 10 11  1  0  0  0  0
 11 12  1  0  0  0  0
 12 13  1  0  0  0  0
 13 14  1  0  0  0  0
M  END
>  <CHROM.1>
-59.53163677,58.23448329,-133.57668654,-93.94651059,61.80524591,177.98900064
-63.45677816,-80.55772879,152.15179105,-61.20359101,68.24853634,49.09774055
17.53927616,36.86433513,-1.49894786,0.24803803,-1.40291628

>  <Name>
ligand

>  <RI>
0

>  <Rbt.Current_Directory>
/home/itssahil/PROJECTS/Mol_Feturizer/New_Systems/rnas/1EVV

>  <Rbt.Executable>
rbdock ($Id: //depot/dev/client3/rdock/2013.1/src/exe/rbdock.cxx#4 $)

>  <Rbt.Library>
libRbt.so (2013.1, Build901 2013/11/27)

>  <Rbt.Parameter_File>
/export/apps/rDock/src/rDock_2013.1_src/data/scripts/dock_solv.prm

>  <Rbt.Receptor>
prm/blind_docking_80.prm

>  <SCORE>
-12.3347

>  <SCORE.INTER>
-7.28245

>  <SCORE.INTER.CONST>
1

>  <SCORE.INTER.POLAR>
0

>  <SCORE.INTER.ROT>
11

>  <SCORE.INTER.SOLV>
19.2658

>  <SCORE.INTER.VDW>
-22.2102

>  <SCORE.INTER.norm>
-0.520175

>  <SCORE.INTRA>
-5.05733

>  <SCORE.INTRA.DIHEDRAL>
-17.2416

>  <SCORE.INTRA.DIHEDRAL.0>
20.2131

>  <SCORE.INTRA.POLAR>
0

>  <SCORE.INTRA.POLAR.0>
0

>  <SCORE.INTRA.REPUL>
0

>  <SCORE.INTRA.REPUL.0>
0

>  <SCORE.INTRA.SOLV>
7.56715

>  <SCORE.INTRA.SOLV.lig_0>
-48.2851

>  <SCORE.INTRA.VDW>
-0.220093

>  <SCORE.INTRA.VDW.0>
-1.08658

>  <SCORE.INTRA.norm>
-0.361238

>  <SCORE.RESTR>
0.00505515

>  <SCORE.RESTR.CAVITY>
0.00505515

>  <SCORE.RESTR.norm>
0.000361082

>  <SCORE.SYSTEM>
0

>  <SCORE.SYSTEM.CONST>
0

>  <SCORE.SYSTEM.DIHEDRAL>
0

>  <SCORE.SYSTEM.SOLV>
0

>  <SCORE.SYSTEM.norm>
0

>  <SCORE.heavy>
14

>  <SCORE.norm>
-0.881052

>  <RMSD>
10.308

$$$$
ligand
 OpenBabel11021811393D
libRbt.so/2013.1/901 2013/11/27
 14 13  0  0  0  0  0  0  0  0999 V2000
   47.0456   18.8117   27.9315 N   0  0  0  0  0  0  0  0  0  0  0  0
   47.7361   19.1566   29.1646 C   0  0  0  0  0  0  0  0  0  0  0  0
   49.2721   19.1757   28.9317 C   0  0  0  0  0  0  0  0  0  0  0  0
   50.1964   19.5226   30.1527 C   0  0  0  0  0  0  0  0  0  0  0  0
   50.1137   18.5699   31.3197 N   0  0  0  0  0  0  0  0  0  0  0  0
   50.6569   19.1275   32.5923 C   0  0  0  0  0  0  0  0  0  0  0  0
   49.7499   18.9235   33.7923 C   0  0  0  0  0  0  0  0  0  0  0  0
   49.8188   17.5101   34.3417 C   0  0  0  0  0  0  0  0  0  0  0  0
   48.8794   17.4350   35.4837 C   0  0  0  0  0  0  0  0  0  0  0  0
   49.0556   16.2664   36.3790 N   0  0  0  0  0  0  0  0  0  0  0  0
   48.2068   16.3150   37.5959 C   0  0  0  0  0  0  0  0  0  0  0  0
   48.8690   16.9327   38.8634 C   0  0  0  0  0  0  0  0  0  0  0  0
   49.9990   15.9937   39.3210 C   0  0  0  0  0  0  0  0  0  0  0  0
   50.5387   16.4254   40.6078 N   0  0  0  0  0  0  0  0  0  0  0  0
  1  2  1  0  0  0  0
  2  3  1  0  0  0  0
  3  4  1  0  0  0  0
  4  5  1  0  0  0  0
  5  6  1  0  0  0  0
  6  7  1  0  0  0  0
  7  8  1  0  0  0  0
  8  9  1  0  0  0  0
  9 10  1  0  0  0  0
 10 11  1  0  0  0  0
 11 12  1  0  0  0  0
 12 13  1  0  0  0  0
 13 14  1  0  0  0  0
M  END
>  <CHROM.1>
-179.73228557,61.64148636,-162.24943265,132.51623408,77.76007335,-179.01499665
-164.33641218,173.02349283,-93.75661298,-67.10401587,-172.31862622,49.29561732
17.86912512,34.03408856,1.65483171,-0.38097486,-1.26466125

>  <Name>
ligand

>  <RI>
0

>  <Rbt.Current_Directory>
/home/itssahil/PROJECTS/Mol_Feturizer/New_Systems/rnas/1EVV

>  <Rbt.Executable>
rbdock ($Id: //depot/dev/client3/rdock/2013.1/src/exe/rbdock.cxx#4 $)

>  <Rbt.Library>
libRbt.so (2013.1, Build901 2013/11/27)

>  <Rbt.Parameter_File>
/export/apps/rDock/src/rDock_2013.1_src/data/scripts/dock_solv.prm

>  <Rbt.Receptor>
prm/blind_docking_80.prm

>  <SCORE>
-14.645

>  <SCORE.INTER>
-6.22672

>  <SCORE.INTER.CONST>
1

>  <SCORE.INTER.POLAR>
0

>  <SCORE.INTER.ROT>
11

>  <SCORE.INTER.SOLV>
16.7208

>  <SCORE.INTER.VDW>
-20.6581

>  <SCORE.INTER.norm>
-0.444766

>  <SCORE.INTRA>
-8.41832

>  <SCORE.INTRA.DIHEDRAL>
-15.7289

>  <SCORE.INTRA.DIHEDRAL.0>
20.2131

>  <SCORE.INTRA.POLAR>
0

>  <SCORE.INTRA.POLAR.0>
0

>  <SCORE.INTRA.REPUL>
0

>  <SCORE.INTRA.REPUL.0>
0

>  <SCORE.INTRA.SOLV>
-0.490043

>  <SCORE.INTRA.SOLV.lig_0>
-48.2851

>  <SCORE.INTRA.VDW>
-0.308843

>  <SCORE.INTRA.VDW.0>
-1.08658

>  <SCORE.INTRA.norm>
-0.601309

>  <SCORE.RESTR>
0

>  <SCORE.RESTR.CAVITY>
0

>  <SCORE.RESTR.norm>
0

>  <SCORE.SYSTEM>
0

>  <SCORE.SYSTEM.CONST>
0

>  <SCORE.SYSTEM.DIHEDRAL>
0

>  <SCORE.SYSTEM.SOLV>
0

>  <SCORE.SYSTEM.norm>
0

>  <SCORE.heavy>
14

>  <SCORE.norm>
-1.04607

>  <RMSD>
10.655

$$$$
ligand
 OpenBabel11021811393D
libRbt.so/2013.1/901 2013/11/27
 14 13  0  0  0  0  0  0  0  0999 V2000
   48.2903   18.9989   29.8144 N   0  0  0  0  0  0  0  0  0  0  0  0
   49.1715   20.1504   29.6975 C   0  0  0  0  0  0  0  0  0  0  0  0
   50.5627   19.8250   30.3078 C   0  0  0  0  0  0  0  0  0  0  0  0
   50.6592   19.6485   31.8651 C   0  0  0  0  0  0  0  0  0  0  0  0
   49.8578   18.5062   32.4389 N   0  0  0  0  0  0  0  0  0  0  0  0
   49.1423   18.8472   33.7028 C   0  0  0  0  0  0  0  0  0  0  0  0
   48.7407   17.6394   34.5298 C   0  0  0  0  0  0  0  0  0  0  0  0
   47.9176   18.0148   35.7487 C   0  0  0  0  0  0  0  0  0  0  0  0
   47.7172   16.7809   36.5422 C   0  0  0  0  0  0  0  0  0  0  0  0
   48.9426   16.2044   37.1458 N   0  0  0  0  0  0  0  0  0  0  0  0
   49.1029   16.5222   38.5870 C   0  0  0  0  0  0  0  0  0  0  0  0
   50.2696   15.7944   39.3189 C   0  0  0  0  0  0  0  0  0  0  0  0
   50.2200   16.1832   40.8070 C   0  0  0  0  0  0  0  0  0  0  0  0
   51.3153   15.5544   41.5408 N   0  0  0  0  0  0  0  0  0  0  0  0
  1  2  1  0  0  0  0
  2  3  1  0  0  0  0
  3  4  1  0  0  0  0
  4  5  1  0  0  0  0
  5  6  1  0  0  0  0
  6  7  1  0  0  0  0
  7  8  1  0  0  0  0
  8  9  1  0  0  0  0
  9 10  1  0  0  0  0
 10 11  1  0  0  0  0
 11 12  1  0  0  0  0
 12 13  1  0  0  0  0
 13 14  1  0  0  0  0
M  END
>  <CHROM.1>
-69.30951603,62.46927842,-137.75255289,-160.12008993,-175.31953394,-173.98146870
66.36818015,100.77821082,172.38482990,-176.59320566,-178.58367307,49.42205671
17.76230977,35.14615794,1.62558956,-0.20767809,-1.19599454

>  <Name>
ligand

>  <RI>
0

>  <Rbt.Current_Directory>
/home/itssahil/PROJECTS/Mol_Feturizer/New_Systems/rnas/1EVV

>  <Rbt.Executable>
rbdock ($Id: //depot/dev/client3/rdock/2013.1/src/exe/rbdock.cxx#4 $)

>  <Rbt.Library>
libRbt.so (2013.1, Build901 2013/11/27)

>  <Rbt.Parameter_File>
/export/apps/rDock/src/rDock_2013.1_src/data/scripts/dock_solv.prm

>  <Rbt.Receptor>
prm/blind_docking_100.prm

>  <SCORE>
-14.3317

>  <SCORE.INTER>
-6.30592

>  <SCORE.INTER.CONST>
1

>  <SCORE.INTER.POLAR>
0

>  <SCORE.INTER.ROT>
11

>  <SCORE.INTER.SOLV>
13.7229

>  <SCORE.INTER.VDW>
-19.7116

>  <SCORE.INTER.norm>
-0.450423

>  <SCORE.INTRA>
-8.02578

>  <SCORE.INTRA.DIHEDRAL>
-17.2085

>  <SCORE.INTRA.DIHEDRAL.0>
20.2131

>  <SCORE.INTRA.POLAR>
0

>  <SCORE.INTRA.POLAR.0>
0

>  <SCORE.INTRA.REPUL>
0

>  <SCORE.INTRA.REPUL.0>
0

>  <SCORE.INTRA.SOLV>
1.77039

>  <SCORE.INTRA.SOLV.lig_0>
-48.2851

>  <SCORE.INTRA.VDW>
-0.306752

>  <SCORE.INTRA.VDW.0>
-1.08658

>  <SCORE.INTRA.norm>
-0.57327

>  <SCORE.RESTR>
0

>  <SCORE.RESTR.CAVITY>
0

>  <SCORE.RESTR.norm>
0

>  <SCORE.SYSTEM>
0

>  <SCORE.SYSTEM.CONST>
0

>  <SCORE.SYSTEM.DIHEDRAL>
0

>  <SCORE.SYSTEM.SOLV>
0

>  <SCORE.SYSTEM.norm>
0

>  <SCORE.heavy>
14

>  <SCORE.norm>
-1.02369

>  <RMSD>
10.693

$$$$
ligand
 OpenBabel11021811393D
libRbt.so/2013.1/901 2013/11/27
 14 13  0  0  0  0  0  0  0  0999 V2000
   44.2616    1.8927   34.8896 N   0  0  0  0  0  0  0  0  0  0  0  0
   44.5271    0.9982   36.0056 C   0  0  0  0  0  0  0  0  0  0  0  0
   43.9416   -0.4111   35.7142 C   0  0  0  0  0  0  0  0  0  0  0  0
   42.3872   -0.5380   35.5323 C   0  0  0  0  0  0  0  0  0  0  0  0
   41.8968   -1.8873   35.0681 N   0  0  0  0  0  0  0  0  0  0  0  0
   40.4756   -1.8886   34.6148 C   0  0  0  0  0  0  0  0  0  0  0  0
   40.2570   -1.2247   33.2674 C   0  0  0  0  0  0  0  0  0  0  0  0
   38.7962   -1.2089   32.8552 C   0  0  0  0  0  0  0  0  0  0  0  0
   38.7221   -0.5754   31.5190 C   0  0  0  0  0  0  0  0  0  0  0  0
   37.3818   -0.5782   30.8850 N   0  0  0  0  0  0  0  0  0  0  0  0
   37.3755   -0.0357   29.5032 C   0  0  0  0  0  0  0  0  0  0  0  0
   36.1567   -0.4371   28.6200 C   0  0  0  0  0  0  0  0  0  0  0  0
   36.2066    0.3943   27.3260 C   0  0  0  0  0  0  0  0  0  0  0  0
   35.8511    1.7856   27.5931 N   0  0  0  0  0  0  0  0  0  0  0  0
  1  2  1  0  0  0  0
  2  3  1  0  0  0  0
  3  4  1  0  0  0  0
  4  5  1  0  0  0  0
  5  6  1  0  0  0  0
  6  7  1  0  0  0  0
  7  8  1  0  0  0  0
  8  9  1  0  0  0  0
  9 10  1  0  0  0  0
 10 11  1  0  0  0  0
 11 12  1  0  0  0  0
 12 13  1  0  0  0  0
 13 14  1  0  0  0  0
M  END
>  <CHROM.1>
-62.62115664,172.02865920,-167.00066431,73.63581597,-178.38253512,-178.42267534
174.61447175,-175.21145557,160.12922323,170.82348962,-72.39474488,39.87406872
-0.26554708,32.38537075,-0.50415683,-0.63619131,-0.69567937

>  <Name>
ligand

>  <RI>
0

>  <Rbt.Current_Directory>
/home/itssahil/PROJECTS/Mol_Feturizer/New_Systems/rnas/1EVV

>  <Rbt.Executable>
rbdock ($Id: //depot/dev/client3/rdock/2013.1/src/exe/rbdock.cxx#4 $)

>  <Rbt.Library>
libRbt.so (2013.1, Build901 2013/11/27)

>  <Rbt.Parameter_File>
/export/apps/rDock/src/rDock_2013.1_src/data/scripts/dock_solv.prm

>  <Rbt.Receptor>
prm/blind_docking_80.prm

>  <SCORE>
-11.3855

>  <SCORE.INTER>
-2.40824

>  <SCORE.INTER.CONST>
1

>  <SCORE.INTER.POLAR>
0

>  <SCORE.INTER.ROT>
11

>  <SCORE.INTER.SOLV>
9.47141

>  <SCORE.INTER.VDW>
-15.696

>  <SCORE.INTER.norm>
-0.172017

>  <SCORE.INTRA>
-8.97723

>  <SCORE.INTRA.DIHEDRAL>
-18.3518

>  <SCORE.INTRA.DIHEDRAL.0>
20.2131

>  <SCORE.INTRA.POLAR>
0

>  <SCORE.INTRA.POLAR.0>
0

>  <SCORE.INTRA.REPUL>
0

>  <SCORE.INTRA.REPUL.0>
0

>  <SCORE.INTRA.SOLV>
-0.0391199

>  <SCORE.INTRA.SOLV.lig_0>
-48.2851

>  <SCORE.INTRA.VDW>
0.218234

>  <SCORE.INTRA.VDW.0>
-1.08658

>  <SCORE.INTRA.norm>
-0.641231

>  <SCORE.RESTR>
0

>  <SCORE.RESTR.CAVITY>
0

>  <SCORE.RESTR.norm>
0

>  <SCORE.SYSTEM>
0

>  <SCORE.SYSTEM.CONST>
0

>  <SCORE.SYSTEM.DIHEDRAL>
0

>  <SCORE.SYSTEM.SOLV>
0

>  <SCORE.SYSTEM.norm>
0

>  <SCORE.heavy>
14

>  <SCORE.norm>
-0.813248

>  <RMSD>
22.759

$$$$
ligand
 OpenBabel11021811393D
libRbt.so/2013.1/901 2013/11/27
 14 13  0  0  0  0  0  0  0  0999 V2000
   35.9117    2.7679   24.7786 N   0  0  0  0  0  0  0  0  0  0  0  0
   35.8668    1.5355   25.5502 C   0  0  0  0  0  0  0  0  0  0  0  0
   36.6181    1.7189   26.8977 C   0  0  0  0  0  0  0  0  0  0  0  0
   36.7288    0.4772   27.8524 C   0  0  0  0  0  0  0  0  0  0  0  0
   37.4650    0.7186   29.1472 N   0  0  0  0  0  0  0  0  0  0  0  0
   37.7814   -0.5287   29.9020 C   0  0  0  0  0  0  0  0  0  0  0  0
   38.4909   -0.2879   31.2221 C   0  0  0  0  0  0  0  0  0  0  0  0
   39.8705    0.3187   31.0405 C   0  0  0  0  0  0  0  0  0  0  0  0
   40.4951    0.4019   32.3803 C   0  0  0  0  0  0  0  0  0  0  0  0
   40.7818   -0.8983   33.0325 N   0  0  0  0  0  0  0  0  0  0  0  0
   40.0847   -1.0802   34.3305 C   0  0  0  0  0  0  0  0  0  0  0  0
   40.9237   -1.7354   35.4678 C   0  0  0  0  0  0  0  0  0  0  0  0
   42.0901   -0.7914   35.8091 C   0  0  0  0  0  0  0  0  0  0  0  0
   42.9454   -1.3794   36.8368 N   0  0  0  0  0  0  0  0  0  0  0  0
  1  2  1  0  0  0  0
  2  3  1  0  0  0  0
  3  4  1  0  0  0  0
  4  5  1  0  0  0  0
  5  6  1  0  0  0  0
  6  7  1  0  0  0  0
  7  8  1  0  0  0  0
  8  9  1  0  0  0  0
  9 10  1  0  0  0  0
 10 11  1  0  0  0  0
 11 12  1  0  0  0  0
 12 13  1  0  0  0  0
 13 14  1  0  0  0  0
M  END
>  <CHROM.1>
-177.69059088,-179.79102635,-168.75622037,-178.53554004,-64.88287214,-175.54538781
65.64055260,-120.01078462,-138.68553907,64.07918187,-177.75978561,39.00374682
0.08828507,31.01771975,-2.20518152,0.59415564,2.25709476

>  <Name>
ligand

>  <RI>
0

>  <Rbt.Current_Directory>
/home/itssahil/PROJECTS/Mol_Feturizer/New_Systems/rnas/1EVV

>  <Rbt.Executable>
rbdock ($Id: //depot/dev/client3/rdock/2013.1/src/exe/rbdock.cxx#4 $)

>  <Rbt.Library>
libRbt.so (2013.1, Build901 2013/11/27)

>  <Rbt.Parameter_File>
/export/apps/rDock/src/rDock_2013.1_src/data/scripts/dock_solv.prm

>  <Rbt.Receptor>
prm/blind_docking_60.prm

>  <SCORE>
-15.675

>  <SCORE.INTER>
-6.60691

>  <SCORE.INTER.CONST>
1

>  <SCORE.INTER.POLAR>
0

>  <SCORE.INTER.ROT>
11

>  <SCORE.INTER.SOLV>
15.5482

>  <SCORE.INTER.VDW>
-20.5207

>  <SCORE.INTER.norm>
-0.471922

>  <SCORE.INTRA>
-9.06809

>  <SCORE.INTRA.DIHEDRAL>
-17.5813

>  <SCORE.INTRA.DIHEDRAL.0>
20.2131

>  <SCORE.INTRA.POLAR>
0

>  <SCORE.INTRA.POLAR.0>
0

>  <SCORE.INTRA.REPUL>
0

>  <SCORE.INTRA.REPUL.0>
0

>  <SCORE.INTRA.SOLV>
-0.290967

>  <SCORE.INTRA.SOLV.lig_0>
-48.2851

>  <SCORE.INTRA.VDW>
-0.131969

>  <SCORE.INTRA.VDW.0>
-1.08658

>  <SCORE.INTRA.norm>
-0.647721

>  <SCORE.RESTR>
0

>  <SCORE.RESTR.CAVITY>
0

>  <SCORE.RESTR.norm>
0

>  <SCORE.SYSTEM>
0

>  <SCORE.SYSTEM.CONST>
0

>  <SCORE.SYSTEM.DIHEDRAL>
0

>  <SCORE.SYSTEM.SOLV>
0

>  <SCORE.SYSTEM.norm>
0

>  <SCORE.heavy>
14

>  <SCORE.norm>
-1.11964

>  <RMSD>
22.938

$$$$
ligand
 OpenBabel11021811393D
libRbt.so/2013.1/901 2013/11/27
 14 13  0  0  0  0  0  0  0  0999 V2000
   36.2397    3.2742   24.2576 N   0  0  0  0  0  0  0  0  0  0  0  0
   36.3770    2.0245   24.9894 C   0  0  0  0  0  0  0  0  0  0  0  0
   35.5547    2.0811   26.3063 C   0  0  0  0  0  0  0  0  0  0  0  0
   35.4604    0.7738   27.1709 C   0  0  0  0  0  0  0  0  0  0  0  0
   36.7766    0.2294   27.6686 N   0  0  0  0  0  0  0  0  0  0  0  0
   36.6856   -1.1518   28.2250 C   0  0  0  0  0  0  0  0  0  0  0  0
   35.8403   -1.2565   29.4814 C   0  0  0  0  0  0  0  0  0  0  0  0
   36.3721   -0.3988   30.6152 C   0  0  0  0  0  0  0  0  0  0  0  0
   35.5304   -0.6676   31.8033 C   0  0  0  0  0  0  0  0  0  0  0  0
   35.8215    0.1673   32.9935 N   0  0  0  0  0  0  0  0  0  0  0  0
   35.2860   -0.3931   34.2596 C   0  0  0  0  0  0  0  0  0  0  0  0
   34.4350    0.5802   35.1285 C   0  0  0  0  0  0  0  0  0  0  0  0
   33.9730   -0.1774   36.3857 C   0  0  0  0  0  0  0  0  0  0  0  0
   33.1216   -1.3074   36.0229 N   0  0  0  0  0  0  0  0  0  0  0  0
  1  2  1  0  0  0  0
  2  3  1  0  0  0  0
  3  4  1  0  0  0  0
  4  5  1  0  0  0  0
  5  6  1  0  0  0  0
  6  7  1  0  0  0  0
  7  8  1  0  0  0  0
  8  9  1  0  0  0  0
  9 10  1  0  0  0  0
 10 11  1  0  0  0  0
 11 12  1  0  0  0  0
 12 13  1  0  0  0  0
 13 14  1  0  0  0  0
M  END
>  <CHROM.1>
174.13914295,60.21043078,-167.45234501,-65.08843636,-59.97019378,-175.70198379
-175.01179690,-161.75933617,-128.86860372,179.93865887,-62.26641316,35.53387515
0.26972025,30.37918869,1.13224606,1.11120105,-0.95428009

>  <Name>
ligand

>  <RI>
0

>  <Rbt.Current_Directory>
/home/itssahil/PROJECTS/Mol_Feturizer/New_Systems/rnas/1EVV

>  <Rbt.Executable>
rbdock ($Id: //depot/dev/client3/rdock/2013.1/src/exe/rbdock.cxx#4 $)

>  <Rbt.Library>
libRbt.so (2013.1, Build901 2013/11/27)

>  <Rbt.Parameter_File>
/export/apps/rDock/src/rDock_2013.1_src/data/scripts/dock_solv.prm

>  <Rbt.Receptor>
prm/blind_docking_80.prm

>  <SCORE>
-9.91001

>  <SCORE.INTER>
-1.2833

>  <SCORE.INTER.CONST>
1

>  <SCORE.INTER.POLAR>
0

>  <SCORE.INTER.ROT>
11

>  <SCORE.INTER.SOLV>
16.1285

>  <SCORE.INTER.VDW>
-17.165

>  <SCORE.INTER.norm>
-0.0916646

>  <SCORE.INTRA>
-8.6267

>  <SCORE.INTRA.DIHEDRAL>
-18.3578

>  <SCORE.INTRA.DIHEDRAL.0>
20.2131

>  <SCORE.INTRA.POLAR>
0

>  <SCORE.INTRA.POLAR.0>
0

>  <SCORE.INTRA.REPUL>
0

>  <SCORE.INTRA.REPUL.0>
0

>  <SCORE.INTRA.SOLV>
0.134006

>  <SCORE.INTRA.SOLV.lig_0>
-48.2851

>  <SCORE.INTRA.VDW>
0.485211

>  <SCORE.INTRA.VDW.0>
-1.08658

>  <SCORE.INTRA.norm>
-0.616193

>  <SCORE.RESTR>
0

>  <SCORE.RESTR.CAVITY>
0

>  <SCORE.RESTR.norm>
0

>  <SCORE.SYSTEM>
0

>  <SCORE.SYSTEM.CONST>
0

>  <SCORE.SYSTEM.DIHEDRAL>
0

>  <SCORE.SYSTEM.SOLV>
0

>  <SCORE.SYSTEM.norm>
0

>  <SCORE.heavy>
14

>  <SCORE.norm>
-0.707858

>  <RMSD>
23.618

$$$$
ligand
 OpenBabel11021811393D
libRbt.so/2013.1/901 2013/11/27
 14 13  0  0  0  0  0  0  0  0999 V2000
   37.2432    2.7273   15.2163 N   0  0  0  0  0  0  0  0  0  0  0  0
   38.5762    2.1850   15.4291 C   0  0  0  0  0  0  0  0  0  0  0  0
   38.9822    1.2765   14.2359 C   0  0  0  0  0  0  0  0  0  0  0  0
   40.3835    0.5705   14.2932 C   0  0  0  0  0  0  0  0  0  0  0  0
   41.5703    1.4942   14.4155 N   0  0  0  0  0  0  0  0  0  0  0  0
   42.8863    0.7925   14.3784 C   0  0  0  0  0  0  0  0  0  0  0  0
   44.0833    1.7259   14.3694 C   0  0  0  0  0  0  0  0  0  0  0  0
   44.1944    2.5441   15.6431 C   0  0  0  0  0  0  0  0  0  0  0  0
   45.1732    3.6255   15.3883 C   0  0  0  0  0  0  0  0  0  0  0  0
   44.7870    4.6020   14.3416 N   0  0  0  0  0  0  0  0  0  0  0  0
   45.7980    5.6655   14.1170 C   0  0  0  0  0  0  0  0  0  0  0  0
   45.4194    6.7543   13.0692 C   0  0  0  0  0  0  0  0  0  0  0  0
   46.5743    7.7682   12.9913 C   0  0  0  0  0  0  0  0  0  0  0  0
   46.7266    8.4746   14.2607 N   0  0  0  0  0  0  0  0  0  0  0  0
  1  2  1  0  0  0  0
  2  3  1  0  0  0  0
  3  4  1  0  0  0  0
  4  5  1  0  0  0  0
  5  6  1  0  0  0  0
  6  7  1  0  0  0  0
  7  8  1  0  0  0  0
  8  9  1  0  0  0  0
  9 10  1  0  0  0  0
 10 11  1  0  0  0  0
 11 12  1  0  0  0  0
 12 13  1  0  0  0  0
 13 14  1  0  0  0  0
M  END
>  <CHROM.1>
-178.77593595,-58.59585262,-176.27361320,174.54181753,64.28924176,-166.49979668
63.50125330,-179.84765315,-177.56336287,179.26782583,-64.54927491,43.02860044
3.58584732,14.43916147,2.46877814,-0.03140270,3.00560214

>  <Name>
ligand

>  <RI>
0

>  <Rbt.Current_Directory>
/home/itssahil/PROJECTS/Mol_Feturizer/New_Systems/rnas/1EVV

>  <Rbt.Executable>
rbdock ($Id: //depot/dev/client3/rdock/2013.1/src/exe/rbdock.cxx#4 $)

>  <Rbt.Library>
libRbt.so (2013.1, Build901 2013/11/27)

>  <Rbt.Parameter_File>
/export/apps/rDock/src/rDock_2013.1_src/data/scripts/dock_solv.prm

>  <Rbt.Receptor>
prm/blind_docking_80.prm

>  <SCORE>
-10.7198

>  <SCORE.INTER>
-1.43274

>  <SCORE.INTER.CONST>
1

>  <SCORE.INTER.POLAR>
0

>  <SCORE.INTER.ROT>
11

>  <SCORE.INTER.SOLV>
14.3022

>  <SCORE.INTER.VDW>
-16.6559

>  <SCORE.INTER.norm>
-0.102339

>  <SCORE.INTRA>
-9.28703

>  <SCORE.INTRA.DIHEDRAL>
-19.2307

>  <SCORE.INTRA.DIHEDRAL.0>
20.2131

>  <SCORE.INTRA.POLAR>
0

>  <SCORE.INTRA.POLAR.0>
0

>  <SCORE.INTRA.REPUL>
0.00329779

>  <SCORE.INTRA.REPUL.0>
0

>  <SCORE.INTRA.SOLV>
0.585213

>  <SCORE.INTRA.SOLV.lig_0>
-48.2851

>  <SCORE.INTRA.VDW>
0.0192277

>  <SCORE.INTRA.VDW.0>
-1.08658

>  <SCORE.INTRA.norm>
-0.663359

>  <SCORE.RESTR>
0

>  <SCORE.RESTR.CAVITY>
0

>  <SCORE.RESTR.norm>
0

>  <SCORE.SYSTEM>
0

>  <SCORE.SYSTEM.CONST>
0

>  <SCORE.SYSTEM.DIHEDRAL>
0

>  <SCORE.SYSTEM.SOLV>
0

>  <SCORE.SYSTEM.norm>
0

>  <SCORE.heavy>
14

>  <SCORE.norm>
-0.765698

>  <RMSD>
27.996

$$$$
ligand
 OpenBabel11021811393D
libRbt.so/2013.1/901 2013/11/27
 14 13  0  0  0  0  0  0  0  0999 V2000
   46.7779    8.5872   14.1680 N   0  0  0  0  0  0  0  0  0  0  0  0
   45.4559    8.0372   13.9107 C   0  0  0  0  0  0  0  0  0  0  0  0
   45.5614    6.8056   12.9697 C   0  0  0  0  0  0  0  0  0  0  0  0
   46.2695    5.5174   13.5216 C   0  0  0  0  0  0  0  0  0  0  0  0
   45.6516    4.9184   14.7610 N   0  0  0  0  0  0  0  0  0  0  0  0
   46.6083    4.1294   15.5902 C   0  0  0  0  0  0  0  0  0  0  0  0
   46.0554    2.8013   16.0746 C   0  0  0  0  0  0  0  0  0  0  0  0
   44.8458    2.9673   16.9765 C   0  0  0  0  0  0  0  0  0  0  0  0
   44.3306    1.6121   17.2768 C   0  0  0  0  0  0  0  0  0  0  0  0
   43.8507    0.8382   16.1067 N   0  0  0  0  0  0  0  0  0  0  0  0
   44.4422   -0.5197   16.0073 C   0  0  0  0  0  0  0  0  0  0  0  0
   44.6251   -1.0785   14.5648 C   0  0  0  0  0  0  0  0  0  0  0  0
   45.6635   -0.2049   13.8393 C   0  0  0  0  0  0  0  0  0  0  0  0
   45.8268   -0.6407   12.4548 N   0  0  0  0  0  0  0  0  0  0  0  0
  1  2  1  0  0  0  0
  2  3  1  0  0  0  0
  3  4  1  0  0  0  0
  4  5  1  0  0  0  0
  5  6  1  0  0  0  0
  6  7  1  0  0  0  0
  7  8  1  0  0  0  0
  8  9  1  0  0  0  0
  9 10  1  0  0  0  0
 10 11  1  0  0  0  0
 11 12  1  0  0  0  0
 12 13  1  0  0  0  0
 13 14  1  0  0  0  0
M  END
>  <CHROM.1>
67.04902294,58.93248867,-154.40029170,-135.32994975,-62.09378406,174.90972290
-62.63779531,128.29492016,-148.79523378,65.43433702,-177.09598717,45.42600726
3.12633673,14.87320065,-0.99041476,-1.27112173,-2.72641502

>  <Name>
ligand

>  <RI>
0

>  <Rbt.Current_Directory>
/home/itssahil/PROJECTS/Mol_Feturizer/New_Systems/rnas/1EVV

>  <Rbt.Executable>
rbdock ($Id: //depot/dev/client3/rdock/2013.1/src/exe/rbdock.cxx#4 $)

>  <Rbt.Library>
libRbt.so (2013.1, Build901 2013/11/27)

>  <Rbt.Parameter_File>
/export/apps/rDock/src/rDock_2013.1_src/data/scripts/dock_solv.prm

>  <Rbt.Receptor>
prm/blind_docking_80.prm

>  <SCORE>
-10.421

>  <SCORE.INTER>
-2.30205

>  <SCORE.INTER.CONST>
1

>  <SCORE.INTER.POLAR>
0

>  <SCORE.INTER.ROT>
11

>  <SCORE.INTER.SOLV>
8.70719

>  <SCORE.INTER.VDW>
-15.3704

>  <SCORE.INTER.norm>
-0.164432

>  <SCORE.INTRA>
-8.11893

>  <SCORE.INTRA.DIHEDRAL>
-16.4673

>  <SCORE.INTRA.DIHEDRAL.0>
20.2131

>  <SCORE.INTRA.POLAR>
0

>  <SCORE.INTRA.POLAR.0>
0

>  <SCORE.INTRA.REPUL>
0

>  <SCORE.INTRA.REPUL.0>
0

>  <SCORE.INTRA.SOLV>
1.23253

>  <SCORE.INTRA.SOLV.lig_0>
-48.2851

>  <SCORE.INTRA.VDW>
-0.501563

>  <SCORE.INTRA.VDW.0>
-1.08658

>  <SCORE.INTRA.norm>
-0.579924

>  <SCORE.RESTR>
0

>  <SCORE.RESTR.CAVITY>
0

>  <SCORE.RESTR.norm>
0

>  <SCORE.SYSTEM>
0

>  <SCORE.SYSTEM.CONST>
0

>  <SCORE.SYSTEM.DIHEDRAL>
0

>  <SCORE.SYSTEM.SOLV>
0

>  <SCORE.SYSTEM.norm>
0

>  <SCORE.heavy>
14

>  <SCORE.norm>
-0.744356

>  <RMSD>
28.282

$$$$
ligand
 OpenBabel11021811393D
libRbt.so/2013.1/901 2013/11/27
 14 13  0  0  0  0  0  0  0  0999 V2000
   46.7632   -0.6900   11.6412 N   0  0  0  0  0  0  0  0  0  0  0  0
   45.7290   -0.2474   12.5635 C   0  0  0  0  0  0  0  0  0  0  0  0
   45.8437   -1.0178   13.9077 C   0  0  0  0  0  0  0  0  0  0  0  0
   44.7837   -0.7097   15.0243 C   0  0  0  0  0  0  0  0  0  0  0  0
   44.7240    0.7264   15.4830 N   0  0  0  0  0  0  0  0  0  0  0  0
   44.0018    0.9170   16.7744 C   0  0  0  0  0  0  0  0  0  0  0  0
   43.6371    2.3604   17.0704 C   0  0  0  0  0  0  0  0  0  0  0  0
   44.8565    3.2344   17.3013 C   0  0  0  0  0  0  0  0  0  0  0  0
   45.4730    3.4890   15.9794 C   0  0  0  0  0  0  0  0  0  0  0  0
   44.6344    4.2463   15.0195 N   0  0  0  0  0  0  0  0  0  0  0  0
   45.1718    4.2535   13.6358 C   0  0  0  0  0  0  0  0  0  0  0  0
   46.2258    5.3565   13.3206 C   0  0  0  0  0  0  0  0  0  0  0  0
   45.5422    6.7280   13.4601 C   0  0  0  0  0  0  0  0  0  0  0  0
   46.5022    7.8071   13.2418 N   0  0  0  0  0  0  0  0  0  0  0  0
  1  2  1  0  0  0  0
  2  3  1  0  0  0  0
  3  4  1  0  0  0  0
  4  5  1  0  0  0  0
  5  6  1  0  0  0  0
  6  7  1  0  0  0  0
  7  8  1  0  0  0  0
  8  9  1  0  0  0  0
  9 10  1  0  0  0  0
 10 11  1  0  0  0  0
 11 12  1  0  0  0  0
 12 13  1  0  0  0  0
 13 14  1  0  0  0  0
M  END
>  <CHROM.1>
-178.24829257,-58.82411277,-163.96747919,-165.64707930,-66.24579155,75.21194018
63.32787969,-168.81794687,-85.44607764,-63.79642744,177.12208562,45.27758435
2.60365912,14.60195978,-1.73518569,1.13916134,0.09457841

>  <Name>
ligand

>  <RI>
0

>  <Rbt.Current_Directory>
/home/itssahil/PROJECTS/Mol_Feturizer/New_Systems/rnas/1EVV

>  <Rbt.Executable>
rbdock ($Id: //depot/dev/client3/rdock/2013.1/src/exe/rbdock.cxx#4 $)

>  <Rbt.Library>
libRbt.so (2013.1, Build901 2013/11/27)

>  <Rbt.Parameter_File>
/export/apps/rDock/src/rDock_2013.1_src/data/scripts/dock_solv.prm

>  <Rbt.Receptor>
prm/blind_docking_60.prm

>  <SCORE>
-9.15364

>  <SCORE.INTER>
-1.32658

>  <SCORE.INTER.CONST>
1

>  <SCORE.INTER.POLAR>
0

>  <SCORE.INTER.ROT>
11

>  <SCORE.INTER.SOLV>
12.1379

>  <SCORE.INTER.VDW>
-15.8637

>  <SCORE.INTER.norm>
-0.0947555

>  <SCORE.INTRA>
-7.82706

>  <SCORE.INTRA.DIHEDRAL>
-18.0831

>  <SCORE.INTRA.DIHEDRAL.0>
20.2131

>  <SCORE.INTRA.POLAR>
0

>  <SCORE.INTRA.POLAR.0>
0

>  <SCORE.INTRA.REPUL>
0

>  <SCORE.INTRA.REPUL.0>
0

>  <SCORE.INTRA.SOLV>
1.45884

>  <SCORE.INTRA.SOLV.lig_0>
-48.2851

>  <SCORE.INTRA.VDW>
0.485068

>  <SCORE.INTRA.VDW.0>
-1.08658

>  <SCORE.INTRA.norm>
-0.559076

>  <SCORE.RESTR>
0

>  <SCORE.RESTR.CAVITY>
0

>  <SCORE.RESTR.norm>
0

>  <SCORE.SYSTEM>
0

>  <SCORE.SYSTEM.CONST>
0

>  <SCORE.SYSTEM.DIHEDRAL>
0

>  <SCORE.SYSTEM.SOLV>
0

>  <SCORE.SYSTEM.norm>
0

>  <SCORE.heavy>
14

>  <SCORE.norm>
-0.653831

>  <RMSD>
28.825

$$$$
ligand
 OpenBabel11021811393D
libRbt.so/2013.1/901 2013/11/27
 14 13  0  0  0  0  0  0  0  0999 V2000
   46.4703    8.2987   14.1483 N   0  0  0  0  0  0  0  0  0  0  0  0
   45.6885    7.5167   13.2030 C   0  0  0  0  0  0  0  0  0  0  0  0
   46.2887    6.0907   13.0612 C   0  0  0  0  0  0  0  0  0  0  0  0
   46.2057    5.1316   14.3016 C   0  0  0  0  0  0  0  0  0  0  0  0
   44.8130    4.8398   14.8035 N   0  0  0  0  0  0  0  0  0  0  0  0
   44.7761    3.9235   15.9801 C   0  0  0  0  0  0  0  0  0  0  0  0
   44.7619    2.4503   15.6149 C   0  0  0  0  0  0  0  0  0  0  0  0
   44.3013    1.5694   16.7621 C   0  0  0  0  0  0  0  0  0  0  0  0
   44.3110    0.1711   16.2755 C   0  0  0  0  0  0  0  0  0  0  0  0
   43.5170   -0.0834   15.0496 N   0  0  0  0  0  0  0  0  0  0  0  0
   43.9632   -1.2769   14.2879 C   0  0  0  0  0  0  0  0  0  0  0  0
   45.3882   -1.1926   13.6642 C   0  0  0  0  0  0  0  0  0  0  0  0
   45.4126   -0.0098   12.6801 C   0  0  0  0  0  0  0  0  0  0  0  0
   46.7450    0.1544   12.1045 N   0  0  0  0  0  0  0  0  0  0  0  0
  1  2  1  0  0  0  0
  2  3  1  0  0  0  0
  3  4  1  0  0  0  0
  4  5  1  0  0  0  0
  5  6  1  0  0  0  0
  6  7  1  0  0  0  0
  7  8  1  0  0  0  0
  8  9  1  0  0  0  0
  9 10  1  0  0  0  0
 10 11  1  0  0  0  0
 11 12  1  0  0  0  0
 12 13  1  0  0  0  0
 13 14  1  0  0  0  0
M  END
>  <CHROM.1>
67.44388882,59.03530444,179.88474893,-86.71636473,-162.35799088,179.11696763
-55.27397259,156.32354467,-65.36305660,-60.44937446,177.58193514,45.18866711
2.68426456,14.42420146,-1.20259551,-1.07008180,-2.87589067

>  <Name>
ligand

>  <RI>
0

>  <Rbt.Current_Directory>
/home/itssahil/PROJECTS/Mol_Feturizer/New_Systems/rnas/1EVV

>  <Rbt.Executable>
rbdock ($Id: //depot/dev/client3/rdock/2013.1/src/exe/rbdock.cxx#4 $)

>  <Rbt.Library>
libRbt.so (2013.1, Build901 2013/11/27)

>  <Rbt.Parameter_File>
/export/apps/rDock/src/rDock_2013.1_src/data/scripts/dock_solv.prm

>  <Rbt.Receptor>
prm/blind_docking_80.prm

>  <SCORE>
-8.51982

>  <SCORE.INTER>
-0.259294

>  <SCORE.INTER.CONST>
1

>  <SCORE.INTER.POLAR>
0

>  <SCORE.INTER.ROT>
11

>  <SCORE.INTER.SOLV>
9.69896

>  <SCORE.INTER.VDW>
-14.3392

>  <SCORE.INTER.norm>
-0.018521

>  <SCORE.INTRA>
-8.26052

>  <SCORE.INTRA.DIHEDRAL>
-17.8705

>  <SCORE.INTRA.DIHEDRAL.0>
20.2131

>  <SCORE.INTRA.POLAR>
0

>  <SCORE.INTRA.POLAR.0>
0

>  <SCORE.INTRA.REPUL>
0

>  <SCORE.INTRA.REPUL.0>
0

>  <SCORE.INTRA.SOLV>
0.922168

>  <SCORE.INTRA.SOLV.lig_0>
-48.2851

>  <SCORE.INTRA.VDW>
0.213624

>  <SCORE.INTRA.VDW.0>
-1.08658

>  <SCORE.INTRA.norm>
-0.590037

>  <SCORE.RESTR>
0

>  <SCORE.RESTR.CAVITY>
0

>  <SCORE.RESTR.norm>
0

>  <SCORE.SYSTEM>
0

>  <SCORE.SYSTEM.CONST>
0

>  <SCORE.SYSTEM.DIHEDRAL>
0

>  <SCORE.SYSTEM.SOLV>
0

>  <SCORE.SYSTEM.norm>
0

>  <SCORE.heavy>
14

>  <SCORE.norm>
-0.608558

>  <RMSD>
28.857

$$$$
ligand
 OpenBabel11021811393D
libRbt.so/2013.1/901 2013/11/27
 14 13  0  0  0  0  0  0  0  0999 V2000
   48.2145   -0.2579   12.5224 N   0  0  0  0  0  0  0  0  0  0  0  0
   47.2430   -1.2008   13.0546 C   0  0  0  0  0  0  0  0  0  0  0  0
   46.0374   -0.4383   13.6701 C   0  0  0  0  0  0  0  0  0  0  0  0
   44.9014   -1.2841   14.3481 C   0  0  0  0  0  0  0  0  0  0  0  0
   43.7779   -0.4862   14.9626 N   0  0  0  0  0  0  0  0  0  0  0  0
   44.2075    0.3880   16.0925 C   0  0  0  0  0  0  0  0  0  0  0  0
   44.3779    1.8478   15.7131 C   0  0  0  0  0  0  0  0  0  0  0  0
   45.1425    2.6370   16.7602 C   0  0  0  0  0  0  0  0  0  0  0  0
   45.2092    4.0403   16.2927 C   0  0  0  0  0  0  0  0  0  0  0  0
   45.8359    4.2411   14.9641 N   0  0  0  0  0  0  0  0  0  0  0  0
   45.4273    5.5029   14.2973 C   0  0  0  0  0  0  0  0  0  0  0  0
   46.3104    5.9550   13.0963 C   0  0  0  0  0  0  0  0  0  0  0  0
   45.9284    7.4017   12.7369 C   0  0  0  0  0  0  0  0  0  0  0  0
   46.3439    8.3219   13.7924 N   0  0  0  0  0  0  0  0  0  0  0  0
  1  2  1  0  0  0  0
  2  3  1  0  0  0  0
  3  4  1  0  0  0  0
  4  5  1  0  0  0  0
  5  6  1  0  0  0  0
  6  7  1  0  0  0  0
  7  8  1  0  0  0  0
  8  9  1  0  0  0  0
  9 10  1  0  0  0  0
 10 11  1  0  0  0  0
 11 12  1  0  0  0  0
 12 13  1  0  0  0  0
 13 14  1  0  0  0  0
M  END
>  <CHROM.1>
-177.74854389,178.29306550,-63.35002527,100.96736803,-165.34615442,-178.53971812
-57.50569326,157.22924011,164.63935270,-168.02176091,68.67802137,45.63963325
2.61903513,14.45039221,-1.64339791,0.88557864,-0.00079138

>  <Name>
ligand

>  <RI>
0

>  <Rbt.Current_Directory>
/home/itssahil/PROJECTS/Mol_Feturizer/New_Systems/rnas/1EVV

>  <Rbt.Executable>
rbdock ($Id: //depot/dev/client3/rdock/2013.1/src/exe/rbdock.cxx#4 $)

>  <Rbt.Library>
libRbt.so (2013.1, Build901 2013/11/27)

>  <Rbt.Parameter_File>
/export/apps/rDock/src/rDock_2013.1_src/data/scripts/dock_solv.prm

>  <Rbt.Receptor>
prm/blind_docking_80.prm

>  <SCORE>
-8.39853

>  <SCORE.INTER>
-0.211429

>  <SCORE.INTER.CONST>
1

>  <SCORE.INTER.POLAR>
0

>  <SCORE.INTER.ROT>
11

>  <SCORE.INTER.SOLV>
9.58144

>  <SCORE.INTER.VDW>
-14.2681

>  <SCORE.INTER.norm>
-0.0151021

>  <SCORE.INTRA>
-8.1871

>  <SCORE.INTRA.DIHEDRAL>
-17.0746

>  <SCORE.INTRA.DIHEDRAL.0>
20.2131

>  <SCORE.INTRA.POLAR>
0

>  <SCORE.INTRA.POLAR.0>
0

>  <SCORE.INTRA.REPUL>
0

>  <SCORE.INTRA.REPUL.0>
0

>  <SCORE.INTRA.SOLV>
-0.142336

>  <SCORE.INTRA.SOLV.lig_0>
-48.2851

>  <SCORE.INTRA.VDW>
0.42139

>  <SCORE.INTRA.VDW.0>
-1.08658

>  <SCORE.INTRA.norm>
-0.584793

>  <SCORE.RESTR>
0

>  <SCORE.RESTR.CAVITY>
0

>  <SCORE.RESTR.norm>
0

>  <SCORE.SYSTEM>
0

>  <SCORE.SYSTEM.CONST>
0

>  <SCORE.SYSTEM.DIHEDRAL>
0

>  <SCORE.SYSTEM.SOLV>
0

>  <SCORE.SYSTEM.norm>
0

>  <SCORE.heavy>
14

>  <SCORE.norm>
-0.599895

>  <RMSD>
28.992

$$$$
ligand
 OpenBabel11021811393D
libRbt.so/2013.1/901 2013/11/27
 14 13  0  0  0  0  0  0  0  0999 V2000
   44.1602   -1.8913   11.5537 N   0  0  0  0  0  0  0  0  0  0  0  0
   43.8146   -2.6787   12.7270 C   0  0  0  0  0  0  0  0  0  0  0  0
   42.6882   -1.9744   13.5326 C   0  0  0  0  0  0  0  0  0  0  0  0
   42.9997   -0.5672   14.1556 C   0  0  0  0  0  0  0  0  0  0  0  0
   44.1060   -0.5428   15.1813 N   0  0  0  0  0  0  0  0  0  0  0  0
   44.0133    0.5958   16.1406 C   0  0  0  0  0  0  0  0  0  0  0  0
   44.8140    1.8175   15.7277 C   0  0  0  0  0  0  0  0  0  0  0  0
   44.5917    3.0004   16.6525 C   0  0  0  0  0  0  0  0  0  0  0  0
   45.5671    4.0471   16.2715 C   0  0  0  0  0  0  0  0  0  0  0  0
   45.4131    4.5949   14.9023 N   0  0  0  0  0  0  0  0  0  0  0  0
   46.5797    5.3902   14.4442 C   0  0  0  0  0  0  0  0  0  0  0  0
   46.5260    5.8902   12.9698 C   0  0  0  0  0  0  0  0  0  0  0  0
   45.3974    6.9301   12.8561 C   0  0  0  0  0  0  0  0  0  0  0  0
   45.7052    8.1143   13.6539 N   0  0  0  0  0  0  0  0  0  0  0  0
  1  2  1  0  0  0  0
  2  3  1  0  0  0  0
  3  4  1  0  0  0  0
  4  5  1  0  0  0  0
  5  6  1  0  0  0  0
  6  7  1  0  0  0  0
  7  8  1  0  0  0  0
  8  9  1  0  0  0  0
  9 10  1  0  0  0  0
 10 11  1  0  0  0  0
 11 12  1  0  0  0  0
 12 13  1  0  0  0  0
 13 14  1  0  0  0  0
M  END
>  <CHROM.1>
-63.21165028,-62.13735409,-155.78083102,-93.47347952,174.44946834,171.67973894
63.27201734,-166.29891283,175.04668334,67.43485883,65.10574198,44.74113383
2.33747870,14.34083681,-2.91665827,1.27912159,1.39421785

>  <Name>
ligand

>  <RI>
0

>  <Rbt.Current_Directory>
/home/itssahil/PROJECTS/Mol_Feturizer/New_Systems/rnas/1EVV

>  <Rbt.Executable>
rbdock ($Id: //depot/dev/client3/rdock/2013.1/src/exe/rbdock.cxx#4 $)

>  <Rbt.Library>
libRbt.so (2013.1, Build901 2013/11/27)

>  <Rbt.Parameter_File>
/export/apps/rDock/src/rDock_2013.1_src/data/scripts/dock_solv.prm

>  <Rbt.Receptor>
prm/blind_docking_100.prm

>  <SCORE>
-7.56937

>  <SCORE.INTER>
0.347716

>  <SCORE.INTER.CONST>
1

>  <SCORE.INTER.POLAR>
0

>  <SCORE.INTER.ROT>
11

>  <SCORE.INTER.SOLV>
11.6422

>  <SCORE.INTER.VDW>
-14.5823

>  <SCORE.INTER.norm>
0.0248369

>  <SCORE.INTRA>
-7.91709

>  <SCORE.INTRA.DIHEDRAL>
-18.1128

>  <SCORE.INTRA.DIHEDRAL.0>
20.2131

>  <SCORE.INTRA.POLAR>
0

>  <SCORE.INTRA.POLAR.0>
0

>  <SCORE.INTRA.REPUL>
0

>  <SCORE.INTRA.REPUL.0>
0

>  <SCORE.INTRA.SOLV>
2.16472

>  <SCORE.INTRA.SOLV.lig_0>
-48.2851

>  <SCORE.INTRA.VDW>
0.0569572

>  <SCORE.INTRA.VDW.0>
-1.08658

>  <SCORE.INTRA.norm>
-0.565506

>  <SCORE.RESTR>
0

>  <SCORE.RESTR.CAVITY>
0

>  <SCORE.RESTR.norm>
0

>  <SCORE.SYSTEM>
0

>  <SCORE.SYSTEM.CONST>
0

>  <SCORE.SYSTEM.DIHEDRAL>
0

>  <SCORE.SYSTEM.SOLV>
0

>  <SCORE.SYSTEM.norm>
0

>  <SCORE.heavy>
14

>  <SCORE.norm>
-0.54067

>  <RMSD>
29.097

$$$$
ligand
 OpenBabel11021811393D
libRbt.so/2013.1/901 2013/11/27
 14 13  0  0  0  0  0  0  0  0999 V2000
   40.4685   -3.0921   13.3992 N   0  0  0  0  0  0  0  0  0  0  0  0
   41.6901   -2.3128   13.5270 C   0  0  0  0  0  0  0  0  0  0  0  0
   41.3654   -0.8905   14.0611 C   0  0  0  0  0  0  0  0  0  0  0  0
   42.5512    0.1284   14.2068 C   0  0  0  0  0  0  0  0  0  0  0  0
   43.7166   -0.3477   15.0385 N   0  0  0  0  0  0  0  0  0  0  0  0
   44.4821    0.7546   15.6900 C   0  0  0  0  0  0  0  0  0  0  0  0
   44.0858    1.0126   17.1324 C   0  0  0  0  0  0  0  0  0  0  0  0
   44.9986    2.0130   17.8180 C   0  0  0  0  0  0  0  0  0  0  0  0
   44.5811    3.3638   17.3784 C   0  0  0  0  0  0  0  0  0  0  0  0
   44.9055    3.7060   15.9727 N   0  0  0  0  0  0  0  0  0  0  0  0
   46.1609    4.4840   15.8235 C   0  0  0  0  0  0  0  0  0  0  0  0
   47.0621    4.0967   14.6133 C   0  0  0  0  0  0  0  0  0  0  0  0
   47.5381    2.6471   14.8135 C   0  0  0  0  0  0  0  0  0  0  0  0
   48.4406    2.2475   13.7368 N   0  0  0  0  0  0  0  0  0  0  0  0
  1  2  1  0  0  0  0
  2  3  1  0  0  0  0
  3  4  1  0  0  0  0
  4  5  1  0  0  0  0
  5  6  1  0  0  0  0
  6  7  1  0  0  0  0
  7  8  1  0  0  0  0
  8  9  1  0  0  0  0
  9 10  1  0  0  0  0
 10 11  1  0  0  0  0
 11 12  1  0  0  0  0
 12 13  1  0  0  0  0
 13 14  1  0  0  0  0
M  END
>  <CHROM.1>
-177.28957371,-54.61990902,-152.69025185,97.16601873,172.67088195,79.02499158
-71.55717317,-96.73034501,139.91920620,-63.47592164,-177.36752255,44.43191957
1.27245863,15.22965224,-2.50728750,0.56665872,0.93230307

>  <Name>
ligand

>  <RI>
0

>  <Rbt.Current_Directory>
/home/itssahil/PROJECTS/Mol_Feturizer/New_Systems/rnas/1EVV

>  <Rbt.Executable>
rbdock ($Id: //depot/dev/client3/rdock/2013.1/src/exe/rbdock.cxx#4 $)

>  <Rbt.Library>
libRbt.so (2013.1, Build901 2013/11/27)

>  <Rbt.Parameter_File>
/export/apps/rDock/src/rDock_2013.1_src/data/scripts/dock_solv.prm

>  <Rbt.Receptor>
prm/blind_docking_60.prm

>  <SCORE>
-7.30518

>  <SCORE.INTER>
-0.00208659

>  <SCORE.INTER.CONST>
1

>  <SCORE.INTER.POLAR>
0

>  <SCORE.INTER.ROT>
11

>  <SCORE.INTER.SOLV>
11.9247

>  <SCORE.INTER.VDW>
-14.9096

>  <SCORE.INTER.norm>
-0.000149042

>  <SCORE.INTRA>
-7.30309

>  <SCORE.INTRA.DIHEDRAL>
-14.8723

>  <SCORE.INTRA.DIHEDRAL.0>
20.2131

>  <SCORE.INTRA.POLAR>
0

>  <SCORE.INTRA.POLAR.0>
0

>  <SCORE.INTRA.REPUL>
0

>  <SCORE.INTRA.REPUL.0>
0

>  <SCORE.INTRA.SOLV>
0.308148

>  <SCORE.INTRA.SOLV.lig_0>
-48.2851

>  <SCORE.INTRA.VDW>
-0.0210161

>  <SCORE.INTRA.VDW.0>
-1.08658

>  <SCORE.INTRA.norm>
-0.52165

>  <SCORE.RESTR>
0

>  <SCORE.RESTR.CAVITY>
0

>  <SCORE.RESTR.norm>
0

>  <SCORE.SYSTEM>
0

>  <SCORE.SYSTEM.CONST>
0

>  <SCORE.SYSTEM.DIHEDRAL>
0

>  <SCORE.SYSTEM.SOLV>
0

>  <SCORE.SYSTEM.norm>
0

>  <SCORE.heavy>
14

>  <SCORE.norm>
-0.521799

>  <RMSD>
29.172

$$$$
ligand
 OpenBabel11021811393D
libRbt.so/2013.1/901 2013/11/27
 14 13  0  0  0  0  0  0  0  0999 V2000
   47.4196   -0.8083   11.6462 N   0  0  0  0  0  0  0  0  0  0  0  0
   47.2226   -1.9754   12.4919 C   0  0  0  0  0  0  0  0  0  0  0  0
   46.6776   -1.5448   13.8816 C   0  0  0  0  0  0  0  0  0  0  0  0
   45.2691   -0.8531   13.9366 C   0  0  0  0  0  0  0  0  0  0  0  0
   44.8159   -0.4132   15.3069 N   0  0  0  0  0  0  0  0  0  0  0  0
   43.6383    0.5024   15.2870 C   0  0  0  0  0  0  0  0  0  0  0  0
   43.9496    1.9181   15.7375 C   0  0  0  0  0  0  0  0  0  0  0  0
   44.9121    2.6289   14.8035 C   0  0  0  0  0  0  0  0  0  0  0  0
   45.1202    3.9932   15.3399 C   0  0  0  0  0  0  0  0  0  0  0  0
   46.0397    4.8533   14.5570 N   0  0  0  0  0  0  0  0  0  0  0  0
   45.3570    5.6631   13.5168 C   0  0  0  0  0  0  0  0  0  0  0  0
   45.4237    7.2081   13.7045 C   0  0  0  0  0  0  0  0  0  0  0  0
   46.9044    7.6267   13.7187 C   0  0  0  0  0  0  0  0  0  0  0  0
   47.0350    9.0494   14.0225 N   0  0  0  0  0  0  0  0  0  0  0  0
  1  2  1  0  0  0  0
  2  3  1  0  0  0  0
  3  4  1  0  0  0  0
  4  5  1  0  0  0  0
  5  6  1  0  0  0  0
  6  7  1  0  0  0  0
  7  8  1  0  0  0  0
  8  9  1  0  0  0  0
  9 10  1  0  0  0  0
 10 11  1  0  0  0  0
 11 12  1  0  0  0  0
 12 13  1  0  0  0  0
 13 14  1  0  0  0  0
M  END
>  <CHROM.1>
63.26104120,-177.88701620,166.87520901,-112.18893476,64.65649514,179.34340644
-179.97715139,90.79547029,116.13829792,59.24758986,-174.46648103,45.69865929
2.70326528,14.13943159,-1.60894533,0.75012118,0.06417021

>  <Name>
ligand

>  <RI>
0

>  <Rbt.Current_Directory>
/home/itssahil/PROJECTS/Mol_Feturizer/New_Systems/rnas/1EVV

>  <Rbt.Executable>
rbdock ($Id: //depot/dev/client3/rdock/2013.1/src/exe/rbdock.cxx#4 $)

>  <Rbt.Library>
libRbt.so (2013.1, Build901 2013/11/27)

>  <Rbt.Parameter_File>
/export/apps/rDock/src/rDock_2013.1_src/data/scripts/dock_solv.prm

>  <Rbt.Receptor>
prm/blind_docking_80.prm

>  <SCORE>
-8.05754

>  <SCORE.INTER>
0.420453

>  <SCORE.INTER.CONST>
1

>  <SCORE.INTER.POLAR>
0

>  <SCORE.INTER.ROT>
11

>  <SCORE.INTER.SOLV>
7.85075

>  <SCORE.INTER.VDW>
-13.2699

>  <SCORE.INTER.norm>
0.0300324

>  <SCORE.INTRA>
-8.47799

>  <SCORE.INTRA.DIHEDRAL>
-16.856

>  <SCORE.INTRA.DIHEDRAL.0>
20.2131

>  <SCORE.INTRA.POLAR>
0

>  <SCORE.INTRA.POLAR.0>
0

>  <SCORE.INTRA.REPUL>
0

>  <SCORE.INTRA.REPUL.0>
0

>  <SCORE.INTRA.SOLV>
0.0347688

>  <SCORE.INTRA.SOLV.lig_0>
-48.2851

>  <SCORE.INTRA.VDW>
-0.0673524

>  <SCORE.INTRA.VDW.0>
-1.08658

>  <SCORE.INTRA.norm>
-0.605571

>  <SCORE.RESTR>
0

>  <SCORE.RESTR.CAVITY>
0

>  <SCORE.RESTR.norm>
0

>  <SCORE.SYSTEM>
0

>  <SCORE.SYSTEM.CONST>
0

>  <SCORE.SYSTEM.DIHEDRAL>
0

>  <SCORE.SYSTEM.SOLV>
0

>  <SCORE.SYSTEM.norm>
0

>  <SCORE.heavy>
14

>  <SCORE.norm>
-0.575539

>  <RMSD>
29.188

$$$$
ligand
 OpenBabel11021811393D
libRbt.so/2013.1/901 2013/11/27
 14 13  0  0  0  0  0  0  0  0999 V2000
   47.4238    0.0506   11.6034 N   0  0  0  0  0  0  0  0  0  0  0  0
   47.5642    1.4097   12.1025 C   0  0  0  0  0  0  0  0  0  0  0  0
   48.7825    2.1036   11.4332 C   0  0  0  0  0  0  0  0  0  0  0  0
   49.1103    3.5803   11.8544 C   0  0  0  0  0  0  0  0  0  0  0  0
   49.5020    3.7706   13.2991 N   0  0  0  0  0  0  0  0  0  0  0  0
   49.0625    5.0743   13.8758 C   0  0  0  0  0  0  0  0  0  0  0  0
   47.8587    4.9683   14.7943 C   0  0  0  0  0  0  0  0  0  0  0  0
   46.6182    4.4705   14.0747 C   0  0  0  0  0  0  0  0  0  0  0  0
   45.5259    4.4067   15.0723 C   0  0  0  0  0  0  0  0  0  0  0  0
   45.7412    3.4622   16.1947 N   0  0  0  0  0  0  0  0  0  0  0  0
   44.5995    3.3911   17.1407 C   0  0  0  0  0  0  0  0  0  0  0  0
   44.4782    2.0738   17.9634 C   0  0  0  0  0  0  0  0  0  0  0  0
   44.4025    0.8960   16.9758 C   0  0  0  0  0  0  0  0  0  0  0  0
   43.2862    1.0703   16.0502 N   0  0  0  0  0  0  0  0  0  0  0  0
  1  2  1  0  0  0  0
  2  3  1  0  0  0  0
  3  4  1  0  0  0  0
  4  5  1  0  0  0  0
  5  6  1  0  0  0  0
  6  7  1  0  0  0  0
  7  8  1  0  0  0  0
  8  9  1  0  0  0  0
  9 10  1  0  0  0  0
 10 11  1  0  0  0  0
 11 12  1  0  0  0  0
 12 13  1  0  0  0  0
 13 14  1  0  0  0  0
M  END
>  <CHROM.1>
-179.39223627,63.68775776,-146.71442808,103.87497994,-62.82668277,179.77630401
-62.58984029,-177.71673727,155.85633742,-56.56036236,-56.84221326,46.71121169
2.90948786,14.45967754,0.32462743,-0.76738423,-2.52211433

>  <Name>
ligand

>  <RI>
0

>  <Rbt.Current_Directory>
/home/itssahil/PROJECTS/Mol_Feturizer/New_Systems/rnas/1EVV

>  <Rbt.Executable>
rbdock ($Id: //depot/dev/client3/rdock/2013.1/src/exe/rbdock.cxx#4 $)

>  <Rbt.Library>
libRbt.so (2013.1, Build901 2013/11/27)

>  <Rbt.Parameter_File>
/export/apps/rDock/src/rDock_2013.1_src/data/scripts/dock_solv.prm

>  <Rbt.Receptor>
prm/blind_docking_60.prm

>  <SCORE>
-7.11288

>  <SCORE.INTER>
0.883081

>  <SCORE.INTER.CONST>
1

>  <SCORE.INTER.POLAR>
0

>  <SCORE.INTER.ROT>
11

>  <SCORE.INTER.SOLV>
11.3671

>  <SCORE.INTER.VDW>
-14.1337

>  <SCORE.INTER.norm>
0.0630772

>  <SCORE.INTRA>
-7.99596

>  <SCORE.INTRA.DIHEDRAL>
-17.898

>  <SCORE.INTRA.DIHEDRAL.0>
20.2131

>  <SCORE.INTRA.POLAR>
0

>  <SCORE.INTRA.POLAR.0>
0

>  <SCORE.INTRA.REPUL>
0

>  <SCORE.INTRA.REPUL.0>
0

>  <SCORE.INTRA.SOLV>
2.22872

>  <SCORE.INTRA.SOLV.lig_0>
-48.2851

>  <SCORE.INTRA.VDW>
-0.161307

>  <SCORE.INTRA.VDW.0>
-1.08658

>  <SCORE.INTRA.norm>
-0.57114

>  <SCORE.RESTR>
0

>  <SCORE.RESTR.CAVITY>
0

>  <SCORE.RESTR.norm>
0

>  <SCORE.SYSTEM>
0

>  <SCORE.SYSTEM.CONST>
0

>  <SCORE.SYSTEM.DIHEDRAL>
0

>  <SCORE.SYSTEM.SOLV>
0

>  <SCORE.SYSTEM.norm>
0

>  <SCORE.heavy>
14

>  <SCORE.norm>
-0.508063

>  <RMSD>
29.191

$$$$
ligand
 OpenBabel11021811393D
libRbt.so/2013.1/901 2013/11/27
 14 13  0  0  0  0  0  0  0  0999 V2000
   46.8429    8.4345   13.6672 N   0  0  0  0  0  0  0  0  0  0  0  0
   46.2375    7.4985   12.7325 C   0  0  0  0  0  0  0  0  0  0  0  0
   45.4349    6.4144   13.5034 C   0  0  0  0  0  0  0  0  0  0  0  0
   46.2150    5.5055   14.5186 C   0  0  0  0  0  0  0  0  0  0  0  0
   45.3725    4.5097   15.2771 N   0  0  0  0  0  0  0  0  0  0  0  0
   46.0663    3.2175   15.5499 C   0  0  0  0  0  0  0  0  0  0  0  0
   45.1293    2.0762   15.9016 C   0  0  0  0  0  0  0  0  0  0  0  0
   44.1170    1.7942   14.8062 C   0  0  0  0  0  0  0  0  0  0  0  0
   43.3593    0.5868   15.2067 C   0  0  0  0  0  0  0  0  0  0  0  0
   44.1361   -0.6759   15.2287 N   0  0  0  0  0  0  0  0  0  0  0  0
   44.0091   -1.4751   13.9842 C   0  0  0  0  0  0  0  0  0  0  0  0
   44.7180   -0.8920   12.7255 C   0  0  0  0  0  0  0  0  0  0  0  0
   46.2336   -0.8773   12.9915 C   0  0  0  0  0  0  0  0  0  0  0  0
   46.7713   -2.2353   12.9853 N   0  0  0  0  0  0  0  0  0  0  0  0
  1  2  1  0  0  0  0
  2  3  1  0  0  0  0
  3  4  1  0  0  0  0
  4  5  1  0  0  0  0
  5  6  1  0  0  0  0
  6  7  1  0  0  0  0
  7  8  1  0  0  0  0
  8  9  1  0  0  0  0
  9 10  1  0  0  0  0
 10 11  1  0  0  0  0
 11 12  1  0  0  0  0
 12 13  1  0  0  0  0
 13 14  1  0  0  0  0
M  END
>  <CHROM.1>
-60.26902124,177.63063762,145.06053043,-161.61440980,58.77141025,174.47034523
-67.48973682,-95.78477135,71.04593064,64.29120058,71.15263164,45.33145272
2.42008042,14.21985841,-1.32362179,-0.90558229,-2.95092860

>  <Name>
ligand

>  <RI>
0

>  <Rbt.Current_Directory>
/home/itssahil/PROJECTS/Mol_Feturizer/New_Systems/rnas/1EVV

>  <Rbt.Executable>
rbdock ($Id: //depot/dev/client3/rdock/2013.1/src/exe/rbdock.cxx#4 $)

>  <Rbt.Library>
libRbt.so (2013.1, Build901 2013/11/27)

>  <Rbt.Parameter_File>
/export/apps/rDock/src/rDock_2013.1_src/data/scripts/dock_solv.prm

>  <Rbt.Receptor>
prm/blind_docking_60.prm

>  <SCORE>
-6.73879

>  <SCORE.INTER>
1.01708

>  <SCORE.INTER.CONST>
1

>  <SCORE.INTER.POLAR>
0

>  <SCORE.INTER.ROT>
11

>  <SCORE.INTER.SOLV>
9.90668

>  <SCORE.INTER.VDW>
-13.5575

>  <SCORE.INTER.norm>
0.0726484

>  <SCORE.INTRA>
-7.75587

>  <SCORE.INTRA.DIHEDRAL>
-17.4351

>  <SCORE.INTRA.DIHEDRAL.0>
20.2131

>  <SCORE.INTRA.POLAR>
0

>  <SCORE.INTRA.POLAR.0>
0

>  <SCORE.INTRA.REPUL>
0

>  <SCORE.INTRA.REPUL.0>
0

>  <SCORE.INTRA.SOLV>
1.68687

>  <SCORE.INTRA.SOLV.lig_0>
-48.2851

>  <SCORE.INTRA.VDW>
0.118251

>  <SCORE.INTRA.VDW.0>
-1.08658

>  <SCORE.INTRA.norm>
-0.553991

>  <SCORE.RESTR>
0

>  <SCORE.RESTR.CAVITY>
0

>  <SCORE.RESTR.norm>
0

>  <SCORE.SYSTEM>
0

>  <SCORE.SYSTEM.CONST>
0

>  <SCORE.SYSTEM.DIHEDRAL>
0

>  <SCORE.SYSTEM.SOLV>
0

>  <SCORE.SYSTEM.norm>
0

>  <SCORE.heavy>
14

>  <SCORE.norm>
-0.481342

>  <RMSD>
29.228

$$$$
ligand
 OpenBabel11021811393D
libRbt.so/2013.1/901 2013/11/27
 14 13  0  0  0  0  0  0  0  0999 V2000
   47.7540   -2.2397   11.4806 N   0  0  0  0  0  0  0  0  0  0  0  0
   48.9677   -1.7026   10.8850 C   0  0  0  0  0  0  0  0  0  0  0  0
   48.7875   -0.1919   10.5705 C   0  0  0  0  0  0  0  0  0  0  0  0
   48.5344    0.7844   11.7739 C   0  0  0  0  0  0  0  0  0  0  0  0
   48.2986    2.2270   11.3999 N   0  0  0  0  0  0  0  0  0  0  0  0
   47.9165    3.0936   12.5525 C   0  0  0  0  0  0  0  0  0  0  0  0
   47.2201    4.3815   12.1520 C   0  0  0  0  0  0  0  0  0  0  0  0
   46.9601    5.2961   13.3352 C   0  0  0  0  0  0  0  0  0  0  0  0
   46.3619    6.5427   12.8055 C   0  0  0  0  0  0  0  0  0  0  0  0
   46.4100    7.7110   13.7172 N   0  0  0  0  0  0  0  0  0  0  0  0
   45.0716    8.1792   14.1565 C   0  0  0  0  0  0  0  0  0  0  0  0
   45.0487    9.5056   14.9731 C   0  0  0  0  0  0  0  0  0  0  0  0
   45.9542    9.3271   16.2045 C   0  0  0  0  0  0  0  0  0  0  0  0
   45.9811   10.5480   17.0058 N   0  0  0  0  0  0  0  0  0  0  0  0
  1  2  1  0  0  0  0
  2  3  1  0  0  0  0
  3  4  1  0  0  0  0
  4  5  1  0  0  0  0
  5  6  1  0  0  0  0
  6  7  1  0  0  0  0
  7  8  1  0  0  0  0
  8  9  1  0  0  0  0
  9 10  1  0  0  0  0
 10 11  1  0  0  0  0
 11 12  1  0  0  0  0
 12 13  1  0  0  0  0
 13 14  1  0  0  0  0
M  END
>  <CHROM.1>
62.70365123,-177.06174045,173.72052974,-159.74376277,-174.73321747,176.44891628
-162.17837095,-115.14348624,-172.82190165,-56.90079490,179.52127803,47.09045430
4.53298388,13.07216110,-0.46922882,-1.28438187,1.48797285

>  <Name>
ligand

>  <RI>
0

>  <Rbt.Current_Directory>
/home/itssahil/PROJECTS/Mol_Feturizer/New_Systems/rnas/1EVV

>  <Rbt.Executable>
rbdock ($Id: //depot/dev/client3/rdock/2013.1/src/exe/rbdock.cxx#4 $)

>  <Rbt.Library>
libRbt.so (2013.1, Build901 2013/11/27)

>  <Rbt.Parameter_File>
/export/apps/rDock/src/rDock_2013.1_src/data/scripts/dock_solv.prm

>  <Rbt.Receptor>
prm/blind_docking_60.prm

>  <SCORE>
-7.5245

>  <SCORE.INTER>
1.36626

>  <SCORE.INTER.CONST>
1

>  <SCORE.INTER.POLAR>
0

>  <SCORE.INTER.ROT>
11

>  <SCORE.INTER.SOLV>
7.56452

>  <SCORE.INTER.VDW>
-12.544

>  <SCORE.INTER.norm>
0.0975901

>  <SCORE.INTRA>
-8.89076

>  <SCORE.INTRA.DIHEDRAL>
-17.2801

>  <SCORE.INTRA.DIHEDRAL.0>
20.2131

>  <SCORE.INTRA.POLAR>
0

>  <SCORE.INTRA.POLAR.0>
0

>  <SCORE.INTRA.REPUL>
0

>  <SCORE.INTRA.REPUL.0>
0

>  <SCORE.INTRA.SOLV>
-0.372366

>  <SCORE.INTRA.SOLV.lig_0>
-48.2851

>  <SCORE.INTRA.VDW>
-0.0645175

>  <SCORE.INTRA.VDW.0>
-1.08658

>  <SCORE.INTRA.norm>
-0.635055

>  <SCORE.RESTR>
0

>  <SCORE.RESTR.CAVITY>
0

>  <SCORE.RESTR.norm>
0

>  <SCORE.SYSTEM>
0

>  <SCORE.SYSTEM.CONST>
0

>  <SCORE.SYSTEM.DIHEDRAL>
0

>  <SCORE.SYSTEM.SOLV>
0

>  <SCORE.SYSTEM.norm>
0

>  <SCORE.heavy>
14

>  <SCORE.norm>
-0.537464

>  <RMSD>
29.328

$$$$
ligand
 OpenBabel11021811393D
libRbt.so/2013.1/901 2013/11/27
 14 13  0  0  0  0  0  0  0  0999 V2000
   45.9389    5.2465   13.2386 N   0  0  0  0  0  0  0  0  0  0  0  0
   46.4420    5.8252   14.4749 C   0  0  0  0  0  0  0  0  0  0  0  0
   46.5433    4.7334   15.5756 C   0  0  0  0  0  0  0  0  0  0  0  0
   45.2167    4.0358   16.0433 C   0  0  0  0  0  0  0  0  0  0  0  0
   45.3718    3.0258   17.1534 N   0  0  0  0  0  0  0  0  0  0  0  0
   44.1219    2.2719   17.4612 C   0  0  0  0  0  0  0  0  0  0  0  0
   44.1641    0.8120   17.0480 C   0  0  0  0  0  0  0  0  0  0  0  0
   44.3884    0.6341   15.5573 C   0  0  0  0  0  0  0  0  0  0  0  0
   44.4536   -0.8211   15.2920 C   0  0  0  0  0  0  0  0  0  0  0  0
   44.7259   -1.2016   13.8851 N   0  0  0  0  0  0  0  0  0  0  0  0
   46.1699   -1.3603   13.5797 C   0  0  0  0  0  0  0  0  0  0  0  0
   46.5478   -1.3806   12.0686 C   0  0  0  0  0  0  0  0  0  0  0  0
   46.2511    0.0101   11.4806 C   0  0  0  0  0  0  0  0  0  0  0  0
   47.1826    1.0030   12.0098 N   0  0  0  0  0  0  0  0  0  0  0  0
  1  2  1  0  0  0  0
  2  3  1  0  0  0  0
  3  4  1  0  0  0  0
  4  5  1  0  0  0  0
  5  6  1  0  0  0  0
  6  7  1  0  0  0  0
  7  8  1  0  0  0  0
  8  9  1  0  0  0  0
  9 10  1  0  0  0  0
 10 11  1  0  0  0  0
 11 12  1  0  0  0  0
 12 13  1  0  0  0  0
 13 14  1  0  0  0  0
M  END
>  <CHROM.1>
-62.93991456,-177.58852518,-173.27723684,109.73604856,-59.87198748,178.18040607
-177.59584491,90.84242438,-164.26903717,66.41036747,69.19394920,45.53689665
1.63085541,14.63367715,-1.63750901,-1.08664164,-2.74052416

>  <Name>
ligand

>  <RI>
0

>  <Rbt.Current_Directory>
/home/itssahil/PROJECTS/Mol_Feturizer/New_Systems/rnas/1EVV

>  <Rbt.Executable>
rbdock ($Id: //depot/dev/client3/rdock/2013.1/src/exe/rbdock.cxx#4 $)

>  <Rbt.Library>
libRbt.so (2013.1, Build901 2013/11/27)

>  <Rbt.Parameter_File>
/export/apps/rDock/src/rDock_2013.1_src/data/scripts/dock_solv.prm

>  <Rbt.Receptor>
prm/blind_docking_60.prm

>  <SCORE>
-6.9639

>  <SCORE.INTER>
1.2722

>  <SCORE.INTER.CONST>
1

>  <SCORE.INTER.POLAR>
0

>  <SCORE.INTER.ROT>
11

>  <SCORE.INTER.SOLV>
11.0545

>  <SCORE.INTER.VDW>
-13.77

>  <SCORE.INTER.norm>
0.0908715

>  <SCORE.INTRA>
-8.2361

>  <SCORE.INTRA.DIHEDRAL>
-17.6841

>  <SCORE.INTRA.DIHEDRAL.0>
20.2131

>  <SCORE.INTRA.POLAR>
0

>  <SCORE.INTRA.POLAR.0>
0

>  <SCORE.INTRA.REPUL>
0

>  <SCORE.INTRA.REPUL.0>
0

>  <SCORE.INTRA.SOLV>
1.45226

>  <SCORE.INTRA.SOLV.lig_0>
-48.2851

>  <SCORE.INTRA.VDW>
-0.120171

>  <SCORE.INTRA.VDW.0>
-1.08658

>  <SCORE.INTRA.norm>
-0.588293

>  <SCORE.RESTR>
0

>  <SCORE.RESTR.CAVITY>
0

>  <SCORE.RESTR.norm>
0

>  <SCORE.SYSTEM>
0

>  <SCORE.SYSTEM.CONST>
0

>  <SCORE.SYSTEM.DIHEDRAL>
0

>  <SCORE.SYSTEM.SOLV>
0

>  <SCORE.SYSTEM.norm>
0

>  <SCORE.heavy>
14

>  <SCORE.norm>
-0.497421

>  <RMSD>
29.501

$$$$
ligand
 OpenBabel11021811393D
libRbt.so/2013.1/901 2013/11/27
 14 13  0  0  0  0  0  0  0  0999 V2000
   48.5914   -1.1888   11.4237 N   0  0  0  0  0  0  0  0  0  0  0  0
   48.9494    0.0685   10.7855 C   0  0  0  0  0  0  0  0  0  0  0  0
   48.6533    1.2577   11.7404 C   0  0  0  0  0  0  0  0  0  0  0  0
   49.0052    2.7049   11.2430 C   0  0  0  0  0  0  0  0  0  0  0  0
   48.7371    3.8131   12.2312 N   0  0  0  0  0  0  0  0  0  0  0  0
   47.2915    4.1491   12.3824 C   0  0  0  0  0  0  0  0  0  0  0  0
   46.7623    3.9766   13.7945 C   0  0  0  0  0  0  0  0  0  0  0  0
   45.2810    4.2897   13.9044 C   0  0  0  0  0  0  0  0  0  0  0  0
   44.8846    4.0568   15.3118 C   0  0  0  0  0  0  0  0  0  0  0  0
   45.0159    2.6590   15.7887 N   0  0  0  0  0  0  0  0  0  0  0  0
   45.7996    2.5287   17.0426 C   0  0  0  0  0  0  0  0  0  0  0  0
   45.0437    1.9112   18.2567 C   0  0  0  0  0  0  0  0  0  0  0  0
   43.8172    2.7908   18.5568 C   0  0  0  0  0  0  0  0  0  0  0  0
   43.0548    2.2472   19.6778 N   0  0  0  0  0  0  0  0  0  0  0  0
  1  2  1  0  0  0  0
  2  3  1  0  0  0  0
  3  4  1  0  0  0  0
  4  5  1  0  0  0  0
  5  6  1  0  0  0  0
  6  7  1  0  0  0  0
  7  8  1  0  0  0  0
  8  9  1  0  0  0  0
  9 10  1  0  0  0  0
 10 11  1  0  0  0  0
 11 12  1  0  0  0  0
 12 13  1  0  0  0  0
 13 14  1  0  0  0  0
M  END
>  <CHROM.1>
178.60704591,-178.07182395,-74.89416535,120.45234226,-178.41606455,178.78501291
-63.40923131,127.44727871,119.52562868,-58.80199381,179.12997197,46.49199900
2.51913451,14.43839641,-0.13310621,-0.98108693,2.80855990

>  <Name>
ligand

>  <RI>
0

>  <Rbt.Current_Directory>
/home/itssahil/PROJECTS/Mol_Feturizer/New_Systems/rnas/1EVV

>  <Rbt.Executable>
rbdock ($Id: //depot/dev/client3/rdock/2013.1/src/exe/rbdock.cxx#4 $)

>  <Rbt.Library>
libRbt.so (2013.1, Build901 2013/11/27)

>  <Rbt.Parameter_File>
/export/apps/rDock/src/rDock_2013.1_src/data/scripts/dock_solv.prm

>  <Rbt.Receptor>
prm/blind_docking_100.prm

>  <SCORE>
-10.6936

>  <SCORE.INTER>
-2.18694

>  <SCORE.INTER.CONST>
1

>  <SCORE.INTER.POLAR>
0

>  <SCORE.INTER.ROT>
11

>  <SCORE.INTER.SOLV>
18.4096

>  <SCORE.INTER.VDW>
-18.5278

>  <SCORE.INTER.norm>
-0.15621

>  <SCORE.INTRA>
-8.50665

>  <SCORE.INTRA.DIHEDRAL>
-16.3959

>  <SCORE.INTRA.DIHEDRAL.0>
20.2131

>  <SCORE.INTRA.POLAR>
0

>  <SCORE.INTRA.POLAR.0>
0

>  <SCORE.INTRA.REPUL>
0

>  <SCORE.INTRA.REPUL.0>
0

>  <SCORE.INTRA.SOLV>
-0.632336

>  <SCORE.INTRA.SOLV.lig_0>
-48.2851

>  <SCORE.INTRA.VDW>
0.00748517

>  <SCORE.INTRA.VDW.0>
-1.08658

>  <SCORE.INTRA.norm>
-0.607618

>  <SCORE.RESTR>
0

>  <SCORE.RESTR.CAVITY>
0

>  <SCORE.RESTR.norm>
0

>  <SCORE.SYSTEM>
0

>  <SCORE.SYSTEM.CONST>
0

>  <SCORE.SYSTEM.DIHEDRAL>
0

>  <SCORE.SYSTEM.SOLV>
0

>  <SCORE.SYSTEM.norm>
0

>  <SCORE.heavy>
14

>  <SCORE.norm>
-0.763828

>  <RMSD>
29.551

$$$$
ligand
 OpenBabel11021811393D
libRbt.so/2013.1/901 2013/11/27
 14 13  0  0  0  0  0  0  0  0999 V2000
   43.0154    2.6095   18.9179 N   0  0  0  0  0  0  0  0  0  0  0  0
   44.4431    2.3322   18.8891 C   0  0  0  0  0  0  0  0  0  0  0  0
   44.9032    2.0395   17.4344 C   0  0  0  0  0  0  0  0  0  0  0  0
   44.2712    0.8052   16.6978 C   0  0  0  0  0  0  0  0  0  0  0  0
   44.8082    0.5308   15.3148 N   0  0  0  0  0  0  0  0  0  0  0  0
   44.1811   -0.6470   14.6476 C   0  0  0  0  0  0  0  0  0  0  0  0
   44.9665   -1.1744   13.4606 C   0  0  0  0  0  0  0  0  0  0  0  0
   45.0064   -0.1915   12.3046 C   0  0  0  0  0  0  0  0  0  0  0  0
   46.0800    0.7862   12.5942 C   0  0  0  0  0  0  0  0  0  0  0  0
   46.2636    1.8514   11.5795 N   0  0  0  0  0  0  0  0  0  0  0  0
   47.5970    2.5017   11.6331 C   0  0  0  0  0  0  0  0  0  0  0  0
   47.6140    3.9803   12.1232 C   0  0  0  0  0  0  0  0  0  0  0  0
   47.0878    4.0133   13.5689 C   0  0  0  0  0  0  0  0  0  0  0  0
   47.1202    5.3742   14.0983 N   0  0  0  0  0  0  0  0  0  0  0  0
  1  2  1  0  0  0  0
  2  3  1  0  0  0  0
  3  4  1  0  0  0  0
  4  5  1  0  0  0  0
  5  6  1  0  0  0  0
  6  7  1  0  0  0  0
  7  8  1  0  0  0  0
  8  9  1  0  0  0  0
  9 10  1  0  0  0  0
 10 11  1  0  0  0  0
 11 12  1  0  0  0  0
 12 13  1  0  0  0  0
 13 14  1  0  0  0  0
M  END
>  <CHROM.1>
-61.35372543,-177.02578352,-179.87947056,-163.16440050,-66.38876346,82.06762782
-179.13310435,-159.58890719,-110.80873985,62.07474753,178.22203533,45.52564277
1.77191122,14.51867443,-2.54842650,-1.00304844,-2.31987562

>  <Name>
ligand

>  <RI>
0

>  <Rbt.Current_Directory>
/home/itssahil/PROJECTS/Mol_Feturizer/New_Systems/rnas/1EVV

>  <Rbt.Executable>
rbdock ($Id: //depot/dev/client3/rdock/2013.1/src/exe/rbdock.cxx#4 $)

>  <Rbt.Library>
libRbt.so (2013.1, Build901 2013/11/27)

>  <Rbt.Parameter_File>
/export/apps/rDock/src/rDock_2013.1_src/data/scripts/dock_solv.prm

>  <Rbt.Receptor>
prm/blind_docking_100.prm

>  <SCORE>
-7.98833

>  <SCORE.INTER>
-0.224642

>  <SCORE.INTER.CONST>
1

>  <SCORE.INTER.POLAR>
0

>  <SCORE.INTER.ROT>
11

>  <SCORE.INTER.SOLV>
15.3574

>  <SCORE.INTER.VDW>
-16.2022

>  <SCORE.INTER.norm>
-0.0160458

>  <SCORE.INTRA>
-7.76369

>  <SCORE.INTRA.DIHEDRAL>
-16.5019

>  <SCORE.INTRA.DIHEDRAL.0>
20.2131

>  <SCORE.INTRA.POLAR>
0

>  <SCORE.INTRA.POLAR.0>
0

>  <SCORE.INTRA.REPUL>
0

>  <SCORE.INTRA.REPUL.0>
0

>  <SCORE.INTRA.SOLV>
0.76742

>  <SCORE.INTRA.SOLV.lig_0>
-48.2851

>  <SCORE.INTRA.VDW>
0.103574

>  <SCORE.INTRA.VDW.0>
-1.08658

>  <SCORE.INTRA.norm>
-0.554549

>  <SCORE.RESTR>
0

>  <SCORE.RESTR.CAVITY>
0

>  <SCORE.RESTR.norm>
0

>  <SCORE.SYSTEM>
0

>  <SCORE.SYSTEM.CONST>
0

>  <SCORE.SYSTEM.DIHEDRAL>
0

>  <SCORE.SYSTEM.SOLV>
0

>  <SCORE.SYSTEM.norm>
0

>  <SCORE.heavy>
14

>  <SCORE.norm>
-0.570595

>  <RMSD>
29.602

$$$$
ligand
 OpenBabel11021811393D
libRbt.so/2013.1/901 2013/11/27
 14 13  0  0  0  0  0  0  0  0999 V2000
   47.6646    0.3804   12.8963 N   0  0  0  0  0  0  0  0  0  0  0  0
   47.4388   -0.5133   11.7709 C   0  0  0  0  0  0  0  0  0  0  0  0
   46.0933   -0.1692   11.0745 C   0  0  0  0  0  0  0  0  0  0  0  0
   44.7646   -0.4530   11.8615 C   0  0  0  0  0  0  0  0  0  0  0  0
   44.5875    0.3309   13.1385 N   0  0  0  0  0  0  0  0  0  0  0  0
   43.2890    0.0754   13.8271 C   0  0  0  0  0  0  0  0  0  0  0  0
   43.0936    0.8852   15.0960 C   0  0  0  0  0  0  0  0  0  0  0  0
   44.1686    0.6132   16.1327 C   0  0  0  0  0  0  0  0  0  0  0  0
   43.8325    1.4090   17.3353 C   0  0  0  0  0  0  0  0  0  0  0  0
   43.6989    2.8694   17.1171 N   0  0  0  0  0  0  0  0  0  0  0  0
   44.9878    3.5499   16.8353 C   0  0  0  0  0  0  0  0  0  0  0  0
   45.2430    3.9351   15.3476 C   0  0  0  0  0  0  0  0  0  0  0  0
   46.6299    4.5953   15.2535 C   0  0  0  0  0  0  0  0  0  0  0  0
   46.9516    4.9235   13.8671 N   0  0  0  0  0  0  0  0  0  0  0  0
  1  2  1  0  0  0  0
  2  3  1  0  0  0  0
  3  4  1  0  0  0  0
  4  5  1  0  0  0  0
  5  6  1  0  0  0  0
  6  7  1  0  0  0  0
  7  8  1  0  0  0  0
  8  9  1  0  0  0  0
  9 10  1  0  0  0  0
 10 11  1  0  0  0  0
 11 12  1  0  0  0  0
 12 13  1  0  0  0  0
 13 14  1  0  0  0  0
M  END
>  <CHROM.1>
-68.27773854,62.87505081,177.60742068,-178.70950832,-59.61764578,-177.43697663
-57.03827281,-70.38379890,103.61807292,-178.76866182,177.38279118,45.17433571
1.60206023,14.39672720,-1.25954315,0.70328224,0.70553187

>  <Name>
ligand

>  <RI>
0

>  <Rbt.Current_Directory>
/home/itssahil/PROJECTS/Mol_Feturizer/New_Systems/rnas/1EVV

>  <Rbt.Executable>
rbdock ($Id: //depot/dev/client3/rdock/2013.1/src/exe/rbdock.cxx#4 $)

>  <Rbt.Library>
libRbt.so (2013.1, Build901 2013/11/27)

>  <Rbt.Parameter_File>
/export/apps/rDock/src/rDock_2013.1_src/data/scripts/dock_solv.prm

>  <Rbt.Receptor>
prm/blind_docking_80.prm

>  <SCORE>
-6.27286

>  <SCORE.INTER>
2.16368

>  <SCORE.INTER.CONST>
1

>  <SCORE.INTER.POLAR>
0

>  <SCORE.INTER.ROT>
11

>  <SCORE.INTER.SOLV>
9.16663

>  <SCORE.INTER.VDW>
-12.5464

>  <SCORE.INTER.norm>
0.154548

>  <SCORE.INTRA>
-8.43654

>  <SCORE.INTRA.DIHEDRAL>
-18.7489

>  <SCORE.INTRA.DIHEDRAL.0>
20.2131

>  <SCORE.INTRA.POLAR>
0

>  <SCORE.INTRA.POLAR.0>
0

>  <SCORE.INTRA.REPUL>
0

>  <SCORE.INTRA.REPUL.0>
0

>  <SCORE.INTRA.SOLV>
1.97088

>  <SCORE.INTRA.SOLV.lig_0>
-48.2851

>  <SCORE.INTRA.VDW>
-0.0475522

>  <SCORE.INTRA.VDW.0>
-1.08658

>  <SCORE.INTRA.norm>
-0.60261

>  <SCORE.RESTR>
0

>  <SCORE.RESTR.CAVITY>
0

>  <SCORE.RESTR.norm>
0

>  <SCORE.SYSTEM>
0

>  <SCORE.SYSTEM.CONST>
0

>  <SCORE.SYSTEM.DIHEDRAL>
0

>  <SCORE.SYSTEM.SOLV>
0

>  <SCORE.SYSTEM.norm>
0

>  <SCORE.heavy>
14

>  <SCORE.norm>
-0.448062

>  <RMSD>
29.683

$$$$
ligand
 OpenBabel11021811393D
libRbt.so/2013.1/901 2013/11/27
 14 13  0  0  0  0  0  0  0  0999 V2000
   47.9304    3.2917   14.0118 N   0  0  0  0  0  0  0  0  0  0  0  0
   48.4570    3.0901   12.6708 C   0  0  0  0  0  0  0  0  0  0  0  0
   47.2985    3.0810   11.6357 C   0  0  0  0  0  0  0  0  0  0  0  0
   46.2482    1.9167   11.7181 C   0  0  0  0  0  0  0  0  0  0  0  0
   45.3960    1.8993   12.9630 N   0  0  0  0  0  0  0  0  0  0  0  0
   44.7731    0.5741   13.2483 C   0  0  0  0  0  0  0  0  0  0  0  0
   44.2057    0.4480   14.6506 C   0  0  0  0  0  0  0  0  0  0  0  0
   43.0526    1.4028   14.9011 C   0  0  0  0  0  0  0  0  0  0  0  0
   41.8678    0.8562   14.2014 C   0  0  0  0  0  0  0  0  0  0  0  0
   40.6129    1.6266   14.3743 N   0  0  0  0  0  0  0  0  0  0  0  0
   39.3894    0.7864   14.3464 C   0  0  0  0  0  0  0  0  0  0  0  0
   38.0499    1.5424   14.0997 C   0  0  0  0  0  0  0  0  0  0  0  0
   37.8752    2.5868   15.2162 C   0  0  0  0  0  0  0  0  0  0  0  0
   37.6876    1.9331   16.5089 N   0  0  0  0  0  0  0  0  0  0  0  0
  1  2  1  0  0  0  0
  2  3  1  0  0  0  0
  3  4  1  0  0  0  0
  4  5  1  0  0  0  0
  5  6  1  0  0  0  0
  6  7  1  0  0  0  0
  7  8  1  0  0  0  0
  8  9  1  0  0  0  0
  9 10  1  0  0  0  0
 10 11  1  0  0  0  0
 11 12  1  0  0  0  0
 12 13  1  0  0  0  0
 13 14  1  0  0  0  0
M  END
>  <CHROM.1>
-65.09267335,65.59780404,-159.64433297,165.75953671,64.27014448,75.46911513
177.58890007,-148.46339327,-162.59646669,-58.96229033,-66.31366071,43.06036200
1.78806524,13.89594138,-0.07145074,0.27495511,0.60872567

>  <Name>
ligand

>  <RI>
0

>  <Rbt.Current_Directory>
/home/itssahil/PROJECTS/Mol_Feturizer/New_Systems/rnas/1EVV

>  <Rbt.Executable>
rbdock ($Id: //depot/dev/client3/rdock/2013.1/src/exe/rbdock.cxx#4 $)

>  <Rbt.Library>
libRbt.so (2013.1, Build901 2013/11/27)

>  <Rbt.Parameter_File>
/export/apps/rDock/src/rDock_2013.1_src/data/scripts/dock_solv.prm

>  <Rbt.Receptor>
prm/blind_docking_100.prm

>  <SCORE>
-6.95912

>  <SCORE.INTER>
-0.461193

>  <SCORE.INTER.CONST>
1

>  <SCORE.INTER.POLAR>
0

>  <SCORE.INTER.ROT>
11

>  <SCORE.INTER.SOLV>
10.6026

>  <SCORE.INTER.VDW>
-14.775

>  <SCORE.INTER.norm>
-0.0329423

>  <SCORE.INTRA>
-6.49793

>  <SCORE.INTRA.DIHEDRAL>
-17.4542

>  <SCORE.INTRA.DIHEDRAL.0>
20.2131

>  <SCORE.INTRA.POLAR>
0

>  <SCORE.INTRA.POLAR.0>
0

>  <SCORE.INTRA.REPUL>
0

>  <SCORE.INTRA.REPUL.0>
0

>  <SCORE.INTRA.SOLV>
3.67381

>  <SCORE.INTRA.SOLV.lig_0>
-48.2851

>  <SCORE.INTRA.VDW>
0.392252

>  <SCORE.INTRA.VDW.0>
-1.08658

>  <SCORE.INTRA.norm>
-0.464138

>  <SCORE.RESTR>
0

>  <SCORE.RESTR.CAVITY>
0

>  <SCORE.RESTR.norm>
0

>  <SCORE.SYSTEM>
0

>  <SCORE.SYSTEM.CONST>
0

>  <SCORE.SYSTEM.DIHEDRAL>
0

>  <SCORE.SYSTEM.SOLV>
0

>  <SCORE.SYSTEM.norm>
0

>  <SCORE.heavy>
14

>  <SCORE.norm>
-0.49708

>  <RMSD>
29.702

$$$$
ligand
 OpenBabel11021811393D
libRbt.so/2013.1/901 2013/11/27
 14 13  0  0  0  0  0  0  0  0999 V2000
   48.7184   -0.3435   12.0921 N   0  0  0  0  0  0  0  0  0  0  0  0
   48.0885   -1.6206   11.7948 C   0  0  0  0  0  0  0  0  0  0  0  0
   46.6093   -1.6124   12.2697 C   0  0  0  0  0  0  0  0  0  0  0  0
   46.3272   -1.3445   13.7909 C   0  0  0  0  0  0  0  0  0  0  0  0
   44.8784   -1.4221   14.2050 N   0  0  0  0  0  0  0  0  0  0  0  0
   44.6206   -0.9321   15.5903 C   0  0  0  0  0  0  0  0  0  0  0  0
   44.3528    0.5594   15.6775 C   0  0  0  0  0  0  0  0  0  0  0  0
   44.2575    1.0520   17.1101 C   0  0  0  0  0  0  0  0  0  0  0  0
   44.0165    2.5120   17.0590 C   0  0  0  0  0  0  0  0  0  0  0  0
   45.1166    3.3203   16.4803 N   0  0  0  0  0  0  0  0  0  0  0  0
   44.9408    3.6188   15.0368 C   0  0  0  0  0  0  0  0  0  0  0  0
   45.4159    5.0270   14.5701 C   0  0  0  0  0  0  0  0  0  0  0  0
   46.9368    5.1169   14.7862 C   0  0  0  0  0  0  0  0  0  0  0  0
   47.4298    6.4461   14.4347 N   0  0  0  0  0  0  0  0  0  0  0  0
  1  2  1  0  0  0  0
  2  3  1  0  0  0  0
  3  4  1  0  0  0  0
  4  5  1  0  0  0  0
  5  6  1  0  0  0  0
  6  7  1  0  0  0  0
  7  8  1  0  0  0  0
  8  9  1  0  0  0  0
  9 10  1  0  0  0  0
 10 11  1  0  0  0  0
 11 12  1  0  0  0  0
 12 13  1  0  0  0  0
 13 14  1  0  0  0  0
M  END
>  <CHROM.1>
-58.64499121,-176.85550942,-169.86443023,87.97304255,-173.23167108,179.17945405
-64.86142992,95.44111717,143.31417631,63.72805248,-176.84281248,45.83606982
1.45530590,14.63568358,-1.35268437,0.79270273,0.22236548

>  <Name>
ligand

>  <RI>
0

>  <Rbt.Current_Directory>
/home/itssahil/PROJECTS/Mol_Feturizer/New_Systems/rnas/1EVV

>  <Rbt.Executable>
rbdock ($Id: //depot/dev/client3/rdock/2013.1/src/exe/rbdock.cxx#4 $)

>  <Rbt.Library>
libRbt.so (2013.1, Build901 2013/11/27)

>  <Rbt.Parameter_File>
/export/apps/rDock/src/rDock_2013.1_src/data/scripts/dock_solv.prm

>  <Rbt.Receptor>
prm/blind_docking_60.prm

>  <SCORE>
-7.23381

>  <SCORE.INTER>
1.1651

>  <SCORE.INTER.CONST>
1

>  <SCORE.INTER.POLAR>
0

>  <SCORE.INTER.ROT>
11

>  <SCORE.INTER.SOLV>
7.85346

>  <SCORE.INTER.VDW>
-12.7744

>  <SCORE.INTER.norm>
0.0832212

>  <SCORE.INTRA>
-8.39891

>  <SCORE.INTRA.DIHEDRAL>
-17.6222

>  <SCORE.INTRA.DIHEDRAL.0>
20.2131

>  <SCORE.INTRA.POLAR>
0

>  <SCORE.INTRA.POLAR.0>
0

>  <SCORE.INTRA.REPUL>
0

>  <SCORE.INTRA.REPUL.0>
0

>  <SCORE.INTRA.SOLV>
0.0123051

>  <SCORE.INTRA.SOLV.lig_0>
-48.2851

>  <SCORE.INTRA.VDW>
0.406031

>  <SCORE.INTRA.VDW.0>
-1.08658

>  <SCORE.INTRA.norm>
-0.599922

>  <SCORE.RESTR>
0

>  <SCORE.RESTR.CAVITY>
0

>  <SCORE.RESTR.norm>
0

>  <SCORE.SYSTEM>
0

>  <SCORE.SYSTEM.CONST>
0

>  <SCORE.SYSTEM.DIHEDRAL>
0

>  <SCORE.SYSTEM.SOLV>
0

>  <SCORE.SYSTEM.norm>
0

>  <SCORE.heavy>
14

>  <SCORE.norm>
-0.516701

>  <RMSD>
29.702

$$$$
ligand
 OpenBabel11021811393D
libRbt.so/2013.1/901 2013/11/27
 14 13  0  0  0  0  0  0  0  0999 V2000
   46.4287    8.3003   13.8308 N   0  0  0  0  0  0  0  0  0  0  0  0
   45.8232    7.0502   13.3988 C   0  0  0  0  0  0  0  0  0  0  0  0
   46.6818    5.8460   13.8746 C   0  0  0  0  0  0  0  0  0  0  0  0
   46.1862    4.4009   13.5117 C   0  0  0  0  0  0  0  0  0  0  0  0
   44.8253    4.0289   14.0467 N   0  0  0  0  0  0  0  0  0  0  0  0
   44.8566    3.4426   15.4181 C   0  0  0  0  0  0  0  0  0  0  0  0
   44.8282    1.9251   15.4412 C   0  0  0  0  0  0  0  0  0  0  0  0
   43.5954    1.3545   14.7640 C   0  0  0  0  0  0  0  0  0  0  0  0
   43.7375   -0.1193   14.7593 C   0  0  0  0  0  0  0  0  0  0  0  0
   42.6666   -0.8613   14.0515 N   0  0  0  0  0  0  0  0  0  0  0  0
   42.9132   -2.3224   13.9623 C   0  0  0  0  0  0  0  0  0  0  0  0
   43.4902   -2.8339   12.6087 C   0  0  0  0  0  0  0  0  0  0  0  0
   44.8710   -2.1875   12.4003 C   0  0  0  0  0  0  0  0  0  0  0  0
   45.4624   -2.6301   11.1402 N   0  0  0  0  0  0  0  0  0  0  0  0
  1  2  1  0  0  0  0
  2  3  1  0  0  0  0
  3  4  1  0  0  0  0
  4  5  1  0  0  0  0
  5  6  1  0  0  0  0
  6  7  1  0  0  0  0
  7  8  1  0  0  0  0
  8  9  1  0  0  0  0
  9 10  1  0  0  0  0
 10 11  1  0  0  0  0
 11 12  1  0  0  0  0
 12 13  1  0  0  0  0
 13 14  1  0  0  0  0
M  END
>  <CHROM.1>
179.64509000,-59.92464505,-87.85367098,-97.19064335,-58.90248626,175.67089551
-175.97334058,174.62475739,-99.52114128,62.64831166,-179.89613741,44.74039916
1.81369714,13.80079485,-1.16558010,-0.88911291,-2.71394818

>  <Name>
ligand

>  <RI>
0

>  <Rbt.Current_Directory>
/home/itssahil/PROJECTS/Mol_Feturizer/New_Systems/rnas/1EVV

>  <Rbt.Executable>
rbdock ($Id: //depot/dev/client3/rdock/2013.1/src/exe/rbdock.cxx#4 $)

>  <Rbt.Library>
libRbt.so (2013.1, Build901 2013/11/27)

>  <Rbt.Parameter_File>
/export/apps/rDock/src/rDock_2013.1_src/data/scripts/dock_solv.prm

>  <Rbt.Receptor>
prm/blind_docking_60.prm

>  <SCORE>
-6.83249

>  <SCORE.INTER>
2.28355

>  <SCORE.INTER.CONST>
1

>  <SCORE.INTER.POLAR>
0

>  <SCORE.INTER.ROT>
11

>  <SCORE.INTER.SOLV>
9.50911

>  <SCORE.INTER.VDW>
-12.5807

>  <SCORE.INTER.norm>
0.163111

>  <SCORE.INTRA>
-9.11604

>  <SCORE.INTRA.DIHEDRAL>
-17.7784

>  <SCORE.INTRA.DIHEDRAL.0>
20.2131

>  <SCORE.INTRA.POLAR>
0

>  <SCORE.INTRA.POLAR.0>
0

>  <SCORE.INTRA.REPUL>
0

>  <SCORE.INTRA.REPUL.0>
0

>  <SCORE.INTRA.SOLV>
-0.333141

>  <SCORE.INTRA.SOLV.lig_0>
-48.2851

>  <SCORE.INTRA.VDW>
-0.0602901

>  <SCORE.INTRA.VDW.0>
-1.08658

>  <SCORE.INTRA.norm>
-0.651146

>  <SCORE.RESTR>
0

>  <SCORE.RESTR.CAVITY>
0

>  <SCORE.RESTR.norm>
0

>  <SCORE.SYSTEM>
0

>  <SCORE.SYSTEM.CONST>
0

>  <SCORE.SYSTEM.DIHEDRAL>
0

>  <SCORE.SYSTEM.SOLV>
0

>  <SCORE.SYSTEM.norm>
0

>  <SCORE.heavy>
14

>  <SCORE.norm>
-0.488035

>  <RMSD>
29.852

$$$$
ligand
 OpenBabel11021811393D
libRbt.so/2013.1/901 2013/11/27
 14 13  0  0  0  0  0  0  0  0999 V2000
   48.0271    4.5641   13.4848 N   0  0  0  0  0  0  0  0  0  0  0  0
   47.0451    3.7843   14.2222 C   0  0  0  0  0  0  0  0  0  0  0  0
   46.2144    4.7102   15.1529 C   0  0  0  0  0  0  0  0  0  0  0  0
   45.1216    4.0468   16.0645 C   0  0  0  0  0  0  0  0  0  0  0  0
   45.6353    3.0410   17.0651 N   0  0  0  0  0  0  0  0  0  0  0  0
   44.5616    2.2318   17.7116 C   0  0  0  0  0  0  0  0  0  0  0  0
   44.3377    0.8761   17.0667 C   0  0  0  0  0  0  0  0  0  0  0  0
   43.9031    0.9850   15.6163 C   0  0  0  0  0  0  0  0  0  0  0  0
   43.8632   -0.3882   15.0640 C   0  0  0  0  0  0  0  0  0  0  0  0
   43.3590   -0.5026   13.6744 N   0  0  0  0  0  0  0  0  0  0  0  0
   42.9135   -1.8718   13.3132 C   0  0  0  0  0  0  0  0  0  0  0  0
   43.4502   -2.4276   11.9605 C   0  0  0  0  0  0  0  0  0  0  0  0
   44.9807   -2.5496   12.0647 C   0  0  0  0  0  0  0  0  0  0  0  0
   45.5496   -2.9976   10.7962 N   0  0  0  0  0  0  0  0  0  0  0  0
  1  2  1  0  0  0  0
  2  3  1  0  0  0  0
  3  4  1  0  0  0  0
  4  5  1  0  0  0  0
  5  6  1  0  0  0  0
  6  7  1  0  0  0  0
  7  8  1  0  0  0  0
  8  9  1  0  0  0  0
  9 10  1  0  0  0  0
 10 11  1  0  0  0  0
 11 12  1  0  0  0  0
 12 13  1  0  0  0  0
 13 14  1  0  0  0  0
M  END
>  <CHROM.1>
-178.44253160,61.29400230,-168.04786295,96.81241814,-61.45312286,173.91526091
175.60687842,-160.96643053,-131.77598230,63.73448092,-176.86609159,44.92557398
0.96439304,14.51867097,-1.16434488,-0.84313695,-2.31056381

>  <Name>
ligand

>  <RI>
0

>  <Rbt.Current_Directory>
/home/itssahil/PROJECTS/Mol_Feturizer/New_Systems/rnas/1EVV

>  <Rbt.Executable>
rbdock ($Id: //depot/dev/client3/rdock/2013.1/src/exe/rbdock.cxx#4 $)

>  <Rbt.Library>
libRbt.so (2013.1, Build901 2013/11/27)

>  <Rbt.Parameter_File>
/export/apps/rDock/src/rDock_2013.1_src/data/scripts/dock_solv.prm

>  <Rbt.Receptor>
prm/blind_docking_80.prm

>  <SCORE>
-7.37043

>  <SCORE.INTER>
1.91303

>  <SCORE.INTER.CONST>
1

>  <SCORE.INTER.POLAR>
0

>  <SCORE.INTER.ROT>
11

>  <SCORE.INTER.SOLV>
8.02221

>  <SCORE.INTER.VDW>
-12.3321

>  <SCORE.INTER.norm>
0.136645

>  <SCORE.INTRA>
-9.28346

>  <SCORE.INTRA.DIHEDRAL>
-17.5865

>  <SCORE.INTRA.DIHEDRAL.0>
20.2131

>  <SCORE.INTRA.POLAR>
0

>  <SCORE.INTRA.POLAR.0>
0

>  <SCORE.INTRA.REPUL>
0

>  <SCORE.INTRA.REPUL.0>
0

>  <SCORE.INTRA.SOLV>
-0.354258

>  <SCORE.INTRA.SOLV.lig_0>
-48.2851

>  <SCORE.INTRA.VDW>
-0.313096

>  <SCORE.INTRA.VDW.0>
-1.08658

>  <SCORE.INTRA.norm>
-0.663104

>  <SCORE.RESTR>
0

>  <SCORE.RESTR.CAVITY>
0

>  <SCORE.RESTR.norm>
0

>  <SCORE.SYSTEM>
0

>  <SCORE.SYSTEM.CONST>
0

>  <SCORE.SYSTEM.DIHEDRAL>
0

>  <SCORE.SYSTEM.SOLV>
0

>  <SCORE.SYSTEM.norm>
0

>  <SCORE.heavy>
14

>  <SCORE.norm>
-0.526459

>  <RMSD>
29.942

$$$$
ligand
 OpenBabel11021811393D
libRbt.so/2013.1/901 2013/11/27
 14 13  0  0  0  0  0  0  0  0999 V2000
   45.8612   -3.3186   11.6193 N   0  0  0  0  0  0  0  0  0  0  0  0
   44.9251   -2.3311   12.1336 C   0  0  0  0  0  0  0  0  0  0  0  0
   43.6076   -3.0227   12.5803 C   0  0  0  0  0  0  0  0  0  0  0  0
   42.4344   -2.1111   13.0883 C   0  0  0  0  0  0  0  0  0  0  0  0
   42.7407   -1.2816   14.3109 N   0  0  0  0  0  0  0  0  0  0  0  0
   43.3833    0.0293   14.0041 C   0  0  0  0  0  0  0  0  0  0  0  0
   43.5259    0.9433   15.2076 C   0  0  0  0  0  0  0  0  0  0  0  0
   44.2921    0.2938   16.3456 C   0  0  0  0  0  0  0  0  0  0  0  0
   44.4100    1.2980   17.4272 C   0  0  0  0  0  0  0  0  0  0  0  0
   45.3737    2.3963   17.1759 N   0  0  0  0  0  0  0  0  0  0  0  0
   44.7364    3.6526   16.7077 C   0  0  0  0  0  0  0  0  0  0  0  0
   45.1695    4.1509   15.2968 C   0  0  0  0  0  0  0  0  0  0  0  0
   46.6757    4.4631   15.3391 C   0  0  0  0  0  0  0  0  0  0  0  0
   47.1197    5.0340   14.0701 N   0  0  0  0  0  0  0  0  0  0  0  0
  1  2  1  0  0  0  0
  2  3  1  0  0  0  0
  3  4  1  0  0  0  0
  4  5  1  0  0  0  0
  5  6  1  0  0  0  0
  6  7  1  0  0  0  0
  7  8  1  0  0  0  0
  8  9  1  0  0  0  0
  9 10  1  0  0  0  0
 10 11  1  0  0  0  0
 11 12  1  0  0  0  0
 12 13  1  0  0  0  0
 13 14  1  0  0  0  0
M  END
>  <CHROM.1>
-176.46831743,-61.14661166,86.40750504,172.33506397,56.22609800,177.70999285
-73.54890788,99.52076355,-118.71911584,-62.57370051,-175.61401731,44.58939369
0.72831197,14.66490646,-1.92750218,0.81033543,0.72907273

>  <Name>
ligand

>  <RI>
0

>  <Rbt.Current_Directory>
/home/itssahil/PROJECTS/Mol_Feturizer/New_Systems/rnas/1EVV

>  <Rbt.Executable>
rbdock ($Id: //depot/dev/client3/rdock/2013.1/src/exe/rbdock.cxx#4 $)

>  <Rbt.Library>
libRbt.so (2013.1, Build901 2013/11/27)

>  <Rbt.Parameter_File>
/export/apps/rDock/src/rDock_2013.1_src/data/scripts/dock_solv.prm

>  <Rbt.Receptor>
prm/blind_docking_60.prm

>  <SCORE>
-6.77029

>  <SCORE.INTER>
1.75101

>  <SCORE.INTER.CONST>
1

>  <SCORE.INTER.POLAR>
0

>  <SCORE.INTER.ROT>
11

>  <SCORE.INTER.SOLV>
9.00855

>  <SCORE.INTER.VDW>
-12.7688

>  <SCORE.INTER.norm>
0.125072

>  <SCORE.INTRA>
-8.5213

>  <SCORE.INTRA.DIHEDRAL>
-16.7011

>  <SCORE.INTRA.DIHEDRAL.0>
20.2131

>  <SCORE.INTRA.POLAR>
0

>  <SCORE.INTRA.POLAR.0>
0

>  <SCORE.INTRA.REPUL>
0

>  <SCORE.INTRA.REPUL.0>
0

>  <SCORE.INTRA.SOLV>
0.0100735

>  <SCORE.INTRA.SOLV.lig_0>
-48.2851

>  <SCORE.INTRA.VDW>
-0.175801

>  <SCORE.INTRA.VDW.0>
-1.08658

>  <SCORE.INTRA.norm>
-0.608664

>  <SCORE.RESTR>
0

>  <SCORE.RESTR.CAVITY>
0

>  <SCORE.RESTR.norm>
0

>  <SCORE.SYSTEM>
0

>  <SCORE.SYSTEM.CONST>
0

>  <SCORE.SYSTEM.DIHEDRAL>
0

>  <SCORE.SYSTEM.SOLV>
0

>  <SCORE.SYSTEM.norm>
0

>  <SCORE.heavy>
14

>  <SCORE.norm>
-0.483592

>  <RMSD>
29.974

$$$$
ligand
 OpenBabel11021811393D
libRbt.so/2013.1/901 2013/11/27
 14 13  0  0  0  0  0  0  0  0999 V2000
   47.8703    4.7881   14.5018 N   0  0  0  0  0  0  0  0  0  0  0  0
   47.0656    3.7052   13.9578 C   0  0  0  0  0  0  0  0  0  0  0  0
   46.8602    2.5992   15.0294 C   0  0  0  0  0  0  0  0  0  0  0  0
   46.0464    2.9687   16.3204 C   0  0  0  0  0  0  0  0  0  0  0  0
   44.6255    3.4183   16.0846 N   0  0  0  0  0  0  0  0  0  0  0  0
   43.6000    2.4188   16.5025 C   0  0  0  0  0  0  0  0  0  0  0  0
   43.5276    1.1968   15.6049 C   0  0  0  0  0  0  0  0  0  0  0  0
   44.3725    0.0451   16.1186 C   0  0  0  0  0  0  0  0  0  0  0  0
   44.4291   -0.9730   15.0450 C   0  0  0  0  0  0  0  0  0  0  0  0
   45.2899   -0.6318   13.8870 N   0  0  0  0  0  0  0  0  0  0  0  0
   44.5631    0.0449   12.7835 C   0  0  0  0  0  0  0  0  0  0  0  0
   45.4247    0.4564   11.5527 C   0  0  0  0  0  0  0  0  0  0  0  0
   45.9194   -0.8268   10.8621 C   0  0  0  0  0  0  0  0  0  0  0  0
   46.8498   -1.5505   11.7246 N   0  0  0  0  0  0  0  0  0  0  0  0
  1  2  1  0  0  0  0
  2  3  1  0  0  0  0
  3  4  1  0  0  0  0
  4  5  1  0  0  0  0
  5  6  1  0  0  0  0
  6  7  1  0  0  0  0
  7  8  1  0  0  0  0
  8  9  1  0  0  0  0
  9 10  1  0  0  0  0
 10 11  1  0  0  0  0
 11 12  1  0  0  0  0
 12 13  1  0  0  0  0
 13 14  1  0  0  0  0
M  END
>  <CHROM.1>
64.46413171,60.19772800,108.01084106,-71.38784150,94.37546492,-169.30607907
73.56349712,-92.36487836,178.66699047,66.53215019,-66.43937437,45.46000694
1.26127449,14.28402645,-1.55226619,-0.78819980,-2.41136673

>  <Name>
ligand

>  <RI>
0

>  <Rbt.Current_Directory>
/home/itssahil/PROJECTS/Mol_Feturizer/New_Systems/rnas/1EVV

>  <Rbt.Executable>
rbdock ($Id: //depot/dev/client3/rdock/2013.1/src/exe/rbdock.cxx#4 $)

>  <Rbt.Library>
libRbt.so (2013.1, Build901 2013/11/27)

>  <Rbt.Parameter_File>
/export/apps/rDock/src/rDock_2013.1_src/data/scripts/dock_solv.prm

>  <Rbt.Receptor>
prm/blind_docking_60.prm

>  <SCORE>
-2.66764

>  <SCORE.INTER>
2.43374

>  <SCORE.INTER.CONST>
1

>  <SCORE.INTER.POLAR>
0

>  <SCORE.INTER.ROT>
11

>  <SCORE.INTER.SOLV>
7.98026

>  <SCORE.INTER.VDW>
-11.9709

>  <SCORE.INTER.norm>
0.173839

>  <SCORE.INTRA>
-5.10138

>  <SCORE.INTRA.DIHEDRAL>
-13.4366

>  <SCORE.INTRA.DIHEDRAL.0>
20.2131

>  <SCORE.INTRA.POLAR>
0

>  <SCORE.INTRA.POLAR.0>
0

>  <SCORE.INTRA.REPUL>
0

>  <SCORE.INTRA.REPUL.0>
0

>  <SCORE.INTRA.SOLV>
4.06856

>  <SCORE.INTRA.SOLV.lig_0>
-48.2851

>  <SCORE.INTRA.VDW>
-0.417351

>  <SCORE.INTRA.VDW.0>
-1.08658

>  <SCORE.INTRA.norm>
-0.364384

>  <SCORE.RESTR>
0

>  <SCORE.RESTR.CAVITY>
0

>  <SCORE.RESTR.norm>
0

>  <SCORE.SYSTEM>
0

>  <SCORE.SYSTEM.CONST>
0

>  <SCORE.SYSTEM.DIHEDRAL>
0

>  <SCORE.SYSTEM.SOLV>
0

>  <SCORE.SYSTEM.norm>
0

>  <SCORE.heavy>
14

>  <SCORE.norm>
-0.190546

>  <RMSD>
29.981

$$$$
ligand
 OpenBabel11021811393D
libRbt.so/2013.1/901 2013/11/27
 14 13  0  0  0  0  0  0  0  0999 V2000
   45.6587   -2.5944   12.0439 N   0  0  0  0  0  0  0  0  0  0  0  0
   44.2861   -3.0425   11.8668 C   0  0  0  0  0  0  0  0  0  0  0  0
   43.3019   -2.0156   12.4918 C   0  0  0  0  0  0  0  0  0  0  0  0
   43.3150   -1.8406   14.0521 C   0  0  0  0  0  0  0  0  0  0  0  0
   44.6182   -1.3575   14.6394 N   0  0  0  0  0  0  0  0  0  0  0  0
   44.4635   -0.2282   15.6018 C   0  0  0  0  0  0  0  0  0  0  0  0
   44.2881    1.1267   14.9404 C   0  0  0  0  0  0  0  0  0  0  0  0
   45.4294    1.4685   13.9997 C   0  0  0  0  0  0  0  0  0  0  0  0
   45.1988    2.8465   13.5094 C   0  0  0  0  0  0  0  0  0  0  0  0
   45.3490    3.9179   14.5232 N   0  0  0  0  0  0  0  0  0  0  0  0
   45.0729    5.2784   13.9974 C   0  0  0  0  0  0  0  0  0  0  0  0
   46.1775    5.8934   13.0873 C   0  0  0  0  0  0  0  0  0  0  0  0
   45.7826    7.3460   12.7676 C   0  0  0  0  0  0  0  0  0  0  0  0
   45.8801    8.1814   13.9617 N   0  0  0  0  0  0  0  0  0  0  0  0
  1  2  1  0  0  0  0
  2  3  1  0  0  0  0
  3  4  1  0  0  0  0
  4  5  1  0  0  0  0
  5  6  1  0  0  0  0
  6  7  1  0  0  0  0
  7  8  1  0  0  0  0
  8  9  1  0  0  0  0
  9 10  1  0  0  0  0
 10 11  1  0  0  0  0
 11 12  1  0  0  0  0
 12 13  1  0  0  0  0
 13 14  1  0  0  0  0
M  END
>  <CHROM.1>
-66.94634390,61.55382332,131.84292665,-79.81104994,-56.66921500,-175.45404031
68.70588017,-178.42652600,-74.67906918,-174.10004665,69.26518313,44.91566137
1.78419001,13.67727699,-2.16344594,1.26590832,0.61536274

>  <Name>
ligand

>  <RI>
0

>  <Rbt.Current_Directory>
/home/itssahil/PROJECTS/Mol_Feturizer/New_Systems/rnas/1EVV

>  <Rbt.Executable>
rbdock ($Id: //depot/dev/client3/rdock/2013.1/src/exe/rbdock.cxx#4 $)

>  <Rbt.Library>
libRbt.so (2013.1, Build901 2013/11/27)

>  <Rbt.Parameter_File>
/export/apps/rDock/src/rDock_2013.1_src/data/scripts/dock_solv.prm

>  <Rbt.Receptor>
prm/blind_docking_80.prm

>  <SCORE>
-6.73304

>  <SCORE.INTER>
0.586872

>  <SCORE.INTER.CONST>
1

>  <SCORE.INTER.POLAR>
0

>  <SCORE.INTER.ROT>
11

>  <SCORE.INTER.SOLV>
9.54017

>  <SCORE.INTER.VDW>
-13.7221

>  <SCORE.INTER.norm>
0.0419194

>  <SCORE.INTRA>
-7.31991

>  <SCORE.INTRA.DIHEDRAL>
-17.6105

>  <SCORE.INTRA.DIHEDRAL.0>
20.2131

>  <SCORE.INTRA.POLAR>
0

>  <SCORE.INTRA.POLAR.0>
0

>  <SCORE.INTRA.REPUL>
0

>  <SCORE.INTRA.REPUL.0>
0

>  <SCORE.INTRA.SOLV>
2.76116

>  <SCORE.INTRA.SOLV.lig_0>
-48.2851

>  <SCORE.INTRA.VDW>
0.104774

>  <SCORE.INTRA.VDW.0>
-1.08658

>  <SCORE.INTRA.norm>
-0.52285

>  <SCORE.RESTR>
0

>  <SCORE.RESTR.CAVITY>
0

>  <SCORE.RESTR.norm>
0

>  <SCORE.SYSTEM>
0

>  <SCORE.SYSTEM.CONST>
0

>  <SCORE.SYSTEM.DIHEDRAL>
0

>  <SCORE.SYSTEM.SOLV>
0

>  <SCORE.SYSTEM.norm>
0

>  <SCORE.heavy>
14

>  <SCORE.norm>
-0.480931

>  <RMSD>
29.988

$$$$
ligand
 OpenBabel11021811393D
libRbt.so/2013.1/901 2013/11/27
 14 13  0  0  0  0  0  0  0  0999 V2000
   48.3537    4.3977   13.5051 N   0  0  0  0  0  0  0  0  0  0  0  0
   47.2684    4.3758   12.5367 C   0  0  0  0  0  0  0  0  0  0  0  0
   47.5883    3.3715   11.3954 C   0  0  0  0  0  0  0  0  0  0  0  0
   47.7794    1.8607   11.7778 C   0  0  0  0  0  0  0  0  0  0  0  0
   46.5610    1.1770   12.3476 N   0  0  0  0  0  0  0  0  0  0  0  0
   46.2589    1.5606   13.7573 C   0  0  0  0  0  0  0  0  0  0  0  0
   45.2148    0.6842   14.4251 C   0  0  0  0  0  0  0  0  0  0  0  0
   43.8614    0.7666   13.7427 C   0  0  0  0  0  0  0  0  0  0  0  0
   42.9094   -0.0245   14.5551 C   0  0  0  0  0  0  0  0  0  0  0  0
   41.5569   -0.1911   13.9708 N   0  0  0  0  0  0  0  0  0  0  0  0
   40.6492    0.9536   14.2339 C   0  0  0  0  0  0  0  0  0  0  0  0
   39.1617    0.5909   14.5209 C   0  0  0  0  0  0  0  0  0  0  0  0
   38.3783    1.9000   14.7226 C   0  0  0  0  0  0  0  0  0  0  0  0
   36.9948    1.6202   15.0983 N   0  0  0  0  0  0  0  0  0  0  0  0
  1  2  1  0  0  0  0
  2  3  1  0  0  0  0
  3  4  1  0  0  0  0
  4  5  1  0  0  0  0
  5  6  1  0  0  0  0
  6  7  1  0  0  0  0
  7  8  1  0  0  0  0
  8  9  1  0  0  0  0
  9 10  1  0  0  0  0
 10 11  1  0  0  0  0
 11 12  1  0  0  0  0
 12 13  1  0  0  0  0
 13 14  1  0  0  0  0
M  END
>  <CHROM.1>
61.16428029,63.81966730,-74.87911751,-168.48481343,-62.73354981,-174.81204785
-173.53400853,-83.45222831,-141.99983572,-178.23807153,-175.61210108,43.75274544
1.64589570,13.61347144,0.24057257,0.21606842,-0.12502155

>  <Name>
ligand

>  <RI>
0

>  <Rbt.Current_Directory>
/home/itssahil/PROJECTS/Mol_Feturizer/New_Systems/rnas/1EVV

>  <Rbt.Executable>
rbdock ($Id: //depot/dev/client3/rdock/2013.1/src/exe/rbdock.cxx#4 $)

>  <Rbt.Library>
libRbt.so (2013.1, Build901 2013/11/27)

>  <Rbt.Parameter_File>
/export/apps/rDock/src/rDock_2013.1_src/data/scripts/dock_solv.prm

>  <Rbt.Receptor>
prm/blind_docking_100.prm

>  <SCORE>
-7.55027

>  <SCORE.INTER>
0.653315

>  <SCORE.INTER.CONST>
1

>  <SCORE.INTER.POLAR>
0

>  <SCORE.INTER.ROT>
11

>  <SCORE.INTER.SOLV>
8.75935

>  <SCORE.INTER.VDW>
-13.4176

>  <SCORE.INTER.norm>
0.0466653

>  <SCORE.INTRA>
-8.20358

>  <SCORE.INTRA.DIHEDRAL>
-18.2504

>  <SCORE.INTRA.DIHEDRAL.0>
20.2131

>  <SCORE.INTRA.POLAR>
0

>  <SCORE.INTRA.POLAR.0>
0

>  <SCORE.INTRA.REPUL>
0

>  <SCORE.INTRA.REPUL.0>
0

>  <SCORE.INTRA.SOLV>
1.37341

>  <SCORE.INTRA.SOLV.lig_0>
-48.2851

>  <SCORE.INTRA.VDW>
0.234927

>  <SCORE.INTRA.VDW.0>
-1.08658

>  <SCORE.INTRA.norm>
-0.58597

>  <SCORE.RESTR>
0

>  <SCORE.RESTR.CAVITY>
0

>  <SCORE.RESTR.norm>
0

>  <SCORE.SYSTEM>
0

>  <SCORE.SYSTEM.CONST>
0

>  <SCORE.SYSTEM.DIHEDRAL>
0

>  <SCORE.SYSTEM.SOLV>
0

>  <SCORE.SYSTEM.norm>
0

>  <SCORE.heavy>
14

>  <SCORE.norm>
-0.539305

>  <RMSD>
30.014

$$$$
ligand
 OpenBabel11021811393D
libRbt.so/2013.1/901 2013/11/27
 14 13  0  0  0  0  0  0  0  0999 V2000
   45.5511    1.7518   18.5855 N   0  0  0  0  0  0  0  0  0  0  0  0
   44.4038    2.6401   18.4809 C   0  0  0  0  0  0  0  0  0  0  0  0
   43.7229    2.4755   17.0942 C   0  0  0  0  0  0  0  0  0  0  0  0
   44.5698    2.8103   15.8151 C   0  0  0  0  0  0  0  0  0  0  0  0
   45.0912    4.2239   15.7345 N   0  0  0  0  0  0  0  0  0  0  0  0
   45.1736    4.7574   14.3438 C   0  0  0  0  0  0  0  0  0  0  0  0
   46.5552    4.6535   13.7238 C   0  0  0  0  0  0  0  0  0  0  0  0
   47.0099    3.2157   13.5503 C   0  0  0  0  0  0  0  0  0  0  0  0
   48.3749    3.2513   12.9777 C   0  0  0  0  0  0  0  0  0  0  0  0
   48.9783    1.9291   12.6842 N   0  0  0  0  0  0  0  0  0  0  0  0
   48.5850    1.3746   11.3645 C   0  0  0  0  0  0  0  0  0  0  0  0
   49.0740   -0.0731   11.0614 C   0  0  0  0  0  0  0  0  0  0  0  0
   48.4065   -1.0262   12.0683 C   0  0  0  0  0  0  0  0  0  0  0  0
   48.8847   -2.3933   11.8791 N   0  0  0  0  0  0  0  0  0  0  0  0
  1  2  1  0  0  0  0
  2  3  1  0  0  0  0
  3  4  1  0  0  0  0
  4  5  1  0  0  0  0
  5  6  1  0  0  0  0
  6  7  1  0  0  0  0
  7  8  1  0  0  0  0
  8  9  1  0  0  0  0
  9 10  1  0  0  0  0
 10 11  1  0  0  0  0
 11 12  1  0  0  0  0
 12 13  1  0  0  0  0
 13 14  1  0  0  0  0
M  END
>  <CHROM.1>
-61.30910847,-59.56486343,-146.88910080,-97.42886220,63.84449143,-178.41571051
-177.77784720,84.30564039,-174.16508571,64.21351724,-176.91087148,46.74134539
2.11390257,14.24002194,2.98064485,0.96906209,-0.35177410

>  <Name>
ligand

>  <RI>
0

>  <Rbt.Current_Directory>
/home/itssahil/PROJECTS/Mol_Feturizer/New_Systems/rnas/1EVV

>  <Rbt.Executable>
rbdock ($Id: //depot/dev/client3/rdock/2013.1/src/exe/rbdock.cxx#4 $)

>  <Rbt.Library>
libRbt.so (2013.1, Build901 2013/11/27)

>  <Rbt.Parameter_File>
/export/apps/rDock/src/rDock_2013.1_src/data/scripts/dock_solv.prm

>  <Rbt.Receptor>
prm/blind_docking_60.prm

>  <SCORE>
-7.42797

>  <SCORE.INTER>
1.13747

>  <SCORE.INTER.CONST>
1

>  <SCORE.INTER.POLAR>
0

>  <SCORE.INTER.ROT>
11

>  <SCORE.INTER.SOLV>
14.5823

>  <SCORE.INTER.VDW>
-15.0358

>  <SCORE.INTER.norm>
0.0812476

>  <SCORE.INTRA>
-8.56543

>  <SCORE.INTRA.DIHEDRAL>
-18.0417

>  <SCORE.INTRA.DIHEDRAL.0>
20.2131

>  <SCORE.INTRA.POLAR>
0

>  <SCORE.INTRA.POLAR.0>
0

>  <SCORE.INTRA.REPUL>
0

>  <SCORE.INTRA.REPUL.0>
0

>  <SCORE.INTRA.SOLV>
0.892328

>  <SCORE.INTRA.SOLV.lig_0>
-48.2851

>  <SCORE.INTRA.VDW>
0.00926846

>  <SCORE.INTRA.VDW.0>
-1.08658

>  <SCORE.INTRA.norm>
-0.611817

>  <SCORE.RESTR>
0

>  <SCORE.RESTR.CAVITY>
0

>  <SCORE.RESTR.norm>
0

>  <SCORE.SYSTEM>
0

>  <SCORE.SYSTEM.CONST>
0

>  <SCORE.SYSTEM.DIHEDRAL>
0

>  <SCORE.SYSTEM.SOLV>
0

>  <SCORE.SYSTEM.norm>
0

>  <SCORE.heavy>
14

>  <SCORE.norm>
-0.530569

>  <RMSD>
30.028

$$$$
ligand
 OpenBabel11021811393D
libRbt.so/2013.1/901 2013/11/27
 14 13  0  0  0  0  0  0  0  0999 V2000
   48.3051   -2.3522   10.6867 N   0  0  0  0  0  0  0  0  0  0  0  0
   49.0745   -1.1177   10.6960 C   0  0  0  0  0  0  0  0  0  0  0  0
   48.1760    0.0708   11.1362 C   0  0  0  0  0  0  0  0  0  0  0  0
   48.8531    1.4755   11.3198 C   0  0  0  0  0  0  0  0  0  0  0  0
   47.9259    2.5938   11.7277 N   0  0  0  0  0  0  0  0  0  0  0  0
   48.6153    3.7334   12.3995 C   0  0  0  0  0  0  0  0  0  0  0  0
   47.7964    4.3905   13.4956 C   0  0  0  0  0  0  0  0  0  0  0  0
   46.6045    5.1579   12.9527 C   0  0  0  0  0  0  0  0  0  0  0  0
   45.6842    5.4024   14.0864 C   0  0  0  0  0  0  0  0  0  0  0  0
   45.0051    4.2006   14.6275 N   0  0  0  0  0  0  0  0  0  0  0  0
   45.1369    4.0536   16.0988 C   0  0  0  0  0  0  0  0  0  0  0  0
   44.3752    2.8523   16.7338 C   0  0  0  0  0  0  0  0  0  0  0  0
   44.5502    2.9257   18.2609 C   0  0  0  0  0  0  0  0  0  0  0  0
   43.8686    1.8100   18.9122 N   0  0  0  0  0  0  0  0  0  0  0  0
  1  2  1  0  0  0  0
  2  3  1  0  0  0  0
  3  4  1  0  0  0  0
  4  5  1  0  0  0  0
  5  6  1  0  0  0  0
  6  7  1  0  0  0  0
  7  8  1  0  0  0  0
  8  9  1  0  0  0  0
  9 10  1  0  0  0  0
 10 11  1  0  0  0  0
 11 12  1  0  0  0  0
 12 13  1  0  0  0  0
 13 14  1  0  0  0  0
M  END
>  <CHROM.1>
175.23672389,179.10645162,157.25932781,-144.85260089,-69.60750579,163.58287197
-69.00250117,128.49761782,176.66582557,-176.07081847,-179.28186872,46.71238847
2.51444013,13.79518590,0.38610898,-0.99974963,3.07182721

>  <Name>
ligand

>  <RI>
0

>  <Rbt.Current_Directory>
/home/itssahil/PROJECTS/Mol_Feturizer/New_Systems/rnas/1EVV

>  <Rbt.Executable>
rbdock ($Id: //depot/dev/client3/rdock/2013.1/src/exe/rbdock.cxx#4 $)

>  <Rbt.Library>
libRbt.so (2013.1, Build901 2013/11/27)

>  <Rbt.Parameter_File>
/export/apps/rDock/src/rDock_2013.1_src/data/scripts/dock_solv.prm

>  <Rbt.Receptor>
prm/blind_docking_80.prm

>  <SCORE>
-7.9227

>  <SCORE.INTER>
0.625426

>  <SCORE.INTER.CONST>
1

>  <SCORE.INTER.POLAR>
0

>  <SCORE.INTER.ROT>
11

>  <SCORE.INTER.SOLV>
17.2425

>  <SCORE.INTER.VDW>
-16.2639

>  <SCORE.INTER.norm>
0.0446733

>  <SCORE.INTRA>
-8.54813

>  <SCORE.INTRA.DIHEDRAL>
-16.0712

>  <SCORE.INTRA.DIHEDRAL.0>
20.2131

>  <SCORE.INTRA.POLAR>
0

>  <SCORE.INTRA.POLAR.0>
0

>  <SCORE.INTRA.REPUL>
0

>  <SCORE.INTRA.REPUL.0>
0

>  <SCORE.INTRA.SOLV>
-0.558711

>  <SCORE.INTRA.SOLV.lig_0>
-48.2851

>  <SCORE.INTRA.VDW>
-0.233174

>  <SCORE.INTRA.VDW.0>
-1.08658

>  <SCORE.INTRA.norm>
-0.610581

>  <SCORE.RESTR>
0

>  <SCORE.RESTR.CAVITY>
0

>  <SCORE.RESTR.norm>
0

>  <SCORE.SYSTEM>
0

>  <SCORE.SYSTEM.CONST>
0

>  <SCORE.SYSTEM.DIHEDRAL>
0

>  <SCORE.SYSTEM.SOLV>
0

>  <SCORE.SYSTEM.norm>
0

>  <SCORE.heavy>
14

>  <SCORE.norm>
-0.565907

>  <RMSD>
30.132

$$$$
ligand
 OpenBabel11021811393D
libRbt.so/2013.1/901 2013/11/27
 14 13  0  0  0  0  0  0  0  0999 V2000
   44.5774    1.9348   17.3652 N   0  0  0  0  0  0  0  0  0  0  0  0
   45.5570    2.6452   16.5578 C   0  0  0  0  0  0  0  0  0  0  0  0
   44.8462    3.6684   15.6296 C   0  0  0  0  0  0  0  0  0  0  0  0
   45.7303    4.4811   14.6181 C   0  0  0  0  0  0  0  0  0  0  0  0
   46.3421    3.6751   13.4989 N   0  0  0  0  0  0  0  0  0  0  0  0
   47.1877    4.4795   12.5696 C   0  0  0  0  0  0  0  0  0  0  0  0
   47.6582    3.7151   11.3455 C   0  0  0  0  0  0  0  0  0  0  0  0
   49.0952    3.2420   11.4702 C   0  0  0  0  0  0  0  0  0  0  0  0
   49.0673    1.9178   12.1320 C   0  0  0  0  0  0  0  0  0  0  0  0
   48.6077    1.9186   13.5416 N   0  0  0  0  0  0  0  0  0  0  0  0
   48.6148    0.5743   14.1712 C   0  0  0  0  0  0  0  0  0  0  0  0
   47.5714   -0.4417   13.6184 C   0  0  0  0  0  0  0  0  0  0  0  0
   46.1683    0.1630   13.8018 C   0  0  0  0  0  0  0  0  0  0  0  0
   45.1396   -0.7840   13.3794 N   0  0  0  0  0  0  0  0  0  0  0  0
  1  2  1  0  0  0  0
  2  3  1  0  0  0  0
  3  4  1  0  0  0  0
  4  5  1  0  0  0  0
  5  6  1  0  0  0  0
  6  7  1  0  0  0  0
  7  8  1  0  0  0  0
  8  9  1  0  0  0  0
  9 10  1  0  0  0  0
 10 11  1  0  0  0  0
 11 12  1  0  0  0  0
 12 13  1  0  0  0  0
 13 14  1  0  0  0  0
M  END
>  <CHROM.1>
-176.65262260,68.28301007,-179.29293419,-172.51867674,-101.01587459,88.02951714
-66.50163908,-179.14316478,-68.23900245,-58.53101515,-176.32785958,46.86908501
2.22802864,13.83542446,-2.97795234,0.84707968,-0.13856608

>  <Name>
ligand

>  <RI>
0

>  <Rbt.Current_Directory>
/home/itssahil/PROJECTS/Mol_Feturizer/New_Systems/rnas/1EVV

>  <Rbt.Executable>
rbdock ($Id: //depot/dev/client3/rdock/2013.1/src/exe/rbdock.cxx#4 $)

>  <Rbt.Library>
libRbt.so (2013.1, Build901 2013/11/27)

>  <Rbt.Parameter_File>
/export/apps/rDock/src/rDock_2013.1_src/data/scripts/dock_solv.prm

>  <Rbt.Receptor>
prm/blind_docking_80.prm

>  <SCORE>
-4.80667

>  <SCORE.INTER>
0.883152

>  <SCORE.INTER.CONST>
1

>  <SCORE.INTER.POLAR>
0

>  <SCORE.INTER.ROT>
11

>  <SCORE.INTER.SOLV>
8.03971

>  <SCORE.INTER.VDW>
-13.0245

>  <SCORE.INTER.norm>
0.0630823

>  <SCORE.INTRA>
-5.68982

>  <SCORE.INTRA.DIHEDRAL>
-12.5865

>  <SCORE.INTRA.DIHEDRAL.0>
20.2131

>  <SCORE.INTRA.POLAR>
0

>  <SCORE.INTRA.POLAR.0>
0

>  <SCORE.INTRA.REPUL>
0

>  <SCORE.INTRA.REPUL.0>
0

>  <SCORE.INTRA.SOLV>
2.92378

>  <SCORE.INTRA.SOLV.lig_0>
-48.2851

>  <SCORE.INTRA.VDW>
-0.858456

>  <SCORE.INTRA.VDW.0>
-1.08658

>  <SCORE.INTRA.norm>
-0.406416

>  <SCORE.RESTR>
0

>  <SCORE.RESTR.CAVITY>
0

>  <SCORE.RESTR.norm>
0

>  <SCORE.SYSTEM>
0

>  <SCORE.SYSTEM.CONST>
0

>  <SCORE.SYSTEM.DIHEDRAL>
0

>  <SCORE.SYSTEM.SOLV>
0

>  <SCORE.SYSTEM.norm>
0

>  <SCORE.heavy>
14

>  <SCORE.norm>
-0.343334

>  <RMSD>
30.152

$$$$
ligand
 OpenBabel11021811393D
libRbt.so/2013.1/901 2013/11/27
 14 13  0  0  0  0  0  0  0  0999 V2000
   49.5912   -0.5439   11.5694 N   0  0  0  0  0  0  0  0  0  0  0  0
   48.4286    0.2646   11.2363 C   0  0  0  0  0  0  0  0  0  0  0  0
   48.6501    1.7342   11.6887 C   0  0  0  0  0  0  0  0  0  0  0  0
   47.4585    2.7427   11.5200 C   0  0  0  0  0  0  0  0  0  0  0  0
   47.7610    4.1724   11.8958 N   0  0  0  0  0  0  0  0  0  0  0  0
   47.7347    4.4276   13.3654 C   0  0  0  0  0  0  0  0  0  0  0  0
   46.9331    5.6531   13.7647 C   0  0  0  0  0  0  0  0  0  0  0  0
   45.4488    5.4941   13.4896 C   0  0  0  0  0  0  0  0  0  0  0  0
   44.8850    4.6648   14.5791 C   0  0  0  0  0  0  0  0  0  0  0  0
   45.3004    3.2416   14.5777 N   0  0  0  0  0  0  0  0  0  0  0  0
   44.6935    2.4429   15.6720 C   0  0  0  0  0  0  0  0  0  0  0  0
   44.6936    0.8985   15.4683 C   0  0  0  0  0  0  0  0  0  0  0  0
   43.8717    0.5803   14.2069 C   0  0  0  0  0  0  0  0  0  0  0  0
   43.8445   -0.8588   13.9588 N   0  0  0  0  0  0  0  0  0  0  0  0
  1  2  1  0  0  0  0
  2  3  1  0  0  0  0
  3  4  1  0  0  0  0
  4  5  1  0  0  0  0
  5  6  1  0  0  0  0
  6  7  1  0  0  0  0
  7  8  1  0  0  0  0
  8  9  1  0  0  0  0
  9 10  1  0  0  0  0
 10 11  1  0  0  0  0
 11 12  1  0  0  0  0
 12 13  1  0  0  0  0
 13 14  1  0  0  0  0
M  END
>  <CHROM.1>
-175.23219349,-176.32509950,-79.10020598,-132.11266109,66.57151358,78.75236302
-69.53398925,-178.98678234,160.47503529,-61.24898818,179.58675979,46.37809679
2.49427810,13.35677597,0.44500491,-0.64344839,-3.02559759

>  <Name>
ligand

>  <RI>
0

>  <Rbt.Current_Directory>
/home/itssahil/PROJECTS/Mol_Feturizer/New_Systems/rnas/1EVV

>  <Rbt.Executable>
rbdock ($Id: //depot/dev/client3/rdock/2013.1/src/exe/rbdock.cxx#4 $)

>  <Rbt.Library>
libRbt.so (2013.1, Build901 2013/11/27)

>  <Rbt.Parameter_File>
/export/apps/rDock/src/rDock_2013.1_src/data/scripts/dock_solv.prm

>  <Rbt.Receptor>
prm/blind_docking_100.prm

>  <SCORE>
-5.99348

>  <SCORE.INTER>
1.65672

>  <SCORE.INTER.CONST>
1

>  <SCORE.INTER.POLAR>
0

>  <SCORE.INTER.ROT>
11

>  <SCORE.INTER.SOLV>
8.80709

>  <SCORE.INTER.VDW>
-12.7645

>  <SCORE.INTER.norm>
0.118337

>  <SCORE.INTRA>
-7.6502

>  <SCORE.INTRA.DIHEDRAL>
-16.564

>  <SCORE.INTRA.DIHEDRAL.0>
20.2131

>  <SCORE.INTRA.POLAR>
0

>  <SCORE.INTRA.POLAR.0>
0

>  <SCORE.INTRA.REPUL>
0

>  <SCORE.INTRA.REPUL.0>
0

>  <SCORE.INTRA.SOLV>
1.04186

>  <SCORE.INTRA.SOLV.lig_0>
-48.2851

>  <SCORE.INTRA.VDW>
0.110889

>  <SCORE.INTRA.VDW.0>
-1.08658

>  <SCORE.INTRA.norm>
-0.546443

>  <SCORE.RESTR>
0

>  <SCORE.RESTR.CAVITY>
0

>  <SCORE.RESTR.norm>
0

>  <SCORE.SYSTEM>
0

>  <SCORE.SYSTEM.CONST>
0

>  <SCORE.SYSTEM.DIHEDRAL>
0

>  <SCORE.SYSTEM.SOLV>
0

>  <SCORE.SYSTEM.norm>
0

>  <SCORE.heavy>
14

>  <SCORE.norm>
-0.428106

>  <RMSD>
30.182

$$$$
ligand
 OpenBabel11021811393D
libRbt.so/2013.1/901 2013/11/27
 14 13  0  0  0  0  0  0  0  0999 V2000
   43.4258   -1.8981   13.1934 N   0  0  0  0  0  0  0  0  0  0  0  0
   44.0466   -1.1239   14.2571 C   0  0  0  0  0  0  0  0  0  0  0  0
   45.5855   -1.0680   14.0516 C   0  0  0  0  0  0  0  0  0  0  0  0
   46.1287   -0.3788   12.7495 C   0  0  0  0  0  0  0  0  0  0  0  0
   47.6311   -0.3355   12.6173 N   0  0  0  0  0  0  0  0  0  0  0  0
   48.1100    0.4414   11.4373 C   0  0  0  0  0  0  0  0  0  0  0  0
   48.0209    1.9466   11.6120 C   0  0  0  0  0  0  0  0  0  0  0  0
   48.8682    2.4509   12.7661 C   0  0  0  0  0  0  0  0  0  0  0  0
   48.5868    3.8963   12.9207 C   0  0  0  0  0  0  0  0  0  0  0  0
   47.1894    4.2396   13.2780 N   0  0  0  0  0  0  0  0  0  0  0  0
   46.8990    5.6941   13.2165 C   0  0  0  0  0  0  0  0  0  0  0  0
   45.4267    6.1074   13.5134 C   0  0  0  0  0  0  0  0  0  0  0  0
   45.3188    7.6359   13.3708 C   0  0  0  0  0  0  0  0  0  0  0  0
   46.1911    8.3061   14.3318 N   0  0  0  0  0  0  0  0  0  0  0  0
  1  2  1  0  0  0  0
  2  3  1  0  0  0  0
  3  4  1  0  0  0  0
  4  5  1  0  0  0  0
  5  6  1  0  0  0  0
  6  7  1  0  0  0  0
  7  8  1  0  0  0  0
  8  9  1  0  0  0  0
  9 10  1  0  0  0  0
 10 11  1  0  0  0  0
 11 12  1  0  0  0  0
 12 13  1  0  0  0  0
 13 14  1  0  0  0  0
M  END
>  <CHROM.1>
62.20546707,179.04485621,-174.36584353,75.84728697,61.27860124,-174.16874021
62.79155312,-171.01029457,177.07820104,-178.73418430,-61.25762961,46.53079341
2.56527905,13.09384515,1.68006686,-0.37906762,-3.04694179

>  <Name>
ligand

>  <RI>
0

>  <Rbt.Current_Directory>
/home/itssahil/PROJECTS/Mol_Feturizer/New_Systems/rnas/1EVV

>  <Rbt.Executable>
rbdock ($Id: //depot/dev/client3/rdock/2013.1/src/exe/rbdock.cxx#4 $)

>  <Rbt.Library>
libRbt.so (2013.1, Build901 2013/11/27)

>  <Rbt.Parameter_File>
/export/apps/rDock/src/rDock_2013.1_src/data/scripts/dock_solv.prm

>  <Rbt.Receptor>
prm/blind_docking_80.prm

>  <SCORE>
-7.54461

>  <SCORE.INTER>
1.43095

>  <SCORE.INTER.CONST>
1

>  <SCORE.INTER.POLAR>
0

>  <SCORE.INTER.ROT>
11

>  <SCORE.INTER.SOLV>
6.35747

>  <SCORE.INTER.VDW>
-12.0985

>  <SCORE.INTER.norm>
0.102211

>  <SCORE.INTRA>
-8.97556

>  <SCORE.INTRA.DIHEDRAL>
-19.709

>  <SCORE.INTRA.DIHEDRAL.0>
20.2131

>  <SCORE.INTRA.POLAR>
0

>  <SCORE.INTRA.POLAR.0>
0

>  <SCORE.INTRA.REPUL>
0

>  <SCORE.INTRA.REPUL.0>
0

>  <SCORE.INTRA.SOLV>
0.979207

>  <SCORE.INTRA.SOLV.lig_0>
-48.2851

>  <SCORE.INTRA.VDW>
0.38933

>  <SCORE.INTRA.VDW.0>
-1.08658

>  <SCORE.INTRA.norm>
-0.641111

>  <SCORE.RESTR>
0

>  <SCORE.RESTR.CAVITY>
0

>  <SCORE.RESTR.norm>
0

>  <SCORE.SYSTEM>
0

>  <SCORE.SYSTEM.CONST>
0

>  <SCORE.SYSTEM.DIHEDRAL>
0

>  <SCORE.SYSTEM.SOLV>
0

>  <SCORE.SYSTEM.norm>
0

>  <SCORE.heavy>
14

>  <SCORE.norm>
-0.538901

>  <RMSD>
30.226

$$$$
ligand
 OpenBabel11021811393D
libRbt.so/2013.1/901 2013/11/27
 14 13  0  0  0  0  0  0  0  0999 V2000
   48.8915   -2.0092   10.9533 N   0  0  0  0  0  0  0  0  0  0  0  0
   48.9723   -0.5767   10.7134 C   0  0  0  0  0  0  0  0  0  0  0  0
   49.0451    0.1897   12.0628 C   0  0  0  0  0  0  0  0  0  0  0  0
   48.9826    1.7581   12.0217 C   0  0  0  0  0  0  0  0  0  0  0  0
   47.7129    2.3417   11.4528 N   0  0  0  0  0  0  0  0  0  0  0  0
   47.5931    3.8174   11.6357 C   0  0  0  0  0  0  0  0  0  0  0  0
   46.9182    4.2257   12.9326 C   0  0  0  0  0  0  0  0  0  0  0  0
   47.8279    4.0694   14.1377 C   0  0  0  0  0  0  0  0  0  0  0  0
   46.9914    4.2443   15.3468 C   0  0  0  0  0  0  0  0  0  0  0  0
   46.1393    3.0854   15.7062 N   0  0  0  0  0  0  0  0  0  0  0  0
   45.0787    3.4092   16.6931 C   0  0  0  0  0  0  0  0  0  0  0  0
   44.7084    2.2727   17.6920 C   0  0  0  0  0  0  0  0  0  0  0  0
   44.2976    1.0329   16.8781 C   0  0  0  0  0  0  0  0  0  0  0  0
   43.2051    1.3553   15.9637 N   0  0  0  0  0  0  0  0  0  0  0  0
  1  2  1  0  0  0  0
  2  3  1  0  0  0  0
  3  4  1  0  0  0  0
  4  5  1  0  0  0  0
  5  6  1  0  0  0  0
  6  7  1  0  0  0  0
  7  8  1  0  0  0  0
  8  9  1  0  0  0  0
  9 10  1  0  0  0  0
 10 11  1  0  0  0  0
 11 12  1  0  0  0  0
 12 13  1  0  0  0  0
 13 14  1  0  0  0  0
M  END
>  <CHROM.1>
-173.58416983,61.77483047,170.41366971,-89.43930306,75.67219607,-169.38044905
76.60907772,-165.26051049,-146.50012964,-56.39000508,-56.17946666,46.88331053
2.08721617,13.87084139,0.44973868,-0.89147509,-2.97761022

>  <Name>
ligand

>  <RI>
0

>  <Rbt.Current_Directory>
/home/itssahil/PROJECTS/Mol_Feturizer/New_Systems/rnas/1EVV

>  <Rbt.Executable>
rbdock ($Id: //depot/dev/client3/rdock/2013.1/src/exe/rbdock.cxx#4 $)

>  <Rbt.Library>
libRbt.so (2013.1, Build901 2013/11/27)

>  <Rbt.Parameter_File>
/export/apps/rDock/src/rDock_2013.1_src/data/scripts/dock_solv.prm

>  <Rbt.Receptor>
prm/blind_docking_100.prm

>  <SCORE>
-7.44791

>  <SCORE.INTER>
-0.391445

>  <SCORE.INTER.CONST>
1

>  <SCORE.INTER.POLAR>
0

>  <SCORE.INTER.ROT>
11

>  <SCORE.INTER.SOLV>
12.4481

>  <SCORE.INTER.VDW>
-15.3437

>  <SCORE.INTER.norm>
-0.0279604

>  <SCORE.INTRA>
-7.05646

>  <SCORE.INTRA.DIHEDRAL>
-16.0882

>  <SCORE.INTRA.DIHEDRAL.0>
20.2131

>  <SCORE.INTRA.POLAR>
0

>  <SCORE.INTRA.POLAR.0>
0

>  <SCORE.INTRA.REPUL>
0

>  <SCORE.INTRA.REPUL.0>
0

>  <SCORE.INTRA.SOLV>
1.73273

>  <SCORE.INTRA.SOLV.lig_0>
-48.2851

>  <SCORE.INTRA.VDW>
0.121298

>  <SCORE.INTRA.VDW.0>
-1.08658

>  <SCORE.INTRA.norm>
-0.504033

>  <SCORE.RESTR>
0

>  <SCORE.RESTR.CAVITY>
0

>  <SCORE.RESTR.norm>
0

>  <SCORE.SYSTEM>
0

>  <SCORE.SYSTEM.CONST>
0

>  <SCORE.SYSTEM.DIHEDRAL>
0

>  <SCORE.SYSTEM.SOLV>
0

>  <SCORE.SYSTEM.norm>
0

>  <SCORE.heavy>
14

>  <SCORE.norm>
-0.531993

>  <RMSD>
30.281

$$$$
ligand
 OpenBabel11021811393D
libRbt.so/2013.1/901 2013/11/27
 14 13  0  0  0  0  0  0  0  0999 V2000
   45.1690    2.1984   18.0733 N   0  0  0  0  0  0  0  0  0  0  0  0
   43.9278    2.3252   17.3253 C   0  0  0  0  0  0  0  0  0  0  0  0
   44.2266    2.4281   15.8042 C   0  0  0  0  0  0  0  0  0  0  0  0
   45.0521    3.6647   15.2992 C   0  0  0  0  0  0  0  0  0  0  0  0
   45.3339    3.6946   13.8172 N   0  0  0  0  0  0  0  0  0  0  0  0
   46.2109    4.8245   13.3934 C   0  0  0  0  0  0  0  0  0  0  0  0
   47.6109    4.4005   12.9878 C   0  0  0  0  0  0  0  0  0  0  0  0
   47.6492    3.7517   11.6160 C   0  0  0  0  0  0  0  0  0  0  0  0
   47.2735    2.3302   11.7901 C   0  0  0  0  0  0  0  0  0  0  0  0
   45.8171    2.0552   11.8283 N   0  0  0  0  0  0  0  0  0  0  0  0
   45.4856    0.6427   12.1424 C   0  0  0  0  0  0  0  0  0  0  0  0
   45.7299   -0.3846   10.9972 C   0  0  0  0  0  0  0  0  0  0  0  0
   45.3571   -1.7834   11.5192 C   0  0  0  0  0  0  0  0  0  0  0  0
   46.2966   -2.2161   12.5505 N   0  0  0  0  0  0  0  0  0  0  0  0
  1  2  1  0  0  0  0
  2  3  1  0  0  0  0
  3  4  1  0  0  0  0
  4  5  1  0  0  0  0
  5  6  1  0  0  0  0
  6  7  1  0  0  0  0
  7  8  1  0  0  0  0
  8  9  1  0  0  0  0
  9 10  1  0  0  0  0
 10 11  1  0  0  0  0
 11 12  1  0  0  0  0
 12 13  1  0  0  0  0
 13 14  1  0  0  0  0
M  END
>  <CHROM.1>
-63.03200510,178.81159266,-175.37849974,108.48500458,75.70824495,-82.72665438
83.54069032,-174.08015297,-74.08026554,178.90468773,-67.99925204,45.79579768
1.99533823,13.51006764,1.98483098,1.09846323,0.54291416

>  <Name>
ligand

>  <RI>
0

>  <Rbt.Current_Directory>
/home/itssahil/PROJECTS/Mol_Feturizer/New_Systems/rnas/1EVV

>  <Rbt.Executable>
rbdock ($Id: //depot/dev/client3/rdock/2013.1/src/exe/rbdock.cxx#4 $)

>  <Rbt.Library>
libRbt.so (2013.1, Build901 2013/11/27)

>  <Rbt.Parameter_File>
/export/apps/rDock/src/rDock_2013.1_src/data/scripts/dock_solv.prm

>  <Rbt.Receptor>
prm/blind_docking_100.prm

>  <SCORE>
-4.21956

>  <SCORE.INTER>
0.882039

>  <SCORE.INTER.CONST>
1

>  <SCORE.INTER.POLAR>
0

>  <SCORE.INTER.ROT>
11

>  <SCORE.INTER.SOLV>
13.007

>  <SCORE.INTER.VDW>
-14.681

>  <SCORE.INTER.norm>
0.0630028

>  <SCORE.INTRA>
-5.1016

>  <SCORE.INTRA.DIHEDRAL>
-13.985

>  <SCORE.INTRA.DIHEDRAL.0>
20.2131

>  <SCORE.INTRA.POLAR>
0

>  <SCORE.INTRA.POLAR.0>
0

>  <SCORE.INTRA.REPUL>
0

>  <SCORE.INTRA.REPUL.0>
0

>  <SCORE.INTRA.SOLV>
3.40762

>  <SCORE.INTRA.SOLV.lig_0>
-48.2851

>  <SCORE.INTRA.VDW>
0.187069

>  <SCORE.INTRA.VDW.0>
-1.08658

>  <SCORE.INTRA.norm>
-0.3644

>  <SCORE.RESTR>
0

>  <SCORE.RESTR.CAVITY>
0

>  <SCORE.RESTR.norm>
0

>  <SCORE.SYSTEM>
0

>  <SCORE.SYSTEM.CONST>
0

>  <SCORE.SYSTEM.DIHEDRAL>
0

>  <SCORE.SYSTEM.SOLV>
0

>  <SCORE.SYSTEM.norm>
0

>  <SCORE.heavy>
14

>  <SCORE.norm>
-0.301397

>  <RMSD>
30.352

$$$$
ligand
 OpenBabel11021811393D
libRbt.so/2013.1/901 2013/11/27
 14 13  0  0  0  0  0  0  0  0999 V2000
   36.5175   -2.5946   14.7667 N   0  0  0  0  0  0  0  0  0  0  0  0
   37.5650   -3.0825   13.8831 C   0  0  0  0  0  0  0  0  0  0  0  0
   38.9629   -2.7691   14.4843 C   0  0  0  0  0  0  0  0  0  0  0  0
   40.2292   -3.1447   13.6354 C   0  0  0  0  0  0  0  0  0  0  0  0
   41.5573   -2.8878   14.3037 N   0  0  0  0  0  0  0  0  0  0  0  0
   42.6281   -2.4426   13.3652 C   0  0  0  0  0  0  0  0  0  0  0  0
   43.6946   -1.5772   14.0115 C   0  0  0  0  0  0  0  0  0  0  0  0
   43.1489   -0.2485   14.5024 C   0  0  0  0  0  0  0  0  0  0  0  0
   44.2427    0.4358   15.2287 C   0  0  0  0  0  0  0  0  0  0  0  0
   43.8838    1.7357   15.8450 N   0  0  0  0  0  0  0  0  0  0  0  0
   44.9699    2.3247   16.6680 C   0  0  0  0  0  0  0  0  0  0  0  0
   46.0711    3.1015   15.8866 C   0  0  0  0  0  0  0  0  0  0  0  0
   45.4049    4.2906   15.1723 C   0  0  0  0  0  0  0  0  0  0  0  0
   46.3810    5.0217   14.3684 N   0  0  0  0  0  0  0  0  0  0  0  0
  1  2  1  0  0  0  0
  2  3  1  0  0  0  0
  3  4  1  0  0  0  0
  4  5  1  0  0  0  0
  5  6  1  0  0  0  0
  6  7  1  0  0  0  0
  7  8  1  0  0  0  0
  8  9  1  0  0  0  0
  9 10  1  0  0  0  0
 10 11  1  0  0  0  0
 11 12  1  0  0  0  0
 12 13  1  0  0  0  0
 13 14  1  0  0  0  0
M  END
>  <CHROM.1>
-176.53722433,-176.69732515,-144.68539800,152.28920942,-65.00588885,174.31489155
-177.23433734,174.58270937,81.78502415,61.79781126,-177.27740335,42.51851693
-0.13139193,14.72291131,2.39100459,-0.12529612,-2.81433254

>  <Name>
ligand

>  <RI>
0

>  <Rbt.Current_Directory>
/home/itssahil/PROJECTS/Mol_Feturizer/New_Systems/rnas/1EVV

>  <Rbt.Executable>
rbdock ($Id: //depot/dev/client3/rdock/2013.1/src/exe/rbdock.cxx#4 $)

>  <Rbt.Library>
libRbt.so (2013.1, Build901 2013/11/27)

>  <Rbt.Parameter_File>
/export/apps/rDock/src/rDock_2013.1_src/data/scripts/dock_solv.prm

>  <Rbt.Receptor>
prm/blind_docking_100.prm

>  <SCORE>
-11.4176

>  <SCORE.INTER>
-1.89134

>  <SCORE.INTER.CONST>
1

>  <SCORE.INTER.POLAR>
0

>  <SCORE.INTER.ROT>
11

>  <SCORE.INTER.SOLV>
8.57254

>  <SCORE.INTER.VDW>
-15.0517

>  <SCORE.INTER.norm>
-0.135096

>  <SCORE.INTRA>
-9.52627

>  <SCORE.INTRA.DIHEDRAL>
-18.1619

>  <SCORE.INTRA.DIHEDRAL.0>
20.2131

>  <SCORE.INTRA.POLAR>
0

>  <SCORE.INTRA.POLAR.0>
0

>  <SCORE.INTRA.REPUL>
0

>  <SCORE.INTRA.REPUL.0>
0

>  <SCORE.INTRA.SOLV>
-0.659285

>  <SCORE.INTRA.SOLV.lig_0>
-48.2851

>  <SCORE.INTRA.VDW>
-0.115659

>  <SCORE.INTRA.VDW.0>
-1.08658

>  <SCORE.INTRA.norm>
-0.680448

>  <SCORE.RESTR>
0

>  <SCORE.RESTR.CAVITY>
0

>  <SCORE.RESTR.norm>
0

>  <SCORE.SYSTEM>
0

>  <SCORE.SYSTEM.CONST>
0

>  <SCORE.SYSTEM.DIHEDRAL>
0

>  <SCORE.SYSTEM.SOLV>
0

>  <SCORE.SYSTEM.norm>
0

>  <SCORE.heavy>
14

>  <SCORE.norm>
-0.815544

>  <RMSD>
30.376

$$$$
ligand
 OpenBabel11021811393D
libRbt.so/2013.1/901 2013/11/27
 14 13  0  0  0  0  0  0  0  0999 V2000
   43.8971    2.1061   19.0358 N   0  0  0  0  0  0  0  0  0  0  0  0
   45.1745    2.1782   18.3435 C   0  0  0  0  0  0  0  0  0  0  0  0
   44.9728    2.7187   16.9010 C   0  0  0  0  0  0  0  0  0  0  0  0
   46.2428    2.8781   15.9915 C   0  0  0  0  0  0  0  0  0  0  0  0
   45.9737    3.3190   14.5738 N   0  0  0  0  0  0  0  0  0  0  0  0
   47.2046    3.4601   13.7428 C   0  0  0  0  0  0  0  0  0  0  0  0
   46.9613    3.3213   12.2510 C   0  0  0  0  0  0  0  0  0  0  0  0
   48.2221    3.5318   11.4324 C   0  0  0  0  0  0  0  0  0  0  0  0
   49.0882    2.3499   11.6452 C   0  0  0  0  0  0  0  0  0  0  0  0
   48.5773    1.0755   11.0856 N   0  0  0  0  0  0  0  0  0  0  0  0
   48.8616   -0.1059   11.9384 C   0  0  0  0  0  0  0  0  0  0  0  0
   47.8451   -0.3763   13.0875 C   0  0  0  0  0  0  0  0  0  0  0  0
   46.4756   -0.6812   12.4554 C   0  0  0  0  0  0  0  0  0  0  0  0
   45.4887   -0.9893   13.4872 N   0  0  0  0  0  0  0  0  0  0  0  0
  1  2  1  0  0  0  0
  2  3  1  0  0  0  0
  3  4  1  0  0  0  0
  4  5  1  0  0  0  0
  5  6  1  0  0  0  0
  6  7  1  0  0  0  0
  7  8  1  0  0  0  0
  8  9  1  0  0  0  0
  9 10  1  0  0  0  0
 10 11  1  0  0  0  0
 11 12  1  0  0  0  0
 12 13  1  0  0  0  0
 13 14  1  0  0  0  0
M  END
>  <CHROM.1>
179.65005361,176.08240237,179.93696424,155.59212080,177.43088356,71.72644297
67.48574888,-142.63822966,84.45181686,63.21636996,178.05169411,46.78499066
1.77058940,13.99770751,2.76895774,1.02126903,0.24543449

>  <Name>
ligand

>  <RI>
0

>  <Rbt.Current_Directory>
/home/itssahil/PROJECTS/Mol_Feturizer/New_Systems/rnas/1EVV

>  <Rbt.Executable>
rbdock ($Id: //depot/dev/client3/rdock/2013.1/src/exe/rbdock.cxx#4 $)

>  <Rbt.Library>
libRbt.so (2013.1, Build901 2013/11/27)

>  <Rbt.Parameter_File>
/export/apps/rDock/src/rDock_2013.1_src/data/scripts/dock_solv.prm

>  <Rbt.Receptor>
prm/blind_docking_80.prm

>  <SCORE>
-8.38912

>  <SCORE.INTER>
0.503521

>  <SCORE.INTER.CONST>
1

>  <SCORE.INTER.POLAR>
0

>  <SCORE.INTER.ROT>
11

>  <SCORE.INTER.SOLV>
13.759

>  <SCORE.INTER.VDW>
-15.184

>  <SCORE.INTER.norm>
0.0359658

>  <SCORE.INTRA>
-8.89264

>  <SCORE.INTRA.DIHEDRAL>
-17.6277

>  <SCORE.INTRA.DIHEDRAL.0>
20.2131

>  <SCORE.INTRA.POLAR>
0

>  <SCORE.INTRA.POLAR.0>
0

>  <SCORE.INTRA.REPUL>
0

>  <SCORE.INTRA.REPUL.0>
0

>  <SCORE.INTRA.SOLV>
-0.192478

>  <SCORE.INTRA.SOLV.lig_0>
-48.2851

>  <SCORE.INTRA.VDW>
0.0174586

>  <SCORE.INTRA.VDW.0>
-1.08658

>  <SCORE.INTRA.norm>
-0.635189

>  <SCORE.RESTR>
0

>  <SCORE.RESTR.CAVITY>
0

>  <SCORE.RESTR.norm>
0

>  <SCORE.SYSTEM>
0

>  <SCORE.SYSTEM.CONST>
0

>  <SCORE.SYSTEM.DIHEDRAL>
0

>  <SCORE.SYSTEM.SOLV>
0

>  <SCORE.SYSTEM.norm>
0

>  <SCORE.heavy>
14

>  <SCORE.norm>
-0.599223

>  <RMSD>
30.393

$$$$
ligand
 OpenBabel11021811393D
libRbt.so/2013.1/901 2013/11/27
 14 13  0  0  0  0  0  0  0  0999 V2000
   49.2531   -0.4290   11.6760 N   0  0  0  0  0  0  0  0  0  0  0  0
   48.3733   -0.8975   10.6165 C   0  0  0  0  0  0  0  0  0  0  0  0
   46.8948   -0.5690   10.9626 C   0  0  0  0  0  0  0  0  0  0  0  0
   46.2763   -1.2287   12.2462 C   0  0  0  0  0  0  0  0  0  0  0  0
   44.8394   -0.8682   12.5321 N   0  0  0  0  0  0  0  0  0  0  0  0
   44.3338   -1.3937   13.8336 C   0  0  0  0  0  0  0  0  0  0  0  0
   44.7251   -0.5503   15.0335 C   0  0  0  0  0  0  0  0  0  0  0  0
   44.1218    0.8420   14.9893 C   0  0  0  0  0  0  0  0  0  0  0  0
   44.6560    1.5907   16.1496 C   0  0  0  0  0  0  0  0  0  0  0  0
   44.2269    3.0065   16.2476 N   0  0  0  0  0  0  0  0  0  0  0  0
   44.9283    3.9085   15.3000 C   0  0  0  0  0  0  0  0  0  0  0  0
   46.2965    4.4740   15.7846 C   0  0  0  0  0  0  0  0  0  0  0  0
   46.8406    5.4147   14.6951 C   0  0  0  0  0  0  0  0  0  0  0  0
   47.1446    4.6700   13.4759 N   0  0  0  0  0  0  0  0  0  0  0  0
  1  2  1  0  0  0  0
  2  3  1  0  0  0  0
  3  4  1  0  0  0  0
  4  5  1  0  0  0  0
  5  6  1  0  0  0  0
  6  7  1  0  0  0  0
  7  8  1  0  0  0  0
  8  9  1  0  0  0  0
  9 10  1  0  0  0  0
 10 11  1  0  0  0  0
 11 12  1  0  0  0  0
 12 13  1  0  0  0  0
 13 14  1  0  0  0  0
M  END
>  <CHROM.1>
-62.45932728,179.80699548,-173.73964872,81.25261986,63.98342720,-175.82487886
177.34718604,-76.34510929,-85.65887057,-178.16058170,-65.25500887,45.92199711
1.28345087,13.82460129,-1.27202499,0.69457533,0.44405918

>  <Name>
ligand

>  <RI>
0

>  <Rbt.Current_Directory>
/home/itssahil/PROJECTS/Mol_Feturizer/New_Systems/rnas/1EVV

>  <Rbt.Executable>
rbdock ($Id: //depot/dev/client3/rdock/2013.1/src/exe/rbdock.cxx#4 $)

>  <Rbt.Library>
libRbt.so (2013.1, Build901 2013/11/27)

>  <Rbt.Parameter_File>
/export/apps/rDock/src/rDock_2013.1_src/data/scripts/dock_solv.prm

>  <Rbt.Receptor>
prm/blind_docking_80.prm

>  <SCORE>
-5.80289

>  <SCORE.INTER>
2.91872

>  <SCORE.INTER.CONST>
1

>  <SCORE.INTER.POLAR>
0

>  <SCORE.INTER.ROT>
11

>  <SCORE.INTER.SOLV>
7.34809

>  <SCORE.INTER.VDW>
-11.4369

>  <SCORE.INTER.norm>
0.20848

>  <SCORE.INTRA>
-8.72161

>  <SCORE.INTRA.DIHEDRAL>
-18.8762

>  <SCORE.INTRA.DIHEDRAL.0>
20.2131

>  <SCORE.INTRA.POLAR>
0

>  <SCORE.INTRA.POLAR.0>
0

>  <SCORE.INTRA.REPUL>
0

>  <SCORE.INTRA.REPUL.0>
0

>  <SCORE.INTRA.SOLV>
0.433074

>  <SCORE.INTRA.SOLV.lig_0>
-48.2851

>  <SCORE.INTRA.VDW>
0.499965

>  <SCORE.INTRA.VDW.0>
-1.08658

>  <SCORE.INTRA.norm>
-0.622972

>  <SCORE.RESTR>
0

>  <SCORE.RESTR.CAVITY>
0

>  <SCORE.RESTR.norm>
0

>  <SCORE.SYSTEM>
0

>  <SCORE.SYSTEM.CONST>
0

>  <SCORE.SYSTEM.DIHEDRAL>
0

>  <SCORE.SYSTEM.SOLV>
0

>  <SCORE.SYSTEM.norm>
0

>  <SCORE.heavy>
14

>  <SCORE.norm>
-0.414492

>  <RMSD>
30.422

$$$$
ligand
 OpenBabel11021811393D
libRbt.so/2013.1/901 2013/11/27
 14 13  0  0  0  0  0  0  0  0999 V2000
   46.3837   -1.3603   11.8602 N   0  0  0  0  0  0  0  0  0  0  0  0
   46.9803   -1.5189   10.5430 C   0  0  0  0  0  0  0  0  0  0  0  0
   48.4985   -1.1938   10.5993 C   0  0  0  0  0  0  0  0  0  0  0  0
   48.9222    0.3028   10.8143 C   0  0  0  0  0  0  0  0  0  0  0  0
   48.4977    0.9147   12.1265 N   0  0  0  0  0  0  0  0  0  0  0  0
   47.3386    1.8466   12.0098 C   0  0  0  0  0  0  0  0  0  0  0  0
   46.8789    2.4287   13.3341 C   0  0  0  0  0  0  0  0  0  0  0  0
   45.6309    3.2814   13.1945 C   0  0  0  0  0  0  0  0  0  0  0  0
   45.2915    3.7899   14.5431 C   0  0  0  0  0  0  0  0  0  0  0  0
   44.8938    2.7594   15.5321 N   0  0  0  0  0  0  0  0  0  0  0  0
   45.5540    2.9149   16.8525 C   0  0  0  0  0  0  0  0  0  0  0  0
   45.1964    1.8411   17.9230 C   0  0  0  0  0  0  0  0  0  0  0  0
   43.7019    1.9803   18.2623 C   0  0  0  0  0  0  0  0  0  0  0  0
   43.4487    3.2319   18.9716 N   0  0  0  0  0  0  0  0  0  0  0  0
  1  2  1  0  0  0  0
  2  3  1  0  0  0  0
  3  4  1  0  0  0  0
  4  5  1  0  0  0  0
  5  6  1  0  0  0  0
  6  7  1  0  0  0  0
  7  8  1  0  0  0  0
  8  9  1  0  0  0  0
  9 10  1  0  0  0  0
 10 11  1  0  0  0  0
 11 12  1  0  0  0  0
 12 13  1  0  0  0  0
 13 14  1  0  0  0  0
M  END
>  <CHROM.1>
-70.35506575,63.20300860,-104.11770154,178.06948630,-175.32855109,-179.78668278
-65.35443071,133.72377820,-178.75946340,-64.88502259,-68.39553494,46.22998560
1.51567154,14.04022486,0.47044043,-1.05937116,-3.05672081

>  <Name>
ligand

>  <RI>
0

>  <Rbt.Current_Directory>
/home/itssahil/PROJECTS/Mol_Feturizer/New_Systems/rnas/1EVV

>  <Rbt.Executable>
rbdock ($Id: //depot/dev/client3/rdock/2013.1/src/exe/rbdock.cxx#4 $)

>  <Rbt.Library>
libRbt.so (2013.1, Build901 2013/11/27)

>  <Rbt.Parameter_File>
/export/apps/rDock/src/rDock_2013.1_src/data/scripts/dock_solv.prm

>  <Rbt.Receptor>
prm/blind_docking_100.prm

>  <SCORE>
-6.98263

>  <SCORE.INTER>
-0.0711798

>  <SCORE.INTER.CONST>
1

>  <SCORE.INTER.POLAR>
0

>  <SCORE.INTER.ROT>
11

>  <SCORE.INTER.SOLV>
13.8211

>  <SCORE.INTER.VDW>
-15.5878

>  <SCORE.INTER.norm>
-0.00508427

>  <SCORE.INTRA>
-6.91145

>  <SCORE.INTRA.DIHEDRAL>
-17.1761

>  <SCORE.INTRA.DIHEDRAL.0>
20.2131

>  <SCORE.INTRA.POLAR>
0

>  <SCORE.INTRA.POLAR.0>
0

>  <SCORE.INTRA.REPUL>
0

>  <SCORE.INTRA.REPUL.0>
0

>  <SCORE.INTRA.SOLV>
4.24827

>  <SCORE.INTRA.SOLV.lig_0>
-48.2851

>  <SCORE.INTRA.VDW>
-0.44754

>  <SCORE.INTRA.VDW.0>
-1.08658

>  <SCORE.INTRA.norm>
-0.493675

>  <SCORE.RESTR>
0

>  <SCORE.RESTR.CAVITY>
0

>  <SCORE.RESTR.norm>
0

>  <SCORE.SYSTEM>
0

>  <SCORE.SYSTEM.CONST>
0

>  <SCORE.SYSTEM.DIHEDRAL>
0

>  <SCORE.SYSTEM.SOLV>
0

>  <SCORE.SYSTEM.norm>
0

>  <SCORE.heavy>
14

>  <SCORE.norm>
-0.498759

>  <RMSD>
30.451

$$$$
ligand
 OpenBabel11021811393D
libRbt.so/2013.1/901 2013/11/27
 14 13  0  0  0  0  0  0  0  0999 V2000
   36.4292   -3.3739   15.5707 N   0  0  0  0  0  0  0  0  0  0  0  0
   37.0228   -2.0475   15.5045 C   0  0  0  0  0  0  0  0  0  0  0  0
   38.0712   -1.9859   14.3596 C   0  0  0  0  0  0  0  0  0  0  0  0
   39.3592   -2.8738   14.4937 C   0  0  0  0  0  0  0  0  0  0  0  0
   40.2933   -2.8443   13.3092 N   0  0  0  0  0  0  0  0  0  0  0  0
   41.7367   -2.9242   13.6778 C   0  0  0  0  0  0  0  0  0  0  0  0
   42.4249   -1.5747   13.7731 C   0  0  0  0  0  0  0  0  0  0  0  0
   43.8997   -1.6948   14.1117 C   0  0  0  0  0  0  0  0  0  0  0  0
   44.4322   -0.3208   14.2558 C   0  0  0  0  0  0  0  0  0  0  0  0
   43.9273    0.4398   15.4241 N   0  0  0  0  0  0  0  0  0  0  0  0
   44.5356    1.7865   15.5661 C   0  0  0  0  0  0  0  0  0  0  0  0
   44.0781    2.6128   16.8050 C   0  0  0  0  0  0  0  0  0  0  0  0
   44.5219    1.8626   18.0732 C   0  0  0  0  0  0  0  0  0  0  0  0
   43.9704    2.4977   19.2673 N   0  0  0  0  0  0  0  0  0  0  0  0
  1  2  1  0  0  0  0
  2  3  1  0  0  0  0
  3  4  1  0  0  0  0
  4  5  1  0  0  0  0
  5  6  1  0  0  0  0
  6  7  1  0  0  0  0
  7  8  1  0  0  0  0
  8  9  1  0  0  0  0
  9 10  1  0  0  0  0
 10 11  1  0  0  0  0
 11 12  1  0  0  0  0
 12 13  1  0  0  0  0
 13 14  1  0  0  0  0
M  END
>  <CHROM.1>
-65.31564933,175.95333773,144.38258846,-95.80793558,-178.40356549,-176.63776231
67.93066790,177.23021835,-177.99560731,63.47948498,-172.59372862,41.76471389
-0.74573001,15.29917385,2.52224598,-0.30951785,-2.26747389

>  <Name>
ligand

>  <RI>
0

>  <Rbt.Current_Directory>
/home/itssahil/PROJECTS/Mol_Feturizer/New_Systems/rnas/1EVV

>  <Rbt.Executable>
rbdock ($Id: //depot/dev/client3/rdock/2013.1/src/exe/rbdock.cxx#4 $)

>  <Rbt.Library>
libRbt.so (2013.1, Build901 2013/11/27)

>  <Rbt.Parameter_File>
/export/apps/rDock/src/rDock_2013.1_src/data/scripts/dock_solv.prm

>  <Rbt.Receptor>
prm/blind_docking_100.prm

>  <SCORE>
-11.2007

>  <SCORE.INTER>
-2.13816

>  <SCORE.INTER.CONST>
1

>  <SCORE.INTER.POLAR>
0

>  <SCORE.INTER.ROT>
11

>  <SCORE.INTER.SOLV>
15.0977

>  <SCORE.INTER.VDW>
-17.3913

>  <SCORE.INTER.norm>
-0.152725

>  <SCORE.INTRA>
-9.06252

>  <SCORE.INTRA.DIHEDRAL>
-17.9399

>  <SCORE.INTRA.DIHEDRAL.0>
20.2131

>  <SCORE.INTRA.POLAR>
0

>  <SCORE.INTRA.POLAR.0>
0

>  <SCORE.INTRA.REPUL>
0

>  <SCORE.INTRA.REPUL.0>
0

>  <SCORE.INTRA.SOLV>
-0.0269414

>  <SCORE.INTRA.SOLV.lig_0>
-48.2851

>  <SCORE.INTRA.VDW>
-0.0791062

>  <SCORE.INTRA.VDW.0>
-1.08658

>  <SCORE.INTRA.norm>
-0.647323

>  <SCORE.RESTR>
0

>  <SCORE.RESTR.CAVITY>
0

>  <SCORE.RESTR.norm>
0

>  <SCORE.SYSTEM>
0

>  <SCORE.SYSTEM.CONST>
0

>  <SCORE.SYSTEM.DIHEDRAL>
0

>  <SCORE.SYSTEM.SOLV>
0

>  <SCORE.SYSTEM.norm>
0

>  <SCORE.heavy>
14

>  <SCORE.norm>
-0.800049

>  <RMSD>
30.485

$$$$
ligand
 OpenBabel11021811393D
libRbt.so/2013.1/901 2013/11/27
 14 13  0  0  0  0  0  0  0  0999 V2000
   45.6730   -1.8759   10.9031 N   0  0  0  0  0  0  0  0  0  0  0  0
   46.9933   -1.4187   10.4983 C   0  0  0  0  0  0  0  0  0  0  0  0
   47.3921   -0.1514   11.3037 C   0  0  0  0  0  0  0  0  0  0  0  0
   48.8047    0.4780   11.0317 C   0  0  0  0  0  0  0  0  0  0  0  0
   49.1438    1.6923   11.8605 N   0  0  0  0  0  0  0  0  0  0  0  0
   48.5465    2.9589   11.3463 C   0  0  0  0  0  0  0  0  0  0  0  0
   47.5778    3.6202   12.3099 C   0  0  0  0  0  0  0  0  0  0  0  0
   46.3835    2.7403   12.6317 C   0  0  0  0  0  0  0  0  0  0  0  0
   45.5644    3.4586   13.6344 C   0  0  0  0  0  0  0  0  0  0  0  0
   46.2561    3.7918   14.9029 N   0  0  0  0  0  0  0  0  0  0  0  0
   45.3361    3.9677   16.0545 C   0  0  0  0  0  0  0  0  0  0  0  0
   45.1000    2.7053   16.9362 C   0  0  0  0  0  0  0  0  0  0  0  0
   44.1854    3.1023   18.1083 C   0  0  0  0  0  0  0  0  0  0  0  0
   43.9786    1.9698   19.0073 N   0  0  0  0  0  0  0  0  0  0  0  0
  1  2  1  0  0  0  0
  2  3  1  0  0  0  0
  3  4  1  0  0  0  0
  4  5  1  0  0  0  0
  5  6  1  0  0  0  0
  6  7  1  0  0  0  0
  7  8  1  0  0  0  0
  8  9  1  0  0  0  0
  9 10  1  0  0  0  0
 10 11  1  0  0  0  0
 11 12  1  0  0  0  0
 12 13  1  0  0  0  0
 13 14  1  0  0  0  0
M  END
>  <CHROM.1>
178.66783914,-178.99650772,-80.68062918,117.94632542,-61.20114251,176.66482741
-58.99135951,-155.61369940,93.89992287,177.12252232,-177.34742004,46.49548014
1.93158409,13.60897148,0.86353060,-0.91457981,-2.57969258

>  <Name>
ligand

>  <RI>
0

>  <Rbt.Current_Directory>
/home/itssahil/PROJECTS/Mol_Feturizer/New_Systems/rnas/1EVV

>  <Rbt.Executable>
rbdock ($Id: //depot/dev/client3/rdock/2013.1/src/exe/rbdock.cxx#4 $)

>  <Rbt.Library>
libRbt.so (2013.1, Build901 2013/11/27)

>  <Rbt.Parameter_File>
/export/apps/rDock/src/rDock_2013.1_src/data/scripts/dock_solv.prm

>  <Rbt.Receptor>
prm/blind_docking_100.prm

>  <SCORE>
-8.91389

>  <SCORE.INTER>
0.0161134

>  <SCORE.INTER.CONST>
1

>  <SCORE.INTER.POLAR>
0

>  <SCORE.INTER.ROT>
11

>  <SCORE.INTER.SOLV>
15.0993

>  <SCORE.INTER.VDW>
-15.9557

>  <SCORE.INTER.norm>
0.00115096

>  <SCORE.INTRA>
-8.93001

>  <SCORE.INTRA.DIHEDRAL>
-17.4259

>  <SCORE.INTRA.DIHEDRAL.0>
20.2131

>  <SCORE.INTRA.POLAR>
0

>  <SCORE.INTRA.POLAR.0>
0

>  <SCORE.INTRA.REPUL>
0

>  <SCORE.INTRA.REPUL.0>
0

>  <SCORE.INTRA.SOLV>
-0.536573

>  <SCORE.INTRA.SOLV.lig_0>
-48.2851

>  <SCORE.INTRA.VDW>
0.0512072

>  <SCORE.INTRA.VDW.0>
-1.08658

>  <SCORE.INTRA.norm>
-0.637858

>  <SCORE.RESTR>
0

>  <SCORE.RESTR.CAVITY>
0

>  <SCORE.RESTR.norm>
0

>  <SCORE.SYSTEM>
0

>  <SCORE.SYSTEM.CONST>
0

>  <SCORE.SYSTEM.DIHEDRAL>
0

>  <SCORE.SYSTEM.SOLV>
0

>  <SCORE.SYSTEM.norm>
0

>  <SCORE.heavy>
14

>  <SCORE.norm>
-0.636707

>  <RMSD>
30.520

$$$$
ligand
 OpenBabel11021811393D
libRbt.so/2013.1/901 2013/11/27
 14 13  0  0  0  0  0  0  0  0999 V2000
   47.2824   -1.2921   10.3262 N   0  0  0  0  0  0  0  0  0  0  0  0
   46.6632   -2.5969   10.4999 C   0  0  0  0  0  0  0  0  0  0  0  0
   45.1345   -2.5039   10.2390 C   0  0  0  0  0  0  0  0  0  0  0  0
   44.2942   -1.5253   11.1343 C   0  0  0  0  0  0  0  0  0  0  0  0
   44.4461   -1.7167   12.6232 N   0  0  0  0  0  0  0  0  0  0  0  0
   45.4380   -0.7959   13.2510 C   0  0  0  0  0  0  0  0  0  0  0  0
   44.8366    0.4971   13.7711 C   0  0  0  0  0  0  0  0  0  0  0  0
   45.8870    1.5549   14.0574 C   0  0  0  0  0  0  0  0  0  0  0  0
   45.1968    2.7008   14.6922 C   0  0  0  0  0  0  0  0  0  0  0  0
   44.6256    2.4373   16.0348 N   0  0  0  0  0  0  0  0  0  0  0  0
   45.6113    2.5662   17.1373 C   0  0  0  0  0  0  0  0  0  0  0  0
   45.2568    1.8201   18.4580 C   0  0  0  0  0  0  0  0  0  0  0  0
   43.9516    2.4180   19.0120 C   0  0  0  0  0  0  0  0  0  0  0  0
   42.8244    2.0891   18.1432 N   0  0  0  0  0  0  0  0  0  0  0  0
  1  2  1  0  0  0  0
  2  3  1  0  0  0  0
  3  4  1  0  0  0  0
  4  5  1  0  0  0  0
  5  6  1  0  0  0  0
  6  7  1  0  0  0  0
  7  8  1  0  0  0  0
  8  9  1  0  0  0  0
  9 10  1  0  0  0  0
 10 11  1  0  0  0  0
 11 12  1  0  0  0  0
 12 13  1  0  0  0  0
 13 14  1  0  0  0  0
M  END
>  <CHROM.1>
-59.19290440,-53.59730269,96.62112694,91.78313513,-164.62251151,-173.92330951
66.20731190,83.28851906,-158.23849708,-62.20043996,68.14063301,45.10359028
0.40377513,14.24139612,-1.37316473,0.59881888,0.90621492

>  <Name>
ligand

>  <RI>
0

>  <Rbt.Current_Directory>
/home/itssahil/PROJECTS/Mol_Feturizer/New_Systems/rnas/1EVV

>  <Rbt.Executable>
rbdock ($Id: //depot/dev/client3/rdock/2013.1/src/exe/rbdock.cxx#4 $)

>  <Rbt.Library>
libRbt.so (2013.1, Build901 2013/11/27)

>  <Rbt.Parameter_File>
/export/apps/rDock/src/rDock_2013.1_src/data/scripts/dock_solv.prm

>  <Rbt.Receptor>
prm/blind_docking_60.prm

>  <SCORE>
-3.26735

>  <SCORE.INTER>
2.63625

>  <SCORE.INTER.CONST>
1

>  <SCORE.INTER.POLAR>
0

>  <SCORE.INTER.ROT>
11

>  <SCORE.INTER.SOLV>
14.736

>  <SCORE.INTER.VDW>
-14.0878

>  <SCORE.INTER.norm>
0.188304

>  <SCORE.INTRA>
-5.9036

>  <SCORE.INTRA.DIHEDRAL>
-16.444

>  <SCORE.INTRA.DIHEDRAL.0>
20.2131

>  <SCORE.INTRA.POLAR>
0

>  <SCORE.INTRA.POLAR.0>
0

>  <SCORE.INTRA.REPUL>
0

>  <SCORE.INTRA.REPUL.0>
0

>  <SCORE.INTRA.SOLV>
4.69673

>  <SCORE.INTRA.SOLV.lig_0>
-48.2851

>  <SCORE.INTRA.VDW>
-0.029982

>  <SCORE.INTRA.VDW.0>
-1.08658

>  <SCORE.INTRA.norm>
-0.421685

>  <SCORE.RESTR>
0

>  <SCORE.RESTR.CAVITY>
0

>  <SCORE.RESTR.norm>
0

>  <SCORE.SYSTEM>
0

>  <SCORE.SYSTEM.CONST>
0

>  <SCORE.SYSTEM.DIHEDRAL>
0

>  <SCORE.SYSTEM.SOLV>
0

>  <SCORE.SYSTEM.norm>
0

>  <SCORE.heavy>
14

>  <SCORE.norm>
-0.233382

>  <RMSD>
30.767

$$$$
ligand
 OpenBabel11021811393D
libRbt.so/2013.1/901 2013/11/27
 14 13  0  0  0  0  0  0  0  0999 V2000
   43.8424    1.9432   19.3036 N   0  0  0  0  0  0  0  0  0  0  0  0
   44.8874    2.3444   18.3745 C   0  0  0  0  0  0  0  0  0  0  0  0
   44.2859    3.2074   17.2312 C   0  0  0  0  0  0  0  0  0  0  0  0
   45.2705    3.7980   16.1602 C   0  0  0  0  0  0  0  0  0  0  0  0
   45.9535    2.7824   15.2776 N   0  0  0  0  0  0  0  0  0  0  0  0
   47.0621    3.3478   14.4548 C   0  0  0  0  0  0  0  0  0  0  0  0
   47.4198    2.5088   13.2415 C   0  0  0  0  0  0  0  0  0  0  0  0
   48.5714    3.0958   12.4456 C   0  0  0  0  0  0  0  0  0  0  0  0
   48.8023    2.2075   11.2838 C   0  0  0  0  0  0  0  0  0  0  0  0
   49.1436    0.8026   11.6127 N   0  0  0  0  0  0  0  0  0  0  0  0
   49.0566   -0.1188   10.4521 C   0  0  0  0  0  0  0  0  0  0  0  0
   48.0741   -1.3177   10.6070 C   0  0  0  0  0  0  0  0  0  0  0  0
   48.5871   -2.2150   11.7471 C   0  0  0  0  0  0  0  0  0  0  0  0
   47.7498   -3.4040   11.8839 N   0  0  0  0  0  0  0  0  0  0  0  0
  1  2  1  0  0  0  0
  2  3  1  0  0  0  0
  3  4  1  0  0  0  0
  4  5  1  0  0  0  0
  5  6  1  0  0  0  0
  6  7  1  0  0  0  0
  7  8  1  0  0  0  0
  8  9  1  0  0  0  0
  9 10  1  0  0  0  0
 10 11  1  0  0  0  0
 11 12  1  0  0  0  0
 12 13  1  0  0  0  0
 13 14  1  0  0  0  0
M  END
>  <CHROM.1>
177.09771384,66.37789895,-169.11536999,-159.33926268,-178.67607023,-178.86399536
-59.59715348,166.54073168,-121.52161736,-64.10156867,-176.43474288,47.05061557
1.35621561,13.86226224,2.56922258,0.98351607,0.14719060

>  <Name>
ligand

>  <RI>
0

>  <Rbt.Current_Directory>
/home/itssahil/PROJECTS/Mol_Feturizer/New_Systems/rnas/1EVV

>  <Rbt.Executable>
rbdock ($Id: //depot/dev/client3/rdock/2013.1/src/exe/rbdock.cxx#4 $)

>  <Rbt.Library>
libRbt.so (2013.1, Build901 2013/11/27)

>  <Rbt.Parameter_File>
/export/apps/rDock/src/rDock_2013.1_src/data/scripts/dock_solv.prm

>  <Rbt.Receptor>
prm/blind_docking_60.prm

>  <SCORE>
-8.55727

>  <SCORE.INTER>
0.834716

>  <SCORE.INTER.CONST>
1

>  <SCORE.INTER.POLAR>
0

>  <SCORE.INTER.ROT>
11

>  <SCORE.INTER.SOLV>
14.1813

>  <SCORE.INTER.VDW>
-15.104

>  <SCORE.INTER.norm>
0.0596226

>  <SCORE.INTRA>
-9.39199

>  <SCORE.INTRA.DIHEDRAL>
-18.1508

>  <SCORE.INTRA.DIHEDRAL.0>
20.2131

>  <SCORE.INTRA.POLAR>
0

>  <SCORE.INTRA.POLAR.0>
0

>  <SCORE.INTRA.REPUL>
0

>  <SCORE.INTRA.REPUL.0>
0

>  <SCORE.INTRA.SOLV>
-0.388853

>  <SCORE.INTRA.SOLV.lig_0>
-48.2851

>  <SCORE.INTRA.VDW>
-0.122138

>  <SCORE.INTRA.VDW.0>
-1.08658

>  <SCORE.INTRA.norm>
-0.670856

>  <SCORE.RESTR>
0

>  <SCORE.RESTR.CAVITY>
0

>  <SCORE.RESTR.norm>
0

>  <SCORE.SYSTEM>
0

>  <SCORE.SYSTEM.CONST>
0

>  <SCORE.SYSTEM.DIHEDRAL>
0

>  <SCORE.SYSTEM.SOLV>
0

>  <SCORE.SYSTEM.norm>
0

>  <SCORE.heavy>
14

>  <SCORE.norm>
-0.611234

>  <RMSD>
30.877

$$$$
ligand
 OpenBabel11021811393D
libRbt.so/2013.1/901 2013/11/27
 14 13  0  0  0  0  0  0  0  0999 V2000
   49.8550   -2.2281   12.0598 N   0  0  0  0  0  0  0  0  0  0  0  0
   48.6353   -1.4547   12.2341 C   0  0  0  0  0  0  0  0  0  0  0  0
   47.8017   -1.4654   10.9231 C   0  0  0  0  0  0  0  0  0  0  0  0
   46.3929   -0.7722   10.9421 C   0  0  0  0  0  0  0  0  0  0  0  0
   45.3999   -1.3487   11.9210 N   0  0  0  0  0  0  0  0  0  0  0  0
   44.1875   -0.5022   12.1184 C   0  0  0  0  0  0  0  0  0  0  0  0
   43.5991   -0.5832   13.5153 C   0  0  0  0  0  0  0  0  0  0  0  0
   44.5708   -0.1191   14.5851 C   0  0  0  0  0  0  0  0  0  0  0  0
   44.6648    1.3552   14.4855 C   0  0  0  0  0  0  0  0  0  0  0  0
   45.6411    1.9955   15.3994 N   0  0  0  0  0  0  0  0  0  0  0  0
   45.0099    2.7610   16.5036 C   0  0  0  0  0  0  0  0  0  0  0  0
   44.5105    1.9202   17.7162 C   0  0  0  0  0  0  0  0  0  0  0  0
   43.7539    2.8589   18.6725 C   0  0  0  0  0  0  0  0  0  0  0  0
   43.1608    2.1043   19.7735 N   0  0  0  0  0  0  0  0  0  0  0  0
  1  2  1  0  0  0  0
  2  3  1  0  0  0  0
  3  4  1  0  0  0  0
  4  5  1  0  0  0  0
  5  6  1  0  0  0  0
  6  7  1  0  0  0  0
  7  8  1  0  0  0  0
  8  9  1  0  0  0  0
  9 10  1  0  0  0  0
 10 11  1  0  0  0  0
 11 12  1  0  0  0  0
 12 13  1  0  0  0  0
 13 14  1  0  0  0  0
M  END
>  <CHROM.1>
175.53329809,-60.50854906,167.90695957,-147.93697149,60.94354491,73.25324618
-176.22303729,-108.60523762,80.23775527,-173.75293767,175.07787692,45.51286795
0.32303943,14.34622727,-1.12454858,-0.12190017,1.10080172

>  <Name>
ligand

>  <RI>
0

>  <Rbt.Current_Directory>
/home/itssahil/PROJECTS/Mol_Feturizer/New_Systems/rnas/1EVV

>  <Rbt.Executable>
rbdock ($Id: //depot/dev/client3/rdock/2013.1/src/exe/rbdock.cxx#4 $)

>  <Rbt.Library>
libRbt.so (2013.1, Build901 2013/11/27)

>  <Rbt.Parameter_File>
/export/apps/rDock/src/rDock_2013.1_src/data/scripts/dock_solv.prm

>  <Rbt.Receptor>
prm/blind_docking_60.prm

>  <SCORE>
-5.74583

>  <SCORE.INTER>
2.50885

>  <SCORE.INTER.CONST>
1

>  <SCORE.INTER.POLAR>
0

>  <SCORE.INTER.ROT>
11

>  <SCORE.INTER.SOLV>
16.4355

>  <SCORE.INTER.VDW>
-14.7393

>  <SCORE.INTER.norm>
0.179204

>  <SCORE.INTRA>
-8.25468

>  <SCORE.INTRA.DIHEDRAL>
-16.9509

>  <SCORE.INTRA.DIHEDRAL.0>
20.2131

>  <SCORE.INTRA.POLAR>
0

>  <SCORE.INTRA.POLAR.0>
0

>  <SCORE.INTRA.REPUL>
0

>  <SCORE.INTRA.REPUL.0>
0

>  <SCORE.INTRA.SOLV>
-0.3659

>  <SCORE.INTRA.SOLV.lig_0>
-48.2851

>  <SCORE.INTRA.VDW>
0.403695

>  <SCORE.INTRA.VDW.0>
-1.08658

>  <SCORE.INTRA.norm>
-0.58962

>  <SCORE.RESTR>
0

>  <SCORE.RESTR.CAVITY>
0

>  <SCORE.RESTR.norm>
0

>  <SCORE.SYSTEM>
0

>  <SCORE.SYSTEM.CONST>
0

>  <SCORE.SYSTEM.DIHEDRAL>
0

>  <SCORE.SYSTEM.SOLV>
0

>  <SCORE.SYSTEM.norm>
0

>  <SCORE.heavy>
14

>  <SCORE.norm>
-0.410417

>  <RMSD>
30.899

$$$$
ligand
 OpenBabel11021811393D
libRbt.so/2013.1/901 2013/11/27
 14 13  0  0  0  0  0  0  0  0999 V2000
   45.7210    2.1661   17.6478 N   0  0  0  0  0  0  0  0  0  0  0  0
   44.4864    2.8975   17.4093 C   0  0  0  0  0  0  0  0  0  0  0  0
   44.3546    3.2500   15.9020 C   0  0  0  0  0  0  0  0  0  0  0  0
   45.4534    4.1724   15.2640 C   0  0  0  0  0  0  0  0  0  0  0  0
   45.2356    4.5336   13.8153 N   0  0  0  0  0  0  0  0  0  0  0  0
   46.4378    5.1173   13.1525 C   0  0  0  0  0  0  0  0  0  0  0  0
   47.5297    4.1061   12.8534 C   0  0  0  0  0  0  0  0  0  0  0  0
   47.0419    2.9610   11.9846 C   0  0  0  0  0  0  0  0  0  0  0  0
   48.1756    2.0242   11.8129 C   0  0  0  0  0  0  0  0  0  0  0  0
   47.8458    0.7373   11.1546 N   0  0  0  0  0  0  0  0  0  0  0  0
   49.0228   -0.1422   10.9427 C   0  0  0  0  0  0  0  0  0  0  0  0
   48.7091   -1.6363   10.6331 C   0  0  0  0  0  0  0  0  0  0  0  0
   47.9582   -2.2291   11.8384 C   0  0  0  0  0  0  0  0  0  0  0  0
   47.6084   -3.6257   11.5917 N   0  0  0  0  0  0  0  0  0  0  0  0
  1  2  1  0  0  0  0
  2  3  1  0  0  0  0
  3  4  1  0  0  0  0
  4  5  1  0  0  0  0
  5  6  1  0  0  0  0
  6  7  1  0  0  0  0
  7  8  1  0  0  0  0
  8  9  1  0  0  0  0
  9 10  1  0  0  0  0
 10 11  1  0  0  0  0
 11 12  1  0  0  0  0
 12 13  1  0  0  0  0
 13 14  1  0  0  0  0
M  END
>  <CHROM.1>
-61.66990022,-177.16806391,-165.81688504,73.42902270,57.27242702,-177.74976240
171.52214682,177.14579298,163.55661011,-61.56833147,178.66696844,46.82724926
1.73834531,13.28577938,2.53698096,1.06358987,-0.19768737

>  <Name>
ligand

>  <RI>
0

>  <Rbt.Current_Directory>
/home/itssahil/PROJECTS/Mol_Feturizer/New_Systems/rnas/1EVV

>  <Rbt.Executable>
rbdock ($Id: //depot/dev/client3/rdock/2013.1/src/exe/rbdock.cxx#4 $)

>  <Rbt.Library>
libRbt.so (2013.1, Build901 2013/11/27)

>  <Rbt.Parameter_File>
/export/apps/rDock/src/rDock_2013.1_src/data/scripts/dock_solv.prm

>  <Rbt.Receptor>
prm/blind_docking_100.prm

>  <SCORE>
-8.14463

>  <SCORE.INTER>
1.3378

>  <SCORE.INTER.CONST>
1

>  <SCORE.INTER.POLAR>
0

>  <SCORE.INTER.ROT>
11

>  <SCORE.INTER.SOLV>
12.4945

>  <SCORE.INTER.VDW>
-14.2063

>  <SCORE.INTER.norm>
0.0955571

>  <SCORE.INTRA>
-9.48243

>  <SCORE.INTRA.DIHEDRAL>
-19.3235

>  <SCORE.INTRA.DIHEDRAL.0>
20.2131

>  <SCORE.INTRA.POLAR>
0

>  <SCORE.INTRA.POLAR.0>
0

>  <SCORE.INTRA.REPUL>
0

>  <SCORE.INTRA.REPUL.0>
0

>  <SCORE.INTRA.SOLV>
0.0421568

>  <SCORE.INTRA.SOLV.lig_0>
-48.2851

>  <SCORE.INTRA.VDW>
0.158252

>  <SCORE.INTRA.VDW.0>
-1.08658

>  <SCORE.INTRA.norm>
-0.677317

>  <SCORE.RESTR>
0

>  <SCORE.RESTR.CAVITY>
0

>  <SCORE.RESTR.norm>
0

>  <SCORE.SYSTEM>
0

>  <SCORE.SYSTEM.CONST>
0

>  <SCORE.SYSTEM.DIHEDRAL>
0

>  <SCORE.SYSTEM.SOLV>
0

>  <SCORE.SYSTEM.norm>
0

>  <SCORE.heavy>
14

>  <SCORE.norm>
-0.58176

>  <RMSD>
30.940

$$$$
ligand
 OpenBabel11021811393D
libRbt.so/2013.1/901 2013/11/27
 14 13  0  0  0  0  0  0  0  0999 V2000
   48.7893    3.7174   12.2764 N   0  0  0  0  0  0  0  0  0  0  0  0
   47.4717    3.2613   12.6912 C   0  0  0  0  0  0  0  0  0  0  0  0
   46.5961    4.4708   13.1204 C   0  0  0  0  0  0  0  0  0  0  0  0
   45.1711    4.1744   13.7092 C   0  0  0  0  0  0  0  0  0  0  0  0
   45.1545    3.4698   15.0434 N   0  0  0  0  0  0  0  0  0  0  0  0
   45.4300    2.0063   14.9554 C   0  0  0  0  0  0  0  0  0  0  0  0
   44.1872    1.1385   15.0362 C   0  0  0  0  0  0  0  0  0  0  0  0
   44.5018   -0.3423   14.9254 C   0  0  0  0  0  0  0  0  0  0  0  0
   44.7635   -0.6316   13.4971 C   0  0  0  0  0  0  0  0  0  0  0  0
   46.0408   -0.1018   12.9624 N   0  0  0  0  0  0  0  0  0  0  0  0
   46.0102    0.1656   11.5025 C   0  0  0  0  0  0  0  0  0  0  0  0
   46.3945   -1.0317   10.5830 C   0  0  0  0  0  0  0  0  0  0  0  0
   47.8608   -1.4031   10.8658 C   0  0  0  0  0  0  0  0  0  0  0  0
   48.7536   -0.3182   10.4668 N   0  0  0  0  0  0  0  0  0  0  0  0
  1  2  1  0  0  0  0
  2  3  1  0  0  0  0
  3  4  1  0  0  0  0
  4  5  1  0  0  0  0
  5  6  1  0  0  0  0
  6  7  1  0  0  0  0
  7  8  1  0  0  0  0
  8  9  1  0  0  0  0
  9 10  1  0  0  0  0
 10 11  1  0  0  0  0
 11 12  1  0  0  0  0
 12 13  1  0  0  0  0
 13 14  1  0  0  0  0
M  END
>  <CHROM.1>
-175.33142051,66.80521580,-77.55165179,-100.95045753,179.25474849,-76.97451885
71.61203429,-153.07156249,-88.29059330,-63.57803865,-65.46936077,46.22283853
1.32666767,12.97403953,-2.02228690,-0.75529331,-2.78368378

>  <Name>
ligand

>  <RI>
0

>  <Rbt.Current_Directory>
/home/itssahil/PROJECTS/Mol_Feturizer/New_Systems/rnas/1EVV

>  <Rbt.Executable>
rbdock ($Id: //depot/dev/client3/rdock/2013.1/src/exe/rbdock.cxx#4 $)

>  <Rbt.Library>
libRbt.so (2013.1, Build901 2013/11/27)

>  <Rbt.Parameter_File>
/export/apps/rDock/src/rDock_2013.1_src/data/scripts/dock_solv.prm

>  <Rbt.Receptor>
prm/blind_docking_60.prm

>  <SCORE>
-3.25143

>  <SCORE.INTER>
3.24899

>  <SCORE.INTER.CONST>
1

>  <SCORE.INTER.POLAR>
0

>  <SCORE.INTER.ROT>
11

>  <SCORE.INTER.SOLV>
8.91717

>  <SCORE.INTER.VDW>
-11.7397

>  <SCORE.INTER.norm>
0.232071

>  <SCORE.INTRA>
-6.50042

>  <SCORE.INTRA.DIHEDRAL>
-15.9574

>  <SCORE.INTRA.DIHEDRAL.0>
20.2131

>  <SCORE.INTRA.POLAR>
0

>  <SCORE.INTRA.POLAR.0>
0

>  <SCORE.INTRA.REPUL>
0

>  <SCORE.INTRA.REPUL.0>
0

>  <SCORE.INTRA.SOLV>
2.53359

>  <SCORE.INTRA.SOLV.lig_0>
-48.2851

>  <SCORE.INTRA.VDW>
0.211479

>  <SCORE.INTRA.VDW.0>
-1.08658

>  <SCORE.INTRA.norm>
-0.464316

>  <SCORE.RESTR>
0

>  <SCORE.RESTR.CAVITY>
0

>  <SCORE.RESTR.norm>
0

>  <SCORE.SYSTEM>
0

>  <SCORE.SYSTEM.CONST>
0

>  <SCORE.SYSTEM.DIHEDRAL>
0

>  <SCORE.SYSTEM.SOLV>
0

>  <SCORE.SYSTEM.norm>
0

>  <SCORE.heavy>
14

>  <SCORE.norm>
-0.232245

>  <RMSD>
31.010

$$$$
ligand
 OpenBabel11021811393D
libRbt.so/2013.1/901 2013/11/27
 14 13  0  0  0  0  0  0  0  0999 V2000
   45.0805    1.3339   18.2362 N   0  0  0  0  0  0  0  0  0  0  0  0
   44.5434    2.6732   18.0517 C   0  0  0  0  0  0  0  0  0  0  0  0
   44.6727    3.1026   16.5642 C   0  0  0  0  0  0  0  0  0  0  0  0
   46.1161    3.2429   15.9624 C   0  0  0  0  0  0  0  0  0  0  0  0
   46.1760    3.6061   14.4992 N   0  0  0  0  0  0  0  0  0  0  0  0
   47.4967    4.1485   14.0666 C   0  0  0  0  0  0  0  0  0  0  0  0
   48.2057    3.2940   13.0317 C   0  0  0  0  0  0  0  0  0  0  0  0
   48.4912    1.8895   13.5318 C   0  0  0  0  0  0  0  0  0  0  0  0
   49.3021    1.2093   12.4964 C   0  0  0  0  0  0  0  0  0  0  0  0
   48.6458    1.0467   11.1769 N   0  0  0  0  0  0  0  0  0  0  0  0
   48.8305   -0.3007   10.5818 C   0  0  0  0  0  0  0  0  0  0  0  0
   47.8872   -1.4176   11.1198 C   0  0  0  0  0  0  0  0  0  0  0  0
   48.3188   -2.7546   10.4920 C   0  0  0  0  0  0  0  0  0  0  0  0
   47.5088   -3.8534   11.0116 N   0  0  0  0  0  0  0  0  0  0  0  0
  1  2  1  0  0  0  0
  2  3  1  0  0  0  0
  3  4  1  0  0  0  0
  4  5  1  0  0  0  0
  5  6  1  0  0  0  0
  6  7  1  0  0  0  0
  7  8  1  0  0  0  0
  8  9  1  0  0  0  0
  9 10  1  0  0  0  0
 10 11  1  0  0  0  0
 11 12  1  0  0  0  0
 12 13  1  0  0  0  0
 13 14  1  0  0  0  0
M  END
>  <CHROM.1>
-63.49617842,177.54560834,161.62296042,117.04028017,-60.00526550,-174.18940566
-62.11693563,-135.79896119,80.49527887,-174.52660425,177.22691690,47.23410102
1.23030459,13.63011971,2.22819092,0.92616721,0.35417432

>  <Name>
ligand

>  <RI>
0

>  <Rbt.Current_Directory>
/home/itssahil/PROJECTS/Mol_Feturizer/New_Systems/rnas/1EVV

>  <Rbt.Executable>
rbdock ($Id: //depot/dev/client3/rdock/2013.1/src/exe/rbdock.cxx#4 $)

>  <Rbt.Library>
libRbt.so (2013.1, Build901 2013/11/27)

>  <Rbt.Parameter_File>
/export/apps/rDock/src/rDock_2013.1_src/data/scripts/dock_solv.prm

>  <Rbt.Receptor>
prm/blind_docking_60.prm

>  <SCORE>
-6.37459

>  <SCORE.INTER>
2.04

>  <SCORE.INTER.CONST>
1

>  <SCORE.INTER.POLAR>
0

>  <SCORE.INTER.ROT>
11

>  <SCORE.INTER.SOLV>
10.781

>  <SCORE.INTER.VDW>
-13.167

>  <SCORE.INTER.norm>
0.145714

>  <SCORE.INTRA>
-8.41458

>  <SCORE.INTRA.DIHEDRAL>
-17.0757

>  <SCORE.INTRA.DIHEDRAL.0>
20.2131

>  <SCORE.INTRA.POLAR>
0

>  <SCORE.INTRA.POLAR.0>
0

>  <SCORE.INTRA.REPUL>
0

>  <SCORE.INTRA.REPUL.0>
0

>  <SCORE.INTRA.SOLV>
0.0841198

>  <SCORE.INTRA.SOLV.lig_0>
-48.2851

>  <SCORE.INTRA.VDW>
0.0811923

>  <SCORE.INTRA.VDW.0>
-1.08658

>  <SCORE.INTRA.norm>
-0.601042

>  <SCORE.RESTR>
0

>  <SCORE.RESTR.CAVITY>
0

>  <SCORE.RESTR.norm>
0

>  <SCORE.SYSTEM>
0

>  <SCORE.SYSTEM.CONST>
0

>  <SCORE.SYSTEM.DIHEDRAL>
0

>  <SCORE.SYSTEM.SOLV>
0

>  <SCORE.SYSTEM.norm>
0

>  <SCORE.heavy>
14

>  <SCORE.norm>
-0.455328

>  <RMSD>
31.092

$$$$
ligand
 OpenBabel11021811393D
libRbt.so/2013.1/901 2013/11/27
 14 13  0  0  0  0  0  0  0  0999 V2000
   44.1005    1.1242   17.2065 N   0  0  0  0  0  0  0  0  0  0  0  0
   45.0008    2.1251   17.7577 C   0  0  0  0  0  0  0  0  0  0  0  0
   45.7761    2.8364   16.6146 C   0  0  0  0  0  0  0  0  0  0  0  0
   44.9432    3.6157   15.5356 C   0  0  0  0  0  0  0  0  0  0  0  0
   45.7534    4.4032   14.5355 N   0  0  0  0  0  0  0  0  0  0  0  0
   46.1880    3.6068   13.3513 C   0  0  0  0  0  0  0  0  0  0  0  0
   47.4019    4.1739   12.6380 C   0  0  0  0  0  0  0  0  0  0  0  0
   47.7606    3.3928   11.3868 C   0  0  0  0  0  0  0  0  0  0  0  0
   48.3884    2.1250   11.8235 C   0  0  0  0  0  0  0  0  0  0  0  0
   48.9352    1.2765   10.7376 N   0  0  0  0  0  0  0  0  0  0  0  0
   49.1275   -0.1423   11.1297 C   0  0  0  0  0  0  0  0  0  0  0  0
   47.9906   -1.1232   10.7150 C   0  0  0  0  0  0  0  0  0  0  0  0
   48.3521   -2.5253   11.2360 C   0  0  0  0  0  0  0  0  0  0  0  0
   47.2645   -3.4663   10.9810 N   0  0  0  0  0  0  0  0  0  0  0  0
  1  2  1  0  0  0  0
  2  3  1  0  0  0  0
  3  4  1  0  0  0  0
  4  5  1  0  0  0  0
  5  6  1  0  0  0  0
  6  7  1  0  0  0  0
  7  8  1  0  0  0  0
  8  9  1  0  0  0  0
  9 10  1  0  0  0  0
 10 11  1  0  0  0  0
 11 12  1  0  0  0  0
 12 13  1  0  0  0  0
 13 14  1  0  0  0  0
M  END
>  <CHROM.1>
60.47339546,173.90791919,86.70121430,-157.41207630,-176.19215064,-74.61824315
-174.14422535,-160.32814073,97.73409686,-178.61191582,174.92892734,46.92751494
1.53046580,13.26057160,2.50101827,1.01585760,0.05335488

>  <Name>
ligand

>  <RI>
0

>  <Rbt.Current_Directory>
/home/itssahil/PROJECTS/Mol_Feturizer/New_Systems/rnas/1EVV

>  <Rbt.Executable>
rbdock ($Id: //depot/dev/client3/rdock/2013.1/src/exe/rbdock.cxx#4 $)

>  <Rbt.Library>
libRbt.so (2013.1, Build901 2013/11/27)

>  <Rbt.Parameter_File>
/export/apps/rDock/src/rDock_2013.1_src/data/scripts/dock_solv.prm

>  <Rbt.Receptor>
prm/blind_docking_60.prm

>  <SCORE>
-8.87615

>  <SCORE.INTER>
-0.681305

>  <SCORE.INTER.CONST>
1

>  <SCORE.INTER.POLAR>
0

>  <SCORE.INTER.ROT>
11

>  <SCORE.INTER.SOLV>
11.4714

>  <SCORE.INTER.VDW>
-15.2113

>  <SCORE.INTER.norm>
-0.0486646

>  <SCORE.INTRA>
-8.19485

>  <SCORE.INTRA.DIHEDRAL>
-16.9349

>  <SCORE.INTRA.DIHEDRAL.0>
20.2131

>  <SCORE.INTRA.POLAR>
0

>  <SCORE.INTRA.POLAR.0>
0

>  <SCORE.INTRA.REPUL>
0

>  <SCORE.INTRA.REPUL.0>
0

>  <SCORE.INTRA.SOLV>
-0.541059

>  <SCORE.INTRA.SOLV.lig_0>
-48.2851

>  <SCORE.INTRA.VDW>
0.543132

>  <SCORE.INTRA.VDW.0>
-1.08658

>  <SCORE.INTRA.norm>
-0.585346

>  <SCORE.RESTR>
0

>  <SCORE.RESTR.CAVITY>
0

>  <SCORE.RESTR.norm>
0

>  <SCORE.SYSTEM>
0

>  <SCORE.SYSTEM.CONST>
0

>  <SCORE.SYSTEM.DIHEDRAL>
0

>  <SCORE.SYSTEM.SOLV>
0

>  <SCORE.SYSTEM.norm>
0

>  <SCORE.heavy>
14

>  <SCORE.norm>
-0.634011

>  <RMSD>
31.145

$$$$
ligand
 OpenBabel11021811393D
libRbt.so/2013.1/901 2013/11/27
 14 13  0  0  0  0  0  0  0  0999 V2000
   44.6514    1.8972   17.2219 N   0  0  0  0  0  0  0  0  0  0  0  0
   44.8319    3.2640   16.7579 C   0  0  0  0  0  0  0  0  0  0  0  0
   45.2445    3.2718   15.2601 C   0  0  0  0  0  0  0  0  0  0  0  0
   45.4785    4.6623   14.5693 C   0  0  0  0  0  0  0  0  0  0  0  0
   45.8813    4.6048   13.1164 N   0  0  0  0  0  0  0  0  0  0  0  0
   47.2621    4.0857   12.8940 C   0  0  0  0  0  0  0  0  0  0  0  0
   47.5978    3.8296   11.4360 C   0  0  0  0  0  0  0  0  0  0  0  0
   49.0123    3.3132   11.2453 C   0  0  0  0  0  0  0  0  0  0  0  0
   49.0556    1.9361   11.7876 C   0  0  0  0  0  0  0  0  0  0  0  0
   48.1649    0.9583   11.1177 N   0  0  0  0  0  0  0  0  0  0  0  0
   48.8334   -0.3242   10.7826 C   0  0  0  0  0  0  0  0  0  0  0  0
   47.8931   -1.5502   10.5840 C   0  0  0  0  0  0  0  0  0  0  0  0
   47.1558   -1.8098   11.9095 C   0  0  0  0  0  0  0  0  0  0  0  0
   46.2916   -2.9820   11.7977 N   0  0  0  0  0  0  0  0  0  0  0  0
  1  2  1  0  0  0  0
  2  3  1  0  0  0  0
  3  4  1  0  0  0  0
  4  5  1  0  0  0  0
  5  6  1  0  0  0  0
  6  7  1  0  0  0  0
  7  8  1  0  0  0  0
  8  9  1  0  0  0  0
  9 10  1  0  0  0  0
 10 11  1  0  0  0  0
 11 12  1  0  0  0  0
 12 13  1  0  0  0  0
 13 14  1  0  0  0  0
M  END
>  <CHROM.1>
179.60821385,179.81194382,-70.32213237,171.31722707,179.54555777,69.90896088
61.83548278,132.75301567,158.00511263,-62.02531382,-177.97704710,46.95417368
1.79718499,12.89127251,2.25348858,0.92993556,0.16931075

>  <Name>
ligand

>  <RI>
0

>  <Rbt.Current_Directory>
/home/itssahil/PROJECTS/Mol_Feturizer/New_Systems/rnas/1EVV

>  <Rbt.Executable>
rbdock ($Id: //depot/dev/client3/rdock/2013.1/src/exe/rbdock.cxx#4 $)

>  <Rbt.Library>
libRbt.so (2013.1, Build901 2013/11/27)

>  <Rbt.Parameter_File>
/export/apps/rDock/src/rDock_2013.1_src/data/scripts/dock_solv.prm

>  <Rbt.Receptor>
prm/blind_docking_60.prm

>  <SCORE>
-9.44524

>  <SCORE.INTER>
-1.27525

>  <SCORE.INTER.CONST>
1

>  <SCORE.INTER.POLAR>
0

>  <SCORE.INTER.ROT>
11

>  <SCORE.INTER.SOLV>
9.27811

>  <SCORE.INTER.VDW>
-14.8762

>  <SCORE.INTER.norm>
-0.0910895

>  <SCORE.INTRA>
-8.16999

>  <SCORE.INTRA.DIHEDRAL>
-18.1918

>  <SCORE.INTRA.DIHEDRAL.0>
20.2131

>  <SCORE.INTRA.POLAR>
0

>  <SCORE.INTRA.POLAR.0>
0

>  <SCORE.INTRA.REPUL>
0

>  <SCORE.INTRA.REPUL.0>
0

>  <SCORE.INTRA.SOLV>
-0.314789

>  <SCORE.INTRA.SOLV.lig_0>
-48.2851

>  <SCORE.INTRA.VDW>
1.08332

>  <SCORE.INTRA.VDW.0>
-1.08658

>  <SCORE.INTRA.norm>
-0.583571

>  <SCORE.RESTR>
0

>  <SCORE.RESTR.CAVITY>
0

>  <SCORE.RESTR.norm>
0

>  <SCORE.SYSTEM>
0

>  <SCORE.SYSTEM.CONST>
0

>  <SCORE.SYSTEM.DIHEDRAL>
0

>  <SCORE.SYSTEM.SOLV>
0

>  <SCORE.SYSTEM.norm>
0

>  <SCORE.heavy>
14

>  <SCORE.norm>
-0.67466

>  <RMSD>
31.173

$$$$
ligand
 OpenBabel11021811393D
libRbt.so/2013.1/901 2013/11/27
 14 13  0  0  0  0  0  0  0  0999 V2000
   37.3626    2.6514   16.1327 N   0  0  0  0  0  0  0  0  0  0  0  0
   38.4302    2.0206   15.3722 C   0  0  0  0  0  0  0  0  0  0  0  0
   37.8522    1.3358   14.1031 C   0  0  0  0  0  0  0  0  0  0  0  0
   36.7620    0.2231   14.3002 C   0  0  0  0  0  0  0  0  0  0  0  0
   37.2033   -0.9844   15.0900 N   0  0  0  0  0  0  0  0  0  0  0  0
   37.8887   -2.0240   14.2685 C   0  0  0  0  0  0  0  0  0  0  0  0
   39.3834   -2.1192   14.5153 C   0  0  0  0  0  0  0  0  0  0  0  0
   40.0543   -3.1599   13.6373 C   0  0  0  0  0  0  0  0  0  0  0  0
   41.4989   -3.1454   13.9620 C   0  0  0  0  0  0  0  0  0  0  0  0
   42.2050   -1.8741   13.6731 N   0  0  0  0  0  0  0  0  0  0  0  0
   43.5682   -1.8040   14.2567 C   0  0  0  0  0  0  0  0  0  0  0  0
   44.2516   -0.4045   14.2238 C   0  0  0  0  0  0  0  0  0  0  0  0
   44.4783   -0.0153   12.7523 C   0  0  0  0  0  0  0  0  0  0  0  0
   45.4313   -0.9237   12.1198 N   0  0  0  0  0  0  0  0  0  0  0  0
  1  2  1  0  0  0  0
  2  3  1  0  0  0  0
  3  4  1  0  0  0  0
  4  5  1  0  0  0  0
  5  6  1  0  0  0  0
  6  7  1  0  0  0  0
  7  8  1  0  0  0  0
  8  9  1  0  0  0  0
  9 10  1  0  0  0  0
 10 11  1  0  0  0  0
 11 12  1  0  0  0  0
 12 13  1  0  0  0  0
 13 14  1  0  0  0  0
M  END
>  <CHROM.1>
-58.80637617,-61.16883450,-85.28912477,108.06189998,-178.45888949,179.45103773
-62.88894882,168.38251477,-168.74439014,-64.71137708,-65.15687614,40.45497200
-0.73044867,14.17189965,-2.84353216,-0.21026212,-2.98846063

>  <Name>
ligand

>  <RI>
0

>  <Rbt.Current_Directory>
/home/itssahil/PROJECTS/Mol_Feturizer/New_Systems/rnas/1EVV

>  <Rbt.Executable>
rbdock ($Id: //depot/dev/client3/rdock/2013.1/src/exe/rbdock.cxx#4 $)

>  <Rbt.Library>
libRbt.so (2013.1, Build901 2013/11/27)

>  <Rbt.Parameter_File>
/export/apps/rDock/src/rDock_2013.1_src/data/scripts/dock_solv.prm

>  <Rbt.Receptor>
prm/blind_docking_60.prm

>  <SCORE>
-10.4685

>  <SCORE.INTER>
-2.48332

>  <SCORE.INTER.CONST>
1

>  <SCORE.INTER.POLAR>
0

>  <SCORE.INTER.ROT>
11

>  <SCORE.INTER.SOLV>
6.21117

>  <SCORE.INTER.VDW>
-14.6593

>  <SCORE.INTER.norm>
-0.17738

>  <SCORE.INTRA>
-7.98513

>  <SCORE.INTRA.DIHEDRAL>
-18.2284

>  <SCORE.INTRA.DIHEDRAL.0>
20.2131

>  <SCORE.INTRA.POLAR>
0

>  <SCORE.INTRA.POLAR.0>
0

>  <SCORE.INTRA.REPUL>
0

>  <SCORE.INTRA.REPUL.0>
0

>  <SCORE.INTRA.SOLV>
2.36142

>  <SCORE.INTRA.SOLV.lig_0>
-48.2851

>  <SCORE.INTRA.VDW>
-0.0516522

>  <SCORE.INTRA.VDW.0>
-1.08658

>  <SCORE.INTRA.norm>
-0.570367

>  <SCORE.RESTR>
0

>  <SCORE.RESTR.CAVITY>
0

>  <SCORE.RESTR.norm>
0

>  <SCORE.SYSTEM>
0

>  <SCORE.SYSTEM.CONST>
0

>  <SCORE.SYSTEM.DIHEDRAL>
0

>  <SCORE.SYSTEM.SOLV>
0

>  <SCORE.SYSTEM.norm>
0

>  <SCORE.heavy>
14

>  <SCORE.norm>
-0.747747

>  <RMSD>
31.279

$$$$
ligand
 OpenBabel11021811393D
libRbt.so/2013.1/901 2013/11/27
 14 13  0  0  0  0  0  0  0  0999 V2000
   37.6312    2.5706   15.4591 N   0  0  0  0  0  0  0  0  0  0  0  0
   37.6010    1.9682   14.1354 C   0  0  0  0  0  0  0  0  0  0  0  0
   36.8298    0.6202   14.1771 C   0  0  0  0  0  0  0  0  0  0  0  0
   37.4247   -0.5402   15.0518 C   0  0  0  0  0  0  0  0  0  0  0  0
   38.8051   -1.0057   14.6590 N   0  0  0  0  0  0  0  0  0  0  0  0
   38.8675   -2.4442   14.2687 C   0  0  0  0  0  0  0  0  0  0  0  0
   40.2497   -3.0587   14.3955 C   0  0  0  0  0  0  0  0  0  0  0  0
   41.2740   -2.3790   13.5050 C   0  0  0  0  0  0  0  0  0  0  0  0
   42.5889   -2.9940   13.7969 C   0  0  0  0  0  0  0  0  0  0  0  0
   43.6841   -2.6301   12.8661 N   0  0  0  0  0  0  0  0  0  0  0  0
   44.1969   -1.2506   13.0599 C   0  0  0  0  0  0  0  0  0  0  0  0
   45.3232   -1.0861   14.1234 C   0  0  0  0  0  0  0  0  0  0  0  0
   44.6636   -0.9892   15.5104 C   0  0  0  0  0  0  0  0  0  0  0  0
   43.9404    0.2721   15.6503 N   0  0  0  0  0  0  0  0  0  0  0  0
  1  2  1  0  0  0  0
  2  3  1  0  0  0  0
  3  4  1  0  0  0  0
  4  5  1  0  0  0  0
  5  6  1  0  0  0  0
  6  7  1  0  0  0  0
  7  8  1  0  0  0  0
  8  9  1  0  0  0  0
  9 10  1  0  0  0  0
 10 11  1  0  0  0  0
 11 12  1  0  0  0  0
 12 13  1  0  0  0  0
 13 14  1  0  0  0  0
M  END
>  <CHROM.1>
-63.47939499,-60.36270470,-119.69011258,-157.47486383,-61.21512759,175.66629375
169.95634501,74.12688000,86.94074512,-82.72284370,-69.47866121,40.93426324
-0.92506290,14.33262042,-2.80450135,0.01905359,-2.83640262

>  <Name>
ligand

>  <RI>
0

>  <Rbt.Current_Directory>
/home/itssahil/PROJECTS/Mol_Feturizer/New_Systems/rnas/1EVV

>  <Rbt.Executable>
rbdock ($Id: //depot/dev/client3/rdock/2013.1/src/exe/rbdock.cxx#4 $)

>  <Rbt.Library>
libRbt.so (2013.1, Build901 2013/11/27)

>  <Rbt.Parameter_File>
/export/apps/rDock/src/rDock_2013.1_src/data/scripts/dock_solv.prm

>  <Rbt.Receptor>
prm/blind_docking_100.prm

>  <SCORE>
-8.76002

>  <SCORE.INTER>
-2.51971

>  <SCORE.INTER.CONST>
1

>  <SCORE.INTER.POLAR>
0

>  <SCORE.INTER.ROT>
11

>  <SCORE.INTER.SOLV>
10.3285

>  <SCORE.INTER.VDW>
-16.056

>  <SCORE.INTER.norm>
-0.179979

>  <SCORE.INTRA>
-6.24031

>  <SCORE.INTRA.DIHEDRAL>
-15.4113

>  <SCORE.INTRA.DIHEDRAL.0>
20.2131

>  <SCORE.INTRA.POLAR>
0

>  <SCORE.INTRA.POLAR.0>
0

>  <SCORE.INTRA.REPUL>
0

>  <SCORE.INTRA.REPUL.0>
0

>  <SCORE.INTRA.SOLV>
2.63682

>  <SCORE.INTRA.SOLV.lig_0>
-48.2851

>  <SCORE.INTRA.VDW>
0.146913

>  <SCORE.INTRA.VDW.0>
-1.08658

>  <SCORE.INTRA.norm>
-0.445736

>  <SCORE.RESTR>
0

>  <SCORE.RESTR.CAVITY>
0

>  <SCORE.RESTR.norm>
0

>  <SCORE.SYSTEM>
0

>  <SCORE.SYSTEM.CONST>
0

>  <SCORE.SYSTEM.DIHEDRAL>
0

>  <SCORE.SYSTEM.SOLV>
0

>  <SCORE.SYSTEM.norm>
0

>  <SCORE.heavy>
14

>  <SCORE.norm>
-0.625716

>  <RMSD>
31.287

$$$$
ligand
 OpenBabel11021811393D
libRbt.so/2013.1/901 2013/11/27
 14 13  0  0  0  0  0  0  0  0999 V2000
   44.7478    1.6714   18.1741 N   0  0  0  0  0  0  0  0  0  0  0  0
   44.0345    2.5158   17.2284 C   0  0  0  0  0  0  0  0  0  0  0  0
   44.9938    3.5828   16.6328 C   0  0  0  0  0  0  0  0  0  0  0  0
   46.1970    3.0824   15.7568 C   0  0  0  0  0  0  0  0  0  0  0  0
   45.8211    2.4533   14.4379 N   0  0  0  0  0  0  0  0  0  0  0  0
   45.9914    3.3616   13.2668 C   0  0  0  0  0  0  0  0  0  0  0  0
   47.2897    3.1539   12.5083 C   0  0  0  0  0  0  0  0  0  0  0  0
   47.3800    1.7785   11.8724 C   0  0  0  0  0  0  0  0  0  0  0  0
   48.7308    1.6553   11.2788 C   0  0  0  0  0  0  0  0  0  0  0  0
   48.9559    0.4462   10.4507 N   0  0  0  0  0  0  0  0  0  0  0  0
   49.5666   -0.6820   11.1977 C   0  0  0  0  0  0  0  0  0  0  0  0
   48.5704   -1.6484   11.9052 C   0  0  0  0  0  0  0  0  0  0  0  0
   47.7681   -2.3894   10.8211 C   0  0  0  0  0  0  0  0  0  0  0  0
   46.7847   -3.2828   11.4279 N   0  0  0  0  0  0  0  0  0  0  0  0
  1  2  1  0  0  0  0
  2  3  1  0  0  0  0
  3  4  1  0  0  0  0
  4  5  1  0  0  0  0
  5  6  1  0  0  0  0
  6  7  1  0  0  0  0
  7  8  1  0  0  0  0
  8  9  1  0  0  0  0
  9 10  1  0  0  0  0
 10 11  1  0  0  0  0
 11 12  1  0  0  0  0
 12 13  1  0  0  0  0
 13 14  1  0  0  0  0
M  END
>  <CHROM.1>
64.30421854,67.43240554,101.01296704,98.01597415,63.81764955,-174.75186534
-172.21182599,-94.44921270,88.59538900,66.59999422,-178.22585460,46.91669157
1.12165648,13.35409613,2.51311356,0.98945460,0.09367437

>  <Name>
ligand

>  <RI>
0

>  <Rbt.Current_Directory>
/home/itssahil/PROJECTS/Mol_Feturizer/New_Systems/rnas/1EVV

>  <Rbt.Executable>
rbdock ($Id: //depot/dev/client3/rdock/2013.1/src/exe/rbdock.cxx#4 $)

>  <Rbt.Library>
libRbt.so (2013.1, Build901 2013/11/27)

>  <Rbt.Parameter_File>
/export/apps/rDock/src/rDock_2013.1_src/data/scripts/dock_solv.prm

>  <Rbt.Receptor>
prm/blind_docking_80.prm

>  <SCORE>
-6.3

>  <SCORE.INTER>
1.65109

>  <SCORE.INTER.CONST>
1

>  <SCORE.INTER.POLAR>
0

>  <SCORE.INTER.ROT>
11

>  <SCORE.INTER.SOLV>
11.5716

>  <SCORE.INTER.VDW>
-13.6898

>  <SCORE.INTER.norm>
0.117935

>  <SCORE.INTRA>
-7.9511

>  <SCORE.INTRA.DIHEDRAL>
-16.2998

>  <SCORE.INTRA.DIHEDRAL.0>
20.2131

>  <SCORE.INTRA.POLAR>
0

>  <SCORE.INTRA.POLAR.0>
0

>  <SCORE.INTRA.REPUL>
0

>  <SCORE.INTRA.REPUL.0>
0

>  <SCORE.INTRA.SOLV>
0.670558

>  <SCORE.INTRA.SOLV.lig_0>
-48.2851

>  <SCORE.INTRA.VDW>
-0.136492

>  <SCORE.INTRA.VDW.0>
-1.08658

>  <SCORE.INTRA.norm>
-0.567936

>  <SCORE.RESTR>
0

>  <SCORE.RESTR.CAVITY>
0

>  <SCORE.RESTR.norm>
0

>  <SCORE.SYSTEM>
0

>  <SCORE.SYSTEM.CONST>
0

>  <SCORE.SYSTEM.DIHEDRAL>
0

>  <SCORE.SYSTEM.SOLV>
0

>  <SCORE.SYSTEM.norm>
0

>  <SCORE.heavy>
14

>  <SCORE.norm>
-0.45

>  <RMSD>
31.310

$$$$
ligand
 OpenBabel11021811393D
libRbt.so/2013.1/901 2013/11/27
 14 13  0  0  0  0  0  0  0  0999 V2000
   38.2338    2.2262   14.9900 N   0  0  0  0  0  0  0  0  0  0  0  0
   37.9859    0.7928   14.9929 C   0  0  0  0  0  0  0  0  0  0  0  0
   36.6510    0.4780   14.2631 C   0  0  0  0  0  0  0  0  0  0  0  0
   36.1189   -0.9986   14.3084 C   0  0  0  0  0  0  0  0  0  0  0  0
   37.0501   -2.0409   13.7401 N   0  0  0  0  0  0  0  0  0  0  0  0
   37.7980   -2.8101   14.7767 C   0  0  0  0  0  0  0  0  0  0  0  0
   39.2289   -3.1372   14.3898 C   0  0  0  0  0  0  0  0  0  0  0  0
   40.0889   -1.8961   14.2335 C   0  0  0  0  0  0  0  0  0  0  0  0
   41.4449   -2.3457   13.8447 C   0  0  0  0  0  0  0  0  0  0  0  0
   42.4650   -1.2753   13.7348 N   0  0  0  0  0  0  0  0  0  0  0  0
   43.8577   -1.7845   13.6669 C   0  0  0  0  0  0  0  0  0  0  0  0
   44.9628   -0.8153   14.1829 C   0  0  0  0  0  0  0  0  0  0  0  0
   44.9756    0.4261   13.2736 C   0  0  0  0  0  0  0  0  0  0  0  0
   46.0442    1.3414   13.6659 N   0  0  0  0  0  0  0  0  0  0  0  0
  1  2  1  0  0  0  0
  2  3  1  0  0  0  0
  3  4  1  0  0  0  0
  4  5  1  0  0  0  0
  5  6  1  0  0  0  0
  6  7  1  0  0  0  0
  7  8  1  0  0  0  0
  8  9  1  0  0  0  0
  9 10  1  0  0  0  0
 10 11  1  0  0  0  0
 11 12  1  0  0  0  0
 12 13  1  0  0  0  0
 13 14  1  0  0  0  0
M  END
>  <CHROM.1>
-172.83225008,-58.69845459,101.27445934,-142.42381849,64.34173130,-179.42019162
-175.89631930,166.15436509,-153.50033201,-63.73076215,-176.91597024,40.49308401
-0.84603183,14.14741077,3.06981237,-0.10332498,-3.06250637

>  <Name>
ligand

>  <RI>
0

>  <Rbt.Current_Directory>
/home/itssahil/PROJECTS/Mol_Feturizer/New_Systems/rnas/1EVV

>  <Rbt.Executable>
rbdock ($Id: //depot/dev/client3/rdock/2013.1/src/exe/rbdock.cxx#4 $)

>  <Rbt.Library>
libRbt.so (2013.1, Build901 2013/11/27)

>  <Rbt.Parameter_File>
/export/apps/rDock/src/rDock_2013.1_src/data/scripts/dock_solv.prm

>  <Rbt.Receptor>
prm/blind_docking_60.prm

>  <SCORE>
-10.6387

>  <SCORE.INTER>
-1.16299

>  <SCORE.INTER.CONST>
1

>  <SCORE.INTER.POLAR>
0

>  <SCORE.INTER.ROT>
11

>  <SCORE.INTER.SOLV>
9.28717

>  <SCORE.INTER.VDW>
-14.8044

>  <SCORE.INTER.norm>
-0.083071

>  <SCORE.INTRA>
-9.47572

>  <SCORE.INTRA.DIHEDRAL>
-17.383

>  <SCORE.INTRA.DIHEDRAL.0>
20.2131

>  <SCORE.INTRA.POLAR>
0

>  <SCORE.INTRA.POLAR.0>
0

>  <SCORE.INTRA.REPUL>
0

>  <SCORE.INTRA.REPUL.0>
0

>  <SCORE.INTRA.SOLV>
-0.286003

>  <SCORE.INTRA.SOLV.lig_0>
-48.2851

>  <SCORE.INTRA.VDW>
-0.64121

>  <SCORE.INTRA.VDW.0>
-1.08658

>  <SCORE.INTRA.norm>
-0.676837

>  <SCORE.RESTR>
0

>  <SCORE.RESTR.CAVITY>
0

>  <SCORE.RESTR.norm>
0

>  <SCORE.SYSTEM>
0

>  <SCORE.SYSTEM.CONST>
0

>  <SCORE.SYSTEM.DIHEDRAL>
0

>  <SCORE.SYSTEM.SOLV>
0

>  <SCORE.SYSTEM.norm>
0

>  <SCORE.heavy>
14

>  <SCORE.norm>
-0.759908

>  <RMSD>
31.320

$$$$
ligand
 OpenBabel11021811393D
libRbt.so/2013.1/901 2013/11/27
 14 13  0  0  0  0  0  0  0  0999 V2000
   36.4024   -0.6216   15.4520 N   0  0  0  0  0  0  0  0  0  0  0  0
   36.1232   -1.2702   14.1802 C   0  0  0  0  0  0  0  0  0  0  0  0
   36.2946   -2.8085   14.3137 C   0  0  0  0  0  0  0  0  0  0  0  0
   37.7220   -3.3615   14.6634 C   0  0  0  0  0  0  0  0  0  0  0  0
   38.8086   -3.0244   13.6723 N   0  0  0  0  0  0  0  0  0  0  0  0
   40.1839   -3.0651   14.2489 C   0  0  0  0  0  0  0  0  0  0  0  0
   41.2531   -2.4933   13.3358 C   0  0  0  0  0  0  0  0  0  0  0  0
   42.6298   -2.4984   13.9752 C   0  0  0  0  0  0  0  0  0  0  0  0
   43.5397   -1.7626   13.0681 C   0  0  0  0  0  0  0  0  0  0  0  0
   44.8648   -1.4169   13.6364 N   0  0  0  0  0  0  0  0  0  0  0  0
   44.9196   -0.0607   14.2376 C   0  0  0  0  0  0  0  0  0  0  0  0
   44.3809    0.0603   15.6942 C   0  0  0  0  0  0  0  0  0  0  0  0
   44.4675    1.5374   16.1172 C   0  0  0  0  0  0  0  0  0  0  0  0
   44.2658    1.6739   17.5574 N   0  0  0  0  0  0  0  0  0  0  0  0
  1  2  1  0  0  0  0
  2  3  1  0  0  0  0
  3  4  1  0  0  0  0
  4  5  1  0  0  0  0
  5  6  1  0  0  0  0
  6  7  1  0  0  0  0
  7  8  1  0  0  0  0
  8  9  1  0  0  0  0
  9 10  1  0  0  0  0
 10 11  1  0  0  0  0
 11 12  1  0  0  0  0
 12 13  1  0  0  0  0
 13 14  1  0  0  0  0
M  END
>  <CHROM.1>
-63.21191961,-59.96902342,156.96738544,-169.72626373,177.65553956,-172.73263413
168.06569194,-93.87227487,82.47703018,-177.74269563,-167.20778892,41.13257676
-1.36532898,14.58211137,2.83746551,-0.12251218,-2.44541687

>  <Name>
ligand

>  <RI>
0

>  <Rbt.Current_Directory>
/home/itssahil/PROJECTS/Mol_Feturizer/New_Systems/rnas/1EVV

>  <Rbt.Executable>
rbdock ($Id: //depot/dev/client3/rdock/2013.1/src/exe/rbdock.cxx#4 $)

>  <Rbt.Library>
libRbt.so (2013.1, Build901 2013/11/27)

>  <Rbt.Parameter_File>
/export/apps/rDock/src/rDock_2013.1_src/data/scripts/dock_solv.prm

>  <Rbt.Receptor>
prm/blind_docking_60.prm

>  <SCORE>
-9.96473

>  <SCORE.INTER>
-1.23436

>  <SCORE.INTER.CONST>
1

>  <SCORE.INTER.POLAR>
0

>  <SCORE.INTER.ROT>
11

>  <SCORE.INTER.SOLV>
8.99839

>  <SCORE.INTER.VDW>
-14.7557

>  <SCORE.INTER.norm>
-0.0881686

>  <SCORE.INTRA>
-8.73037

>  <SCORE.INTRA.DIHEDRAL>
-17.2362

>  <SCORE.INTRA.DIHEDRAL.0>
20.2131

>  <SCORE.INTRA.POLAR>
0

>  <SCORE.INTRA.POLAR.0>
0

>  <SCORE.INTRA.REPUL>
0

>  <SCORE.INTRA.REPUL.0>
0

>  <SCORE.INTRA.SOLV>
0.155328

>  <SCORE.INTRA.SOLV.lig_0>
-48.2851

>  <SCORE.INTRA.VDW>
-0.189917

>  <SCORE.INTRA.VDW.0>
-1.08658

>  <SCORE.INTRA.norm>
-0.623598

>  <SCORE.RESTR>
0

>  <SCORE.RESTR.CAVITY>
0

>  <SCORE.RESTR.norm>
0

>  <SCORE.SYSTEM>
0

>  <SCORE.SYSTEM.CONST>
0

>  <SCORE.SYSTEM.DIHEDRAL>
0

>  <SCORE.SYSTEM.SOLV>
0

>  <SCORE.SYSTEM.norm>
0

>  <SCORE.heavy>
14

>  <SCORE.norm>
-0.711766

>  <RMSD>
31.385

$$$$
ligand
 OpenBabel11021811393D
libRbt.so/2013.1/901 2013/11/27
 14 13  0  0  0  0  0  0  0  0999 V2000
   46.5987    7.6064   14.0177 N   0  0  0  0  0  0  0  0  0  0  0  0
   45.8477    6.9566   12.9547 C   0  0  0  0  0  0  0  0  0  0  0  0
   45.0461    5.7531   13.5229 C   0  0  0  0  0  0  0  0  0  0  0  0
   45.8450    4.6198   14.2597 C   0  0  0  0  0  0  0  0  0  0  0  0
   45.0253    3.4349   14.7075 N   0  0  0  0  0  0  0  0  0  0  0  0
   45.6709    2.1180   14.4348 C   0  0  0  0  0  0  0  0  0  0  0  0
   45.3913    1.5692   13.0475 C   0  0  0  0  0  0  0  0  0  0  0  0
   46.3095    0.4176   12.6799 C   0  0  0  0  0  0  0  0  0  0  0  0
   45.8786   -0.0840   11.3552 C   0  0  0  0  0  0  0  0  0  0  0  0
   46.9110   -0.8173   10.5840 N   0  0  0  0  0  0  0  0  0  0  0  0
   47.1438   -2.2017   11.0668 C   0  0  0  0  0  0  0  0  0  0  0  0
   48.6330   -2.6497   11.1572 C   0  0  0  0  0  0  0  0  0  0  0  0
   48.6876   -3.9842   11.9213 C   0  0  0  0  0  0  0  0  0  0  0  0
   50.0579   -4.4860   11.9852 N   0  0  0  0  0  0  0  0  0  0  0  0
  1  2  1  0  0  0  0
  2  3  1  0  0  0  0
  3  4  1  0  0  0  0
  4  5  1  0  0  0  0
  5  6  1  0  0  0  0
  6  7  1  0  0  0  0
  7  8  1  0  0  0  0
  8  9  1  0  0  0  0
  9 10  1  0  0  0  0
 10 11  1  0  0  0  0
 11 12  1  0  0  0  0
 12 13  1  0  0  0  0
 13 14  1  0  0  0  0
M  END
>  <CHROM.1>
-57.57736870,-176.06931102,136.38152664,-86.46728246,166.30473276,176.22641647
157.16805388,76.47669934,-136.98312232,169.21254102,177.43384179,46.64598250
1.30370588,12.69240181,-1.86715548,-0.25821099,-2.96190345

>  <Name>
ligand

>  <RI>
0

>  <Rbt.Current_Directory>
/home/itssahil/PROJECTS/Mol_Feturizer/New_Systems/rnas/1EVV

>  <Rbt.Executable>
rbdock ($Id: //depot/dev/client3/rdock/2013.1/src/exe/rbdock.cxx#4 $)

>  <Rbt.Library>
libRbt.so (2013.1, Build901 2013/11/27)

>  <Rbt.Parameter_File>
/export/apps/rDock/src/rDock_2013.1_src/data/scripts/dock_solv.prm

>  <Rbt.Receptor>
prm/blind_docking_100.prm

>  <SCORE>
-4.33831

>  <SCORE.INTER>
3.1414

>  <SCORE.INTER.CONST>
1

>  <SCORE.INTER.POLAR>
0

>  <SCORE.INTER.ROT>
11

>  <SCORE.INTER.SOLV>
8.65301

>  <SCORE.INTER.VDW>
-11.7234

>  <SCORE.INTER.norm>
0.224386

>  <SCORE.INTRA>
-7.48309

>  <SCORE.INTRA.DIHEDRAL>
-14.5217

>  <SCORE.INTRA.DIHEDRAL.0>
20.2131

>  <SCORE.INTRA.POLAR>
0

>  <SCORE.INTRA.POLAR.0>
0

>  <SCORE.INTRA.REPUL>
0

>  <SCORE.INTRA.REPUL.0>
0

>  <SCORE.INTRA.SOLV>
-0.710869

>  <SCORE.INTRA.SOLV.lig_0>
-48.2851

>  <SCORE.INTRA.VDW>
0.133205

>  <SCORE.INTRA.VDW.0>
-1.08658

>  <SCORE.INTRA.norm>
-0.534506

>  <SCORE.RESTR>
0.00337226

>  <SCORE.RESTR.CAVITY>
0.00337226

>  <SCORE.RESTR.norm>
0.000240876

>  <SCORE.SYSTEM>
0

>  <SCORE.SYSTEM.CONST>
0

>  <SCORE.SYSTEM.DIHEDRAL>
0

>  <SCORE.SYSTEM.SOLV>
0

>  <SCORE.SYSTEM.norm>
0

>  <SCORE.heavy>
14

>  <SCORE.norm>
-0.309879

>  <RMSD>
31.475

$$$$
ligand
 OpenBabel11021811393D
libRbt.so/2013.1/901 2013/11/27
 14 13  0  0  0  0  0  0  0  0999 V2000
   45.3724   -2.6866   10.7821 N   0  0  0  0  0  0  0  0  0  0  0  0
   46.8164   -2.5120   10.7579 C   0  0  0  0  0  0  0  0  0  0  0  0
   47.1723   -1.0034   10.6522 C   0  0  0  0  0  0  0  0  0  0  0  0
   48.6906   -0.6035   10.6681 C   0  0  0  0  0  0  0  0  0  0  0  0
   48.9730    0.8745   10.5574 N   0  0  0  0  0  0  0  0  0  0  0  0
   49.0402    1.5753   11.8726 C   0  0  0  0  0  0  0  0  0  0  0  0
   49.1600    3.0845   11.7624 C   0  0  0  0  0  0  0  0  0  0  0  0
   47.8680    3.7405   11.3100 C   0  0  0  0  0  0  0  0  0  0  0  0
   47.1125    4.1121   12.5280 C   0  0  0  0  0  0  0  0  0  0  0  0
   46.6637    2.9781   13.3712 N   0  0  0  0  0  0  0  0  0  0  0  0
   45.9244    3.3970   14.5884 C   0  0  0  0  0  0  0  0  0  0  0  0
   45.6302    2.2735   15.6265 C   0  0  0  0  0  0  0  0  0  0  0  0
   44.7951    2.8805   16.7676 C   0  0  0  0  0  0  0  0  0  0  0  0
   44.5126    1.8765   17.7902 N   0  0  0  0  0  0  0  0  0  0  0  0
  1  2  1  0  0  0  0
  2  3  1  0  0  0  0
  3  4  1  0  0  0  0
  4  5  1  0  0  0  0
  5  6  1  0  0  0  0
  6  7  1  0  0  0  0
  7  8  1  0  0  0  0
  8  9  1  0  0  0  0
  9 10  1  0  0  0  0
 10 11  1  0  0  0  0
 11 12  1  0  0  0  0
 12 13  1  0  0  0  0
 13 14  1  0  0  0  0
M  END
>  <CHROM.1>
177.69261194,179.78925764,89.90012009,-173.15373125,72.45788950,92.28710846
-64.54159793,179.34145959,-170.44781537,-176.82863056,-178.73458916,46.98106517
1.42791743,12.78804952,1.02757899,-0.86953248,-2.60414031

>  <Name>
ligand

>  <RI>
0

>  <Rbt.Current_Directory>
/home/itssahil/PROJECTS/Mol_Feturizer/New_Systems/rnas/1EVV

>  <Rbt.Executable>
rbdock ($Id: //depot/dev/client3/rdock/2013.1/src/exe/rbdock.cxx#4 $)

>  <Rbt.Library>
libRbt.so (2013.1, Build901 2013/11/27)

>  <Rbt.Parameter_File>
/export/apps/rDock/src/rDock_2013.1_src/data/scripts/dock_solv.prm

>  <Rbt.Receptor>
prm/blind_docking_60.prm

>  <SCORE>
-7.70397

>  <SCORE.INTER>
0.0118041

>  <SCORE.INTER.CONST>
1

>  <SCORE.INTER.POLAR>
0

>  <SCORE.INTER.ROT>
11

>  <SCORE.INTER.SOLV>
9.74844

>  <SCORE.INTER.VDW>
-14.1749

>  <SCORE.INTER.norm>
0.000843149

>  <SCORE.INTRA>
-7.71577

>  <SCORE.INTRA.DIHEDRAL>
-15.3701

>  <SCORE.INTRA.DIHEDRAL.0>
20.2131

>  <SCORE.INTRA.POLAR>
0

>  <SCORE.INTRA.POLAR.0>
0

>  <SCORE.INTRA.REPUL>
0

>  <SCORE.INTRA.REPUL.0>
0

>  <SCORE.INTRA.SOLV>
0.00961037

>  <SCORE.INTRA.SOLV.lig_0>
-48.2851

>  <SCORE.INTRA.VDW>
-0.0355273

>  <SCORE.INTRA.VDW.0>
-1.08658

>  <SCORE.INTRA.norm>
-0.551127

>  <SCORE.RESTR>
0

>  <SCORE.RESTR.CAVITY>
0

>  <SCORE.RESTR.norm>
0

>  <SCORE.SYSTEM>
0

>  <SCORE.SYSTEM.CONST>
0

>  <SCORE.SYSTEM.DIHEDRAL>
0

>  <SCORE.SYSTEM.SOLV>
0

>  <SCORE.SYSTEM.norm>
0

>  <SCORE.heavy>
14

>  <SCORE.norm>
-0.550283

>  <RMSD>
31.479

$$$$
ligand
 OpenBabel11021811393D
libRbt.so/2013.1/901 2013/11/27
 14 13  0  0  0  0  0  0  0  0999 V2000
   45.1160    1.1037   14.7958 N   0  0  0  0  0  0  0  0  0  0  0  0
   44.7453    2.0117   15.8701 C   0  0  0  0  0  0  0  0  0  0  0  0
   45.8223    3.1197   16.0313 C   0  0  0  0  0  0  0  0  0  0  0  0
   46.0462    4.1074   14.8314 C   0  0  0  0  0  0  0  0  0  0  0  0
   46.6184    3.4882   13.5801 N   0  0  0  0  0  0  0  0  0  0  0  0
   47.1897    4.4804   12.6238 C   0  0  0  0  0  0  0  0  0  0  0  0
   47.6869    3.8708   11.3256 C   0  0  0  0  0  0  0  0  0  0  0  0
   48.9340    3.0269   11.5177 C   0  0  0  0  0  0  0  0  0  0  0  0
   48.4951    1.6910   11.9812 C   0  0  0  0  0  0  0  0  0  0  0  0
   49.5751    0.6912   12.1606 N   0  0  0  0  0  0  0  0  0  0  0  0
   49.1139   -0.7138   12.0302 C   0  0  0  0  0  0  0  0  0  0  0  0
   48.7302   -1.1736   10.5922 C   0  0  0  0  0  0  0  0  0  0  0  0
   48.2297   -2.6267   10.6700 C   0  0  0  0  0  0  0  0  0  0  0  0
   46.9664   -2.6984   11.3997 N   0  0  0  0  0  0  0  0  0  0  0  0
  1  2  1  0  0  0  0
  2  3  1  0  0  0  0
  3  4  1  0  0  0  0
  4  5  1  0  0  0  0
  5  6  1  0  0  0  0
  6  7  1  0  0  0  0
  7  8  1  0  0  0  0
  8  9  1  0  0  0  0
  9 10  1  0  0  0  0
 10 11  1  0  0  0  0
 11 12  1  0  0  0  0
 12 13  1  0  0  0  0
 13 14  1  0  0  0  0
M  END
>  <CHROM.1>
63.53108098,-66.59264029,-162.85063874,-176.33862897,-69.71603767,82.38593396
176.97085622,-154.44091157,71.06152502,-177.82128154,67.24652350,47.37650737
1.45594805,12.81489857,2.17625720,0.83893057,0.15445146

>  <Name>
ligand

>  <RI>
0

>  <Rbt.Current_Directory>
/home/itssahil/PROJECTS/Mol_Feturizer/New_Systems/rnas/1EVV

>  <Rbt.Executable>
rbdock ($Id: //depot/dev/client3/rdock/2013.1/src/exe/rbdock.cxx#4 $)

>  <Rbt.Library>
libRbt.so (2013.1, Build901 2013/11/27)

>  <Rbt.Parameter_File>
/export/apps/rDock/src/rDock_2013.1_src/data/scripts/dock_solv.prm

>  <Rbt.Receptor>
prm/blind_docking_60.prm

>  <SCORE>
-6.71087

>  <SCORE.INTER>
-0.120737

>  <SCORE.INTER.CONST>
1

>  <SCORE.INTER.POLAR>
0

>  <SCORE.INTER.ROT>
11

>  <SCORE.INTER.SOLV>
5.03832

>  <SCORE.INTER.VDW>
-12.6933

>  <SCORE.INTER.norm>
-0.00862404

>  <SCORE.INTRA>
-6.59013

>  <SCORE.INTRA.DIHEDRAL>
-16.7361

>  <SCORE.INTRA.DIHEDRAL.0>
20.2131

>  <SCORE.INTRA.POLAR>
0

>  <SCORE.INTRA.POLAR.0>
0

>  <SCORE.INTRA.REPUL>
0

>  <SCORE.INTRA.REPUL.0>
0

>  <SCORE.INTRA.SOLV>
2.91803

>  <SCORE.INTRA.SOLV.lig_0>
-48.2851

>  <SCORE.INTRA.VDW>
0.318913

>  <SCORE.INTRA.VDW.0>
-1.08658

>  <SCORE.INTRA.norm>
-0.470724

>  <SCORE.RESTR>
0

>  <SCORE.RESTR.CAVITY>
0

>  <SCORE.RESTR.norm>
0

>  <SCORE.SYSTEM>
0

>  <SCORE.SYSTEM.CONST>
0

>  <SCORE.SYSTEM.DIHEDRAL>
0

>  <SCORE.SYSTEM.SOLV>
0

>  <SCORE.SYSTEM.norm>
0

>  <SCORE.heavy>
14

>  <SCORE.norm>
-0.479348

>  <RMSD>
31.514

$$$$
ligand
 OpenBabel11021811393D
libRbt.so/2013.1/901 2013/11/27
 14 13  0  0  0  0  0  0  0  0999 V2000
   48.1058    2.5969   12.9432 N   0  0  0  0  0  0  0  0  0  0  0  0
   47.3241    2.3820   11.7354 C   0  0  0  0  0  0  0  0  0  0  0  0
   45.8669    1.9879   12.1028 C   0  0  0  0  0  0  0  0  0  0  0  0
   45.6462    0.6609   12.9126 C   0  0  0  0  0  0  0  0  0  0  0  0
   44.2069    0.2993   13.1848 N   0  0  0  0  0  0  0  0  0  0  0  0
   44.0094   -1.1223   13.5918 C   0  0  0  0  0  0  0  0  0  0  0  0
   42.5619   -1.5783   13.5588 C   0  0  0  0  0  0  0  0  0  0  0  0
   42.4034   -3.0428   13.9252 C   0  0  0  0  0  0  0  0  0  0  0  0
   40.9726   -3.3861   13.7598 C   0  0  0  0  0  0  0  0  0  0  0  0
   40.0346   -2.6551   14.6453 N   0  0  0  0  0  0  0  0  0  0  0  0
   38.6106   -2.7960   14.2505 C   0  0  0  0  0  0  0  0  0  0  0  0
   37.6089   -1.8388   14.9625 C   0  0  0  0  0  0  0  0  0  0  0  0
   36.2062   -2.0942   14.3834 C   0  0  0  0  0  0  0  0  0  0  0  0
   35.2180   -1.2325   15.0271 N   0  0  0  0  0  0  0  0  0  0  0  0
  1  2  1  0  0  0  0
  2  3  1  0  0  0  0
  3  4  1  0  0  0  0
  4  5  1  0  0  0  0
  5  6  1  0  0  0  0
  6  7  1  0  0  0  0
  7  8  1  0  0  0  0
  8  9  1  0  0  0  0
  9 10  1  0  0  0  0
 10 11  1  0  0  0  0
 11 12  1  0  0  0  0
 12 13  1  0  0  0  0
 13 14  1  0  0  0  0
M  END
>  <CHROM.1>
-61.99747465,-177.32399051,163.27511187,-166.74379587,177.73669041,-175.91135331
-62.82927576,167.12768748,-168.52251035,177.70334813,179.32878355,42.05546247
-0.84446597,13.64152548,0.41364042,0.16571061,-0.13500511

>  <Name>
ligand

>  <RI>
0

>  <Rbt.Current_Directory>
/home/itssahil/PROJECTS/Mol_Feturizer/New_Systems/rnas/1EVV

>  <Rbt.Executable>
rbdock ($Id: //depot/dev/client3/rdock/2013.1/src/exe/rbdock.cxx#4 $)

>  <Rbt.Library>
libRbt.so (2013.1, Build901 2013/11/27)

>  <Rbt.Parameter_File>
/export/apps/rDock/src/rDock_2013.1_src/data/scripts/dock_solv.prm

>  <Rbt.Receptor>
prm/blind_docking_100.prm

>  <SCORE>
-11.5543

>  <SCORE.INTER>
-1.63504

>  <SCORE.INTER.CONST>
1

>  <SCORE.INTER.POLAR>
0

>  <SCORE.INTER.ROT>
11

>  <SCORE.INTER.SOLV>
7.6585

>  <SCORE.INTER.VDW>
-14.5762

>  <SCORE.INTER.norm>
-0.116789

>  <SCORE.INTRA>
-9.91921

>  <SCORE.INTRA.DIHEDRAL>
-19.4391

>  <SCORE.INTRA.DIHEDRAL.0>
20.2131

>  <SCORE.INTRA.POLAR>
0

>  <SCORE.INTRA.POLAR.0>
0

>  <SCORE.INTRA.REPUL>
0

>  <SCORE.INTRA.REPUL.0>
0

>  <SCORE.INTRA.SOLV>
-0.336183

>  <SCORE.INTRA.SOLV.lig_0>
-48.2851

>  <SCORE.INTRA.VDW>
-0.0315894

>  <SCORE.INTRA.VDW.0>
-1.08658

>  <SCORE.INTRA.norm>
-0.708515

>  <SCORE.RESTR>
0

>  <SCORE.RESTR.CAVITY>
0

>  <SCORE.RESTR.norm>
0

>  <SCORE.SYSTEM>
0

>  <SCORE.SYSTEM.CONST>
0

>  <SCORE.SYSTEM.DIHEDRAL>
0

>  <SCORE.SYSTEM.SOLV>
0

>  <SCORE.SYSTEM.norm>
0

>  <SCORE.heavy>
14

>  <SCORE.norm>
-0.825304

>  <RMSD>
31.643

$$$$
ligand
 OpenBabel11021811393D
libRbt.so/2013.1/901 2013/11/27
 14 13  0  0  0  0  0  0  0  0999 V2000
   36.7660   -0.0730   15.3769 N   0  0  0  0  0  0  0  0  0  0  0  0
   36.2732   -1.4411   15.3365 C   0  0  0  0  0  0  0  0  0  0  0  0
   37.1031   -2.2803   14.3262 C   0  0  0  0  0  0  0  0  0  0  0  0
   38.6209   -2.5247   14.6456 C   0  0  0  0  0  0  0  0  0  0  0  0
   39.3844   -3.3072   13.6057 N   0  0  0  0  0  0  0  0  0  0  0  0
   40.8522   -3.3785   13.8626 C   0  0  0  0  0  0  0  0  0  0  0  0
   41.5921   -2.0841   13.5776 C   0  0  0  0  0  0  0  0  0  0  0  0
   43.0866   -2.2022   13.8156 C   0  0  0  0  0  0  0  0  0  0  0  0
   43.6898   -0.8898   13.4900 C   0  0  0  0  0  0  0  0  0  0  0  0
   45.1649   -0.8158   13.6194 N   0  0  0  0  0  0  0  0  0  0  0  0
   45.7210    0.5308   13.3346 C   0  0  0  0  0  0  0  0  0  0  0  0
   45.9920    0.8520   11.8346 C   0  0  0  0  0  0  0  0  0  0  0  0
   46.5817    2.2706   11.7461 C   0  0  0  0  0  0  0  0  0  0  0  0
   47.8848    2.3291   12.4034 N   0  0  0  0  0  0  0  0  0  0  0  0
  1  2  1  0  0  0  0
  2  3  1  0  0  0  0
  3  4  1  0  0  0  0
  4  5  1  0  0  0  0
  5  6  1  0  0  0  0
  6  7  1  0  0  0  0
  7  8  1  0  0  0  0
  8  9  1  0  0  0  0
  9 10  1  0  0  0  0
 10 11  1  0  0  0  0
 11 12  1  0  0  0  0
 12 13  1  0  0  0  0
 13 14  1  0  0  0  0
M  END
>  <CHROM.1>
65.17304255,-178.05944763,173.05867365,-74.00188726,-178.54201190,179.35889491
-178.11511470,-177.75628866,-84.70300350,-179.11774131,64.68793050,42.05080051
-0.92977471,13.64101261,2.80725433,-0.24714444,-3.13680511

>  <Name>
ligand

>  <RI>
0

>  <Rbt.Current_Directory>
/home/itssahil/PROJECTS/Mol_Feturizer/New_Systems/rnas/1EVV

>  <Rbt.Executable>
rbdock ($Id: //depot/dev/client3/rdock/2013.1/src/exe/rbdock.cxx#4 $)

>  <Rbt.Library>
libRbt.so (2013.1, Build901 2013/11/27)

>  <Rbt.Parameter_File>
/export/apps/rDock/src/rDock_2013.1_src/data/scripts/dock_solv.prm

>  <Rbt.Receptor>
prm/blind_docking_100.prm

>  <SCORE>
-10.2502

>  <SCORE.INTER>
-0.990405

>  <SCORE.INTER.CONST>
1

>  <SCORE.INTER.POLAR>
0

>  <SCORE.INTER.ROT>
11

>  <SCORE.INTER.SOLV>
6.11351

>  <SCORE.INTER.VDW>
-13.6314

>  <SCORE.INTER.norm>
-0.0707432

>  <SCORE.INTRA>
-9.25975

>  <SCORE.INTRA.DIHEDRAL>
-19.3562

>  <SCORE.INTRA.DIHEDRAL.0>
20.2131

>  <SCORE.INTRA.POLAR>
0

>  <SCORE.INTRA.POLAR.0>
0

>  <SCORE.INTRA.REPUL>
0

>  <SCORE.INTRA.REPUL.0>
0

>  <SCORE.INTRA.SOLV>
0.0145809

>  <SCORE.INTRA.SOLV.lig_0>
-48.2851

>  <SCORE.INTRA.VDW>
0.411065

>  <SCORE.INTRA.VDW.0>
-1.08658

>  <SCORE.INTRA.norm>
-0.661411

>  <SCORE.RESTR>
0

>  <SCORE.RESTR.CAVITY>
0

>  <SCORE.RESTR.norm>
0

>  <SCORE.SYSTEM>
0

>  <SCORE.SYSTEM.CONST>
0

>  <SCORE.SYSTEM.DIHEDRAL>
0

>  <SCORE.SYSTEM.SOLV>
0

>  <SCORE.SYSTEM.norm>
0

>  <SCORE.heavy>
14

>  <SCORE.norm>
-0.732154

>  <RMSD>
31.702

$$$$
ligand
 OpenBabel11021811393D
libRbt.so/2013.1/901 2013/11/27
 14 13  0  0  0  0  0  0  0  0999 V2000
   35.6428   -0.5395   17.3835 N   0  0  0  0  0  0  0  0  0  0  0  0
   36.4206   -1.0634   16.2714 C   0  0  0  0  0  0  0  0  0  0  0  0
   35.4835   -1.4322   15.0884 C   0  0  0  0  0  0  0  0  0  0  0  0
   36.1278   -2.0959   13.8196 C   0  0  0  0  0  0  0  0  0  0  0  0
   36.7509   -3.4518   14.0430 N   0  0  0  0  0  0  0  0  0  0  0  0
   38.1312   -3.3953   14.6060 C   0  0  0  0  0  0  0  0  0  0  0  0
   39.2171   -3.2152   13.5607 C   0  0  0  0  0  0  0  0  0  0  0  0
   40.5988   -3.0748   14.1734 C   0  0  0  0  0  0  0  0  0  0  0  0
   41.5521   -2.8476   13.0635 C   0  0  0  0  0  0  0  0  0  0  0  0
   42.9630   -2.6368   13.4674 N   0  0  0  0  0  0  0  0  0  0  0  0
   43.2246   -1.2917   14.0381 C   0  0  0  0  0  0  0  0  0  0  0  0
   44.4539   -1.1829   14.9888 C   0  0  0  0  0  0  0  0  0  0  0  0
   44.4619    0.2275   15.6041 C   0  0  0  0  0  0  0  0  0  0  0  0
   44.6637    1.2397   14.5706 N   0  0  0  0  0  0  0  0  0  0  0  0
  1  2  1  0  0  0  0
  2  3  1  0  0  0  0
  3  4  1  0  0  0  0
  4  5  1  0  0  0  0
  5  6  1  0  0  0  0
  6  7  1  0  0  0  0
  7  8  1  0  0  0  0
  8  9  1  0  0  0  0
  9 10  1  0  0  0  0
 10 11  1  0  0  0  0
 11 12  1  0  0  0  0
 12 13  1  0  0  0  0
 13 14  1  0  0  0  0
M  END
>  <CHROM.1>
-176.48272735,64.00990492,-82.00925312,-84.69169226,176.41218749,-177.57271261
177.95016273,-75.40057530,155.84639765,-173.36541831,-64.36212175,39.97798408
-1.76874529,14.61979917,3.07880940,-0.16930630,-2.47404597

>  <Name>
ligand

>  <RI>
0

>  <Rbt.Current_Directory>
/home/itssahil/PROJECTS/Mol_Feturizer/New_Systems/rnas/1EVV

>  <Rbt.Executable>
rbdock ($Id: //depot/dev/client3/rdock/2013.1/src/exe/rbdock.cxx#4 $)

>  <Rbt.Library>
libRbt.so (2013.1, Build901 2013/11/27)

>  <Rbt.Parameter_File>
/export/apps/rDock/src/rDock_2013.1_src/data/scripts/dock_solv.prm

>  <Rbt.Receptor>
prm/blind_docking_60.prm

>  <SCORE>
-8.85965

>  <SCORE.INTER>
0.0434369

>  <SCORE.INTER.CONST>
1

>  <SCORE.INTER.POLAR>
0

>  <SCORE.INTER.ROT>
11

>  <SCORE.INTER.SOLV>
8.21686

>  <SCORE.INTER.VDW>
-13.6433

>  <SCORE.INTER.norm>
0.00310264

>  <SCORE.INTRA>
-8.90309

>  <SCORE.INTRA.DIHEDRAL>
-18.3847

>  <SCORE.INTRA.DIHEDRAL.0>
20.2131

>  <SCORE.INTRA.POLAR>
0

>  <SCORE.INTRA.POLAR.0>
0

>  <SCORE.INTRA.REPUL>
0

>  <SCORE.INTRA.REPUL.0>
0

>  <SCORE.INTRA.SOLV>
-0.351192

>  <SCORE.INTRA.SOLV.lig_0>
-48.2851

>  <SCORE.INTRA.VDW>
0.46485

>  <SCORE.INTRA.VDW.0>
-1.08658

>  <SCORE.INTRA.norm>
-0.635935

>  <SCORE.RESTR>
0

>  <SCORE.RESTR.CAVITY>
0

>  <SCORE.RESTR.norm>
0

>  <SCORE.SYSTEM>
0

>  <SCORE.SYSTEM.CONST>
0

>  <SCORE.SYSTEM.DIHEDRAL>
0

>  <SCORE.SYSTEM.SOLV>
0

>  <SCORE.SYSTEM.norm>
0

>  <SCORE.heavy>
14

>  <SCORE.norm>
-0.632832

>  <RMSD>
31.717

$$$$
ligand
 OpenBabel11021811393D
libRbt.so/2013.1/901 2013/11/27
 14 13  0  0  0  0  0  0  0  0999 V2000
   36.7361    1.6187   15.1325 N   0  0  0  0  0  0  0  0  0  0  0  0
   37.3322    0.4978   14.4223 C   0  0  0  0  0  0  0  0  0  0  0  0
   37.6030   -0.6758   15.4037 C   0  0  0  0  0  0  0  0  0  0  0  0
   38.2694   -1.9760   14.8286 C   0  0  0  0  0  0  0  0  0  0  0  0
   39.6328   -1.7868   14.2104 N   0  0  0  0  0  0  0  0  0  0  0  0
   40.4412   -3.0385   14.1395 C   0  0  0  0  0  0  0  0  0  0  0  0
   41.7124   -2.9066   13.3205 C   0  0  0  0  0  0  0  0  0  0  0  0
   42.6330   -1.8190   13.8438 C   0  0  0  0  0  0  0  0  0  0  0  0
   43.8153   -1.7763   12.9534 C   0  0  0  0  0  0  0  0  0  0  0  0
   44.8009   -0.7098   13.2524 N   0  0  0  0  0  0  0  0  0  0  0  0
   45.7615   -1.0703   14.3253 C   0  0  0  0  0  0  0  0  0  0  0  0
   47.0726   -1.7698   13.8582 C   0  0  0  0  0  0  0  0  0  0  0  0
   47.9165   -0.7414   13.0847 C   0  0  0  0  0  0  0  0  0  0  0  0
   47.2310   -0.3260   11.8636 N   0  0  0  0  0  0  0  0  0  0  0  0
  1  2  1  0  0  0  0
  2  3  1  0  0  0  0
  3  4  1  0  0  0  0
  4  5  1  0  0  0  0
  5  6  1  0  0  0  0
  6  7  1  0  0  0  0
  7  8  1  0  0  0  0
  8  9  1  0  0  0  0
  9 10  1  0  0  0  0
 10 11  1  0  0  0  0
 11 12  1  0  0  0  0
 12 13  1  0  0  0  0
 13 14  1  0  0  0  0
M  END
>  <CHROM.1>
-179.02569360,60.14904467,158.52092902,170.54318654,58.15691594,-179.07184730
176.30790950,83.21940193,90.05025545,68.93759781,-64.53216415,42.21131509
-1.17748665,13.90288340,-3.06656917,-0.18381037,-3.10257464

>  <Name>
ligand

>  <RI>
0

>  <Rbt.Current_Directory>
/home/itssahil/PROJECTS/Mol_Feturizer/New_Systems/rnas/1EVV

>  <Rbt.Executable>
rbdock ($Id: //depot/dev/client3/rdock/2013.1/src/exe/rbdock.cxx#4 $)

>  <Rbt.Library>
libRbt.so (2013.1, Build901 2013/11/27)

>  <Rbt.Parameter_File>
/export/apps/rDock/src/rDock_2013.1_src/data/scripts/dock_solv.prm

>  <Rbt.Receptor>
prm/blind_docking_80.prm

>  <SCORE>
-8.04005

>  <SCORE.INTER>
-0.282528

>  <SCORE.INTER.CONST>
1

>  <SCORE.INTER.POLAR>
0

>  <SCORE.INTER.ROT>
11

>  <SCORE.INTER.SOLV>
7.00291

>  <SCORE.INTER.VDW>
-13.456

>  <SCORE.INTER.norm>
-0.0201806

>  <SCORE.INTRA>
-7.75752

>  <SCORE.INTRA.DIHEDRAL>
-18.3613

>  <SCORE.INTRA.DIHEDRAL.0>
20.2131

>  <SCORE.INTRA.POLAR>
0

>  <SCORE.INTRA.POLAR.0>
0

>  <SCORE.INTRA.REPUL>
0

>  <SCORE.INTRA.REPUL.0>
0

>  <SCORE.INTRA.SOLV>
2.52593

>  <SCORE.INTRA.SOLV.lig_0>
-48.2851

>  <SCORE.INTRA.VDW>
0.160183

>  <SCORE.INTRA.VDW.0>
-1.08658

>  <SCORE.INTRA.norm>
-0.554109

>  <SCORE.RESTR>
0

>  <SCORE.RESTR.CAVITY>
0

>  <SCORE.RESTR.norm>
0

>  <SCORE.SYSTEM>
0

>  <SCORE.SYSTEM.CONST>
0

>  <SCORE.SYSTEM.DIHEDRAL>
0

>  <SCORE.SYSTEM.SOLV>
0

>  <SCORE.SYSTEM.norm>
0

>  <SCORE.heavy>
14

>  <SCORE.norm>
-0.574289

>  <RMSD>
31.772

$$$$
ligand
 OpenBabel11021811393D
libRbt.so/2013.1/901 2013/11/27
 14 13  0  0  0  0  0  0  0  0999 V2000
   35.9412   -1.4703   15.2330 N   0  0  0  0  0  0  0  0  0  0  0  0
   37.0341   -2.4170   15.3924 C   0  0  0  0  0  0  0  0  0  0  0  0
   38.2422   -1.9946   14.5116 C   0  0  0  0  0  0  0  0  0  0  0  0
   39.5257   -2.8986   14.5419 C   0  0  0  0  0  0  0  0  0  0  0  0
   40.6638   -2.4381   13.6649 N   0  0  0  0  0  0  0  0  0  0  0  0
   41.9235   -3.2142   13.8554 C   0  0  0  0  0  0  0  0  0  0  0  0
   43.1034   -2.6798   13.0640 C   0  0  0  0  0  0  0  0  0  0  0  0
   43.4545   -1.2502   13.4345 C   0  0  0  0  0  0  0  0  0  0  0  0
   44.5605   -0.8240   12.5472 C   0  0  0  0  0  0  0  0  0  0  0  0
   45.0409    0.5642   12.7481 N   0  0  0  0  0  0  0  0  0  0  0  0
   45.9634    1.0351   11.6846 C   0  0  0  0  0  0  0  0  0  0  0  0
   46.6627    2.4023   11.9465 C   0  0  0  0  0  0  0  0  0  0  0  0
   47.5621    2.2521   13.1860 C   0  0  0  0  0  0  0  0  0  0  0  0
   48.6880    1.3661   12.9017 N   0  0  0  0  0  0  0  0  0  0  0  0
  1  2  1  0  0  0  0
  2  3  1  0  0  0  0
  3  4  1  0  0  0  0
  4  5  1  0  0  0  0
  5  6  1  0  0  0  0
  6  7  1  0  0  0  0
  7  8  1  0  0  0  0
  8  9  1  0  0  0  0
  9 10  1  0  0  0  0
 10 11  1  0  0  0  0
 11 12  1  0  0  0  0
 12 13  1  0  0  0  0
 13 14  1  0  0  0  0
M  END
>  <CHROM.1>
-179.77090131,179.91688156,172.33697179,-175.02130494,60.16419558,-176.86358543
179.43164671,-169.19122975,-171.39087326,63.50379893,68.26418474,42.74049737
-0.82636122,13.47935419,2.76940369,-0.26276392,-3.10091942

>  <Name>
ligand

>  <RI>
0

>  <Rbt.Current_Directory>
/home/itssahil/PROJECTS/Mol_Feturizer/New_Systems/rnas/1EVV

>  <Rbt.Executable>
rbdock ($Id: //depot/dev/client3/rdock/2013.1/src/exe/rbdock.cxx#4 $)

>  <Rbt.Library>
libRbt.so (2013.1, Build901 2013/11/27)

>  <Rbt.Parameter_File>
/export/apps/rDock/src/rDock_2013.1_src/data/scripts/dock_solv.prm

>  <Rbt.Receptor>
prm/blind_docking_60.prm

>  <SCORE>
-10.107

>  <SCORE.INTER>
-0.605842

>  <SCORE.INTER.CONST>
1

>  <SCORE.INTER.POLAR>
0

>  <SCORE.INTER.ROT>
11

>  <SCORE.INTER.SOLV>
6.17498

>  <SCORE.INTER.VDW>
-13.3956

>  <SCORE.INTER.norm>
-0.0432744

>  <SCORE.INTRA>
-9.50116

>  <SCORE.INTRA.DIHEDRAL>
-19.6483

>  <SCORE.INTRA.DIHEDRAL.0>
20.2131

>  <SCORE.INTRA.POLAR>
0

>  <SCORE.INTRA.POLAR.0>
0

>  <SCORE.INTRA.REPUL>
0

>  <SCORE.INTRA.REPUL.0>
0

>  <SCORE.INTRA.SOLV>
0.712428

>  <SCORE.INTRA.SOLV.lig_0>
-48.2851

>  <SCORE.INTRA.VDW>
-0.0332175

>  <SCORE.INTRA.VDW.0>
-1.08658

>  <SCORE.INTRA.norm>
-0.678654

>  <SCORE.RESTR>
0

>  <SCORE.RESTR.CAVITY>
0

>  <SCORE.RESTR.norm>
0

>  <SCORE.SYSTEM>
0

>  <SCORE.SYSTEM.CONST>
0

>  <SCORE.SYSTEM.DIHEDRAL>
0

>  <SCORE.SYSTEM.SOLV>
0

>  <SCORE.SYSTEM.norm>
0

>  <SCORE.heavy>
14

>  <SCORE.norm>
-0.721929

>  <RMSD>
31.790

$$$$
ligand
 OpenBabel11021811393D
libRbt.so/2013.1/901 2013/11/27
 14 13  0  0  0  0  0  0  0  0999 V2000
   48.5966    0.4789   12.7160 N   0  0  0  0  0  0  0  0  0  0  0  0
   47.7167   -0.1913   13.6608 C   0  0  0  0  0  0  0  0  0  0  0  0
   46.3842   -0.5854   12.9660 C   0  0  0  0  0  0  0  0  0  0  0  0
   45.2875   -1.3017   13.8317 C   0  0  0  0  0  0  0  0  0  0  0  0
   44.0254   -1.6796   13.0962 N   0  0  0  0  0  0  0  0  0  0  0  0
   43.0178   -2.3765   13.9473 C   0  0  0  0  0  0  0  0  0  0  0  0
   41.6900   -2.6236   13.2545 C   0  0  0  0  0  0  0  0  0  0  0  0
   40.6395   -3.1902   14.1923 C   0  0  0  0  0  0  0  0  0  0  0  0
   39.3857   -3.3294   13.4171 C   0  0  0  0  0  0  0  0  0  0  0  0
   38.1670   -3.5979   14.2178 N   0  0  0  0  0  0  0  0  0  0  0  0
   37.8388   -2.5190   15.1831 C   0  0  0  0  0  0  0  0  0  0  0  0
   37.5153   -1.1267   14.5638 C   0  0  0  0  0  0  0  0  0  0  0  0
   37.3620   -0.1140   15.7122 C   0  0  0  0  0  0  0  0  0  0  0  0
   37.0679    1.2178   15.1894 N   0  0  0  0  0  0  0  0  0  0  0  0
  1  2  1  0  0  0  0
  2  3  1  0  0  0  0
  3  4  1  0  0  0  0
  4  5  1  0  0  0  0
  5  6  1  0  0  0  0
  6  7  1  0  0  0  0
  7  8  1  0  0  0  0
  8  9  1  0  0  0  0
  9 10  1  0  0  0  0
 10 11  1  0  0  0  0
 11 12  1  0  0  0  0
 12 13  1  0  0  0  0
 13 14  1  0  0  0  0
M  END
>  <CHROM.1>
-178.98532518,-179.04086461,179.09235967,173.69754115,-173.53287814,177.59572790
-167.70016838,61.52180522,62.44293604,-173.62909676,179.51557829,41.76378951
-1.49585019,13.99638575,0.06592697,0.19357013,0.23383257

>  <Name>
ligand

>  <RI>
0

>  <Rbt.Current_Directory>
/home/itssahil/PROJECTS/Mol_Feturizer/New_Systems/rnas/1EVV

>  <Rbt.Executable>
rbdock ($Id: //depot/dev/client3/rdock/2013.1/src/exe/rbdock.cxx#4 $)

>  <Rbt.Library>
libRbt.so (2013.1, Build901 2013/11/27)

>  <Rbt.Parameter_File>
/export/apps/rDock/src/rDock_2013.1_src/data/scripts/dock_solv.prm

>  <Rbt.Receptor>
prm/blind_docking_100.prm

>  <SCORE>
-9.67617

>  <SCORE.INTER>
-0.271397

>  <SCORE.INTER.CONST>
1

>  <SCORE.INTER.POLAR>
0

>  <SCORE.INTER.ROT>
11

>  <SCORE.INTER.SOLV>
5.08676

>  <SCORE.INTER.VDW>
-12.8099

>  <SCORE.INTER.norm>
-0.0193855

>  <SCORE.INTRA>
-9.40477

>  <SCORE.INTRA.DIHEDRAL>
-19.2791

>  <SCORE.INTRA.DIHEDRAL.0>
20.2131

>  <SCORE.INTRA.POLAR>
0

>  <SCORE.INTRA.POLAR.0>
0

>  <SCORE.INTRA.REPUL>
0

>  <SCORE.INTRA.REPUL.0>
0

>  <SCORE.INTRA.SOLV>
-1.42871

>  <SCORE.INTRA.SOLV.lig_0>
-48.2851

>  <SCORE.INTRA.VDW>
0.949127

>  <SCORE.INTRA.VDW.0>
-1.08658

>  <SCORE.INTRA.norm>
-0.671769

>  <SCORE.RESTR>
0

>  <SCORE.RESTR.CAVITY>
0

>  <SCORE.RESTR.norm>
0

>  <SCORE.SYSTEM>
0

>  <SCORE.SYSTEM.CONST>
0

>  <SCORE.SYSTEM.DIHEDRAL>
0

>  <SCORE.SYSTEM.SOLV>
0

>  <SCORE.SYSTEM.norm>
0

>  <SCORE.heavy>
14

>  <SCORE.norm>
-0.691155

>  <RMSD>
31.910

$$$$
ligand
 OpenBabel11021811393D
libRbt.so/2013.1/901 2013/11/27
 14 13  0  0  0  0  0  0  0  0999 V2000
   37.4234   -1.2463   14.7858 N   0  0  0  0  0  0  0  0  0  0  0  0
   37.6252   -2.6841   14.8771 C   0  0  0  0  0  0  0  0  0  0  0  0
   38.7915   -3.1218   13.9487 C   0  0  0  0  0  0  0  0  0  0  0  0
   40.2209   -2.5413   14.2407 C   0  0  0  0  0  0  0  0  0  0  0  0
   41.3258   -3.0630   13.3553 N   0  0  0  0  0  0  0  0  0  0  0  0
   42.6936   -2.8563   13.9136 C   0  0  0  0  0  0  0  0  0  0  0  0
   43.3617   -1.5741   13.4512 C   0  0  0  0  0  0  0  0  0  0  0  0
   43.8416   -1.6525   12.0132 C   0  0  0  0  0  0  0  0  0  0  0  0
   44.4862   -0.3587   11.6926 C   0  0  0  0  0  0  0  0  0  0  0  0
   45.6505    0.0007   12.5373 N   0  0  0  0  0  0  0  0  0  0  0  0
   45.7030    1.4397   12.8982 C   0  0  0  0  0  0  0  0  0  0  0  0
   46.5457    2.3480   11.9541 C   0  0  0  0  0  0  0  0  0  0  0  0
   48.0213    1.9284   12.0751 C   0  0  0  0  0  0  0  0  0  0  0  0
   48.8792    2.8364   11.3181 N   0  0  0  0  0  0  0  0  0  0  0  0
  1  2  1  0  0  0  0
  2  3  1  0  0  0  0
  3  4  1  0  0  0  0
  4  5  1  0  0  0  0
  5  6  1  0  0  0  0
  6  7  1  0  0  0  0
  7  8  1  0  0  0  0
  8  9  1  0  0  0  0
  9 10  1  0  0  0  0
 10 11  1  0  0  0  0
 11 12  1  0  0  0  0
 12 13  1  0  0  0  0
 13 14  1  0  0  0  0
M  END
>  <CHROM.1>
62.02944979,176.66599638,-161.20228514,-93.07138827,-74.32087120,-179.19902701
59.91273765,-140.40638280,-93.16920183,-65.99245678,-174.08098362,43.18348200
-0.75335560,13.07581894,2.69645550,-0.31210218,-3.07710301

>  <Name>
ligand

>  <RI>
0

>  <Rbt.Current_Directory>
/home/itssahil/PROJECTS/Mol_Feturizer/New_Systems/rnas/1EVV

>  <Rbt.Executable>
rbdock ($Id: //depot/dev/client3/rdock/2013.1/src/exe/rbdock.cxx#4 $)

>  <Rbt.Library>
libRbt.so (2013.1, Build901 2013/11/27)

>  <Rbt.Parameter_File>
/export/apps/rDock/src/rDock_2013.1_src/data/scripts/dock_solv.prm

>  <Rbt.Receptor>
prm/blind_docking_80.prm

>  <SCORE>
-7.59949

>  <SCORE.INTER>
0.458778

>  <SCORE.INTER.CONST>
1

>  <SCORE.INTER.POLAR>
0

>  <SCORE.INTER.ROT>
11

>  <SCORE.INTER.SOLV>
11.5091

>  <SCORE.INTER.VDW>
-14.4638

>  <SCORE.INTER.norm>
0.0327698

>  <SCORE.INTRA>
-8.05827

>  <SCORE.INTRA.DIHEDRAL>
-16.5945

>  <SCORE.INTRA.DIHEDRAL.0>
20.2131

>  <SCORE.INTRA.POLAR>
0

>  <SCORE.INTRA.POLAR.0>
0

>  <SCORE.INTRA.REPUL>
0

>  <SCORE.INTRA.REPUL.0>
0

>  <SCORE.INTRA.SOLV>
0.347747

>  <SCORE.INTRA.SOLV.lig_0>
-48.2851

>  <SCORE.INTRA.VDW>
0.0650913

>  <SCORE.INTRA.VDW.0>
-1.08658

>  <SCORE.INTRA.norm>
-0.575591

>  <SCORE.RESTR>
0

>  <SCORE.RESTR.CAVITY>
0

>  <SCORE.RESTR.norm>
0

>  <SCORE.SYSTEM>
0

>  <SCORE.SYSTEM.CONST>
0

>  <SCORE.SYSTEM.DIHEDRAL>
0

>  <SCORE.SYSTEM.SOLV>
0

>  <SCORE.SYSTEM.norm>
0

>  <SCORE.heavy>
14

>  <SCORE.norm>
-0.542821

>  <RMSD>
32.016

$$$$
ligand
 OpenBabel11021811393D
libRbt.so/2013.1/901 2013/11/27
 14 13  0  0  0  0  0  0  0  0999 V2000
   48.3108   -1.5737   11.4532 N   0  0  0  0  0  0  0  0  0  0  0  0
   48.6041   -0.4165   10.6219 C   0  0  0  0  0  0  0  0  0  0  0  0
   48.4065    0.8922   11.4356 C   0  0  0  0  0  0  0  0  0  0  0  0
   46.9549    1.2449   11.9192 C   0  0  0  0  0  0  0  0  0  0  0  0
   46.3501    0.2820   12.9110 N   0  0  0  0  0  0  0  0  0  0  0  0
   45.1886    0.8410   13.6621 C   0  0  0  0  0  0  0  0  0  0  0  0
   44.7627    0.0022   14.8534 C   0  0  0  0  0  0  0  0  0  0  0  0
   44.1009   -1.3007   14.4424 C   0  0  0  0  0  0  0  0  0  0  0  0
   42.7373   -0.9720   13.9684 C   0  0  0  0  0  0  0  0  0  0  0  0
   41.8828   -2.1347   13.6274 N   0  0  0  0  0  0  0  0  0  0  0  0
   40.4864   -2.0112   14.1157 C   0  0  0  0  0  0  0  0  0  0  0  0
   39.6100   -3.2942   14.0030 C   0  0  0  0  0  0  0  0  0  0  0  0
   38.2821   -3.0347   14.7361 C   0  0  0  0  0  0  0  0  0  0  0  0
   37.5061   -2.0060   14.0483 N   0  0  0  0  0  0  0  0  0  0  0  0
  1  2  1  0  0  0  0
  2  3  1  0  0  0  0
  3  4  1  0  0  0  0
  4  5  1  0  0  0  0
  5  6  1  0  0  0  0
  6  7  1  0  0  0  0
  7  8  1  0  0  0  0
  8  9  1  0  0  0  0
  9 10  1  0  0  0  0
 10 11  1  0  0  0  0
 11 12  1  0  0  0  0
 12 13  1  0  0  0  0
 13 14  1  0  0  0  0
M  END
>  <CHROM.1>
-65.39831427,64.50573724,161.96193634,-167.75709954,-70.99829144,-74.88710559
-175.01035787,137.21913217,-169.99505855,171.92017007,66.30672573,43.79893310
-0.96280039,13.27136610,-0.06402481,-0.39377539,-2.48810311

>  <Name>
ligand

>  <RI>
0

>  <Rbt.Current_Directory>
/home/itssahil/PROJECTS/Mol_Feturizer/New_Systems/rnas/1EVV

>  <Rbt.Executable>
rbdock ($Id: //depot/dev/client3/rdock/2013.1/src/exe/rbdock.cxx#4 $)

>  <Rbt.Library>
libRbt.so (2013.1, Build901 2013/11/27)

>  <Rbt.Parameter_File>
/export/apps/rDock/src/rDock_2013.1_src/data/scripts/dock_solv.prm

>  <Rbt.Receptor>
prm/blind_docking_100.prm

>  <SCORE>
-8.01844

>  <SCORE.INTER>
-1.20055

>  <SCORE.INTER.CONST>
1

>  <SCORE.INTER.POLAR>
0

>  <SCORE.INTER.ROT>
11

>  <SCORE.INTER.SOLV>
6.92788

>  <SCORE.INTER.VDW>
-14.043

>  <SCORE.INTER.norm>
-0.0857535

>  <SCORE.INTRA>
-6.81789

>  <SCORE.INTRA.DIHEDRAL>
-16.7923

>  <SCORE.INTRA.DIHEDRAL.0>
20.2131

>  <SCORE.INTRA.POLAR>
0

>  <SCORE.INTRA.POLAR.0>
0

>  <SCORE.INTRA.REPUL>
0

>  <SCORE.INTRA.REPUL.0>
0

>  <SCORE.INTRA.SOLV>
2.30917

>  <SCORE.INTRA.SOLV.lig_0>
-48.2851

>  <SCORE.INTRA.VDW>
0.423694

>  <SCORE.INTRA.VDW.0>
-1.08658

>  <SCORE.INTRA.norm>
-0.486992

>  <SCORE.RESTR>
0

>  <SCORE.RESTR.CAVITY>
0

>  <SCORE.RESTR.norm>
0

>  <SCORE.SYSTEM>
0

>  <SCORE.SYSTEM.CONST>
0

>  <SCORE.SYSTEM.DIHEDRAL>
0

>  <SCORE.SYSTEM.SOLV>
0

>  <SCORE.SYSTEM.norm>
0

>  <SCORE.heavy>
14

>  <SCORE.norm>
-0.572745

>  <RMSD>
32.130

$$$$
ligand
 OpenBabel11021811393D
libRbt.so/2013.1/901 2013/11/27
 14 13  0  0  0  0  0  0  0  0999 V2000
   49.5645   -0.3218   11.6055 N   0  0  0  0  0  0  0  0  0  0  0  0
   49.7793   -1.0560   12.8428 C   0  0  0  0  0  0  0  0  0  0  0  0
   48.4623   -1.7473   13.2916 C   0  0  0  0  0  0  0  0  0  0  0  0
   47.2298   -0.8339   13.6264 C   0  0  0  0  0  0  0  0  0  0  0  0
   45.9576   -1.5650   13.9781 N   0  0  0  0  0  0  0  0  0  0  0  0
   44.7543   -0.6853   14.0388 C   0  0  0  0  0  0  0  0  0  0  0  0
   43.4648   -1.4241   14.3476 C   0  0  0  0  0  0  0  0  0  0  0  0
   43.1205   -2.4615   13.2943 C   0  0  0  0  0  0  0  0  0  0  0  0
   41.8780   -3.1378   13.7314 C   0  0  0  0  0  0  0  0  0  0  0  0
   40.6736   -2.2760   13.8023 N   0  0  0  0  0  0  0  0  0  0  0  0
   39.4967   -2.9459   14.4105 C   0  0  0  0  0  0  0  0  0  0  0  0
   38.1334   -2.2111   14.2433 C   0  0  0  0  0  0  0  0  0  0  0  0
   38.2011   -0.8887   15.0274 C   0  0  0  0  0  0  0  0  0  0  0  0
   39.1327    0.0399   14.3924 N   0  0  0  0  0  0  0  0  0  0  0  0
  1  2  1  0  0  0  0
  2  3  1  0  0  0  0
  3  4  1  0  0  0  0
  4  5  1  0  0  0  0
  5  6  1  0  0  0  0
  6  7  1  0  0  0  0
  7  8  1  0  0  0  0
  8  9  1  0  0  0  0
  9 10  1  0  0  0  0
 10 11  1  0  0  0  0
 11 12  1  0  0  0  0
 12 13  1  0  0  0  0
 13 14  1  0  0  0  0
M  END
>  <CHROM.1>
-61.97020418,176.57885198,-169.15863980,178.10108132,-61.34670302,178.11196159
64.25864811,-172.46656402,-167.59313568,-65.79658578,68.77675242,43.56050878
-1.53695838,13.75959150,0.05702882,0.16615823,0.12509118

>  <Name>
ligand

>  <RI>
0

>  <Rbt.Current_Directory>
/home/itssahil/PROJECTS/Mol_Feturizer/New_Systems/rnas/1EVV

>  <Rbt.Executable>
rbdock ($Id: //depot/dev/client3/rdock/2013.1/src/exe/rbdock.cxx#4 $)

>  <Rbt.Library>
libRbt.so (2013.1, Build901 2013/11/27)

>  <Rbt.Parameter_File>
/export/apps/rDock/src/rDock_2013.1_src/data/scripts/dock_solv.prm

>  <Rbt.Receptor>
prm/blind_docking_80.prm

>  <SCORE>
-7.81454

>  <SCORE.INTER>
0.392222

>  <SCORE.INTER.CONST>
1

>  <SCORE.INTER.POLAR>
0

>  <SCORE.INTER.ROT>
11

>  <SCORE.INTER.SOLV>
12.5088

>  <SCORE.INTER.VDW>
-14.8415

>  <SCORE.INTER.norm>
0.0280159

>  <SCORE.INTRA>
-8.20676

>  <SCORE.INTRA.DIHEDRAL>
-19.3863

>  <SCORE.INTRA.DIHEDRAL.0>
20.2131

>  <SCORE.INTRA.POLAR>
0

>  <SCORE.INTRA.POLAR.0>
0

>  <SCORE.INTRA.REPUL>
0

>  <SCORE.INTRA.REPUL.0>
0

>  <SCORE.INTRA.SOLV>
3.03582

>  <SCORE.INTRA.SOLV.lig_0>
-48.2851

>  <SCORE.INTRA.VDW>
-0.0315059

>  <SCORE.INTRA.VDW.0>
-1.08658

>  <SCORE.INTRA.norm>
-0.586197

>  <SCORE.RESTR>
0

>  <SCORE.RESTR.CAVITY>
0

>  <SCORE.RESTR.norm>
0

>  <SCORE.SYSTEM>
0

>  <SCORE.SYSTEM.CONST>
0

>  <SCORE.SYSTEM.DIHEDRAL>
0

>  <SCORE.SYSTEM.SOLV>
0

>  <SCORE.SYSTEM.norm>
0

>  <SCORE.heavy>
14

>  <SCORE.norm>
-0.558181

>  <RMSD>
32.179

$$$$
ligand
 OpenBabel11021811393D
libRbt.so/2013.1/901 2013/11/27
 14 13  0  0  0  0  0  0  0  0999 V2000
   47.2963   -2.7488   11.4959 N   0  0  0  0  0  0  0  0  0  0  0  0
   47.4507   -1.4963   10.7723 C   0  0  0  0  0  0  0  0  0  0  0  0
   46.0638   -0.9684   10.3122 C   0  0  0  0  0  0  0  0  0  0  0  0
   45.0296   -0.5570   11.4196 C   0  0  0  0  0  0  0  0  0  0  0  0
   44.5260   -1.6840   12.2872 N   0  0  0  0  0  0  0  0  0  0  0  0
   43.4801   -1.2693   13.2668 C   0  0  0  0  0  0  0  0  0  0  0  0
   43.1138   -2.3465   14.2716 C   0  0  0  0  0  0  0  0  0  0  0  0
   42.3821   -3.5138   13.6343 C   0  0  0  0  0  0  0  0  0  0  0  0
   41.0070   -3.0580   13.3284 C   0  0  0  0  0  0  0  0  0  0  0  0
   40.1899   -2.6638   14.5011 N   0  0  0  0  0  0  0  0  0  0  0  0
   38.7461   -2.5047   14.1946 C   0  0  0  0  0  0  0  0  0  0  0  0
   38.0502   -1.2602   14.8221 C   0  0  0  0  0  0  0  0  0  0  0  0
   36.5712   -1.2718   14.3974 C   0  0  0  0  0  0  0  0  0  0  0  0
   35.8731   -2.4086   14.9922 N   0  0  0  0  0  0  0  0  0  0  0  0
  1  2  1  0  0  0  0
  2  3  1  0  0  0  0
  3  4  1  0  0  0  0
  4  5  1  0  0  0  0
  5  6  1  0  0  0  0
  6  7  1  0  0  0  0
  7  8  1  0  0  0  0
  8  9  1  0  0  0  0
  9 10  1  0  0  0  0
 10 11  1  0  0  0  0
 11 12  1  0  0  0  0
 12 13  1  0  0  0  0
 13 14  1  0  0  0  0
M  END
>  <CHROM.1>
64.52555618,-65.78346501,-176.20657691,-171.70211748,-68.60460093,-73.83193268
-62.42401521,-167.19213144,-136.92561208,-179.83213762,66.50067340,42.12719365
-1.98207538,13.12104187,-0.23708711,-0.27986011,2.55422005

>  <Name>
ligand

>  <RI>
0

>  <Rbt.Current_Directory>
/home/itssahil/PROJECTS/Mol_Feturizer/New_Systems/rnas/1EVV

>  <Rbt.Executable>
rbdock ($Id: //depot/dev/client3/rdock/2013.1/src/exe/rbdock.cxx#4 $)

>  <Rbt.Library>
libRbt.so (2013.1, Build901 2013/11/27)

>  <Rbt.Parameter_File>
/export/apps/rDock/src/rDock_2013.1_src/data/scripts/dock_solv.prm

>  <Rbt.Receptor>
prm/blind_docking_80.prm

>  <SCORE>
-7.90606

>  <SCORE.INTER>
-1.14063

>  <SCORE.INTER.CONST>
1

>  <SCORE.INTER.POLAR>
0

>  <SCORE.INTER.ROT>
11

>  <SCORE.INTER.SOLV>
6.45377

>  <SCORE.INTER.VDW>
-13.845

>  <SCORE.INTER.norm>
-0.0814735

>  <SCORE.INTRA>
-6.76543

>  <SCORE.INTRA.DIHEDRAL>
-17.6094

>  <SCORE.INTRA.DIHEDRAL.0>
20.2131

>  <SCORE.INTRA.POLAR>
0

>  <SCORE.INTRA.POLAR.0>
0

>  <SCORE.INTRA.REPUL>
0

>  <SCORE.INTRA.REPUL.0>
0

>  <SCORE.INTRA.SOLV>
2.97572

>  <SCORE.INTRA.SOLV.lig_0>
-48.2851

>  <SCORE.INTRA.VDW>
0.551432

>  <SCORE.INTRA.VDW.0>
-1.08658

>  <SCORE.INTRA.norm>
-0.483245

>  <SCORE.RESTR>
0

>  <SCORE.RESTR.CAVITY>
0

>  <SCORE.RESTR.norm>
0

>  <SCORE.SYSTEM>
0

>  <SCORE.SYSTEM.CONST>
0

>  <SCORE.SYSTEM.DIHEDRAL>
0

>  <SCORE.SYSTEM.SOLV>
0

>  <SCORE.SYSTEM.norm>
0

>  <SCORE.heavy>
14

>  <SCORE.norm>
-0.564718

>  <RMSD>
32.900

$$$$
ligand
 OpenBabel11021811393D
libRbt.so/2013.1/901 2013/11/27
 14 13  0  0  0  0  0  0  0  0999 V2000
   48.5995   -2.4703   11.0989 N   0  0  0  0  0  0  0  0  0  0  0  0
   48.3463   -1.0483   10.9258 C   0  0  0  0  0  0  0  0  0  0  0  0
   46.8170   -0.7766   10.8889 C   0  0  0  0  0  0  0  0  0  0  0  0
   45.9728   -1.1529   12.1582 C   0  0  0  0  0  0  0  0  0  0  0  0
   44.4966   -0.8543   12.0669 N   0  0  0  0  0  0  0  0  0  0  0  0
   43.6910   -1.4553   13.1693 C   0  0  0  0  0  0  0  0  0  0  0  0
   43.2251   -2.8729   12.8910 C   0  0  0  0  0  0  0  0  0  0  0  0
   42.3035   -3.4067   13.9727 C   0  0  0  0  0  0  0  0  0  0  0  0
   40.9948   -2.7341   13.8081 C   0  0  0  0  0  0  0  0  0  0  0  0
   39.9575   -3.1051   14.8004 N   0  0  0  0  0  0  0  0  0  0  0  0
   38.6709   -2.3886   14.6133 C   0  0  0  0  0  0  0  0  0  0  0  0
   37.5993   -3.1263   13.7565 C   0  0  0  0  0  0  0  0  0  0  0  0
   36.3279   -2.2600   13.7274 C   0  0  0  0  0  0  0  0  0  0  0  0
   35.7417   -2.1597   15.0615 N   0  0  0  0  0  0  0  0  0  0  0  0
  1  2  1  0  0  0  0
  2  3  1  0  0  0  0
  3  4  1  0  0  0  0
  4  5  1  0  0  0  0
  5  6  1  0  0  0  0
  6  7  1  0  0  0  0
  7  8  1  0  0  0  0
  8  9  1  0  0  0  0
  9 10  1  0  0  0  0
 10 11  1  0  0  0  0
 11 12  1  0  0  0  0
 12 13  1  0  0  0  0
 13 14  1  0  0  0  0
M  END
>  <CHROM.1>
61.29347717,179.47630772,168.94237855,-87.41962662,-174.69977218,73.73612337
-178.73218254,178.90742299,93.91481888,177.65310034,-65.47469573,42.33891352
-2.12935469,13.06698911,-0.25542646,-0.19236780,2.57307600

>  <Name>
ligand

>  <RI>
0

>  <Rbt.Current_Directory>
/home/itssahil/PROJECTS/Mol_Feturizer/New_Systems/rnas/1EVV

>  <Rbt.Executable>
rbdock ($Id: //depot/dev/client3/rdock/2013.1/src/exe/rbdock.cxx#4 $)

>  <Rbt.Library>
libRbt.so (2013.1, Build901 2013/11/27)

>  <Rbt.Parameter_File>
/export/apps/rDock/src/rDock_2013.1_src/data/scripts/dock_solv.prm

>  <Rbt.Receptor>
prm/blind_docking_100.prm

>  <SCORE>
-8.60064

>  <SCORE.INTER>
-0.713929

>  <SCORE.INTER.CONST>
1

>  <SCORE.INTER.POLAR>
0

>  <SCORE.INTER.ROT>
11

>  <SCORE.INTER.SOLV>
10.2832

>  <SCORE.INTER.VDW>
-14.837

>  <SCORE.INTER.norm>
-0.050995

>  <SCORE.INTRA>
-7.88671

>  <SCORE.INTRA.DIHEDRAL>
-17.8627

>  <SCORE.INTRA.DIHEDRAL.0>
20.2131

>  <SCORE.INTRA.POLAR>
0

>  <SCORE.INTRA.POLAR.0>
0

>  <SCORE.INTRA.REPUL>
0

>  <SCORE.INTRA.REPUL.0>
0

>  <SCORE.INTRA.SOLV>
0.295782

>  <SCORE.INTRA.SOLV.lig_0>
-48.2851

>  <SCORE.INTRA.VDW>
0.896742

>  <SCORE.INTRA.VDW.0>
-1.08658

>  <SCORE.INTRA.norm>
-0.563336

>  <SCORE.RESTR>
0

>  <SCORE.RESTR.CAVITY>
0

>  <SCORE.RESTR.norm>
0

>  <SCORE.SYSTEM>
0

>  <SCORE.SYSTEM.CONST>
0

>  <SCORE.SYSTEM.DIHEDRAL>
0

>  <SCORE.SYSTEM.SOLV>
0

>  <SCORE.SYSTEM.norm>
0

>  <SCORE.heavy>
14

>  <SCORE.norm>
-0.614331

>  <RMSD>
33.042

$$$$
ligand
 OpenBabel11021811393D
libRbt.so/2013.1/901 2013/11/27
 14 13  0  0  0  0  0  0  0  0999 V2000
   33.1106   -8.2578   11.4183 N   0  0  0  0  0  0  0  0  0  0  0  0
   34.5302   -8.5500   11.5435 C   0  0  0  0  0  0  0  0  0  0  0  0
   35.2836   -8.1100   10.2580 C   0  0  0  0  0  0  0  0  0  0  0  0
   36.7520   -8.6270   10.0533 C   0  0  0  0  0  0  0  0  0  0  0  0
   37.5027   -8.0073    8.9005 N   0  0  0  0  0  0  0  0  0  0  0  0
   37.0975   -8.5338    7.5649 C   0  0  0  0  0  0  0  0  0  0  0  0
   36.5267   -7.4800    6.6333 C   0  0  0  0  0  0  0  0  0  0  0  0
   35.2424   -6.8680    7.1624 C   0  0  0  0  0  0  0  0  0  0  0  0
   35.0636   -5.5640    6.4842 C   0  0  0  0  0  0  0  0  0  0  0  0
   35.4003   -4.3706    7.2971 N   0  0  0  0  0  0  0  0  0  0  0  0
   36.8479   -4.2464    7.6016 C   0  0  0  0  0  0  0  0  0  0  0  0
   37.2951   -2.8999    8.2448 C   0  0  0  0  0  0  0  0  0  0  0  0
   38.7461   -3.0588    8.7318 C   0  0  0  0  0  0  0  0  0  0  0  0
   39.6124   -3.4919    7.6384 N   0  0  0  0  0  0  0  0  0  0  0  0
  1  2  1  0  0  0  0
  2  3  1  0  0  0  0
  3  4  1  0  0  0  0
  4  5  1  0  0  0  0
  5  6  1  0  0  0  0
  6  7  1  0  0  0  0
  7  8  1  0  0  0  0
  8  9  1  0  0  0  0
  9 10  1  0  0  0  0
 10 11  1  0  0  0  0
 11 12  1  0  0  0  0
 12 13  1  0  0  0  0
 13 14  1  0  0  0  0
M  END
>  <CHROM.1>
-166.35340081,-171.24851064,-76.37153468,118.80829916,-63.16733057,159.12869678
-103.10707786,67.92915394,170.22900620,169.20361810,55.35718102,36.35790096
-6.29049678,8.53789694,-2.96903722,-1.07005639,-1.87987189

>  <Name>
ligand

>  <RI>
0

>  <Rbt.Current_Directory>
/home/itssahil/PROJECTS/Mol_Feturizer/New_Systems/rnas/1EVV

>  <Rbt.Executable>
rbdock ($Id: //depot/dev/client3/rdock/2013.1/src/exe/rbdock.cxx#4 $)

>  <Rbt.Library>
libRbt.so (2013.1, Build901 2013/11/27)

>  <Rbt.Parameter_File>
/export/apps/rDock/src/rDock_2013.1_src/data/scripts/dock_solv.prm

>  <Rbt.Receptor>
prm/blind_docking_40.prm

>  <SCORE>
6.16557

>  <SCORE.INTER>
9.10515

>  <SCORE.INTER.CONST>
1

>  <SCORE.INTER.POLAR>
0

>  <SCORE.INTER.ROT>
11

>  <SCORE.INTER.SOLV>
13.7955

>  <SCORE.INTER.VDW>
-9.46173

>  <SCORE.INTER.norm>
0.650368

>  <SCORE.INTRA>
-4.9567

>  <SCORE.INTRA.DIHEDRAL>
-11.0096

>  <SCORE.INTRA.DIHEDRAL.0>
20.2131

>  <SCORE.INTRA.POLAR>
0

>  <SCORE.INTRA.POLAR.0>
0

>  <SCORE.INTRA.REPUL>
0

>  <SCORE.INTRA.REPUL.0>
0

>  <SCORE.INTRA.SOLV>
0.431162

>  <SCORE.INTRA.SOLV.lig_0>
-48.2851

>  <SCORE.INTRA.VDW>
0.332543

>  <SCORE.INTRA.VDW.0>
-1.08658

>  <SCORE.INTRA.norm>
-0.35405

>  <SCORE.RESTR>
2.01711

>  <SCORE.RESTR.CAVITY>
2.01711

>  <SCORE.RESTR.norm>
0.14408

>  <SCORE.SYSTEM>
0

>  <SCORE.SYSTEM.CONST>
0

>  <SCORE.SYSTEM.DIHEDRAL>
0

>  <SCORE.SYSTEM.SOLV>
0

>  <SCORE.SYSTEM.norm>
0

>  <SCORE.heavy>
14

>  <SCORE.norm>
0.440398

>  <RMSD>
39.463

$$$$
ligand
 OpenBabel11021811393D
libRbt.so/2013.1/901 2013/11/27
 14 13  0  0  0  0  0  0  0  0999 V2000
   36.5222   -7.6150   11.5426 N   0  0  0  0  0  0  0  0  0  0  0  0
   35.8677   -8.9139   11.5670 C   0  0  0  0  0  0  0  0  0  0  0  0
   35.0429   -9.1232   10.2671 C   0  0  0  0  0  0  0  0  0  0  0  0
   35.8232   -9.2093    8.9073 C   0  0  0  0  0  0  0  0  0  0  0  0
   34.9633   -9.2617    7.6686 N   0  0  0  0  0  0  0  0  0  0  0  0
   35.6732   -8.8457    6.4242 C   0  0  0  0  0  0  0  0  0  0  0  0
   36.1916   -7.4194    6.4570 C   0  0  0  0  0  0  0  0  0  0  0  0
   35.1370   -6.4259    6.9099 C   0  0  0  0  0  0  0  0  0  0  0  0
   35.7303   -5.0737    6.8022 C   0  0  0  0  0  0  0  0  0  0  0  0
   36.8587   -4.7968    7.7233 N   0  0  0  0  0  0  0  0  0  0  0  0
   37.0697   -3.3517    7.9893 C   0  0  0  0  0  0  0  0  0  0  0  0
   38.3860   -2.9821    8.7359 C   0  0  0  0  0  0  0  0  0  0  0  0
   39.5720   -3.5022    7.9046 C   0  0  0  0  0  0  0  0  0  0  0  0
   39.5009   -3.0000    6.5348 N   0  0  0  0  0  0  0  0  0  0  0  0
  1  2  1  0  0  0  0
  2  3  1  0  0  0  0
  3  4  1  0  0  0  0
  4  5  1  0  0  0  0
  5  6  1  0  0  0  0
  6  7  1  0  0  0  0
  7  8  1  0  0  0  0
  8  9  1  0  0  0  0
  9 10  1  0  0  0  0
 10 11  1  0  0  0  0
 11 12  1  0  0  0  0
 12 13  1  0  0  0  0
 13 14  1  0  0  0  0
M  END
>  <CHROM.1>
64.98646923,-173.61281710,158.77895624,-60.68612891,-49.02384447,-175.85125632
-66.08876295,-156.86922169,-169.38290547,58.01404828,54.26768979,36.59548381
-6.39441130,8.24522336,-2.56518099,-1.00661457,-1.22948783

>  <Name>
ligand

>  <RI>
0

>  <Rbt.Current_Directory>
/home/itssahil/PROJECTS/Mol_Feturizer/New_Systems/rnas/1EVV

>  <Rbt.Executable>
rbdock ($Id: //depot/dev/client3/rdock/2013.1/src/exe/rbdock.cxx#4 $)

>  <Rbt.Library>
libRbt.so (2013.1, Build901 2013/11/27)

>  <Rbt.Parameter_File>
/export/apps/rDock/src/rDock_2013.1_src/data/scripts/dock_solv.prm

>  <Rbt.Receptor>
prm/blind_docking_40.prm

>  <SCORE>
5.5263

>  <SCORE.INTER>
10.9525

>  <SCORE.INTER.CONST>
1

>  <SCORE.INTER.POLAR>
0

>  <SCORE.INTER.ROT>
11

>  <SCORE.INTER.SOLV>
11.4253

>  <SCORE.INTER.VDW>
-7.44007

>  <SCORE.INTER.norm>
0.782324

>  <SCORE.INTRA>
-6.96896

>  <SCORE.INTRA.DIHEDRAL>
-18.3606

>  <SCORE.INTRA.DIHEDRAL.0>
20.2131

>  <SCORE.INTRA.POLAR>
0

>  <SCORE.INTRA.POLAR.0>
0

>  <SCORE.INTRA.REPUL>
0

>  <SCORE.INTRA.REPUL.0>
0

>  <SCORE.INTRA.SOLV>
2.53285

>  <SCORE.INTRA.SOLV.lig_0>
-48.2851

>  <SCORE.INTRA.VDW>
0.944933

>  <SCORE.INTRA.VDW.0>
-1.08658

>  <SCORE.INTRA.norm>
-0.497783

>  <SCORE.RESTR>
1.54272

>  <SCORE.RESTR.CAVITY>
1.54272

>  <SCORE.RESTR.norm>
0.110194

>  <SCORE.SYSTEM>
0

>  <SCORE.SYSTEM.CONST>
0

>  <SCORE.SYSTEM.DIHEDRAL>
0

>  <SCORE.SYSTEM.SOLV>
0

>  <SCORE.SYSTEM.norm>
0

>  <SCORE.heavy>
14

>  <SCORE.norm>
0.394736

>  <RMSD>
39.697

$$$$
ligand
 OpenBabel11021811393D
libRbt.so/2013.1/901 2013/11/27
 14 13  0  0  0  0  0  0  0  0999 V2000
   37.6467   -0.7498    7.9926 N   0  0  0  0  0  0  0  0  0  0  0  0
   37.5094   -2.1390    8.4018 C   0  0  0  0  0  0  0  0  0  0  0  0
   37.9531   -3.0834    7.2507 C   0  0  0  0  0  0  0  0  0  0  0  0
   37.9175   -4.6308    7.5145 C   0  0  0  0  0  0  0  0  0  0  0  0
   37.0951   -5.4360    6.5389 N   0  0  0  0  0  0  0  0  0  0  0  0
   35.6341   -5.4380    6.8402 C   0  0  0  0  0  0  0  0  0  0  0  0
   35.1039   -6.7785    7.3159 C   0  0  0  0  0  0  0  0  0  0  0  0
   35.3731   -7.8968    6.3253 C   0  0  0  0  0  0  0  0  0  0  0  0
   36.5021   -8.6939    6.8566 C   0  0  0  0  0  0  0  0  0  0  0  0
   36.2121   -9.4704    8.0859 N   0  0  0  0  0  0  0  0  0  0  0  0
   37.0236   -9.0558    9.2577 C   0  0  0  0  0  0  0  0  0  0  0  0
   36.5168   -7.7993   10.0264 C   0  0  0  0  0  0  0  0  0  0  0  0
   35.0710   -8.0652   10.4812 C   0  0  0  0  0  0  0  0  0  0  0  0
   35.0382   -9.0891   11.5224 N   0  0  0  0  0  0  0  0  0  0  0  0
  1  2  1  0  0  0  0
  2  3  1  0  0  0  0
  3  4  1  0  0  0  0
  4  5  1  0  0  0  0
  5  6  1  0  0  0  0
  6  7  1  0  0  0  0
  7  8  1  0  0  0  0
  8  9  1  0  0  0  0
  9 10  1  0  0  0  0
 10 11  1  0  0  0  0
 11 12  1  0  0  0  0
 12 13  1  0  0  0  0
 13 14  1  0  0  0  0
M  END
>  <CHROM.1>
178.25275441,124.03963072,-81.92092524,-110.65452381,-56.90032480,103.59501554
68.35037698,-117.13445213,81.27197786,57.03139544,69.14217019,36.47118886
-6.30904552,8.17201193,-0.05191499,1.30706911,1.37353629

>  <Name>
ligand

>  <RI>
0

>  <Rbt.Current_Directory>
/home/itssahil/PROJECTS/Mol_Feturizer/New_Systems/rnas/1EVV

>  <Rbt.Executable>
rbdock ($Id: //depot/dev/client3/rdock/2013.1/src/exe/rbdock.cxx#4 $)

>  <Rbt.Library>
libRbt.so (2013.1, Build901 2013/11/27)

>  <Rbt.Parameter_File>
/export/apps/rDock/src/rDock_2013.1_src/data/scripts/dock_solv.prm

>  <Rbt.Receptor>
prm/blind_docking_40.prm

>  <SCORE>
8.75339

>  <SCORE.INTER>
9.55843

>  <SCORE.INTER.CONST>
1

>  <SCORE.INTER.POLAR>
0

>  <SCORE.INTER.ROT>
11

>  <SCORE.INTER.SOLV>
8.96983

>  <SCORE.INTER.VDW>
-7.55099

>  <SCORE.INTER.norm>
0.682745

>  <SCORE.INTRA>
-2.19578

>  <SCORE.INTRA.DIHEDRAL>
-6.03307

>  <SCORE.INTRA.DIHEDRAL.0>
20.2131

>  <SCORE.INTRA.POLAR>
0

>  <SCORE.INTRA.POLAR.0>
0

>  <SCORE.INTRA.REPUL>
0

>  <SCORE.INTRA.REPUL.0>
0

>  <SCORE.INTRA.SOLV>
1.93422

>  <SCORE.INTRA.SOLV.lig_0>
-48.2851

>  <SCORE.INTRA.VDW>
-0.146362

>  <SCORE.INTRA.VDW.0>
-1.08658

>  <SCORE.INTRA.norm>
-0.156842

>  <SCORE.RESTR>
1.39074

>  <SCORE.RESTR.CAVITY>
1.39074

>  <SCORE.RESTR.norm>
0.0993387

>  <SCORE.SYSTEM>
0

>  <SCORE.SYSTEM.CONST>
0

>  <SCORE.SYSTEM.DIHEDRAL>
0

>  <SCORE.SYSTEM.SOLV>
0

>  <SCORE.SYSTEM.norm>
0

>  <SCORE.heavy>
14

>  <SCORE.norm>
0.625242

>  <RMSD>
39.702

$$$$
ligand
 OpenBabel11021811393D
libRbt.so/2013.1/901 2013/11/27
 14 13  0  0  0  0  0  0  0  0999 V2000
   36.5358   -7.4788   11.5512 N   0  0  0  0  0  0  0  0  0  0  0  0
   35.6351   -8.6072   11.7291 C   0  0  0  0  0  0  0  0  0  0  0  0
   35.5306   -9.4228   10.4109 C   0  0  0  0  0  0  0  0  0  0  0  0
   34.8545   -8.7344    9.1722 C   0  0  0  0  0  0  0  0  0  0  0  0
   34.9139   -9.5166    7.8833 N   0  0  0  0  0  0  0  0  0  0  0  0
   36.1131   -9.2137    7.0493 C   0  0  0  0  0  0  0  0  0  0  0  0
   36.0168   -7.9081    6.2811 C   0  0  0  0  0  0  0  0  0  0  0  0
   36.1878   -6.6923    7.1738 C   0  0  0  0  0  0  0  0  0  0  0  0
   35.7667   -5.5081    6.3911 C   0  0  0  0  0  0  0  0  0  0  0  0
   36.1927   -4.1975    6.9379 N   0  0  0  0  0  0  0  0  0  0  0  0
   37.5577   -3.7921    6.5180 C   0  0  0  0  0  0  0  0  0  0  0  0
   38.1398   -2.5304    7.2221 C   0  0  0  0  0  0  0  0  0  0  0  0
   38.1256   -2.7782    8.7408 C   0  0  0  0  0  0  0  0  0  0  0  0
   38.9521   -3.9330    9.0824 N   0  0  0  0  0  0  0  0  0  0  0  0
  1  2  1  0  0  0  0
  2  3  1  0  0  0  0
  3  4  1  0  0  0  0
  4  5  1  0  0  0  0
  5  6  1  0  0  0  0
  6  7  1  0  0  0  0
  7  8  1  0  0  0  0
  8  9  1  0  0  0  0
  9 10  1  0  0  0  0
 10 11  1  0  0  0  0
 11 12  1  0  0  0  0
 12 13  1  0  0  0  0
 13 14  1  0  0  0  0
M  END
>  <CHROM.1>
-66.43377295,173.71560945,-90.72108743,-77.54114233,74.05403437,-167.09817232
-164.19389786,85.40046925,-171.44951072,56.79415213,60.82253657,36.46580486
-6.45101836,8.29570038,-2.50836152,-1.10807570,-1.22336627

>  <Name>
ligand

>  <RI>
0

>  <Rbt.Current_Directory>
/home/itssahil/PROJECTS/Mol_Feturizer/New_Systems/rnas/1EVV

>  <Rbt.Executable>
rbdock ($Id: //depot/dev/client3/rdock/2013.1/src/exe/rbdock.cxx#4 $)

>  <Rbt.Library>
libRbt.so (2013.1, Build901 2013/11/27)

>  <Rbt.Parameter_File>
/export/apps/rDock/src/rDock_2013.1_src/data/scripts/dock_solv.prm

>  <Rbt.Receptor>
prm/blind_docking_40.prm

>  <SCORE>
6.05579

>  <SCORE.INTER>
11.7193

>  <SCORE.INTER.CONST>
1

>  <SCORE.INTER.POLAR>
0

>  <SCORE.INTER.ROT>
11

>  <SCORE.INTER.SOLV>
12.1064

>  <SCORE.INTER.VDW>
-7.15594

>  <SCORE.INTER.norm>
0.837092

>  <SCORE.INTRA>
-6.40209

>  <SCORE.INTRA.DIHEDRAL>
-16.2154

>  <SCORE.INTRA.DIHEDRAL.0>
20.2131

>  <SCORE.INTRA.POLAR>
0

>  <SCORE.INTRA.POLAR.0>
0

>  <SCORE.INTRA.REPUL>
0

>  <SCORE.INTRA.REPUL.0>
0

>  <SCORE.INTRA.SOLV>
2.23664

>  <SCORE.INTRA.SOLV.lig_0>
-48.2851

>  <SCORE.INTRA.VDW>
0.587314

>  <SCORE.INTRA.VDW.0>
-1.08658

>  <SCORE.INTRA.norm>
-0.457292

>  <SCORE.RESTR>
0.738592

>  <SCORE.RESTR.CAVITY>
0.738592

>  <SCORE.RESTR.norm>
0.0527566

>  <SCORE.SYSTEM>
0

>  <SCORE.SYSTEM.CONST>
0

>  <SCORE.SYSTEM.DIHEDRAL>
0

>  <SCORE.SYSTEM.SOLV>
0

>  <SCORE.SYSTEM.norm>
0

>  <SCORE.heavy>
14

>  <SCORE.norm>
0.432556

>  <RMSD>
39.727

$$$$
ligand
 OpenBabel11021811393D
libRbt.so/2013.1/901 2013/11/27
 14 13  0  0  0  0  0  0  0  0999 V2000
   34.4822   -8.5553   11.5296 N   0  0  0  0  0  0  0  0  0  0  0  0
   35.0997   -8.1542   10.2750 C   0  0  0  0  0  0  0  0  0  0  0  0
   36.6326   -8.4008   10.3289 C   0  0  0  0  0  0  0  0  0  0  0  0
   37.4765   -8.0657    9.0479 C   0  0  0  0  0  0  0  0  0  0  0  0
   37.1264   -8.8613    7.8145 N   0  0  0  0  0  0  0  0  0  0  0  0
   36.9469   -8.0275    6.5906 C   0  0  0  0  0  0  0  0  0  0  0  0
   35.4988   -7.8494    6.1721 C   0  0  0  0  0  0  0  0  0  0  0  0
   34.6783   -7.1079    7.2120 C   0  0  0  0  0  0  0  0  0  0  0  0
   34.9239   -5.6608    7.0171 C   0  0  0  0  0  0  0  0  0  0  0  0
   36.2153   -5.1563    7.5424 N   0  0  0  0  0  0  0  0  0  0  0  0
   37.1051   -4.5938    6.4958 C   0  0  0  0  0  0  0  0  0  0  0  0
   38.4971   -4.0924    6.9833 C   0  0  0  0  0  0  0  0  0  0  0  0
   38.3110   -2.7052    7.6230 C   0  0  0  0  0  0  0  0  0  0  0  0
   37.4530   -2.7921    8.8018 N   0  0  0  0  0  0  0  0  0  0  0  0
  1  2  1  0  0  0  0
  2  3  1  0  0  0  0
  3  4  1  0  0  0  0
  4  5  1  0  0  0  0
  5  6  1  0  0  0  0
  6  7  1  0  0  0  0
  7  8  1  0  0  0  0
  8  9  1  0  0  0  0
  9 10  1  0  0  0  0
 10 11  1  0  0  0  0
 11 12  1  0  0  0  0
 12 13  1  0  0  0  0
 13 14  1  0  0  0  0
M  END
>  <CHROM.1>
178.36004028,-61.98889462,131.78425518,-105.30269402,63.21234507,82.07248291
-77.26798397,118.13738843,-177.99279268,-79.18645501,63.13691250,36.46055933
-6.43023219,8.10209738,-2.85457826,-1.19505199,-1.69232064

>  <Name>
ligand

>  <RI>
0

>  <Rbt.Current_Directory>
/home/itssahil/PROJECTS/Mol_Feturizer/New_Systems/rnas/1EVV

>  <Rbt.Executable>
rbdock ($Id: //depot/dev/client3/rdock/2013.1/src/exe/rbdock.cxx#4 $)

>  <Rbt.Library>
libRbt.so (2013.1, Build901 2013/11/27)

>  <Rbt.Parameter_File>
/export/apps/rDock/src/rDock_2013.1_src/data/scripts/dock_solv.prm

>  <Rbt.Receptor>
prm/blind_docking_40.prm

>  <SCORE>
6.23317

>  <SCORE.INTER>
10.9404

>  <SCORE.INTER.CONST>
1

>  <SCORE.INTER.POLAR>
0

>  <SCORE.INTER.ROT>
11

>  <SCORE.INTER.SOLV>
17.2311

>  <SCORE.INTER.VDW>
-9.38346

>  <SCORE.INTER.norm>
0.781455

>  <SCORE.INTRA>
-4.93076

>  <SCORE.INTRA.DIHEDRAL>
-12.6324

>  <SCORE.INTRA.DIHEDRAL.0>
20.2131

>  <SCORE.INTRA.POLAR>
0

>  <SCORE.INTRA.POLAR.0>
0

>  <SCORE.INTRA.REPUL>
0

>  <SCORE.INTRA.REPUL.0>
0

>  <SCORE.INTRA.SOLV>
4.15806

>  <SCORE.INTRA.SOLV.lig_0>
-48.2851

>  <SCORE.INTRA.VDW>
-0.693615

>  <SCORE.INTRA.VDW.0>
-1.08658

>  <SCORE.INTRA.norm>
-0.352197

>  <SCORE.RESTR>
0.223558

>  <SCORE.RESTR.CAVITY>
0.223558

>  <SCORE.RESTR.norm>
0.0159684

>  <SCORE.SYSTEM>
0

>  <SCORE.SYSTEM.CONST>
0

>  <SCORE.SYSTEM.DIHEDRAL>
0

>  <SCORE.SYSTEM.SOLV>
0

>  <SCORE.SYSTEM.norm>
0

>  <SCORE.heavy>
14

>  <SCORE.norm>
0.445226

>  <RMSD>
39.852

$$$$
ligand
 OpenBabel11021811393D
libRbt.so/2013.1/901 2013/11/27
 14 13  0  0  0  0  0  0  0  0999 V2000
   38.0854   -2.4041    7.9369 N   0  0  0  0  0  0  0  0  0  0  0  0
   37.9814   -3.8548    7.9085 C   0  0  0  0  0  0  0  0  0  0  0  0
   36.6457   -4.2837    7.2409 C   0  0  0  0  0  0  0  0  0  0  0  0
   36.2855   -5.8119    7.2326 C   0  0  0  0  0  0  0  0  0  0  0  0
   37.3013   -6.7138    6.5758 N   0  0  0  0  0  0  0  0  0  0  0  0
   36.9325   -8.1590    6.6058 C   0  0  0  0  0  0  0  0  0  0  0  0
   36.6872   -8.7045    8.0009 C   0  0  0  0  0  0  0  0  0  0  0  0
   37.7346   -8.2454    8.9990 C   0  0  0  0  0  0  0  0  0  0  0  0
   37.0342   -7.9559   10.2710 C   0  0  0  0  0  0  0  0  0  0  0  0
   36.2801   -9.0901   10.8566 N   0  0  0  0  0  0  0  0  0  0  0  0
   34.9663   -8.7004   11.4276 C   0  0  0  0  0  0  0  0  0  0  0  0
   34.0268   -7.8922   10.4838 C   0  0  0  0  0  0  0  0  0  0  0  0
   33.8621   -8.6854    9.1755 C   0  0  0  0  0  0  0  0  0  0  0  0
   33.4004   -7.8134    8.0986 N   0  0  0  0  0  0  0  0  0  0  0  0
  1  2  1  0  0  0  0
  2  3  1  0  0  0  0
  3  4  1  0  0  0  0
  4  5  1  0  0  0  0
  5  6  1  0  0  0  0
  6  7  1  0  0  0  0
  7  8  1  0  0  0  0
  8  9  1  0  0  0  0
  9 10  1  0  0  0  0
 10 11  1  0  0  0  0
 11 12  1  0  0  0  0
 12 13  1  0  0  0  0
 13 14  1  0  0  0  0
M  END
>  <CHROM.1>
-174.52510628,-57.57271399,179.15703593,-56.74338767,-44.02753131,140.63404088
58.46421362,-139.38894723,52.22155920,53.85662084,-160.31460649,36.23023800
-7.02268380,8.62963781,0.06020776,1.11685069,0.97925161

>  <Name>
ligand

>  <RI>
0

>  <Rbt.Current_Directory>
/home/itssahil/PROJECTS/Mol_Feturizer/New_Systems/rnas/1EVV

>  <Rbt.Executable>
rbdock ($Id: //depot/dev/client3/rdock/2013.1/src/exe/rbdock.cxx#4 $)

>  <Rbt.Library>
libRbt.so (2013.1, Build901 2013/11/27)

>  <Rbt.Parameter_File>
/export/apps/rDock/src/rDock_2013.1_src/data/scripts/dock_solv.prm

>  <Rbt.Receptor>
prm/blind_docking_40.prm

>  <SCORE>
10.0186

>  <SCORE.INTER>
11.9038

>  <SCORE.INTER.CONST>
1

>  <SCORE.INTER.POLAR>
0

>  <SCORE.INTER.ROT>
11

>  <SCORE.INTER.SOLV>
14.5433

>  <SCORE.INTER.VDW>
-7.84524

>  <SCORE.INTER.norm>
0.85027

>  <SCORE.INTRA>
-2.75939

>  <SCORE.INTRA.DIHEDRAL>
-12.2007

>  <SCORE.INTRA.DIHEDRAL.0>
20.2131

>  <SCORE.INTRA.POLAR>
0

>  <SCORE.INTRA.POLAR.0>
0

>  <SCORE.INTRA.REPUL>
0

>  <SCORE.INTRA.REPUL.0>
0

>  <SCORE.INTRA.SOLV>
3.55081

>  <SCORE.INTRA.SOLV.lig_0>
-48.2851

>  <SCORE.INTRA.VDW>
1.56555

>  <SCORE.INTRA.VDW.0>
-1.08658

>  <SCORE.INTRA.norm>
-0.197099

>  <SCORE.RESTR>
0.874201

>  <SCORE.RESTR.CAVITY>
0.874201

>  <SCORE.RESTR.norm>
0.0624429

>  <SCORE.SYSTEM>
0

>  <SCORE.SYSTEM.CONST>
0

>  <SCORE.SYSTEM.DIHEDRAL>
0

>  <SCORE.SYSTEM.SOLV>
0

>  <SCORE.SYSTEM.norm>
0

>  <SCORE.heavy>
14

>  <SCORE.norm>
0.715614

>  <RMSD>
39.868

$$$$
ligand
 OpenBabel11021811393D
libRbt.so/2013.1/901 2013/11/27
 14 13  0  0  0  0  0  0  0  0999 V2000
   36.3887   -7.5608   11.5790 N   0  0  0  0  0  0  0  0  0  0  0  0
   35.4255   -8.6495   11.6341 C   0  0  0  0  0  0  0  0  0  0  0  0
   35.4859   -9.4856   10.3260 C   0  0  0  0  0  0  0  0  0  0  0  0
   35.1726   -8.7553    8.9718 C   0  0  0  0  0  0  0  0  0  0  0  0
   35.3241   -9.5990    7.7301 N   0  0  0  0  0  0  0  0  0  0  0  0
   34.9127   -8.9043    6.4756 C   0  0  0  0  0  0  0  0  0  0  0  0
   36.0517   -8.6634    5.5016 C   0  0  0  0  0  0  0  0  0  0  0  0
   37.3540   -8.3183    6.2010 C   0  0  0  0  0  0  0  0  0  0  0  0
   37.0989   -7.1292    7.0455 C   0  0  0  0  0  0  0  0  0  0  0  0
   36.3985   -6.0081    6.3741 N   0  0  0  0  0  0  0  0  0  0  0  0
   36.0732   -4.8797    7.2822 C   0  0  0  0  0  0  0  0  0  0  0  0
   37.1732   -3.7867    7.4309 C   0  0  0  0  0  0  0  0  0  0  0  0
   38.4533   -4.4617    7.9541 C   0  0  0  0  0  0  0  0  0  0  0  0
   39.5316   -3.4859    8.0907 N   0  0  0  0  0  0  0  0  0  0  0  0
  1  2  1  0  0  0  0
  2  3  1  0  0  0  0
  3  4  1  0  0  0  0
  4  5  1  0  0  0  0
  5  6  1  0  0  0  0
  6  7  1  0  0  0  0
  7  8  1  0  0  0  0
  8  9  1  0  0  0  0
  9 10  1  0  0  0  0
 10 11  1  0  0  0  0
 11 12  1  0  0  0  0
 12 13  1  0  0  0  0
 13 14  1  0  0  0  0
M  END
>  <CHROM.1>
-60.35622459,176.64321118,175.33454142,114.79422448,-36.92627436,-56.83535804
-48.58166485,175.66394395,88.49731920,-58.69191127,178.96034052,36.48867954
-7.12071717,8.04245078,-2.82704081,-1.08187166,-1.60024212

>  <Name>
ligand

>  <RI>
0

>  <Rbt.Current_Directory>
/home/itssahil/PROJECTS/Mol_Feturizer/New_Systems/rnas/1EVV

>  <Rbt.Executable>
rbdock ($Id: //depot/dev/client3/rdock/2013.1/src/exe/rbdock.cxx#4 $)

>  <Rbt.Library>
libRbt.so (2013.1, Build901 2013/11/27)

>  <Rbt.Parameter_File>
/export/apps/rDock/src/rDock_2013.1_src/data/scripts/dock_solv.prm

>  <Rbt.Receptor>
prm/blind_docking_40.prm

>  <SCORE>
9.08137

>  <SCORE.INTER>
12.4253

>  <SCORE.INTER.CONST>
1

>  <SCORE.INTER.POLAR>
0

>  <SCORE.INTER.ROT>
11

>  <SCORE.INTER.SOLV>
10.2468

>  <SCORE.INTER.VDW>
-6.06537

>  <SCORE.INTER.norm>
0.887523

>  <SCORE.INTRA>
-3.96091

>  <SCORE.INTRA.DIHEDRAL>
-16.0942

>  <SCORE.INTRA.DIHEDRAL.0>
20.2131

>  <SCORE.INTRA.POLAR>
0

>  <SCORE.INTRA.POLAR.0>
0

>  <SCORE.INTRA.REPUL>
0

>  <SCORE.INTRA.REPUL.0>
0

>  <SCORE.INTRA.SOLV>
2.19622

>  <SCORE.INTRA.SOLV.lig_0>
-48.2851

>  <SCORE.INTRA.VDW>
2.98807

>  <SCORE.INTRA.VDW.0>
-1.08658

>  <SCORE.INTRA.norm>
-0.282922

>  <SCORE.RESTR>
0.616952

>  <SCORE.RESTR.CAVITY>
0.616952

>  <SCORE.RESTR.norm>
0.044068

>  <SCORE.SYSTEM>
0

>  <SCORE.SYSTEM.CONST>
0

>  <SCORE.SYSTEM.DIHEDRAL>
0

>  <SCORE.SYSTEM.SOLV>
0

>  <SCORE.SYSTEM.norm>
0

>  <SCORE.heavy>
14

>  <SCORE.norm>
0.648669

>  <RMSD>
40.369

$$$$
ligand
 OpenBabel11021811393D
libRbt.so/2013.1/901 2013/11/27
 14 13  0  0  0  0  0  0  0  0999 V2000
   34.9069   -8.6743   11.5620 N   0  0  0  0  0  0  0  0  0  0  0  0
   35.6909   -7.9318   10.5873 C   0  0  0  0  0  0  0  0  0  0  0  0
   36.6520   -8.8896    9.8305 C   0  0  0  0  0  0  0  0  0  0  0  0
   36.0170  -10.0400    8.9710 C   0  0  0  0  0  0  0  0  0  0  0  0
   35.3550   -9.6011    7.6882 N   0  0  0  0  0  0  0  0  0  0  0  0
   36.0561  -10.0694    6.4575 C   0  0  0  0  0  0  0  0  0  0  0  0
   36.3861   -8.9600    5.4753 C   0  0  0  0  0  0  0  0  0  0  0  0
   37.2711   -7.8870    6.0834 C   0  0  0  0  0  0  0  0  0  0  0  0
   36.4085   -7.0323    6.9305 C   0  0  0  0  0  0  0  0  0  0  0  0
   37.1032   -5.9353    7.6462 N   0  0  0  0  0  0  0  0  0  0  0  0
   36.6840   -4.5798    7.2095 C   0  0  0  0  0  0  0  0  0  0  0  0
   37.2524   -3.3909    8.0402 C   0  0  0  0  0  0  0  0  0  0  0  0
   38.7828   -3.3810    7.8797 C   0  0  0  0  0  0  0  0  0  0  0  0
   39.1539   -3.1147    6.4924 N   0  0  0  0  0  0  0  0  0  0  0  0
  1  2  1  0  0  0  0
  2  3  1  0  0  0  0
  3  4  1  0  0  0  0
  4  5  1  0  0  0  0
  5  6  1  0  0  0  0
  6  7  1  0  0  0  0
  7  8  1  0  0  0  0
  8  9  1  0  0  0  0
  9 10  1  0  0  0  0
 10 11  1  0  0  0  0
 11 12  1  0  0  0  0
 12 13  1  0  0  0  0
 13 14  1  0  0  0  0
M  END
>  <CHROM.1>
62.20541862,72.66302068,112.64019963,-127.01200213,58.99071948,-77.60005740
178.47523615,115.09543541,172.98961612,63.54329041,64.34509724,36.69430922
-7.10634219,7.91794624,2.83641784,-1.16988490,-2.16092179

>  <Name>
ligand

>  <RI>
0

>  <Rbt.Current_Directory>
/home/itssahil/PROJECTS/Mol_Feturizer/New_Systems/rnas/1EVV

>  <Rbt.Executable>
rbdock ($Id: //depot/dev/client3/rdock/2013.1/src/exe/rbdock.cxx#4 $)

>  <Rbt.Library>
libRbt.so (2013.1, Build901 2013/11/27)

>  <Rbt.Parameter_File>
/export/apps/rDock/src/rDock_2013.1_src/data/scripts/dock_solv.prm

>  <Rbt.Receptor>
prm/blind_docking_40.prm

>  <SCORE>
6.17288

>  <SCORE.INTER>
10.4301

>  <SCORE.INTER.CONST>
1

>  <SCORE.INTER.POLAR>
0

>  <SCORE.INTER.ROT>
11

>  <SCORE.INTER.SOLV>
10.4501

>  <SCORE.INTER.VDW>
-7.46328

>  <SCORE.INTER.norm>
0.745011

>  <SCORE.INTRA>
-5.47941

>  <SCORE.INTRA.DIHEDRAL>
-14.7326

>  <SCORE.INTRA.DIHEDRAL.0>
20.2131

>  <SCORE.INTRA.POLAR>
0

>  <SCORE.INTRA.POLAR.0>
0

>  <SCORE.INTRA.REPUL>
0

>  <SCORE.INTRA.REPUL.0>
0

>  <SCORE.INTRA.SOLV>
3.64008

>  <SCORE.INTRA.SOLV.lig_0>
-48.2851

>  <SCORE.INTRA.VDW>
0.0668664

>  <SCORE.INTRA.VDW.0>
-1.08658

>  <SCORE.INTRA.norm>
-0.391386

>  <SCORE.RESTR>
1.22214

>  <SCORE.RESTR.CAVITY>
1.22214

>  <SCORE.RESTR.norm>
0.0872959

>  <SCORE.SYSTEM>
0

>  <SCORE.SYSTEM.CONST>
0

>  <SCORE.SYSTEM.DIHEDRAL>
0

>  <SCORE.SYSTEM.SOLV>
0

>  <SCORE.SYSTEM.norm>
0

>  <SCORE.heavy>
14

>  <SCORE.norm>
0.44092

>  <RMSD>
40.406

$$$$
ligand
 OpenBabel11021811393D
libRbt.so/2013.1/901 2013/11/27
 14 13  0  0  0  0  0  0  0  0999 V2000
   37.4676   -2.3707    8.5548 N   0  0  0  0  0  0  0  0  0  0  0  0
   38.5366   -2.9612    7.7644 C   0  0  0  0  0  0  0  0  0  0  0  0
   37.9968   -4.1691    6.9499 C   0  0  0  0  0  0  0  0  0  0  0  0
   37.2273   -5.2952    7.7277 C   0  0  0  0  0  0  0  0  0  0  0  0
   37.0220   -6.5830    6.9688 N   0  0  0  0  0  0  0  0  0  0  0  0
   35.9790   -6.4962    5.9057 C   0  0  0  0  0  0  0  0  0  0  0  0
   36.0385   -7.6221    4.8894 C   0  0  0  0  0  0  0  0  0  0  0  0
   35.4974   -8.9306    5.4365 C   0  0  0  0  0  0  0  0  0  0  0  0
   36.5278   -9.4897    6.3410 C   0  0  0  0  0  0  0  0  0  0  0  0
   36.0107  -10.2325    7.5153 N   0  0  0  0  0  0  0  0  0  0  0  0
   35.6256   -9.3577    8.6512 C   0  0  0  0  0  0  0  0  0  0  0  0
   36.8023   -8.7338    9.4591 C   0  0  0  0  0  0  0  0  0  0  0  0
   36.2095   -7.9498   10.6432 C   0  0  0  0  0  0  0  0  0  0  0  0
   35.5176   -8.8496   11.5625 N   0  0  0  0  0  0  0  0  0  0  0  0
  1  2  1  0  0  0  0
  2  3  1  0  0  0  0
  3  4  1  0  0  0  0
  4  5  1  0  0  0  0
  5  6  1  0  0  0  0
  6  7  1  0  0  0  0
  7  8  1  0  0  0  0
  8  9  1  0  0  0  0
  9 10  1  0  0  0  0
 10 11  1  0  0  0  0
 11 12  1  0  0  0  0
 12 13  1  0  0  0  0
 13 14  1  0  0  0  0
M  END
>  <CHROM.1>
-52.94649664,-165.75771422,-74.13817019,163.25041808,75.30040933,-75.81855631
145.89730814,-82.47243212,-73.89145179,-176.02992278,64.10000420,36.60423241
-7.07441262,7.74030436,-0.12133341,1.25795934,1.59655886

>  <Name>
ligand

>  <RI>
0

>  <Rbt.Current_Directory>
/home/itssahil/PROJECTS/Mol_Feturizer/New_Systems/rnas/1EVV

>  <Rbt.Executable>
rbdock ($Id: //depot/dev/client3/rdock/2013.1/src/exe/rbdock.cxx#4 $)

>  <Rbt.Library>
libRbt.so (2013.1, Build901 2013/11/27)

>  <Rbt.Parameter_File>
/export/apps/rDock/src/rDock_2013.1_src/data/scripts/dock_solv.prm

>  <Rbt.Receptor>
prm/blind_docking_40.prm

>  <SCORE>
8.06678

>  <SCORE.INTER>
11.7589

>  <SCORE.INTER.CONST>
1

>  <SCORE.INTER.POLAR>
0

>  <SCORE.INTER.ROT>
11

>  <SCORE.INTER.SOLV>
14.2121

>  <SCORE.INTER.VDW>
-7.83147

>  <SCORE.INTER.norm>
0.839919

>  <SCORE.INTRA>
-4.74859

>  <SCORE.INTRA.DIHEDRAL>
-13.0984

>  <SCORE.INTRA.DIHEDRAL.0>
20.2131

>  <SCORE.INTRA.POLAR>
0

>  <SCORE.INTRA.POLAR.0>
0

>  <SCORE.INTRA.REPUL>
0

>  <SCORE.INTRA.REPUL.0>
0

>  <SCORE.INTRA.SOLV>
2.70233

>  <SCORE.INTRA.SOLV.lig_0>
-48.2851

>  <SCORE.INTRA.VDW>
0.449422

>  <SCORE.INTRA.VDW.0>
-1.08658

>  <SCORE.INTRA.norm>
-0.339185

>  <SCORE.RESTR>
1.05651

>  <SCORE.RESTR.CAVITY>
1.05651

>  <SCORE.RESTR.norm>
0.0754651

>  <SCORE.SYSTEM>
0

>  <SCORE.SYSTEM.CONST>
0

>  <SCORE.SYSTEM.DIHEDRAL>
0

>  <SCORE.SYSTEM.SOLV>
0

>  <SCORE.SYSTEM.norm>
0

>  <SCORE.heavy>
14

>  <SCORE.norm>
0.576199

>  <RMSD>
40.539

$$$$
ligand
 OpenBabel11021811393D
libRbt.so/2013.1/901 2013/11/27
 14 13  0  0  0  0  0  0  0  0999 V2000
   37.5081   -9.9385    4.0861 N   0  0  0  0  0  0  0  0  0  0  0  0
   36.1184   -9.6214    3.7957 C   0  0  0  0  0  0  0  0  0  0  0  0
   35.5255   -8.7293    4.9210 C   0  0  0  0  0  0  0  0  0  0  0  0
   35.3645   -9.3591    6.3503 C   0  0  0  0  0  0  0  0  0  0  0  0
   34.6400   -8.5018    7.3587 N   0  0  0  0  0  0  0  0  0  0  0  0
   34.9507   -8.8464    8.7765 C   0  0  0  0  0  0  0  0  0  0  0  0
   35.7813   -7.8006    9.4980 C   0  0  0  0  0  0  0  0  0  0  0  0
   37.1869   -7.6837    8.9372 C   0  0  0  0  0  0  0  0  0  0  0  0
   37.1081   -6.8405    7.7226 C   0  0  0  0  0  0  0  0  0  0  0  0
   37.1313   -5.3770    7.9592 N   0  0  0  0  0  0  0  0  0  0  0  0
   38.4981   -4.8220    8.1247 C   0  0  0  0  0  0  0  0  0  0  0  0
   38.5954   -3.4696    8.8917 C   0  0  0  0  0  0  0  0  0  0  0  0
   37.6907   -2.4480    8.1806 C   0  0  0  0  0  0  0  0  0  0  0  0
   38.0117   -2.3778    6.7574 N   0  0  0  0  0  0  0  0  0  0  0  0
  1  2  1  0  0  0  0
  2  3  1  0  0  0  0
  3  4  1  0  0  0  0
  4  5  1  0  0  0  0
  5  6  1  0  0  0  0
  6  7  1  0  0  0  0
  7  8  1  0  0  0  0
  8  9  1  0  0  0  0
  9 10  1  0  0  0  0
 10 11  1  0  0  0  0
 11 12  1  0  0  0  0
 12 13  1  0  0  0  0
 13 14  1  0  0  0  0
M  END
>  <CHROM.1>
-66.34694660,-173.25834839,-157.44797340,109.73348687,-66.80062433,80.78940098
83.57129645,83.03804432,-157.49125062,-55.74631963,-53.03924195,36.72214961
-6.84410316,7.24025789,-2.30335304,1.06906961,1.06982820

>  <Name>
ligand

>  <RI>
0

>  <Rbt.Current_Directory>
/home/itssahil/PROJECTS/Mol_Feturizer/New_Systems/rnas/1EVV

>  <Rbt.Executable>
rbdock ($Id: //depot/dev/client3/rdock/2013.1/src/exe/rbdock.cxx#4 $)

>  <Rbt.Library>
libRbt.so (2013.1, Build901 2013/11/27)

>  <Rbt.Parameter_File>
/export/apps/rDock/src/rDock_2013.1_src/data/scripts/dock_solv.prm

>  <Rbt.Receptor>
prm/blind_docking_40.prm

>  <SCORE>
7.10689

>  <SCORE.INTER>
11.229

>  <SCORE.INTER.CONST>
1

>  <SCORE.INTER.POLAR>
0

>  <SCORE.INTER.ROT>
11

>  <SCORE.INTER.SOLV>
13.2513

>  <SCORE.INTER.VDW>
-7.86443

>  <SCORE.INTER.norm>
0.802071

>  <SCORE.INTRA>
-4.61117

>  <SCORE.INTRA.DIHEDRAL>
-13.7361

>  <SCORE.INTRA.DIHEDRAL.0>
20.2131

>  <SCORE.INTRA.POLAR>
0

>  <SCORE.INTRA.POLAR.0>
0

>  <SCORE.INTRA.REPUL>
0

>  <SCORE.INTRA.REPUL.0>
0

>  <SCORE.INTRA.SOLV>
3.04571

>  <SCORE.INTRA.SOLV.lig_0>
-48.2851

>  <SCORE.INTRA.VDW>
0.734036

>  <SCORE.INTRA.VDW.0>
-1.08658

>  <SCORE.INTRA.norm>
-0.329369

>  <SCORE.RESTR>
0.489063

>  <SCORE.RESTR.CAVITY>
0.489063

>  <SCORE.RESTR.norm>
0.0349331

>  <SCORE.SYSTEM>
0

>  <SCORE.SYSTEM.CONST>
0

>  <SCORE.SYSTEM.DIHEDRAL>
0

>  <SCORE.SYSTEM.SOLV>
0

>  <SCORE.SYSTEM.norm>
0

>  <SCORE.heavy>
14

>  <SCORE.norm>
0.507635

>  <RMSD>
40.595

$$$$
ligand
 OpenBabel11021811393D
libRbt.so/2013.1/901 2013/11/27
 14 13  0  0  0  0  0  0  0  0999 V2000
   39.0440   -3.5299    7.9691 N   0  0  0  0  0  0  0  0  0  0  0  0
   37.6074   -3.3255    8.0720 C   0  0  0  0  0  0  0  0  0  0  0  0
   36.8529   -4.3855    7.2230 C   0  0  0  0  0  0  0  0  0  0  0  0
   36.9846   -5.8928    7.6427 C   0  0  0  0  0  0  0  0  0  0  0  0
   36.0998   -6.8552    6.8895 N   0  0  0  0  0  0  0  0  0  0  0  0
   36.5112   -7.0684    5.4715 C   0  0  0  0  0  0  0  0  0  0  0  0
   37.3283   -8.3281    5.2487 C   0  0  0  0  0  0  0  0  0  0  0  0
   36.4744   -9.5831    5.2406 C   0  0  0  0  0  0  0  0  0  0  0  0
   36.4423  -10.1033    6.6265 C   0  0  0  0  0  0  0  0  0  0  0  0
   35.6539   -9.2998    7.5914 N   0  0  0  0  0  0  0  0  0  0  0  0
   36.3429   -9.0818    8.8881 C   0  0  0  0  0  0  0  0  0  0  0  0
   35.4231   -8.7462   10.0997 C   0  0  0  0  0  0  0  0  0  0  0  0
   36.3190   -8.3781   11.2955 C   0  0  0  0  0  0  0  0  0  0  0  0
   35.5082   -7.9929   12.4477 N   0  0  0  0  0  0  0  0  0  0  0  0
  1  2  1  0  0  0  0
  2  3  1  0  0  0  0
  3  4  1  0  0  0  0
  4  5  1  0  0  0  0
  5  6  1  0  0  0  0
  6  7  1  0  0  0  0
  7  8  1  0  0  0  0
  8  9  1  0  0  0  0
  9 10  1  0  0  0  0
 10 11  1  0  0  0  0
 11 12  1  0  0  0  0
 12 13  1  0  0  0  0
 13 14  1  0  0  0  0
M  END
>  <CHROM.1>
64.24490452,172.82203733,71.11806349,98.44714906,77.11371808,-91.83078088
71.00768839,-134.86757270,-157.57657616,-172.75916585,177.39206747,36.61373748
-7.32664857,7.90723452,0.09109039,1.23697202,1.11527131

>  <Name>
ligand

>  <RI>
0

>  <Rbt.Current_Directory>
/home/itssahil/PROJECTS/Mol_Feturizer/New_Systems/rnas/1EVV

>  <Rbt.Executable>
rbdock ($Id: //depot/dev/client3/rdock/2013.1/src/exe/rbdock.cxx#4 $)

>  <Rbt.Library>
libRbt.so (2013.1, Build901 2013/11/27)

>  <Rbt.Parameter_File>
/export/apps/rDock/src/rDock_2013.1_src/data/scripts/dock_solv.prm

>  <Rbt.Receptor>
prm/blind_docking_40.prm

>  <SCORE>
6.66854

>  <SCORE.INTER>
10.5232

>  <SCORE.INTER.CONST>
1

>  <SCORE.INTER.POLAR>
0

>  <SCORE.INTER.ROT>
11

>  <SCORE.INTER.SOLV>
11.0347

>  <SCORE.INTER.VDW>
-7.59614

>  <SCORE.INTER.norm>
0.751654

>  <SCORE.INTRA>
-4.80899

>  <SCORE.INTRA.DIHEDRAL>
-12.5453

>  <SCORE.INTRA.DIHEDRAL.0>
20.2131

>  <SCORE.INTRA.POLAR>
0

>  <SCORE.INTRA.POLAR.0>
0

>  <SCORE.INTRA.REPUL>
0

>  <SCORE.INTRA.REPUL.0>
0

>  <SCORE.INTRA.SOLV>
3.07936

>  <SCORE.INTRA.SOLV.lig_0>
-48.2851

>  <SCORE.INTRA.VDW>
-0.0760274

>  <SCORE.INTRA.VDW.0>
-1.08658

>  <SCORE.INTRA.norm>
-0.343499

>  <SCORE.RESTR>
0.954378

>  <SCORE.RESTR.CAVITY>
0.954378

>  <SCORE.RESTR.norm>
0.0681698

>  <SCORE.SYSTEM>
0

>  <SCORE.SYSTEM.CONST>
0

>  <SCORE.SYSTEM.DIHEDRAL>
0

>  <SCORE.SYSTEM.SOLV>
0

>  <SCORE.SYSTEM.norm>
0

>  <SCORE.heavy>
14

>  <SCORE.norm>
0.476324

>  <RMSD>
40.616

$$$$
ligand
 OpenBabel11021811393D
libRbt.so/2013.1/901 2013/11/27
 14 13  0  0  0  0  0  0  0  0999 V2000
   38.5838   -3.1803    8.5596 N   0  0  0  0  0  0  0  0  0  0  0  0
   37.7733   -3.5696    7.4160 C   0  0  0  0  0  0  0  0  0  0  0  0
   37.3791   -5.0685    7.5236 C   0  0  0  0  0  0  0  0  0  0  0  0
   36.6362   -5.7225    6.3047 C   0  0  0  0  0  0  0  0  0  0  0  0
   36.4320   -7.2147    6.3947 N   0  0  0  0  0  0  0  0  0  0  0  0
   36.1642   -7.8666    5.0798 C   0  0  0  0  0  0  0  0  0  0  0  0
   36.4909   -9.3486    5.0479 C   0  0  0  0  0  0  0  0  0  0  0  0
   35.5629  -10.1693    5.9251 C   0  0  0  0  0  0  0  0  0  0  0  0
   35.8836   -9.8420    7.3331 C   0  0  0  0  0  0  0  0  0  0  0  0
   35.0487   -8.7822    7.9479 N   0  0  0  0  0  0  0  0  0  0  0  0
   35.6802   -8.1339    9.1245 C   0  0  0  0  0  0  0  0  0  0  0  0
   35.4067   -8.8085   10.5018 C   0  0  0  0  0  0  0  0  0  0  0  0
   35.9026   -7.8605   11.6079 C   0  0  0  0  0  0  0  0  0  0  0  0
   35.6132   -8.4133   12.9285 N   0  0  0  0  0  0  0  0  0  0  0  0
  1  2  1  0  0  0  0
  2  3  1  0  0  0  0
  3  4  1  0  0  0  0
  4  5  1  0  0  0  0
  5  6  1  0  0  0  0
  6  7  1  0  0  0  0
  7  8  1  0  0  0  0
  8  9  1  0  0  0  0
  9 10  1  0  0  0  0
 10 11  1  0  0  0  0
 11 12  1  0  0  0  0
 12 13  1  0  0  0  0
 13 14  1  0  0  0  0
M  END
>  <CHROM.1>
-173.34486705,172.72431834,-160.28023978,157.29606780,67.73783676,-69.85679203
94.61358437,-158.58362283,-88.65031800,-169.22624049,177.27091194,36.32547577
-7.42738256,7.97783129,-0.50703569,1.17444981,1.34518105

>  <Name>
ligand

>  <RI>
0

>  <Rbt.Current_Directory>
/home/itssahil/PROJECTS/Mol_Feturizer/New_Systems/rnas/1EVV

>  <Rbt.Executable>
rbdock ($Id: //depot/dev/client3/rdock/2013.1/src/exe/rbdock.cxx#4 $)

>  <Rbt.Library>
libRbt.so (2013.1, Build901 2013/11/27)

>  <Rbt.Parameter_File>
/export/apps/rDock/src/rDock_2013.1_src/data/scripts/dock_solv.prm

>  <Rbt.Receptor>
prm/blind_docking_40.prm

>  <SCORE>
8.31409

>  <SCORE.INTER>
11.7923

>  <SCORE.INTER.CONST>
1

>  <SCORE.INTER.POLAR>
0

>  <SCORE.INTER.ROT>
11

>  <SCORE.INTER.SOLV>
9.97215

>  <SCORE.INTER.VDW>
-6.39583

>  <SCORE.INTER.norm>
0.842309

>  <SCORE.INTRA>
-4.88086

>  <SCORE.INTRA.DIHEDRAL>
-13.7857

>  <SCORE.INTRA.DIHEDRAL.0>
20.2131

>  <SCORE.INTRA.POLAR>
0

>  <SCORE.INTRA.POLAR.0>
0

>  <SCORE.INTRA.REPUL>
0

>  <SCORE.INTRA.REPUL.0>
0

>  <SCORE.INTRA.SOLV>
2.31903

>  <SCORE.INTRA.SOLV.lig_0>
-48.2851

>  <SCORE.INTRA.VDW>
0.852471

>  <SCORE.INTRA.VDW.0>
-1.08658

>  <SCORE.INTRA.norm>
-0.348633

>  <SCORE.RESTR>
1.40262

>  <SCORE.RESTR.CAVITY>
1.40262

>  <SCORE.RESTR.norm>
0.100187

>  <SCORE.SYSTEM>
0

>  <SCORE.SYSTEM.CONST>
0

>  <SCORE.SYSTEM.DIHEDRAL>
0

>  <SCORE.SYSTEM.SOLV>
0

>  <SCORE.SYSTEM.norm>
0

>  <SCORE.heavy>
14

>  <SCORE.norm>
0.593863

>  <RMSD>
40.685

$$$$
ligand
 OpenBabel11021811393D
libRbt.so/2013.1/901 2013/11/27
 14 13  0  0  0  0  0  0  0  0999 V2000
   36.5529   -8.1226   11.5120 N   0  0  0  0  0  0  0  0  0  0  0  0
   36.1538   -9.0633   10.4766 C   0  0  0  0  0  0  0  0  0  0  0  0
   35.6053   -8.2990    9.2402 C   0  0  0  0  0  0  0  0  0  0  0  0
   35.0383   -9.1449    8.0451 C   0  0  0  0  0  0  0  0  0  0  0  0
   36.0260  -10.0728    7.3816 N   0  0  0  0  0  0  0  0  0  0  0  0
   35.9179  -10.1038    5.8940 C   0  0  0  0  0  0  0  0  0  0  0  0
   37.0304   -9.3589    5.1788 C   0  0  0  0  0  0  0  0  0  0  0  0
   37.2767   -7.9791    5.7614 C   0  0  0  0  0  0  0  0  0  0  0  0
   36.0714   -7.1637    5.4880 C   0  0  0  0  0  0  0  0  0  0  0  0
   35.8453   -6.0286    6.4147 N   0  0  0  0  0  0  0  0  0  0  0  0
   36.9162   -5.0015    6.3708 C   0  0  0  0  0  0  0  0  0  0  0  0
   37.0259   -4.0787    7.6211 C   0  0  0  0  0  0  0  0  0  0  0  0
   38.1985   -3.1071    7.3995 C   0  0  0  0  0  0  0  0  0  0  0  0
   38.4782   -2.3506    8.6173 N   0  0  0  0  0  0  0  0  0  0  0  0
  1  2  1  0  0  0  0
  2  3  1  0  0  0  0
  3  4  1  0  0  0  0
  4  5  1  0  0  0  0
  5  6  1  0  0  0  0
  6  7  1  0  0  0  0
  7  8  1  0  0  0  0
  8  9  1  0  0  0  0
  9 10  1  0  0  0  0
 10 11  1  0  0  0  0
 11 12  1  0  0  0  0
 12 13  1  0  0  0  0
 13 14  1  0  0  0  0
M  END
>  <CHROM.1>
-176.30032286,-61.16702852,-138.93439273,105.33124357,-47.52439065,-66.34220179
155.31554532,63.15290950,-158.97786895,178.98941083,-171.54753381,36.58113163
-7.13410094,7.52826544,2.99734977,-1.28391593,-1.71655902

>  <Name>
ligand

>  <RI>
0

>  <Rbt.Current_Directory>
/home/itssahil/PROJECTS/Mol_Feturizer/New_Systems/rnas/1EVV

>  <Rbt.Executable>
rbdock ($Id: //depot/dev/client3/rdock/2013.1/src/exe/rbdock.cxx#4 $)

>  <Rbt.Library>
libRbt.so (2013.1, Build901 2013/11/27)

>  <Rbt.Parameter_File>
/export/apps/rDock/src/rDock_2013.1_src/data/scripts/dock_solv.prm

>  <Rbt.Receptor>
prm/blind_docking_40.prm

>  <SCORE>
7.10993

>  <SCORE.INTER>
12.2439

>  <SCORE.INTER.CONST>
1

>  <SCORE.INTER.POLAR>
0

>  <SCORE.INTER.ROT>
11

>  <SCORE.INTER.SOLV>
14.6936

>  <SCORE.INTER.VDW>
-7.66861

>  <SCORE.INTER.norm>
0.874565

>  <SCORE.INTRA>
-5.94238

>  <SCORE.INTRA.DIHEDRAL>
-14.853

>  <SCORE.INTRA.DIHEDRAL.0>
20.2131

>  <SCORE.INTRA.POLAR>
0

>  <SCORE.INTRA.POLAR.0>
0

>  <SCORE.INTRA.REPUL>
0

>  <SCORE.INTRA.REPUL.0>
0

>  <SCORE.INTRA.SOLV>
0.780661

>  <SCORE.INTRA.SOLV.lig_0>
-48.2851

>  <SCORE.INTRA.VDW>
1.09381

>  <SCORE.INTRA.VDW.0>
-1.08658

>  <SCORE.INTRA.norm>
-0.424456

>  <SCORE.RESTR>
0.808411

>  <SCORE.RESTR.CAVITY>
0.808411

>  <SCORE.RESTR.norm>
0.0577436

>  <SCORE.SYSTEM>
0

>  <SCORE.SYSTEM.CONST>
0

>  <SCORE.SYSTEM.DIHEDRAL>
0

>  <SCORE.SYSTEM.SOLV>
0

>  <SCORE.SYSTEM.norm>
0

>  <SCORE.heavy>
14

>  <SCORE.norm>
0.507852

>  <RMSD>
40.724

$$$$
ligand
 OpenBabel11021811393D
libRbt.so/2013.1/901 2013/11/27
 14 13  0  0  0  0  0  0  0  0999 V2000
   37.0090   -7.9700    3.0392 N   0  0  0  0  0  0  0  0  0  0  0  0
   36.2898   -8.8477    3.9494 C   0  0  0  0  0  0  0  0  0  0  0  0
   37.1622   -9.1572    5.1972 C   0  0  0  0  0  0  0  0  0  0  0  0
   36.5383  -10.0519    6.3267 C   0  0  0  0  0  0  0  0  0  0  0  0
   35.3543   -9.4550    7.0467 N   0  0  0  0  0  0  0  0  0  0  0  0
   35.7166   -8.7091    8.2868 C   0  0  0  0  0  0  0  0  0  0  0  0
   36.0599   -7.2494    8.0508 C   0  0  0  0  0  0  0  0  0  0  0  0
   34.9071   -6.4699    7.4446 C   0  0  0  0  0  0  0  0  0  0  0  0
   35.3358   -5.0563    7.3436 C   0  0  0  0  0  0  0  0  0  0  0  0
   36.4430   -4.7917    6.3936 N   0  0  0  0  0  0  0  0  0  0  0  0
   37.7749   -4.6978    7.0423 C   0  0  0  0  0  0  0  0  0  0  0  0
   38.5038   -3.3279    6.9051 C   0  0  0  0  0  0  0  0  0  0  0  0
   38.5671   -2.6758    8.2975 C   0  0  0  0  0  0  0  0  0  0  0  0
   37.2229   -2.4163    8.8067 N   0  0  0  0  0  0  0  0  0  0  0  0
  1  2  1  0  0  0  0
  2  3  1  0  0  0  0
  3  4  1  0  0  0  0
  4  5  1  0  0  0  0
  5  6  1  0  0  0  0
  6  7  1  0  0  0  0
  7  8  1  0  0  0  0
  8  9  1  0  0  0  0
  9 10  1  0  0  0  0
 10 11  1  0  0  0  0
 11 12  1  0  0  0  0
 12 13  1  0  0  0  0
 13 14  1  0  0  0  0
M  END
>  <CHROM.1>
177.85145061,-64.99034653,-92.98317626,87.56583210,60.46932209,176.54566916
66.20599464,-98.18518629,-118.05223844,112.19001373,-62.15117920,36.63467977
-6.49128528,6.72375667,-1.99577169,1.03966139,0.74598935

>  <Name>
ligand

>  <RI>
0

>  <Rbt.Current_Directory>
/home/itssahil/PROJECTS/Mol_Feturizer/New_Systems/rnas/1EVV

>  <Rbt.Executable>
rbdock ($Id: //depot/dev/client3/rdock/2013.1/src/exe/rbdock.cxx#4 $)

>  <Rbt.Library>
libRbt.so (2013.1, Build901 2013/11/27)

>  <Rbt.Parameter_File>
/export/apps/rDock/src/rDock_2013.1_src/data/scripts/dock_solv.prm

>  <Rbt.Receptor>
prm/blind_docking_40.prm

>  <SCORE>
6.26832

>  <SCORE.INTER>
10.9468

>  <SCORE.INTER.CONST>
1

>  <SCORE.INTER.POLAR>
0

>  <SCORE.INTER.ROT>
11

>  <SCORE.INTER.SOLV>
17.9945

>  <SCORE.INTER.VDW>
-9.6336

>  <SCORE.INTER.norm>
0.781916

>  <SCORE.INTRA>
-4.76876

>  <SCORE.INTRA.DIHEDRAL>
-11.3336

>  <SCORE.INTRA.DIHEDRAL.0>
20.2131

>  <SCORE.INTRA.POLAR>
0

>  <SCORE.INTRA.POLAR.0>
0

>  <SCORE.INTRA.REPUL>
0

>  <SCORE.INTRA.REPUL.0>
0

>  <SCORE.INTRA.SOLV>
2.36331

>  <SCORE.INTRA.SOLV.lig_0>
-48.2851

>  <SCORE.INTRA.VDW>
-0.283609

>  <SCORE.INTRA.VDW.0>
-1.08658

>  <SCORE.INTRA.norm>
-0.340626

>  <SCORE.RESTR>
0.0902453

>  <SCORE.RESTR.CAVITY>
0.0902453

>  <SCORE.RESTR.norm>
0.0064461

>  <SCORE.SYSTEM>
0

>  <SCORE.SYSTEM.CONST>
0

>  <SCORE.SYSTEM.DIHEDRAL>
0

>  <SCORE.SYSTEM.SOLV>
0

>  <SCORE.SYSTEM.norm>
0

>  <SCORE.heavy>
14

>  <SCORE.norm>
0.447737

>  <RMSD>
40.748

$$$$
ligand
 OpenBabel11021811393D
libRbt.so/2013.1/901 2013/11/27
 14 13  0  0  0  0  0  0  0  0999 V2000
   36.3367   -9.8936    2.7311 N   0  0  0  0  0  0  0  0  0  0  0  0
   36.1159   -9.2714    4.0274 C   0  0  0  0  0  0  0  0  0  0  0  0
   36.8479  -10.0733    5.1387 C   0  0  0  0  0  0  0  0  0  0  0  0
   36.6044   -9.6512    6.6313 C   0  0  0  0  0  0  0  0  0  0  0  0
   35.1839   -9.7898    7.1207 N   0  0  0  0  0  0  0  0  0  0  0  0
   34.8569   -8.9082    8.2790 C   0  0  0  0  0  0  0  0  0  0  0  0
   34.4034   -7.5143    7.8848 C   0  0  0  0  0  0  0  0  0  0  0  0
   35.4404   -6.7756    7.0584 C   0  0  0  0  0  0  0  0  0  0  0  0
   34.8792   -5.4441    6.7349 C   0  0  0  0  0  0  0  0  0  0  0  0
   35.8730   -4.4002    6.3872 N   0  0  0  0  0  0  0  0  0  0  0  0
   36.8393   -4.1113    7.4765 C   0  0  0  0  0  0  0  0  0  0  0  0
   37.9577   -3.0809    7.1387 C   0  0  0  0  0  0  0  0  0  0  0  0
   38.6404   -2.6647    8.4535 C   0  0  0  0  0  0  0  0  0  0  0  0
   39.1257   -3.8376    9.1761 N   0  0  0  0  0  0  0  0  0  0  0  0
  1  2  1  0  0  0  0
  2  3  1  0  0  0  0
  3  4  1  0  0  0  0
  4  5  1  0  0  0  0
  5  6  1  0  0  0  0
  6  7  1  0  0  0  0
  7  8  1  0  0  0  0
  8  9  1  0  0  0  0
  9 10  1  0  0  0  0
 10 11  1  0  0  0  0
 11 12  1  0  0  0  0
 12 13  1  0  0  0  0
 13 14  1  0  0  0  0
M  END
>  <CHROM.1>
-173.50428114,62.75470459,-156.46651022,86.46763030,-58.47887498,179.69445817
158.20815823,-60.69470272,176.62544365,166.80669712,54.98159484,36.36451545
-6.81537104,6.73145713,-2.03388756,0.91902901,0.78949610

>  <Name>
ligand

>  <RI>
0

>  <Rbt.Current_Directory>
/home/itssahil/PROJECTS/Mol_Feturizer/New_Systems/rnas/1EVV

>  <Rbt.Executable>
rbdock ($Id: //depot/dev/client3/rdock/2013.1/src/exe/rbdock.cxx#4 $)

>  <Rbt.Library>
libRbt.so (2013.1, Build901 2013/11/27)

>  <Rbt.Parameter_File>
/export/apps/rDock/src/rDock_2013.1_src/data/scripts/dock_solv.prm

>  <Rbt.Receptor>
prm/blind_docking_40.prm

>  <SCORE>
4.87691

>  <SCORE.INTER>
11.1509

>  <SCORE.INTER.CONST>
1

>  <SCORE.INTER.POLAR>
0

>  <SCORE.INTER.ROT>
11

>  <SCORE.INTER.SOLV>
14.853

>  <SCORE.INTER.VDW>
-8.45038

>  <SCORE.INTER.norm>
0.796493

>  <SCORE.INTRA>
-7.14533

>  <SCORE.INTRA.DIHEDRAL>
-16.7796

>  <SCORE.INTRA.DIHEDRAL.0>
20.2131

>  <SCORE.INTRA.POLAR>
0

>  <SCORE.INTRA.POLAR.0>
0

>  <SCORE.INTRA.REPUL>
0

>  <SCORE.INTRA.REPUL.0>
0

>  <SCORE.INTRA.SOLV>
0.232818

>  <SCORE.INTRA.SOLV.lig_0>
-48.2851

>  <SCORE.INTRA.VDW>
1.12808

>  <SCORE.INTRA.VDW.0>
-1.08658

>  <SCORE.INTRA.norm>
-0.510381

>  <SCORE.RESTR>
0.871329

>  <SCORE.RESTR.CAVITY>
0.871329

>  <SCORE.RESTR.norm>
0.0622378

>  <SCORE.SYSTEM>
0

>  <SCORE.SYSTEM.CONST>
0

>  <SCORE.SYSTEM.DIHEDRAL>
0

>  <SCORE.SYSTEM.SOLV>
0

>  <SCORE.SYSTEM.norm>
0

>  <SCORE.heavy>
14

>  <SCORE.norm>
0.34835

>  <RMSD>
41.014

$$$$
ligand
 OpenBabel11021811393D
libRbt.so/2013.1/901 2013/11/27
 14 13  0  0  0  0  0  0  0  0999 V2000
   35.8943   -8.5042    3.1332 N   0  0  0  0  0  0  0  0  0  0  0  0
   37.1962   -9.0941    3.4037 C   0  0  0  0  0  0  0  0  0  0  0  0
   37.5235   -8.9989    4.9195 C   0  0  0  0  0  0  0  0  0  0  0  0
   36.6479   -9.8402    5.9148 C   0  0  0  0  0  0  0  0  0  0  0  0
   35.3291   -9.2183    6.3031 N   0  0  0  0  0  0  0  0  0  0  0  0
   34.9196   -9.5026    7.7091 C   0  0  0  0  0  0  0  0  0  0  0  0
   35.8241   -8.8751    8.7542 C   0  0  0  0  0  0  0  0  0  0  0  0
   35.6296   -7.3740    8.8682 C   0  0  0  0  0  0  0  0  0  0  0  0
   36.4377   -6.7425    7.8003 C   0  0  0  0  0  0  0  0  0  0  0  0
   36.3577   -5.2637    7.7296 N   0  0  0  0  0  0  0  0  0  0  0  0
   37.0987   -4.6812    6.5828 C   0  0  0  0  0  0  0  0  0  0  0  0
   38.4840   -4.0516    6.9166 C   0  0  0  0  0  0  0  0  0  0  0  0
   38.2424   -2.7164    7.6423 C   0  0  0  0  0  0  0  0  0  0  0  0
   37.9770   -2.9413    9.0609 N   0  0  0  0  0  0  0  0  0  0  0  0
  1  2  1  0  0  0  0
  2  3  1  0  0  0  0
  3  4  1  0  0  0  0
  4  5  1  0  0  0  0
  5  6  1  0  0  0  0
  6  7  1  0  0  0  0
  7  8  1  0  0  0  0
  8  9  1  0  0  0  0
  9 10  1  0  0  0  0
 10 11  1  0  0  0  0
 11 12  1  0  0  0  0
 12 13  1  0  0  0  0
 13 14  1  0  0  0  0
M  END
>  <CHROM.1>
66.88627767,-82.14929678,-145.30068091,66.18604272,73.56629548,-82.87173421
178.85155448,-175.56820838,-101.87615317,-73.78450610,81.85991158,36.68311249
-6.98621892,6.76712143,-2.11958276,1.08185536,0.92790793

>  <Name>
ligand

>  <RI>
0

>  <Rbt.Current_Directory>
/home/itssahil/PROJECTS/Mol_Feturizer/New_Systems/rnas/1EVV

>  <Rbt.Executable>
rbdock ($Id: //depot/dev/client3/rdock/2013.1/src/exe/rbdock.cxx#4 $)

>  <Rbt.Library>
libRbt.so (2013.1, Build901 2013/11/27)

>  <Rbt.Parameter_File>
/export/apps/rDock/src/rDock_2013.1_src/data/scripts/dock_solv.prm

>  <Rbt.Receptor>
prm/blind_docking_40.prm

>  <SCORE>
8.04443

>  <SCORE.INTER>
11.9908

>  <SCORE.INTER.CONST>
1

>  <SCORE.INTER.POLAR>
0

>  <SCORE.INTER.ROT>
11

>  <SCORE.INTER.SOLV>
16.2577

>  <SCORE.INTER.VDW>
-8.3587

>  <SCORE.INTER.norm>
0.856486

>  <SCORE.INTRA>
-3.98092

>  <SCORE.INTRA.DIHEDRAL>
-11.7117

>  <SCORE.INTRA.DIHEDRAL.0>
20.2131

>  <SCORE.INTRA.POLAR>
0

>  <SCORE.INTRA.POLAR.0>
0

>  <SCORE.INTRA.REPUL>
0

>  <SCORE.INTRA.REPUL.0>
0

>  <SCORE.INTRA.SOLV>
3.93092

>  <SCORE.INTRA.SOLV.lig_0>
-48.2851

>  <SCORE.INTRA.VDW>
-0.0905382

>  <SCORE.INTRA.VDW.0>
-1.08658

>  <SCORE.INTRA.norm>
-0.284351

>  <SCORE.RESTR>
0.0345403

>  <SCORE.RESTR.CAVITY>
0.0345403

>  <SCORE.RESTR.norm>
0.00246716

>  <SCORE.SYSTEM>
0

>  <SCORE.SYSTEM.CONST>
0

>  <SCORE.SYSTEM.DIHEDRAL>
0

>  <SCORE.SYSTEM.SOLV>
0

>  <SCORE.SYSTEM.norm>
0

>  <SCORE.heavy>
14

>  <SCORE.norm>
0.574602

>  <RMSD>
41.045

$$$$
ligand
 OpenBabel11021811393D
libRbt.so/2013.1/901 2013/11/27
 14 13  0  0  0  0  0  0  0  0999 V2000
   38.0978   -8.9876    3.0295 N   0  0  0  0  0  0  0  0  0  0  0  0
   37.1361   -9.8814    3.6559 C   0  0  0  0  0  0  0  0  0  0  0  0
   36.5969   -9.2527    4.9703 C   0  0  0  0  0  0  0  0  0  0  0  0
   35.4358   -9.9984    5.7194 C   0  0  0  0  0  0  0  0  0  0  0  0
   34.9345   -9.3240    6.9727 N   0  0  0  0  0  0  0  0  0  0  0  0
   35.6915   -9.6986    8.2024 C   0  0  0  0  0  0  0  0  0  0  0  0
   35.8009   -8.5812    9.2240 C   0  0  0  0  0  0  0  0  0  0  0  0
   36.6193   -7.4070    8.7185 C   0  0  0  0  0  0  0  0  0  0  0  0
   35.7966   -6.6969    7.7129 C   0  0  0  0  0  0  0  0  0  0  0  0
   36.5451   -5.8212    6.7795 N   0  0  0  0  0  0  0  0  0  0  0  0
   37.5209   -4.9283    7.4535 C   0  0  0  0  0  0  0  0  0  0  0  0
   37.7410   -3.5362    6.7900 C   0  0  0  0  0  0  0  0  0  0  0  0
   38.6150   -2.6884    7.7309 C   0  0  0  0  0  0  0  0  0  0  0  0
   38.0107   -2.6024    9.0578 N   0  0  0  0  0  0  0  0  0  0  0  0
  1  2  1  0  0  0  0
  2  3  1  0  0  0  0
  3  4  1  0  0  0  0
  4  5  1  0  0  0  0
  5  6  1  0  0  0  0
  6  7  1  0  0  0  0
  7  8  1  0  0  0  0
  8  9  1  0  0  0  0
  9 10  1  0  0  0  0
 10 11  1  0  0  0  0
 11 12  1  0  0  0  0
 12 13  1  0  0  0  0
 13 14  1  0  0  0  0
M  END
>  <CHROM.1>
173.82460254,-178.72457399,-87.48691492,146.86141095,-65.38383989,72.95099382
-160.16572758,-47.57637157,-147.12690290,171.87071040,-55.53538907,36.75295620
-7.10048107,6.85853629,-2.03570809,1.04440933,0.80966125

>  <Name>
ligand

>  <RI>
0

>  <Rbt.Current_Directory>
/home/itssahil/PROJECTS/Mol_Feturizer/New_Systems/rnas/1EVV

>  <Rbt.Executable>
rbdock ($Id: //depot/dev/client3/rdock/2013.1/src/exe/rbdock.cxx#4 $)

>  <Rbt.Library>
libRbt.so (2013.1, Build901 2013/11/27)

>  <Rbt.Parameter_File>
/export/apps/rDock/src/rDock_2013.1_src/data/scripts/dock_solv.prm

>  <Rbt.Receptor>
prm/blind_docking_40.prm

>  <SCORE>
7.26366

>  <SCORE.INTER>
11.9648

>  <SCORE.INTER.CONST>
1

>  <SCORE.INTER.POLAR>
0

>  <SCORE.INTER.ROT>
11

>  <SCORE.INTER.SOLV>
15.8823

>  <SCORE.INTER.VDW>
-8.25089

>  <SCORE.INTER.norm>
0.854631

>  <SCORE.INTRA>
-4.82391

>  <SCORE.INTRA.DIHEDRAL>
-15.5655

>  <SCORE.INTRA.DIHEDRAL.0>
20.2131

>  <SCORE.INTRA.POLAR>
0

>  <SCORE.INTRA.POLAR.0>
0

>  <SCORE.INTRA.REPUL>
0

>  <SCORE.INTRA.REPUL.0>
0

>  <SCORE.INTRA.SOLV>
1.4528

>  <SCORE.INTRA.SOLV.lig_0>
-48.2851

>  <SCORE.INTRA.VDW>
2.23243

>  <SCORE.INTRA.VDW.0>
-1.08658

>  <SCORE.INTRA.norm>
-0.344565

>  <SCORE.RESTR>
0.122735

>  <SCORE.RESTR.CAVITY>
0.122735

>  <SCORE.RESTR.norm>
0.00876679

>  <SCORE.SYSTEM>
0

>  <SCORE.SYSTEM.CONST>
0

>  <SCORE.SYSTEM.DIHEDRAL>
0

>  <SCORE.SYSTEM.SOLV>
0

>  <SCORE.SYSTEM.norm>
0

>  <SCORE.heavy>
14

>  <SCORE.norm>
0.518833

>  <RMSD>
41.055

$$$$
ligand
 OpenBabel11021811393D
libRbt.so/2013.1/901 2013/11/27
 14 13  0  0  0  0  0  0  0  0999 V2000
   39.7476   -3.6261    8.0367 N   0  0  0  0  0  0  0  0  0  0  0  0
   38.6100   -3.2635    8.8676 C   0  0  0  0  0  0  0  0  0  0  0  0
   37.3434   -3.0717    7.9885 C   0  0  0  0  0  0  0  0  0  0  0  0
   36.8689   -4.2827    7.1089 C   0  0  0  0  0  0  0  0  0  0  0  0
   36.3306   -5.4672    7.8728 N   0  0  0  0  0  0  0  0  0  0  0  0
   37.2144   -6.6680    7.8237 C   0  0  0  0  0  0  0  0  0  0  0  0
   36.9184   -7.6965    8.9002 C   0  0  0  0  0  0  0  0  0  0  0  0
   35.5415   -8.3176    8.7504 C   0  0  0  0  0  0  0  0  0  0  0  0
   35.6059   -9.2631    7.6127 C   0  0  0  0  0  0  0  0  0  0  0  0
   35.6601   -8.6406    6.2682 N   0  0  0  0  0  0  0  0  0  0  0  0
   36.5331   -9.3655    5.3110 C   0  0  0  0  0  0  0  0  0  0  0  0
   36.1503   -9.2341    3.8067 C   0  0  0  0  0  0  0  0  0  0  0  0
   37.1277  -10.0933    2.9855 C   0  0  0  0  0  0  0  0  0  0  0  0
   38.4811   -9.5491    3.0609 N   0  0  0  0  0  0  0  0  0  0  0  0
  1  2  1  0  0  0  0
  2  3  1  0  0  0  0
  3  4  1  0  0  0  0
  4  5  1  0  0  0  0
  5  6  1  0  0  0  0
  6  7  1  0  0  0  0
  7  8  1  0  0  0  0
  8  9  1  0  0  0  0
  9 10  1  0  0  0  0
 10 11  1  0  0  0  0
 11 12  1  0  0  0  0
 12 13  1  0  0  0  0
 13 14  1  0  0  0  0
M  END
>  <CHROM.1>
58.16715954,68.40238026,-110.30444883,162.32699689,64.66590202,74.53142392
-73.58077790,142.97754160,151.90400224,-177.72294605,-66.37483036,37.00926749
-7.03858227,6.74259019,-1.28705380,-0.92427153,-2.30168051

>  <Name>
ligand

>  <RI>
0

>  <Rbt.Current_Directory>
/home/itssahil/PROJECTS/Mol_Feturizer/New_Systems/rnas/1EVV

>  <Rbt.Executable>
rbdock ($Id: //depot/dev/client3/rdock/2013.1/src/exe/rbdock.cxx#4 $)

>  <Rbt.Library>
libRbt.so (2013.1, Build901 2013/11/27)

>  <Rbt.Parameter_File>
/export/apps/rDock/src/rDock_2013.1_src/data/scripts/dock_solv.prm

>  <Rbt.Receptor>
prm/blind_docking_40.prm

>  <SCORE>
4.95589

>  <SCORE.INTER>
9.92791

>  <SCORE.INTER.CONST>
1

>  <SCORE.INTER.POLAR>
0

>  <SCORE.INTER.ROT>
11

>  <SCORE.INTER.SOLV>
13.4566

>  <SCORE.INTER.VDW>
-8.80025

>  <SCORE.INTER.norm>
0.709136

>  <SCORE.INTRA>
-5.70435

>  <SCORE.INTRA.DIHEDRAL>
-15.4517

>  <SCORE.INTRA.DIHEDRAL.0>
20.2131

>  <SCORE.INTRA.POLAR>
0

>  <SCORE.INTRA.POLAR.0>
0

>  <SCORE.INTRA.REPUL>
0

>  <SCORE.INTRA.REPUL.0>
0

>  <SCORE.INTRA.SOLV>
3.37776

>  <SCORE.INTRA.SOLV.lig_0>
-48.2851

>  <SCORE.INTRA.VDW>
0.332613

>  <SCORE.INTRA.VDW.0>
-1.08658

>  <SCORE.INTRA.norm>
-0.407453

>  <SCORE.RESTR>
0.732325

>  <SCORE.RESTR.CAVITY>
0.732325

>  <SCORE.RESTR.norm>
0.052309

>  <SCORE.SYSTEM>
0

>  <SCORE.SYSTEM.CONST>
0

>  <SCORE.SYSTEM.DIHEDRAL>
0

>  <SCORE.SYSTEM.SOLV>
0

>  <SCORE.SYSTEM.norm>
0

>  <SCORE.heavy>
14

>  <SCORE.norm>
0.353992

>  <RMSD>
41.076

$$$$
ligand
 OpenBabel11021811393D
libRbt.so/2013.1/901 2013/11/27
 14 13  0  0  0  0  0  0  0  0999 V2000
   37.9932   -8.6616    3.0159 N   0  0  0  0  0  0  0  0  0  0  0  0
   36.7026   -9.2167    3.3934 C   0  0  0  0  0  0  0  0  0  0  0  0
   36.7511   -9.7403    4.8553 C   0  0  0  0  0  0  0  0  0  0  0  0
   37.1203   -8.7196    5.9899 C   0  0  0  0  0  0  0  0  0  0  0  0
   37.1411   -9.2846    7.3887 N   0  0  0  0  0  0  0  0  0  0  0  0
   37.0429   -8.2493    8.4583 C   0  0  0  0  0  0  0  0  0  0  0  0
   35.7236   -8.2608    9.2090 C   0  0  0  0  0  0  0  0  0  0  0  0
   34.5274   -8.1007    8.2883 C   0  0  0  0  0  0  0  0  0  0  0  0
   34.4689   -6.6772    7.8851 C   0  0  0  0  0  0  0  0  0  0  0  0
   35.5069   -6.2446    6.9189 N   0  0  0  0  0  0  0  0  0  0  0  0
   36.0952   -4.9178    7.2310 C   0  0  0  0  0  0  0  0  0  0  0  0
   37.5919   -4.9215    7.6632 C   0  0  0  0  0  0  0  0  0  0  0  0
   37.9766   -3.4895    8.0745 C   0  0  0  0  0  0  0  0  0  0  0  0
   38.0133   -2.6105    6.9085 N   0  0  0  0  0  0  0  0  0  0  0  0
  1  2  1  0  0  0  0
  2  3  1  0  0  0  0
  3  4  1  0  0  0  0
  4  5  1  0  0  0  0
  5  6  1  0  0  0  0
  6  7  1  0  0  0  0
  7  8  1  0  0  0  0
  8  9  1  0  0  0  0
  9 10  1  0  0  0  0
 10 11  1  0  0  0  0
 11 12  1  0  0  0  0
 12 13  1  0  0  0  0
 13 14  1  0  0  0  0
M  END
>  <CHROM.1>
58.71483737,179.56433235,-160.81789787,109.94561299,-56.46385487,-75.42084327
72.87614616,-137.91948828,112.53972075,-174.49494570,-69.66594428,36.61799962
-7.07835300,6.80601297,-1.63677687,1.03915858,0.57509521

>  <Name>
ligand

>  <RI>
0

>  <Rbt.Current_Directory>
/home/itssahil/PROJECTS/Mol_Feturizer/New_Systems/rnas/1EVV

>  <Rbt.Executable>
rbdock ($Id: //depot/dev/client3/rdock/2013.1/src/exe/rbdock.cxx#4 $)

>  <Rbt.Library>
libRbt.so (2013.1, Build901 2013/11/27)

>  <Rbt.Parameter_File>
/export/apps/rDock/src/rDock_2013.1_src/data/scripts/dock_solv.prm

>  <Rbt.Receptor>
prm/blind_docking_40.prm

>  <SCORE>
6.18453

>  <SCORE.INTER>
12.1384

>  <SCORE.INTER.CONST>
1

>  <SCORE.INTER.POLAR>
0

>  <SCORE.INTER.ROT>
11

>  <SCORE.INTER.SOLV>
16.7382

>  <SCORE.INTER.VDW>
-8.42046

>  <SCORE.INTER.norm>
0.867028

>  <SCORE.INTRA>
-5.98614

>  <SCORE.INTRA.DIHEDRAL>
-14.6445

>  <SCORE.INTRA.DIHEDRAL.0>
20.2131

>  <SCORE.INTRA.POLAR>
0

>  <SCORE.INTRA.POLAR.0>
0

>  <SCORE.INTRA.REPUL>
0

>  <SCORE.INTRA.REPUL.0>
0

>  <SCORE.INTRA.SOLV>
2.91316

>  <SCORE.INTRA.SOLV.lig_0>
-48.2851

>  <SCORE.INTRA.VDW>
-0.120465

>  <SCORE.INTRA.VDW.0>
-1.08658

>  <SCORE.INTRA.norm>
-0.427582

>  <SCORE.RESTR>
0.0322896

>  <SCORE.RESTR.CAVITY>
0.0322896

>  <SCORE.RESTR.norm>
0.0023064

>  <SCORE.SYSTEM>
0

>  <SCORE.SYSTEM.CONST>
0

>  <SCORE.SYSTEM.DIHEDRAL>
0

>  <SCORE.SYSTEM.SOLV>
0

>  <SCORE.SYSTEM.norm>
0

>  <SCORE.heavy>
14

>  <SCORE.norm>
0.441752

>  <RMSD>
41.119

$$$$
ligand
 OpenBabel11021811393D
libRbt.so/2013.1/901 2013/11/27
 14 13  0  0  0  0  0  0  0  0999 V2000
   35.7247   -9.5780    2.8688 N   0  0  0  0  0  0  0  0  0  0  0  0
   36.5855   -8.6724    3.6138 C   0  0  0  0  0  0  0  0  0  0  0  0
   37.2366   -9.4159    4.8125 C   0  0  0  0  0  0  0  0  0  0  0  0
   36.2850  -10.0919    5.8627 C   0  0  0  0  0  0  0  0  0  0  0  0
   35.3560   -9.1543    6.5938 N   0  0  0  0  0  0  0  0  0  0  0  0
   35.0432   -9.5820    7.9883 C   0  0  0  0  0  0  0  0  0  0  0  0
   36.0891   -9.1716    9.0089 C   0  0  0  0  0  0  0  0  0  0  0  0
   36.1682   -7.6666    9.1901 C   0  0  0  0  0  0  0  0  0  0  0  0
   36.8350   -7.1126    7.9897 C   0  0  0  0  0  0  0  0  0  0  0  0
   37.1260   -5.6595    8.0350 N   0  0  0  0  0  0  0  0  0  0  0  0
   36.5409   -4.8993    6.9022 C   0  0  0  0  0  0  0  0  0  0  0  0
   37.5092   -3.9306    6.1600 C   0  0  0  0  0  0  0  0  0  0  0  0
   38.0220   -2.8935    7.1746 C   0  0  0  0  0  0  0  0  0  0  0  0
   38.9951   -3.4969    8.0815 N   0  0  0  0  0  0  0  0  0  0  0  0
  1  2  1  0  0  0  0
  2  3  1  0  0  0  0
  3  4  1  0  0  0  0
  4  5  1  0  0  0  0
  5  6  1  0  0  0  0
  6  7  1  0  0  0  0
  7  8  1  0  0  0  0
  8  9  1  0  0  0  0
  9 10  1  0  0  0  0
 10 11  1  0  0  0  0
 11 12  1  0  0  0  0
 12 13  1  0  0  0  0
 13 14  1  0  0  0  0
M  END
>  <CHROM.1>
-57.48834337,-61.34016653,-148.21476968,83.49425038,66.24816155,-73.66481577
-174.30393912,-123.80714861,-131.09402541,-60.11968998,73.75440878,36.67969197
-7.23761344,6.73455983,-2.53431763,1.20518844,1.29407913

>  <Name>
ligand

>  <RI>
0

>  <Rbt.Current_Directory>
/home/itssahil/PROJECTS/Mol_Feturizer/New_Systems/rnas/1EVV

>  <Rbt.Executable>
rbdock ($Id: //depot/dev/client3/rdock/2013.1/src/exe/rbdock.cxx#4 $)

>  <Rbt.Library>
libRbt.so (2013.1, Build901 2013/11/27)

>  <Rbt.Parameter_File>
/export/apps/rDock/src/rDock_2013.1_src/data/scripts/dock_solv.prm

>  <Rbt.Receptor>
prm/blind_docking_40.prm

>  <SCORE>
6.69409

>  <SCORE.INTER>
11.1011

>  <SCORE.INTER.CONST>
1

>  <SCORE.INTER.POLAR>
0

>  <SCORE.INTER.ROT>
11

>  <SCORE.INTER.SOLV>
11.8318

>  <SCORE.INTER.VDW>
-7.47654

>  <SCORE.INTER.norm>
0.792934

>  <SCORE.INTRA>
-4.94379

>  <SCORE.INTRA.DIHEDRAL>
-15.1332

>  <SCORE.INTRA.DIHEDRAL.0>
20.2131

>  <SCORE.INTRA.POLAR>
0

>  <SCORE.INTRA.POLAR.0>
0

>  <SCORE.INTRA.REPUL>
0

>  <SCORE.INTRA.REPUL.0>
0

>  <SCORE.INTRA.SOLV>
4.34784

>  <SCORE.INTRA.SOLV.lig_0>
-48.2851

>  <SCORE.INTRA.VDW>
0.448906

>  <SCORE.INTRA.VDW.0>
-1.08658

>  <SCORE.INTRA.norm>
-0.353128

>  <SCORE.RESTR>
0.536808

>  <SCORE.RESTR.CAVITY>
0.536808

>  <SCORE.RESTR.norm>
0.0383434

>  <SCORE.SYSTEM>
0

>  <SCORE.SYSTEM.CONST>
0

>  <SCORE.SYSTEM.DIHEDRAL>
0

>  <SCORE.SYSTEM.SOLV>
0

>  <SCORE.SYSTEM.norm>
0

>  <SCORE.heavy>
14

>  <SCORE.norm>
0.478149

>  <RMSD>
41.232

$$$$
ligand
 OpenBabel11021811393D
libRbt.so/2013.1/901 2013/11/27
 14 13  0  0  0  0  0  0  0  0999 V2000
   38.0552   -8.4968    3.4903 N   0  0  0  0  0  0  0  0  0  0  0  0
   36.6168   -8.4826    3.2741 C   0  0  0  0  0  0  0  0  0  0  0  0
   35.9841   -9.8050    3.7887 C   0  0  0  0  0  0  0  0  0  0  0  0
   36.0248  -10.0873    5.3327 C   0  0  0  0  0  0  0  0  0  0  0  0
   35.2615   -9.1089    6.1910 N   0  0  0  0  0  0  0  0  0  0  0  0
   34.9811   -9.6071    7.5689 C   0  0  0  0  0  0  0  0  0  0  0  0
   35.3919   -8.6449    8.6686 C   0  0  0  0  0  0  0  0  0  0  0  0
   36.8939   -8.4334    8.7273 C   0  0  0  0  0  0  0  0  0  0  0  0
   37.1409   -6.9816    8.5736 C   0  0  0  0  0  0  0  0  0  0  0  0
   36.7783   -6.4089    7.2550 N   0  0  0  0  0  0  0  0  0  0  0  0
   36.8831   -4.9292    7.1991 C   0  0  0  0  0  0  0  0  0  0  0  0
   38.3265   -4.3463    7.2586 C   0  0  0  0  0  0  0  0  0  0  0  0
   38.2219   -2.8162    7.3851 C   0  0  0  0  0  0  0  0  0  0  0  0
   37.6230   -2.4445    8.6644 N   0  0  0  0  0  0  0  0  0  0  0  0
  1  2  1  0  0  0  0
  2  3  1  0  0  0  0
  3  4  1  0  0  0  0
  4  5  1  0  0  0  0
  5  6  1  0  0  0  0
  6  7  1  0  0  0  0
  7  8  1  0  0  0  0
  8  9  1  0  0  0  0
  9 10  1  0  0  0  0
 10 11  1  0  0  0  0
 11 12  1  0  0  0  0
 12 13  1  0  0  0  0
 13 14  1  0  0  0  0
M  END
>  <CHROM.1>
66.16745586,63.28746339,162.98654387,128.65492590,-65.26454467,122.77575344
-65.99068848,172.84391905,69.29338396,-172.29247286,66.01281976,36.72729350
-7.18541686,6.66990919,-2.18097514,1.11654448,1.02297178

>  <Name>
ligand

>  <RI>
0

>  <Rbt.Current_Directory>
/home/itssahil/PROJECTS/Mol_Feturizer/New_Systems/rnas/1EVV

>  <Rbt.Executable>
rbdock ($Id: //depot/dev/client3/rdock/2013.1/src/exe/rbdock.cxx#4 $)

>  <Rbt.Library>
libRbt.so (2013.1, Build901 2013/11/27)

>  <Rbt.Parameter_File>
/export/apps/rDock/src/rDock_2013.1_src/data/scripts/dock_solv.prm

>  <Rbt.Receptor>
prm/blind_docking_40.prm

>  <SCORE>
6.61107

>  <SCORE.INTER>
11.1264

>  <SCORE.INTER.CONST>
1

>  <SCORE.INTER.POLAR>
0

>  <SCORE.INTER.ROT>
11

>  <SCORE.INTER.SOLV>
14.6635

>  <SCORE.INTER.VDW>
-8.40356

>  <SCORE.INTER.norm>
0.794742

>  <SCORE.INTRA>
-4.58908

>  <SCORE.INTRA.DIHEDRAL>
-11.8723

>  <SCORE.INTRA.DIHEDRAL.0>
20.2131

>  <SCORE.INTRA.POLAR>
0

>  <SCORE.INTRA.POLAR.0>
0

>  <SCORE.INTRA.REPUL>
0.00741467

>  <SCORE.INTRA.REPUL.0>
0

>  <SCORE.INTRA.SOLV>
3.12494

>  <SCORE.INTRA.SOLV.lig_0>
-48.2851

>  <SCORE.INTRA.VDW>
-0.252485

>  <SCORE.INTRA.VDW.0>
-1.08658

>  <SCORE.INTRA.norm>
-0.327791

>  <SCORE.RESTR>
0.0737501

>  <SCORE.RESTR.CAVITY>
0.0737501

>  <SCORE.RESTR.norm>
0.00526786

>  <SCORE.SYSTEM>
0

>  <SCORE.SYSTEM.CONST>
0

>  <SCORE.SYSTEM.DIHEDRAL>
0

>  <SCORE.SYSTEM.SOLV>
0

>  <SCORE.SYSTEM.norm>
0

>  <SCORE.heavy>
14

>  <SCORE.norm>
0.472219

>  <RMSD>
41.239

$$$$
ligand
 OpenBabel11021811393D
libRbt.so/2013.1/901 2013/11/27
 14 13  0  0  0  0  0  0  0  0999 V2000
   38.5052   -9.5871    3.0101 N   0  0  0  0  0  0  0  0  0  0  0  0
   37.7068   -8.4107    3.3180 C   0  0  0  0  0  0  0  0  0  0  0  0
   36.4713   -8.8096    4.1713 C   0  0  0  0  0  0  0  0  0  0  0  0
   36.7276   -9.4971    5.5595 C   0  0  0  0  0  0  0  0  0  0  0  0
   35.4895   -9.9034    6.3202 N   0  0  0  0  0  0  0  0  0  0  0  0
   34.9212   -8.8173    7.1704 C   0  0  0  0  0  0  0  0  0  0  0  0
   35.4161   -8.8340    8.6053 C   0  0  0  0  0  0  0  0  0  0  0  0
   36.9000   -8.5335    8.7139 C   0  0  0  0  0  0  0  0  0  0  0  0
   37.0596   -7.0640    8.6275 C   0  0  0  0  0  0  0  0  0  0  0  0
   36.7705   -6.4677    7.3012 N   0  0  0  0  0  0  0  0  0  0  0  0
   36.3896   -5.0343    7.3628 C   0  0  0  0  0  0  0  0  0  0  0  0
   37.4730   -4.0210    6.8873 C   0  0  0  0  0  0  0  0  0  0  0  0
   38.5643   -3.9416    7.9694 C   0  0  0  0  0  0  0  0  0  0  0  0
   38.1874   -2.9916    9.0129 N   0  0  0  0  0  0  0  0  0  0  0  0
  1  2  1  0  0  0  0
  2  3  1  0  0  0  0
  3  4  1  0  0  0  0
  4  5  1  0  0  0  0
  5  6  1  0  0  0  0
  6  7  1  0  0  0  0
  7  8  1  0  0  0  0
  8  9  1  0  0  0  0
  9 10  1  0  0  0  0
 10 11  1  0  0  0  0
 11 12  1  0  0  0  0
 12 13  1  0  0  0  0
 13 14  1  0  0  0  0
M  END
>  <CHROM.1>
59.72588868,-177.99887133,-86.48652129,-93.27892344,65.95314216,80.51397667
-69.41206416,156.04590678,105.75637397,-73.73302352,-84.53696836,36.89859054
-7.27951341,6.71654979,-1.83701383,1.01508904,0.81976354

>  <Name>
ligand

>  <RI>
0

>  <Rbt.Current_Directory>
/home/itssahil/PROJECTS/Mol_Feturizer/New_Systems/rnas/1EVV

>  <Rbt.Executable>
rbdock ($Id: //depot/dev/client3/rdock/2013.1/src/exe/rbdock.cxx#4 $)

>  <Rbt.Library>
libRbt.so (2013.1, Build901 2013/11/27)

>  <Rbt.Parameter_File>
/export/apps/rDock/src/rDock_2013.1_src/data/scripts/dock_solv.prm

>  <Rbt.Receptor>
prm/blind_docking_40.prm

>  <SCORE>
6.68649

>  <SCORE.INTER>
11.5386

>  <SCORE.INTER.CONST>
1

>  <SCORE.INTER.POLAR>
0

>  <SCORE.INTER.ROT>
11

>  <SCORE.INTER.SOLV>
14.9873

>  <SCORE.INTER.VDW>
-8.23673

>  <SCORE.INTER.norm>
0.824183

>  <SCORE.INTRA>
-4.86459

>  <SCORE.INTRA.DIHEDRAL>
-12.8232

>  <SCORE.INTRA.DIHEDRAL.0>
20.2131

>  <SCORE.INTRA.POLAR>
0

>  <SCORE.INTRA.POLAR.0>
0

>  <SCORE.INTRA.REPUL>
0

>  <SCORE.INTRA.REPUL.0>
0

>  <SCORE.INTRA.SOLV>
3.15451

>  <SCORE.INTRA.SOLV.lig_0>
-48.2851

>  <SCORE.INTRA.VDW>
-0.0302473

>  <SCORE.INTRA.VDW.0>
-1.08658

>  <SCORE.INTRA.norm>
-0.347471

>  <SCORE.RESTR>
0.0125161

>  <SCORE.RESTR.CAVITY>
0.0125161

>  <SCORE.RESTR.norm>
0.000894007

>  <SCORE.SYSTEM>
0

>  <SCORE.SYSTEM.CONST>
0

>  <SCORE.SYSTEM.DIHEDRAL>
0

>  <SCORE.SYSTEM.SOLV>
0

>  <SCORE.SYSTEM.norm>
0

>  <SCORE.heavy>
14

>  <SCORE.norm>
0.477607

>  <RMSD>
41.275

$$$$
ligand
 OpenBabel11021811393D
libRbt.so/2013.1/901 2013/11/27
 14 13  0  0  0  0  0  0  0  0999 V2000
   37.7857   -2.9580    8.3465 N   0  0  0  0  0  0  0  0  0  0  0  0
   38.1570   -4.0933    7.5163 C   0  0  0  0  0  0  0  0  0  0  0  0
   37.0204   -4.4139    6.5069 C   0  0  0  0  0  0  0  0  0  0  0  0
   35.6589   -4.9480    7.0782 C   0  0  0  0  0  0  0  0  0  0  0  0
   35.6943   -6.3508    7.6330 N   0  0  0  0  0  0  0  0  0  0  0  0
   34.3445   -6.9277    7.8992 C   0  0  0  0  0  0  0  0  0  0  0  0
   34.3089   -8.4451    7.8884 C   0  0  0  0  0  0  0  0  0  0  0  0
   35.3357   -9.0592    8.8228 C   0  0  0  0  0  0  0  0  0  0  0  0
   36.4186   -9.6178    7.9816 C   0  0  0  0  0  0  0  0  0  0  0  0
   37.2972   -8.6192    7.3265 N   0  0  0  0  0  0  0  0  0  0  0  0
   36.9822   -8.3982    5.8928 C   0  0  0  0  0  0  0  0  0  0  0  0
   37.2490   -9.6041    4.9435 C   0  0  0  0  0  0  0  0  0  0  0  0
   37.2036   -9.0927    3.4928 C   0  0  0  0  0  0  0  0  0  0  0  0
   35.8848   -8.5488    3.1791 N   0  0  0  0  0  0  0  0  0  0  0  0
  1  2  1  0  0  0  0
  2  3  1  0  0  0  0
  3  4  1  0  0  0  0
  4  5  1  0  0  0  0
  5  6  1  0  0  0  0
  6  7  1  0  0  0  0
  7  8  1  0  0  0  0
  8  9  1  0  0  0  0
  9 10  1  0  0  0  0
 10 11  1  0  0  0  0
 11 12  1  0  0  0  0
 12 13  1  0  0  0  0
 13 14  1  0  0  0  0
M  END
>  <CHROM.1>
-66.92139900,-70.57405071,-167.82478813,155.74298377,53.49076039,-106.45875556
71.62552501,-101.48532378,-66.69718289,-166.18792605,-61.64065673,36.38135572
-7.22002048,6.75060166,-1.34958886,-1.05977829,-2.51141895

>  <Name>
ligand

>  <RI>
0

>  <Rbt.Current_Directory>
/home/itssahil/PROJECTS/Mol_Feturizer/New_Systems/rnas/1EVV

>  <Rbt.Executable>
rbdock ($Id: //depot/dev/client3/rdock/2013.1/src/exe/rbdock.cxx#4 $)

>  <Rbt.Library>
libRbt.so (2013.1, Build901 2013/11/27)

>  <Rbt.Parameter_File>
/export/apps/rDock/src/rDock_2013.1_src/data/scripts/dock_solv.prm

>  <Rbt.Receptor>
prm/blind_docking_40.prm

>  <SCORE>
8.75748

>  <SCORE.INTER>
12.4742

>  <SCORE.INTER.CONST>
1

>  <SCORE.INTER.POLAR>
0

>  <SCORE.INTER.ROT>
11

>  <SCORE.INTER.SOLV>
17.3705

>  <SCORE.INTER.VDW>
-8.40737

>  <SCORE.INTER.norm>
0.891015

>  <SCORE.INTRA>
-3.75127

>  <SCORE.INTRA.DIHEDRAL>
-11.3674

>  <SCORE.INTRA.DIHEDRAL.0>
20.2131

>  <SCORE.INTRA.POLAR>
0

>  <SCORE.INTRA.POLAR.0>
0

>  <SCORE.INTRA.REPUL>
0

>  <SCORE.INTRA.REPUL.0>
0

>  <SCORE.INTRA.SOLV>
4.02914

>  <SCORE.INTRA.SOLV.lig_0>
-48.2851

>  <SCORE.INTRA.VDW>
-0.0821525

>  <SCORE.INTRA.VDW.0>
-1.08658

>  <SCORE.INTRA.norm>
-0.267948

>  <SCORE.RESTR>
0.0345415

>  <SCORE.RESTR.CAVITY>
0.0345415

>  <SCORE.RESTR.norm>
0.00246725

>  <SCORE.SYSTEM>
0

>  <SCORE.SYSTEM.CONST>
0

>  <SCORE.SYSTEM.DIHEDRAL>
0

>  <SCORE.SYSTEM.SOLV>
0

>  <SCORE.SYSTEM.norm>
0

>  <SCORE.heavy>
14

>  <SCORE.norm>
0.625535

>  <RMSD>
41.279

$$$$
ligand
 OpenBabel11021811393D
libRbt.so/2013.1/901 2013/11/27
 14 13  0  0  0  0  0  0  0  0999 V2000
   36.9398   -8.2466    3.1288 N   0  0  0  0  0  0  0  0  0  0  0  0
   37.6234   -9.4375    3.6090 C   0  0  0  0  0  0  0  0  0  0  0  0
   36.5887  -10.4970    4.0787 C   0  0  0  0  0  0  0  0  0  0  0  0
   35.7182  -10.1646    5.3425 C   0  0  0  0  0  0  0  0  0  0  0  0
   36.4700  -10.1015    6.6492 N   0  0  0  0  0  0  0  0  0  0  0  0
   35.6784   -9.5207    7.7723 C   0  0  0  0  0  0  0  0  0  0  0  0
   35.2854   -8.0694    7.5645 C   0  0  0  0  0  0  0  0  0  0  0  0
   36.2138   -7.3453    6.6063 C   0  0  0  0  0  0  0  0  0  0  0  0
   35.6945   -5.9681    6.4458 C   0  0  0  0  0  0  0  0  0  0  0  0
   36.1289   -4.9979    7.4793 N   0  0  0  0  0  0  0  0  0  0  0  0
   37.5990   -4.9621    7.6823 C   0  0  0  0  0  0  0  0  0  0  0  0
   38.3639   -3.8377    6.9224 C   0  0  0  0  0  0  0  0  0  0  0  0
   37.9642   -2.4848    7.5373 C   0  0  0  0  0  0  0  0  0  0  0  0
   38.1208   -2.5120    8.9892 N   0  0  0  0  0  0  0  0  0  0  0  0
  1  2  1  0  0  0  0
  2  3  1  0  0  0  0
  3  4  1  0  0  0  0
  4  5  1  0  0  0  0
  5  6  1  0  0  0  0
  6  7  1  0  0  0  0
  7  8  1  0  0  0  0
  8  9  1  0  0  0  0
  9 10  1  0  0  0  0
 10 11  1  0  0  0  0
 11 12  1  0  0  0  0
 12 13  1  0  0  0  0
 13 14  1  0  0  0  0
M  END
>  <CHROM.1>
-66.57885524,-67.93999809,168.35326545,-63.58236287,-24.05932042,177.68054374
84.88915231,51.70407185,97.03069084,68.16739665,51.29616631,36.74200566,-7.01059595
6.41476935,-1.94230359,1.04526820,0.74617904

>  <Name>
ligand

>  <RI>
0

>  <Rbt.Current_Directory>
/home/itssahil/PROJECTS/Mol_Feturizer/New_Systems/rnas/1EVV

>  <Rbt.Executable>
rbdock ($Id: //depot/dev/client3/rdock/2013.1/src/exe/rbdock.cxx#4 $)

>  <Rbt.Library>
libRbt.so (2013.1, Build901 2013/11/27)

>  <Rbt.Parameter_File>
/export/apps/rDock/src/rDock_2013.1_src/data/scripts/dock_solv.prm

>  <Rbt.Receptor>
prm/blind_docking_40.prm

>  <SCORE>
10.9525

>  <SCORE.INTER>
12.584

>  <SCORE.INTER.CONST>
1

>  <SCORE.INTER.POLAR>
0

>  <SCORE.INTER.ROT>
11

>  <SCORE.INTER.SOLV>
16.6428

>  <SCORE.INTER.VDW>
-8.09164

>  <SCORE.INTER.norm>
0.898854

>  <SCORE.INTRA>
-1.80632

>  <SCORE.INTRA.DIHEDRAL>
-12.6379

>  <SCORE.INTRA.DIHEDRAL.0>
20.2131

>  <SCORE.INTRA.POLAR>
0

>  <SCORE.INTRA.POLAR.0>
0

>  <SCORE.INTRA.REPUL>
0

>  <SCORE.INTRA.REPUL.0>
0

>  <SCORE.INTRA.SOLV>
3.89539

>  <SCORE.INTRA.SOLV.lig_0>
-48.2851

>  <SCORE.INTRA.VDW>
2.56492

>  <SCORE.INTRA.VDW.0>
-1.08658

>  <SCORE.INTRA.norm>
-0.129023

>  <SCORE.RESTR>
0.17491

>  <SCORE.RESTR.CAVITY>
0.17491

>  <SCORE.RESTR.norm>
0.0124936

>  <SCORE.SYSTEM>
0

>  <SCORE.SYSTEM.CONST>
0

>  <SCORE.SYSTEM.DIHEDRAL>
0

>  <SCORE.SYSTEM.SOLV>
0

>  <SCORE.SYSTEM.norm>
0

>  <SCORE.heavy>
14

>  <SCORE.norm>
0.782325

>  <RMSD>
41.314

$$$$
ligand
 OpenBabel11021811393D
libRbt.so/2013.1/901 2013/11/27
 14 13  0  0  0  0  0  0  0  0999 V2000
   37.5067   -2.4000    8.6200 N   0  0  0  0  0  0  0  0  0  0  0  0
   38.4500   -3.4491    8.2656 C   0  0  0  0  0  0  0  0  0  0  0  0
   38.0193   -4.1313    6.9379 C   0  0  0  0  0  0  0  0  0  0  0  0
   36.5955   -4.7907    6.8785 C   0  0  0  0  0  0  0  0  0  0  0  0
   36.3339   -5.8625    7.9077 N   0  0  0  0  0  0  0  0  0  0  0  0
   35.1944   -6.7621    7.5647 C   0  0  0  0  0  0  0  0  0  0  0  0
   34.9129   -7.8271    8.6090 C   0  0  0  0  0  0  0  0  0  0  0  0
   36.1467   -8.6373    8.9629 C   0  0  0  0  0  0  0  0  0  0  0  0
   36.4127   -9.5528    7.8300 C   0  0  0  0  0  0  0  0  0  0  0  0
   36.8970   -8.9057    6.5870 N   0  0  0  0  0  0  0  0  0  0  0  0
   36.8418   -9.7890    5.3952 C   0  0  0  0  0  0  0  0  0  0  0  0
   37.4837   -9.2191    4.0953 C   0  0  0  0  0  0  0  0  0  0  0  0
   37.3504  -10.2801    2.9887 C   0  0  0  0  0  0  0  0  0  0  0  0
   35.9443  -10.5545    2.7043 N   0  0  0  0  0  0  0  0  0  0  0  0
  1  2  1  0  0  0  0
  2  3  1  0  0  0  0
  3  4  1  0  0  0  0
  4  5  1  0  0  0  0
  5  6  1  0  0  0  0
  6  7  1  0  0  0  0
  7  8  1  0  0  0  0
  8  9  1  0  0  0  0
  9 10  1  0  0  0  0
 10 11  1  0  0  0  0
 11 12  1  0  0  0  0
 12 13  1  0  0  0  0
 13 14  1  0  0  0  0
M  END
>  <CHROM.1>
-58.16107613,-57.89387598,-160.99668062,-179.01042941,-52.89799947,-74.17959310
70.26179141,-166.16639382,-173.44878998,179.02567743,62.30204164,36.72068254
-7.29737742,6.66770526,-1.38480466,-1.08953335,-2.40999234

>  <Name>
ligand

>  <RI>
0

>  <Rbt.Current_Directory>
/home/itssahil/PROJECTS/Mol_Feturizer/New_Systems/rnas/1EVV

>  <Rbt.Executable>
rbdock ($Id: //depot/dev/client3/rdock/2013.1/src/exe/rbdock.cxx#4 $)

>  <Rbt.Library>
libRbt.so (2013.1, Build901 2013/11/27)

>  <Rbt.Parameter_File>
/export/apps/rDock/src/rDock_2013.1_src/data/scripts/dock_solv.prm

>  <Rbt.Receptor>
prm/blind_docking_40.prm

>  <SCORE>
5.028

>  <SCORE.INTER>
11.7313

>  <SCORE.INTER.CONST>
1

>  <SCORE.INTER.POLAR>
0

>  <SCORE.INTER.ROT>
11

>  <SCORE.INTER.SOLV>
22.7804

>  <SCORE.INTER.VDW>
-10.7059

>  <SCORE.INTER.norm>
0.837948

>  <SCORE.INTRA>
-6.70999

>  <SCORE.INTRA.DIHEDRAL>
-18.3174

>  <SCORE.INTRA.DIHEDRAL.0>
20.2131

>  <SCORE.INTRA.POLAR>
0

>  <SCORE.INTRA.POLAR.0>
0

>  <SCORE.INTRA.REPUL>
0

>  <SCORE.INTRA.REPUL.0>
0

>  <SCORE.INTRA.SOLV>
3.4921

>  <SCORE.INTRA.SOLV.lig_0>
-48.2851

>  <SCORE.INTRA.VDW>
0.702658

>  <SCORE.INTRA.VDW.0>
-1.08658

>  <SCORE.INTRA.norm>
-0.479285

>  <SCORE.RESTR>
0.00672401

>  <SCORE.RESTR.CAVITY>
0.00672401

>  <SCORE.RESTR.norm>
0.000480287

>  <SCORE.SYSTEM>
0

>  <SCORE.SYSTEM.CONST>
0

>  <SCORE.SYSTEM.DIHEDRAL>
0

>  <SCORE.SYSTEM.SOLV>
0

>  <SCORE.SYSTEM.norm>
0

>  <SCORE.heavy>
14

>  <SCORE.norm>
0.359143

>  <RMSD>
41.360

$$$$
ligand
 OpenBabel11021811393D
libRbt.so/2013.1/901 2013/11/27
 14 13  0  0  0  0  0  0  0  0999 V2000
   37.9814   -2.8752    8.1950 N   0  0  0  0  0  0  0  0  0  0  0  0
   38.2747   -3.5529    6.9417 C   0  0  0  0  0  0  0  0  0  0  0  0
   37.0626   -4.4212    6.5053 C   0  0  0  0  0  0  0  0  0  0  0  0
   36.5450   -5.5161    7.5046 C   0  0  0  0  0  0  0  0  0  0  0  0
   37.5840   -6.4997    7.9838 N   0  0  0  0  0  0  0  0  0  0  0  0
   37.1030   -7.4035    9.0689 C   0  0  0  0  0  0  0  0  0  0  0  0
   36.5218   -8.7135    8.5686 C   0  0  0  0  0  0  0  0  0  0  0  0
   35.2950   -8.5123    7.6976 C   0  0  0  0  0  0  0  0  0  0  0  0
   34.9767   -9.8180    7.0763 C   0  0  0  0  0  0  0  0  0  0  0  0
   35.4199   -9.9808    5.6708 N   0  0  0  0  0  0  0  0  0  0  0  0
   36.8940   -9.9359    5.5021 C   0  0  0  0  0  0  0  0  0  0  0  0
   37.4829   -8.5763    5.0208 C   0  0  0  0  0  0  0  0  0  0  0  0
   37.3203   -8.4965    3.4927 C   0  0  0  0  0  0  0  0  0  0  0  0
   35.9072   -8.5062    3.1234 N   0  0  0  0  0  0  0  0  0  0  0  0
  1  2  1  0  0  0  0
  2  3  1  0  0  0  0
  3  4  1  0  0  0  0
  4  5  1  0  0  0  0
  5  6  1  0  0  0  0
  6  7  1  0  0  0  0
  7  8  1  0  0  0  0
  8  9  1  0  0  0  0
  9 10  1  0  0  0  0
 10 11  1  0  0  0  0
 11 12  1  0  0  0  0
 12 13  1  0  0  0  0
 13 14  1  0  0  0  0
M  END
>  <CHROM.1>
-57.01533783,-54.50703456,172.04962252,92.06120161,-62.21321856,169.74552087
-100.68191195,63.78914439,-99.40961207,-81.46299538,62.99981397,36.74061962
-7.34358602,6.59667362,-0.74507319,-1.20939808,-1.92246840

>  <Name>
ligand

>  <RI>
0

>  <Rbt.Current_Directory>
/home/itssahil/PROJECTS/Mol_Feturizer/New_Systems/rnas/1EVV

>  <Rbt.Executable>
rbdock ($Id: //depot/dev/client3/rdock/2013.1/src/exe/rbdock.cxx#4 $)

>  <Rbt.Library>
libRbt.so (2013.1, Build901 2013/11/27)

>  <Rbt.Parameter_File>
/export/apps/rDock/src/rDock_2013.1_src/data/scripts/dock_solv.prm

>  <Rbt.Receptor>
prm/blind_docking_40.prm

>  <SCORE>
7.73266

>  <SCORE.INTER>
11.402

>  <SCORE.INTER.CONST>
1

>  <SCORE.INTER.POLAR>
0

>  <SCORE.INTER.ROT>
11

>  <SCORE.INTER.SOLV>
12.927

>  <SCORE.INTER.VDW>
-7.64105

>  <SCORE.INTER.norm>
0.814425

>  <SCORE.INTRA>
-3.93504

>  <SCORE.INTRA.DIHEDRAL>
-12.1802

>  <SCORE.INTRA.DIHEDRAL.0>
20.2131

>  <SCORE.INTRA.POLAR>
0

>  <SCORE.INTRA.POLAR.0>
0

>  <SCORE.INTRA.REPUL>
0

>  <SCORE.INTRA.REPUL.0>
0

>  <SCORE.INTRA.SOLV>
4.25388

>  <SCORE.INTRA.SOLV.lig_0>
-48.2851

>  <SCORE.INTRA.VDW>
0.0281244

>  <SCORE.INTRA.VDW.0>
-1.08658

>  <SCORE.INTRA.norm>
-0.281075

>  <SCORE.RESTR>
0.265752

>  <SCORE.RESTR.CAVITY>
0.265752

>  <SCORE.RESTR.norm>
0.0189823

>  <SCORE.SYSTEM>
0

>  <SCORE.SYSTEM.CONST>
0

>  <SCORE.SYSTEM.DIHEDRAL>
0

>  <SCORE.SYSTEM.SOLV>
0

>  <SCORE.SYSTEM.norm>
0

>  <SCORE.heavy>
14

>  <SCORE.norm>
0.552333

>  <RMSD>
41.403

$$$$
ligand
 OpenBabel11021811393D
libRbt.so/2013.1/901 2013/11/27
 14 13  0  0  0  0  0  0  0  0999 V2000
   38.5815   -3.3586    8.9353 N   0  0  0  0  0  0  0  0  0  0  0  0
   38.6501   -3.2126    7.4896 C   0  0  0  0  0  0  0  0  0  0  0  0
   37.3462   -3.7458    6.8344 C   0  0  0  0  0  0  0  0  0  0  0  0
   37.0983   -5.2962    6.8466 C   0  0  0  0  0  0  0  0  0  0  0  0
   37.1059   -5.9432    8.2097 N   0  0  0  0  0  0  0  0  0  0  0  0
   36.1313   -7.0640    8.3501 C   0  0  0  0  0  0  0  0  0  0  0  0
   36.7781   -8.4248    8.5342 C   0  0  0  0  0  0  0  0  0  0  0  0
   35.7601   -9.5474    8.6209 C   0  0  0  0  0  0  0  0  0  0  0  0
   35.0782   -9.6263    7.3090 C   0  0  0  0  0  0  0  0  0  0  0  0
   35.9395  -10.0088    6.1643 N   0  0  0  0  0  0  0  0  0  0  0  0
   35.5693   -9.3410    4.8912 C   0  0  0  0  0  0  0  0  0  0  0  0
   36.0949  -10.0173    3.5900 C   0  0  0  0  0  0  0  0  0  0  0  0
   37.6235   -9.8467    3.5437 C   0  0  0  0  0  0  0  0  0  0  0  0
   37.9812   -8.4360    3.4191 N   0  0  0  0  0  0  0  0  0  0  0  0
  1  2  1  0  0  0  0
  2  3  1  0  0  0  0
  3  4  1  0  0  0  0
  4  5  1  0  0  0  0
  5  6  1  0  0  0  0
  6  7  1  0  0  0  0
  7  8  1  0  0  0  0
  8  9  1  0  0  0  0
  9 10  1  0  0  0  0
 10 11  1  0  0  0  0
 11 12  1  0  0  0  0
 12 13  1  0  0  0  0
 13 14  1  0  0  0  0
M  END
>  <CHROM.1>
-70.56890841,56.60245319,144.45829935,113.39776657,-177.82477297,65.16431387
64.50147293,-145.09593650,-160.68353527,-68.84463921,-65.00612434,36.83819988
-7.41938046,6.62411902,-1.02933476,-1.08621253,-2.16586724

>  <Name>
ligand

>  <RI>
0

>  <Rbt.Current_Directory>
/home/itssahil/PROJECTS/Mol_Feturizer/New_Systems/rnas/1EVV

>  <Rbt.Executable>
rbdock ($Id: //depot/dev/client3/rdock/2013.1/src/exe/rbdock.cxx#4 $)

>  <Rbt.Library>
libRbt.so (2013.1, Build901 2013/11/27)

>  <Rbt.Parameter_File>
/export/apps/rDock/src/rDock_2013.1_src/data/scripts/dock_solv.prm

>  <Rbt.Receptor>
prm/blind_docking_40.prm

>  <SCORE>
6.63988

>  <SCORE.INTER>
12.11

>  <SCORE.INTER.CONST>
1

>  <SCORE.INTER.POLAR>
0

>  <SCORE.INTER.ROT>
11

>  <SCORE.INTER.SOLV>
12.5705

>  <SCORE.INTER.VDW>
-7.05016

>  <SCORE.INTER.norm>
0.865002

>  <SCORE.INTRA>
-5.57066

>  <SCORE.INTRA.DIHEDRAL>
-16.1971

>  <SCORE.INTRA.DIHEDRAL.0>
20.2131

>  <SCORE.INTRA.POLAR>
0

>  <SCORE.INTRA.POLAR.0>
0

>  <SCORE.INTRA.REPUL>
0

>  <SCORE.INTRA.REPUL.0>
0

>  <SCORE.INTRA.SOLV>
3.49029

>  <SCORE.INTRA.SOLV.lig_0>
-48.2851

>  <SCORE.INTRA.VDW>
0.782765

>  <SCORE.INTRA.VDW.0>
-1.08658

>  <SCORE.INTRA.norm>
-0.397904

>  <SCORE.RESTR>
0.100518

>  <SCORE.RESTR.CAVITY>
0.100518

>  <SCORE.RESTR.norm>
0.00717988

>  <SCORE.SYSTEM>
0

>  <SCORE.SYSTEM.CONST>
0

>  <SCORE.SYSTEM.DIHEDRAL>
0

>  <SCORE.SYSTEM.SOLV>
0

>  <SCORE.SYSTEM.norm>
0

>  <SCORE.heavy>
14

>  <SCORE.norm>
0.474277

>  <RMSD>
41.431

$$$$
ligand
 OpenBabel11021811393D
libRbt.so/2013.1/901 2013/11/27
 14 13  0  0  0  0  0  0  0  0999 V2000
   38.0777   -8.5237    3.0381 N   0  0  0  0  0  0  0  0  0  0  0  0
   36.6554   -8.4030    3.3186 C   0  0  0  0  0  0  0  0  0  0  0  0
   36.1210   -9.7159    3.9547 C   0  0  0  0  0  0  0  0  0  0  0  0
   36.6160  -10.0882    5.3975 C   0  0  0  0  0  0  0  0  0  0  0  0
   36.3601   -9.0473    6.4595 N   0  0  0  0  0  0  0  0  0  0  0  0
   36.6736   -9.5085    7.8431 C   0  0  0  0  0  0  0  0  0  0  0  0
   35.5663   -9.2447    8.8473 C   0  0  0  0  0  0  0  0  0  0  0  0
   35.4371   -7.7739    9.1999 C   0  0  0  0  0  0  0  0  0  0  0  0
   34.7769   -7.1030    8.0569 C   0  0  0  0  0  0  0  0  0  0  0  0
   35.6860   -6.6117    6.9937 N   0  0  0  0  0  0  0  0  0  0  0  0
   36.6664   -5.6028    7.4677 C   0  0  0  0  0  0  0  0  0  0  0  0
   37.0351   -4.4818    6.4507 C   0  0  0  0  0  0  0  0  0  0  0  0
   38.1144   -3.5900    7.0893 C   0  0  0  0  0  0  0  0  0  0  0  0
   37.5917   -2.9175    8.2759 N   0  0  0  0  0  0  0  0  0  0  0  0
  1  2  1  0  0  0  0
  2  3  1  0  0  0  0
  3  4  1  0  0  0  0
  4  5  1  0  0  0  0
  5  6  1  0  0  0  0
  6  7  1  0  0  0  0
  7  8  1  0  0  0  0
  8  9  1  0  0  0  0
  9 10  1  0  0  0  0
 10 11  1  0  0  0  0
 11 12  1  0  0  0  0
 12 13  1  0  0  0  0
 13 14  1  0  0  0  0
M  END
>  <CHROM.1>
67.87796570,56.74272767,172.14354213,-130.70142932,-72.18115413,75.47755735
-88.28758424,-60.61959485,-145.17947159,-176.76605407,-63.69785790,36.52680942
-7.32964205,6.59965510,-1.76222055,1.14686937,0.69525590

>  <Name>
ligand

>  <RI>
0

>  <Rbt.Current_Directory>
/home/itssahil/PROJECTS/Mol_Feturizer/New_Systems/rnas/1EVV

>  <Rbt.Executable>
rbdock ($Id: //depot/dev/client3/rdock/2013.1/src/exe/rbdock.cxx#4 $)

>  <Rbt.Library>
libRbt.so (2013.1, Build901 2013/11/27)

>  <Rbt.Parameter_File>
/export/apps/rDock/src/rDock_2013.1_src/data/scripts/dock_solv.prm

>  <Rbt.Receptor>
prm/blind_docking_40.prm

>  <SCORE>
8.70359

>  <SCORE.INTER>
12.4145

>  <SCORE.INTER.CONST>
1

>  <SCORE.INTER.POLAR>
0

>  <SCORE.INTER.ROT>
11

>  <SCORE.INTER.SOLV>
16.1392

>  <SCORE.INTER.VDW>
-8.03676

>  <SCORE.INTER.norm>
0.886748

>  <SCORE.INTRA>
-3.75829

>  <SCORE.INTRA.DIHEDRAL>
-13.9356

>  <SCORE.INTRA.DIHEDRAL.0>
20.2131

>  <SCORE.INTRA.POLAR>
0

>  <SCORE.INTRA.POLAR.0>
0

>  <SCORE.INTRA.REPUL>
0

>  <SCORE.INTRA.REPUL.0>
0

>  <SCORE.INTRA.SOLV>
4.34616

>  <SCORE.INTRA.SOLV.lig_0>
-48.2851

>  <SCORE.INTRA.VDW>
1.03643

>  <SCORE.INTRA.VDW.0>
-1.08658

>  <SCORE.INTRA.norm>
-0.26845

>  <SCORE.RESTR>
0.0474083

>  <SCORE.RESTR.CAVITY>
0.0474083

>  <SCORE.RESTR.norm>
0.00338631

>  <SCORE.SYSTEM>
0

>  <SCORE.SYSTEM.CONST>
0

>  <SCORE.SYSTEM.DIHEDRAL>
0

>  <SCORE.SYSTEM.SOLV>
0

>  <SCORE.SYSTEM.norm>
0

>  <SCORE.heavy>
14

>  <SCORE.norm>
0.621685

>  <RMSD>
41.437

$$$$
ligand
 OpenBabel11021811393D
libRbt.so/2013.1/901 2013/11/27
 14 13  0  0  0  0  0  0  0  0999 V2000
   38.0992   -2.6332    7.1024 N   0  0  0  0  0  0  0  0  0  0  0  0
   37.7293   -3.7298    7.9837 C   0  0  0  0  0  0  0  0  0  0  0  0
   37.7313   -5.0714    7.2003 C   0  0  0  0  0  0  0  0  0  0  0  0
   37.4733   -6.3938    8.0066 C   0  0  0  0  0  0  0  0  0  0  0  0
   36.0377   -6.6455    8.3968 N   0  0  0  0  0  0  0  0  0  0  0  0
   35.8787   -7.6294    9.5069 C   0  0  0  0  0  0  0  0  0  0  0  0
   36.0959   -9.0722    9.0885 C   0  0  0  0  0  0  0  0  0  0  0  0
   35.0922   -9.5351    8.0479 C   0  0  0  0  0  0  0  0  0  0  0  0
   35.7608   -9.4644    6.7287 C   0  0  0  0  0  0  0  0  0  0  0  0
   35.9288   -8.1010    6.1708 N   0  0  0  0  0  0  0  0  0  0  0  0
   37.0136   -7.9995    5.1626 C   0  0  0  0  0  0  0  0  0  0  0  0
   36.6677   -8.5201    3.7357 C   0  0  0  0  0  0  0  0  0  0  0  0
   36.5337  -10.0517    3.8026 C   0  0  0  0  0  0  0  0  0  0  0  0
   36.0049  -10.5782    2.5469 N   0  0  0  0  0  0  0  0  0  0  0  0
  1  2  1  0  0  0  0
  2  3  1  0  0  0  0
  3  4  1  0  0  0  0
  4  5  1  0  0  0  0
  5  6  1  0  0  0  0
  6  7  1  0  0  0  0
  7  8  1  0  0  0  0
  8  9  1  0  0  0  0
  9 10  1  0  0  0  0
 10 11  1  0  0  0  0
 11 12  1  0  0  0  0
 12 13  1  0  0  0  0
 13 14  1  0  0  0  0
M  END
>  <CHROM.1>
175.00828153,76.31612172,-161.09996094,-75.23077636,-62.10370818,99.83203646
-74.83593739,157.82897958,78.58253256,-69.62334361,171.06137949,36.57480645
-7.53059493,6.67743174,-1.04322205,-1.15893773,-2.03979375

>  <Name>
ligand

>  <RI>
0

>  <Rbt.Current_Directory>
/home/itssahil/PROJECTS/Mol_Feturizer/New_Systems/rnas/1EVV

>  <Rbt.Executable>
rbdock ($Id: //depot/dev/client3/rdock/2013.1/src/exe/rbdock.cxx#4 $)

>  <Rbt.Library>
libRbt.so (2013.1, Build901 2013/11/27)

>  <Rbt.Parameter_File>
/export/apps/rDock/src/rDock_2013.1_src/data/scripts/dock_solv.prm

>  <Rbt.Receptor>
prm/blind_docking_40.prm

>  <SCORE>
9.65363

>  <SCORE.INTER>
13.2952

>  <SCORE.INTER.CONST>
1

>  <SCORE.INTER.POLAR>
0

>  <SCORE.INTER.ROT>
11

>  <SCORE.INTER.SOLV>
14.636

>  <SCORE.INTER.VDW>
-6.94855

>  <SCORE.INTER.norm>
0.949656

>  <SCORE.INTRA>
-3.97469

>  <SCORE.INTRA.DIHEDRAL>
-12.0825

>  <SCORE.INTRA.DIHEDRAL.0>
20.2131

>  <SCORE.INTRA.POLAR>
0

>  <SCORE.INTRA.POLAR.0>
0

>  <SCORE.INTRA.REPUL>
0

>  <SCORE.INTRA.REPUL.0>
0

>  <SCORE.INTRA.SOLV>
3.13267

>  <SCORE.INTRA.SOLV.lig_0>
-48.2851

>  <SCORE.INTRA.VDW>
0.500204

>  <SCORE.INTRA.VDW.0>
-1.08658

>  <SCORE.INTRA.norm>
-0.283907

>  <SCORE.RESTR>
0.333138

>  <SCORE.RESTR.CAVITY>
0.333138

>  <SCORE.RESTR.norm>
0.0237956

>  <SCORE.SYSTEM>
0

>  <SCORE.SYSTEM.CONST>
0

>  <SCORE.SYSTEM.DIHEDRAL>
0

>  <SCORE.SYSTEM.SOLV>
0

>  <SCORE.SYSTEM.norm>
0

>  <SCORE.heavy>
14

>  <SCORE.norm>
0.689545

>  <RMSD>
41.513

$$$$
ligand
 OpenBabel11021811393D
libRbt.so/2013.1/901 2013/11/27
 14 13  0  0  0  0  0  0  0  0999 V2000
   38.0817  -10.5007    3.2179 N   0  0  0  0  0  0  0  0  0  0  0  0
   36.6480  -10.6121    2.9984 C   0  0  0  0  0  0  0  0  0  0  0  0
   35.9402   -9.2872    3.3950 C   0  0  0  0  0  0  0  0  0  0  0  0
   36.0224   -8.8304    4.8950 C   0  0  0  0  0  0  0  0  0  0  0  0
   35.4494   -9.7990    5.9001 N   0  0  0  0  0  0  0  0  0  0  0  0
   35.2746   -9.2194    7.2635 C   0  0  0  0  0  0  0  0  0  0  0  0
   36.4720   -9.4154    8.1756 C   0  0  0  0  0  0  0  0  0  0  0  0
   36.4424   -8.4955    9.3827 C   0  0  0  0  0  0  0  0  0  0  0  0
   37.1283   -7.2411    8.9977 C   0  0  0  0  0  0  0  0  0  0  0  0
   36.6706   -6.6274    7.7280 N   0  0  0  0  0  0  0  0  0  0  0  0
   36.9297   -5.1681    7.6444 C   0  0  0  0  0  0  0  0  0  0  0  0
   38.4056   -4.7247    7.8717 C   0  0  0  0  0  0  0  0  0  0  0  0
   38.4177   -3.2066    8.1235 C   0  0  0  0  0  0  0  0  0  0  0  0
   37.9787   -2.4831    6.9331 N   0  0  0  0  0  0  0  0  0  0  0  0
  1  2  1  0  0  0  0
  2  3  1  0  0  0  0
  3  4  1  0  0  0  0
  4  5  1  0  0  0  0
  5  6  1  0  0  0  0
  6  7  1  0  0  0  0
  7  8  1  0  0  0  0
  8  9  1  0  0  0  0
  9 10  1  0  0  0  0
 10 11  1  0  0  0  0
 11 12  1  0  0  0  0
 12 13  1  0  0  0  0
 13 14  1  0  0  0  0
M  END
>  <CHROM.1>
-62.75479026,-59.45627175,-167.49597194,-91.32802640,163.39300058,-89.05476280
50.15212979,156.05565881,54.79929474,-165.02694546,-65.20098165,36.84715020
-7.54369858,6.60931743,-2.14089489,1.19865132,1.10568352

>  <Name>
ligand

>  <RI>
0

>  <Rbt.Current_Directory>
/home/itssahil/PROJECTS/Mol_Feturizer/New_Systems/rnas/1EVV

>  <Rbt.Executable>
rbdock ($Id: //depot/dev/client3/rdock/2013.1/src/exe/rbdock.cxx#4 $)

>  <Rbt.Library>
libRbt.so (2013.1, Build901 2013/11/27)

>  <Rbt.Parameter_File>
/export/apps/rDock/src/rDock_2013.1_src/data/scripts/dock_solv.prm

>  <Rbt.Receptor>
prm/blind_docking_40.prm

>  <SCORE>
7.43817

>  <SCORE.INTER>
11.6256

>  <SCORE.INTER.CONST>
1

>  <SCORE.INTER.POLAR>
0

>  <SCORE.INTER.ROT>
11

>  <SCORE.INTER.SOLV>
13.239

>  <SCORE.INTER.VDW>
-7.59596

>  <SCORE.INTER.norm>
0.830397

>  <SCORE.INTRA>
-4.34224

>  <SCORE.INTRA.DIHEDRAL>
-13.8285

>  <SCORE.INTRA.DIHEDRAL.0>
20.2131

>  <SCORE.INTRA.POLAR>
0

>  <SCORE.INTRA.POLAR.0>
0

>  <SCORE.INTRA.REPUL>
0

>  <SCORE.INTRA.REPUL.0>
0

>  <SCORE.INTRA.SOLV>
2.65862

>  <SCORE.INTRA.SOLV.lig_0>
-48.2851

>  <SCORE.INTRA.VDW>
1.24268

>  <SCORE.INTRA.VDW.0>
-1.08658

>  <SCORE.INTRA.norm>
-0.31016

>  <SCORE.RESTR>
0.154851

>  <SCORE.RESTR.CAVITY>
0.154851

>  <SCORE.RESTR.norm>
0.0110608

>  <SCORE.SYSTEM>
0

>  <SCORE.SYSTEM.CONST>
0

>  <SCORE.SYSTEM.DIHEDRAL>
0

>  <SCORE.SYSTEM.SOLV>
0

>  <SCORE.SYSTEM.norm>
0

>  <SCORE.heavy>
14

>  <SCORE.norm>
0.531298

>  <RMSD>
41.533

$$$$
ligand
 OpenBabel11021811393D
libRbt.so/2013.1/901 2013/11/27
 14 13  0  0  0  0  0  0  0  0999 V2000
   37.9707   -3.9183    6.9114 N   0  0  0  0  0  0  0  0  0  0  0  0
   36.7908   -4.7058    6.5891 C   0  0  0  0  0  0  0  0  0  0  0  0
   37.0375   -6.2028    6.9236 C   0  0  0  0  0  0  0  0  0  0  0  0
   36.9901   -6.6365    8.4319 C   0  0  0  0  0  0  0  0  0  0  0  0
   37.2798   -8.0933    8.6970 N   0  0  0  0  0  0  0  0  0  0  0  0
   36.8757   -8.5500   10.0585 C   0  0  0  0  0  0  0  0  0  0  0  0
   35.4426   -9.0429   10.1439 C   0  0  0  0  0  0  0  0  0  0  0  0
   34.5816   -8.5334    9.0022 C   0  0  0  0  0  0  0  0  0  0  0  0
   34.7140   -9.4973    7.8862 C   0  0  0  0  0  0  0  0  0  0  0  0
   35.8698   -9.2747    6.9846 N   0  0  0  0  0  0  0  0  0  0  0  0
   35.8061  -10.0634    5.7286 C   0  0  0  0  0  0  0  0  0  0  0  0
   37.0503   -9.9612    4.7968 C   0  0  0  0  0  0  0  0  0  0  0  0
   37.0459   -8.5694    4.1405 C   0  0  0  0  0  0  0  0  0  0  0  0
   38.0790   -8.4812    3.1117 N   0  0  0  0  0  0  0  0  0  0  0  0
  1  2  1  0  0  0  0
  2  3  1  0  0  0  0
  3  4  1  0  0  0  0
  4  5  1  0  0  0  0
  5  6  1  0  0  0  0
  6  7  1  0  0  0  0
  7  8  1  0  0  0  0
  8  9  1  0  0  0  0
  9 10  1  0  0  0  0
 10 11  1  0  0  0  0
 11 12  1  0  0  0  0
 12 13  1  0  0  0  0
 13 14  1  0  0  0  0
M  END
>  <CHROM.1>
76.01627871,-178.16025292,-164.46634055,88.48560825,-20.19670259,88.06354025
-85.84322860,-167.47511101,-175.07993338,-72.56671905,-171.88752533,36.53781909
-7.96663784,7.10070490,-0.76668593,1.14406708,0.88323404

>  <Name>
ligand

>  <RI>
0

>  <Rbt.Current_Directory>
/home/itssahil/PROJECTS/Mol_Feturizer/New_Systems/rnas/1EVV

>  <Rbt.Executable>
rbdock ($Id: //depot/dev/client3/rdock/2013.1/src/exe/rbdock.cxx#4 $)

>  <Rbt.Library>
libRbt.so (2013.1, Build901 2013/11/27)

>  <Rbt.Parameter_File>
/export/apps/rDock/src/rDock_2013.1_src/data/scripts/dock_solv.prm

>  <Rbt.Receptor>
prm/blind_docking_40.prm

>  <SCORE>
11.4216

>  <SCORE.INTER>
12.7123

>  <SCORE.INTER.CONST>
1

>  <SCORE.INTER.POLAR>
0

>  <SCORE.INTER.ROT>
11

>  <SCORE.INTER.SOLV>
9.09762

>  <SCORE.INTER.VDW>
-5.49104

>  <SCORE.INTER.norm>
0.908018

>  <SCORE.INTRA>
-1.73441

>  <SCORE.INTRA.DIHEDRAL>
-8.54981

>  <SCORE.INTRA.DIHEDRAL.0>
20.2131

>  <SCORE.INTRA.POLAR>
0

>  <SCORE.INTRA.POLAR.0>
0

>  <SCORE.INTRA.REPUL>
0.011639

>  <SCORE.INTRA.REPUL.0>
0

>  <SCORE.INTRA.SOLV>
3.59237

>  <SCORE.INTRA.SOLV.lig_0>
-48.2851

>  <SCORE.INTRA.VDW>
0.686113

>  <SCORE.INTRA.VDW.0>
-1.08658

>  <SCORE.INTRA.norm>
-0.123886

>  <SCORE.RESTR>
0.443754

>  <SCORE.RESTR.CAVITY>
0.443754

>  <SCORE.RESTR.norm>
0.0316967

>  <SCORE.SYSTEM>
0

>  <SCORE.SYSTEM.CONST>
0

>  <SCORE.SYSTEM.DIHEDRAL>
0

>  <SCORE.SYSTEM.SOLV>
0

>  <SCORE.SYSTEM.norm>
0

>  <SCORE.heavy>
14

>  <SCORE.norm>
0.815829

>  <RMSD>
41.540

$$$$
ligand
 OpenBabel11021811393D
libRbt.so/2013.1/901 2013/11/27
 14 13  0  0  0  0  0  0  0  0999 V2000
   39.0213   -2.6619    6.6052 N   0  0  0  0  0  0  0  0  0  0  0  0
   38.7246   -3.1902    7.9277 C   0  0  0  0  0  0  0  0  0  0  0  0
   37.1946   -3.4076    8.0873 C   0  0  0  0  0  0  0  0  0  0  0  0
   36.4922   -4.4269    7.1213 C   0  0  0  0  0  0  0  0  0  0  0  0
   37.0892   -5.8124    7.0955 N   0  0  0  0  0  0  0  0  0  0  0  0
   36.2755   -6.8327    7.8182 C   0  0  0  0  0  0  0  0  0  0  0  0
   35.0127   -7.2472    7.0850 C   0  0  0  0  0  0  0  0  0  0  0  0
   34.3581   -8.4721    7.6976 C   0  0  0  0  0  0  0  0  0  0  0  0
   35.2635   -9.6198    7.4623 C   0  0  0  0  0  0  0  0  0  0  0  0
   35.4613   -9.9956    6.0418 N   0  0  0  0  0  0  0  0  0  0  0  0
   36.7659   -9.5569    5.4857 C   0  0  0  0  0  0  0  0  0  0  0  0
   36.7128   -8.8610    4.0930 C   0  0  0  0  0  0  0  0  0  0  0  0
   36.1327   -9.8615    3.0780 C   0  0  0  0  0  0  0  0  0  0  0  0
   37.0142  -11.0168    2.9314 N   0  0  0  0  0  0  0  0  0  0  0  0
  1  2  1  0  0  0  0
  2  3  1  0  0  0  0
  3  4  1  0  0  0  0
  4  5  1  0  0  0  0
  5  6  1  0  0  0  0
  6  7  1  0  0  0  0
  7  8  1  0  0  0  0
  8  9  1  0  0  0  0
  9 10  1  0  0  0  0
 10 11  1  0  0  0  0
 11 12  1  0  0  0  0
 12 13  1  0  0  0  0
 13 14  1  0  0  0  0
M  END
>  <CHROM.1>
61.64613229,54.43906002,105.18644055,73.71646617,168.45707846,-67.68460073
-64.73958959,103.65622043,-133.14562712,-61.11591567,-63.66147610,36.53679516
-7.21156074,6.32384148,-1.20088182,-0.84545198,-2.43639948

>  <Name>
ligand

>  <RI>
0

>  <Rbt.Current_Directory>
/home/itssahil/PROJECTS/Mol_Feturizer/New_Systems/rnas/1EVV

>  <Rbt.Executable>
rbdock ($Id: //depot/dev/client3/rdock/2013.1/src/exe/rbdock.cxx#4 $)

>  <Rbt.Library>
libRbt.so (2013.1, Build901 2013/11/27)

>  <Rbt.Parameter_File>
/export/apps/rDock/src/rDock_2013.1_src/data/scripts/dock_solv.prm

>  <Rbt.Receptor>
prm/blind_docking_40.prm

>  <SCORE>
7.12772

>  <SCORE.INTER>
11.6208

>  <SCORE.INTER.CONST>
1

>  <SCORE.INTER.POLAR>
0

>  <SCORE.INTER.ROT>
11

>  <SCORE.INTER.SOLV>
12.5426

>  <SCORE.INTER.VDW>
-7.36702

>  <SCORE.INTER.norm>
0.830054

>  <SCORE.INTRA>
-5.25874

>  <SCORE.INTRA.DIHEDRAL>
-15.9802

>  <SCORE.INTRA.DIHEDRAL.0>
20.2131

>  <SCORE.INTRA.POLAR>
0

>  <SCORE.INTRA.POLAR.0>
0

>  <SCORE.INTRA.REPUL>
0

>  <SCORE.INTRA.REPUL.0>
0

>  <SCORE.INTRA.SOLV>
3.25131

>  <SCORE.INTRA.SOLV.lig_0>
-48.2851

>  <SCORE.INTRA.VDW>
1.10571

>  <SCORE.INTRA.VDW.0>
-1.08658

>  <SCORE.INTRA.norm>
-0.375625

>  <SCORE.RESTR>
0.765705

>  <SCORE.RESTR.CAVITY>
0.765705

>  <SCORE.RESTR.norm>
0.0546932

>  <SCORE.SYSTEM>
0

>  <SCORE.SYSTEM.CONST>
0

>  <SCORE.SYSTEM.DIHEDRAL>
0

>  <SCORE.SYSTEM.SOLV>
0

>  <SCORE.SYSTEM.norm>
0

>  <SCORE.heavy>
14

>  <SCORE.norm>
0.509123

>  <RMSD>
41.541

$$$$
ligand
 OpenBabel11021811393D
libRbt.so/2013.1/901 2013/11/27
 14 13  0  0  0  0  0  0  0  0999 V2000
   38.1094   -9.6955    2.5585 N   0  0  0  0  0  0  0  0  0  0  0  0
   37.3873  -10.5128    3.5212 C   0  0  0  0  0  0  0  0  0  0  0  0
   37.0631   -9.6821    4.7935 C   0  0  0  0  0  0  0  0  0  0  0  0
   36.3943  -10.4239    6.0050 C   0  0  0  0  0  0  0  0  0  0  0  0
   36.2676   -9.6135    7.2715 N   0  0  0  0  0  0  0  0  0  0  0  0
   34.8670   -9.4896    7.7699 C   0  0  0  0  0  0  0  0  0  0  0  0
   34.6827   -8.4228    8.8339 C   0  0  0  0  0  0  0  0  0  0  0  0
   35.6186   -8.6089   10.0144 C   0  0  0  0  0  0  0  0  0  0  0  0
   36.9694   -8.1899    9.5763 C   0  0  0  0  0  0  0  0  0  0  0  0
   37.0699   -6.8062    9.0534 N   0  0  0  0  0  0  0  0  0  0  0  0
   37.0908   -6.7297    7.5710 C   0  0  0  0  0  0  0  0  0  0  0  0
   37.0637   -5.2957    6.9630 C   0  0  0  0  0  0  0  0  0  0  0  0
   38.2939   -4.5306    7.4819 C   0  0  0  0  0  0  0  0  0  0  0  0
   38.2885   -3.1540    6.9937 N   0  0  0  0  0  0  0  0  0  0  0  0
  1  2  1  0  0  0  0
  2  3  1  0  0  0  0
  3  4  1  0  0  0  0
  4  5  1  0  0  0  0
  5  6  1  0  0  0  0
  6  7  1  0  0  0  0
  7  8  1  0  0  0  0
  8  9  1  0  0  0  0
  9 10  1  0  0  0  0
 10 11  1  0  0  0  0
 11 12  1  0  0  0  0
 12 13  1  0  0  0  0
 13 14  1  0  0  0  0
M  END
>  <CHROM.1>
-174.78562835,172.37517855,122.58961997,-166.23510904,-54.87445148,74.62879492
56.55207075,-100.47079361,174.60944661,59.30192029,-177.32047171,36.79733341
-7.93991045,7.02931866,-1.64359667,1.05333315,0.75471427

>  <Name>
ligand

>  <RI>
0

>  <Rbt.Current_Directory>
/home/itssahil/PROJECTS/Mol_Feturizer/New_Systems/rnas/1EVV

>  <Rbt.Executable>
rbdock ($Id: //depot/dev/client3/rdock/2013.1/src/exe/rbdock.cxx#4 $)

>  <Rbt.Library>
libRbt.so (2013.1, Build901 2013/11/27)

>  <Rbt.Parameter_File>
/export/apps/rDock/src/rDock_2013.1_src/data/scripts/dock_solv.prm

>  <Rbt.Receptor>
prm/blind_docking_40.prm

>  <SCORE>
6.8897

>  <SCORE.INTER>
13.0124

>  <SCORE.INTER.CONST>
1

>  <SCORE.INTER.POLAR>
0

>  <SCORE.INTER.ROT>
11

>  <SCORE.INTER.SOLV>
14.52

>  <SCORE.INTER.VDW>
-7.09842

>  <SCORE.INTER.norm>
0.929454

>  <SCORE.INTRA>
-6.16259

>  <SCORE.INTRA.DIHEDRAL>
-16.5865

>  <SCORE.INTRA.DIHEDRAL.0>
20.2131

>  <SCORE.INTRA.POLAR>
0

>  <SCORE.INTRA.POLAR.0>
0

>  <SCORE.INTRA.REPUL>
0

>  <SCORE.INTRA.REPUL.0>
0

>  <SCORE.INTRA.SOLV>
1.87848

>  <SCORE.INTRA.SOLV.lig_0>
-48.2851

>  <SCORE.INTRA.VDW>
1.19141

>  <SCORE.INTRA.VDW.0>
-1.08658

>  <SCORE.INTRA.norm>
-0.440185

>  <SCORE.RESTR>
0.0399283

>  <SCORE.RESTR.CAVITY>
0.0399283

>  <SCORE.RESTR.norm>
0.00285202

>  <SCORE.SYSTEM>
0

>  <SCORE.SYSTEM.CONST>
0

>  <SCORE.SYSTEM.DIHEDRAL>
0

>  <SCORE.SYSTEM.SOLV>
0

>  <SCORE.SYSTEM.norm>
0

>  <SCORE.heavy>
14

>  <SCORE.norm>
0.492121

>  <RMSD>
41.544

$$$$
ligand
 OpenBabel11021811393D
libRbt.so/2013.1/901 2013/11/27
 14 13  0  0  0  0  0  0  0  0999 V2000
   39.0250   -3.5150    8.0517 N   0  0  0  0  0  0  0  0  0  0  0  0
   37.5945   -3.5517    7.7902 C   0  0  0  0  0  0  0  0  0  0  0  0
   37.2677   -4.6590    6.7505 C   0  0  0  0  0  0  0  0  0  0  0  0
   35.7625   -4.8828    6.3635 C   0  0  0  0  0  0  0  0  0  0  0  0
   34.8440   -5.2330    7.5082 N   0  0  0  0  0  0  0  0  0  0  0  0
   34.7639   -6.6956    7.7907 C   0  0  0  0  0  0  0  0  0  0  0  0
   36.0493   -7.2899    8.3373 C   0  0  0  0  0  0  0  0  0  0  0  0
   35.8624   -8.7025    8.8604 C   0  0  0  0  0  0  0  0  0  0  0  0
   35.4114   -9.5373    7.7238 C   0  0  0  0  0  0  0  0  0  0  0  0
   36.2447   -9.4533    6.5003 N   0  0  0  0  0  0  0  0  0  0  0  0
   35.4646   -9.5461    5.2408 C   0  0  0  0  0  0  0  0  0  0  0  0
   36.2745   -9.3592    3.9232 C   0  0  0  0  0  0  0  0  0  0  0  0
   37.3075  -10.4959    3.8290 C   0  0  0  0  0  0  0  0  0  0  0  0
   38.0782  -10.3910    2.5927 N   0  0  0  0  0  0  0  0  0  0  0  0
  1  2  1  0  0  0  0
  2  3  1  0  0  0  0
  3  4  1  0  0  0  0
  4  5  1  0  0  0  0
  5  6  1  0  0  0  0
  6  7  1  0  0  0  0
  7  8  1  0  0  0  0
  8  9  1  0  0  0  0
  9 10  1  0  0  0  0
 10 11  1  0  0  0  0
 11 12  1  0  0  0  0
 12 13  1  0  0  0  0
 13 14  1  0  0  0  0
M  END
>  <CHROM.1>
178.37165021,-58.63130540,-87.98650395,67.80986369,169.03243425,60.94903697
51.67740302,-144.60644878,175.68667212,62.76777011,178.63455924,36.42476902
-7.37955833,6.51888674,-1.51519714,-0.89859918,-2.55944055

>  <Name>
ligand

>  <RI>
0

>  <Rbt.Current_Directory>
/home/itssahil/PROJECTS/Mol_Feturizer/New_Systems/rnas/1EVV

>  <Rbt.Executable>
rbdock ($Id: //depot/dev/client3/rdock/2013.1/src/exe/rbdock.cxx#4 $)

>  <Rbt.Library>
libRbt.so (2013.1, Build901 2013/11/27)

>  <Rbt.Parameter_File>
/export/apps/rDock/src/rDock_2013.1_src/data/scripts/dock_solv.prm

>  <Rbt.Receptor>
prm/blind_docking_40.prm

>  <SCORE>
4.30811

>  <SCORE.INTER>
11.438

>  <SCORE.INTER.CONST>
1

>  <SCORE.INTER.POLAR>
0

>  <SCORE.INTER.ROT>
11

>  <SCORE.INTER.SOLV>
14.4971

>  <SCORE.INTER.VDW>
-8.1404

>  <SCORE.INTER.norm>
0.816998

>  <SCORE.INTRA>
-7.20609

>  <SCORE.INTRA.DIHEDRAL>
-18.0868

>  <SCORE.INTRA.DIHEDRAL.0>
20.2131

>  <SCORE.INTRA.POLAR>
0

>  <SCORE.INTRA.POLAR.0>
0

>  <SCORE.INTRA.REPUL>
0

>  <SCORE.INTRA.REPUL.0>
0

>  <SCORE.INTRA.SOLV>
0.194215

>  <SCORE.INTRA.SOLV.lig_0>
-48.2851

>  <SCORE.INTRA.VDW>
1.74023

>  <SCORE.INTRA.VDW.0>
-1.08658

>  <SCORE.INTRA.norm>
-0.514721

>  <SCORE.RESTR>
0.0762331

>  <SCORE.RESTR.CAVITY>
0.0762331

>  <SCORE.RESTR.norm>
0.00544522

>  <SCORE.SYSTEM>
0

>  <SCORE.SYSTEM.CONST>
0

>  <SCORE.SYSTEM.DIHEDRAL>
0

>  <SCORE.SYSTEM.SOLV>
0

>  <SCORE.SYSTEM.norm>
0

>  <SCORE.heavy>
14

>  <SCORE.norm>
0.307722

>  <RMSD>
41.555

$$$$
ligand
 OpenBabel11021811393D
libRbt.so/2013.1/901 2013/11/27
 14 13  0  0  0  0  0  0  0  0999 V2000
   35.4076   -9.4992    2.9935 N   0  0  0  0  0  0  0  0  0  0  0  0
   36.3465   -8.4116    3.2209 C   0  0  0  0  0  0  0  0  0  0  0  0
   37.5374   -8.9041    4.0887 C   0  0  0  0  0  0  0  0  0  0  0  0
   37.2200   -9.4736    5.5171 C   0  0  0  0  0  0  0  0  0  0  0  0
   36.8939   -8.4418    6.5686 N   0  0  0  0  0  0  0  0  0  0  0  0
   36.7500   -9.0060    7.9421 C   0  0  0  0  0  0  0  0  0  0  0  0
   35.3371   -9.4422    8.2852 C   0  0  0  0  0  0  0  0  0  0  0  0
   34.5174   -8.3266    8.9079 C   0  0  0  0  0  0  0  0  0  0  0  0
   34.2914   -7.3071    7.8582 C   0  0  0  0  0  0  0  0  0  0  0  0
   35.2412   -6.1686    7.8596 N   0  0  0  0  0  0  0  0  0  0  0  0
   35.7450   -5.8116    6.5096 C   0  0  0  0  0  0  0  0  0  0  0  0
   36.5499   -4.4814    6.4133 C   0  0  0  0  0  0  0  0  0  0  0  0
   37.7238   -4.5573    7.4054 C   0  0  0  0  0  0  0  0  0  0  0  0
   38.4868   -3.3118    7.3975 N   0  0  0  0  0  0  0  0  0  0  0  0
  1  2  1  0  0  0  0
  2  3  1  0  0  0  0
  3  4  1  0  0  0  0
  4  5  1  0  0  0  0
  5  6  1  0  0  0  0
  6  7  1  0  0  0  0
  7  8  1  0  0  0  0
  8  9  1  0  0  0  0
  9 10  1  0  0  0  0
 10 11  1  0  0  0  0
 11 12  1  0  0  0  0
 12 13  1  0  0  0  0
 13 14  1  0  0  0  0
M  END
>  <CHROM.1>
-59.49810341,-75.90213703,-173.46884500,-89.86372248,-89.70641773,67.98496575
-96.03904934,135.11529967,169.97660864,56.17465374,-177.76988738,36.28905763
-7.36756428,6.49780662,-1.81902859,1.05611780,0.78028023

>  <Name>
ligand

>  <RI>
0

>  <Rbt.Current_Directory>
/home/itssahil/PROJECTS/Mol_Feturizer/New_Systems/rnas/1EVV

>  <Rbt.Executable>
rbdock ($Id: //depot/dev/client3/rdock/2013.1/src/exe/rbdock.cxx#4 $)

>  <Rbt.Library>
libRbt.so (2013.1, Build901 2013/11/27)

>  <Rbt.Parameter_File>
/export/apps/rDock/src/rDock_2013.1_src/data/scripts/dock_solv.prm

>  <Rbt.Receptor>
prm/blind_docking_40.prm

>  <SCORE>
10.1479

>  <SCORE.INTER>
13.6841

>  <SCORE.INTER.CONST>
1

>  <SCORE.INTER.POLAR>
0

>  <SCORE.INTER.ROT>
11

>  <SCORE.INTER.SOLV>
13.2999

>  <SCORE.INTER.VDW>
-6.24391

>  <SCORE.INTER.norm>
0.977436

>  <SCORE.INTRA>
-3.53625

>  <SCORE.INTRA.DIHEDRAL>
-10.9032

>  <SCORE.INTRA.DIHEDRAL.0>
20.2131

>  <SCORE.INTRA.POLAR>
0

>  <SCORE.INTRA.POLAR.0>
0

>  <SCORE.INTRA.REPUL>
0

>  <SCORE.INTRA.REPUL.0>
0

>  <SCORE.INTRA.SOLV>
3.55674

>  <SCORE.INTRA.SOLV.lig_0>
-48.2851

>  <SCORE.INTRA.VDW>
0.136979

>  <SCORE.INTRA.VDW.0>
-1.08658

>  <SCORE.INTRA.norm>
-0.252589

>  <SCORE.RESTR>
0

>  <SCORE.RESTR.CAVITY>
0

>  <SCORE.RESTR.norm>
0

>  <SCORE.SYSTEM>
0

>  <SCORE.SYSTEM.CONST>
0

>  <SCORE.SYSTEM.DIHEDRAL>
0

>  <SCORE.SYSTEM.SOLV>
0

>  <SCORE.SYSTEM.norm>
0

>  <SCORE.heavy>
14

>  <SCORE.norm>
0.724847

>  <RMSD>
41.574

$$$$
ligand
 OpenBabel11021811393D
libRbt.so/2013.1/901 2013/11/27
 14 13  0  0  0  0  0  0  0  0999 V2000
   37.8092  -10.5776    2.6700 N   0  0  0  0  0  0  0  0  0  0  0  0
   38.1576   -9.2389    3.1199 C   0  0  0  0  0  0  0  0  0  0  0  0
   37.0132   -8.6510    3.9908 C   0  0  0  0  0  0  0  0  0  0  0  0
   36.6251   -9.4140    5.3071 C   0  0  0  0  0  0  0  0  0  0  0  0
   35.5770   -8.7430    6.1603 N   0  0  0  0  0  0  0  0  0  0  0  0
   35.1078   -9.5767    7.3050 C   0  0  0  0  0  0  0  0  0  0  0  0
   35.2863   -8.9191    8.6614 C   0  0  0  0  0  0  0  0  0  0  0  0
   36.7450   -8.6754    9.0038 C   0  0  0  0  0  0  0  0  0  0  0  0
   37.0378   -7.2561    8.7000 C   0  0  0  0  0  0  0  0  0  0  0  0
   37.0990   -6.9115    7.2592 N   0  0  0  0  0  0  0  0  0  0  0  0
   36.2513   -5.7509    6.8879 C   0  0  0  0  0  0  0  0  0  0  0  0
   36.6883   -4.3743    7.4716 C   0  0  0  0  0  0  0  0  0  0  0  0
   38.1055   -4.0633    6.9591 C   0  0  0  0  0  0  0  0  0  0  0  0
   38.5818   -2.7926    7.4994 N   0  0  0  0  0  0  0  0  0  0  0  0
  1  2  1  0  0  0  0
  2  3  1  0  0  0  0
  3  4  1  0  0  0  0
  4  5  1  0  0  0  0
  5  6  1  0  0  0  0
  6  7  1  0  0  0  0
  7  8  1  0  0  0  0
  8  9  1  0  0  0  0
  9 10  1  0  0  0  0
 10 11  1  0  0  0  0
 11 12  1  0  0  0  0
 12 13  1  0  0  0  0
 13 14  1  0  0  0  0
M  END
>  <CHROM.1>
60.47310468,175.77786696,172.51415005,122.74247356,-63.60098449,99.19601761
-71.71935837,128.53981777,66.95604106,60.48433560,-178.76053238,36.86304339
-7.49613358,6.49991432,-1.72495542,1.06488352,0.71358446

>  <Name>
ligand

>  <RI>
0

>  <Rbt.Current_Directory>
/home/itssahil/PROJECTS/Mol_Feturizer/New_Systems/rnas/1EVV

>  <Rbt.Executable>
rbdock ($Id: //depot/dev/client3/rdock/2013.1/src/exe/rbdock.cxx#4 $)

>  <Rbt.Library>
libRbt.so (2013.1, Build901 2013/11/27)

>  <Rbt.Parameter_File>
/export/apps/rDock/src/rDock_2013.1_src/data/scripts/dock_solv.prm

>  <Rbt.Receptor>
prm/blind_docking_40.prm

>  <SCORE>
6.00991

>  <SCORE.INTER>
10.9677

>  <SCORE.INTER.CONST>
1

>  <SCORE.INTER.POLAR>
0

>  <SCORE.INTER.ROT>
11

>  <SCORE.INTER.SOLV>
12.5232

>  <SCORE.INTER.VDW>
-7.79592

>  <SCORE.INTER.norm>
0.783409

>  <SCORE.INTRA>
-4.95821

>  <SCORE.INTRA.DIHEDRAL>
-12.6892

>  <SCORE.INTRA.DIHEDRAL.0>
20.2131

>  <SCORE.INTRA.POLAR>
0

>  <SCORE.INTRA.POLAR.0>
0

>  <SCORE.INTRA.REPUL>
0

>  <SCORE.INTRA.REPUL.0>
0

>  <SCORE.INTRA.SOLV>
3.44403

>  <SCORE.INTRA.SOLV.lig_0>
-48.2851

>  <SCORE.INTRA.VDW>
-0.335634

>  <SCORE.INTRA.VDW.0>
-1.08658

>  <SCORE.INTRA.norm>
-0.354158

>  <SCORE.RESTR>
0.000396772

>  <SCORE.RESTR.CAVITY>
0.000396772

>  <SCORE.RESTR.norm>
2.83409e-05

>  <SCORE.SYSTEM>
0

>  <SCORE.SYSTEM.CONST>
0

>  <SCORE.SYSTEM.DIHEDRAL>
0

>  <SCORE.SYSTEM.SOLV>
0

>  <SCORE.SYSTEM.norm>
0

>  <SCORE.heavy>
14

>  <SCORE.norm>
0.429279

>  <RMSD>
41.584

$$$$
ligand
 OpenBabel11021811393D
libRbt.so/2013.1/901 2013/11/27
 14 13  0  0  0  0  0  0  0  0999 V2000
   38.1143   -8.5223    2.6335 N   0  0  0  0  0  0  0  0  0  0  0  0
   37.7306   -9.5065    3.6337 C   0  0  0  0  0  0  0  0  0  0  0  0
   36.3297   -9.1652    4.2121 C   0  0  0  0  0  0  0  0  0  0  0  0
   35.7999  -10.0279    5.4123 C   0  0  0  0  0  0  0  0  0  0  0  0
   36.7196  -10.1128    6.6054 N   0  0  0  0  0  0  0  0  0  0  0  0
   36.5090   -9.0275    7.6070 C   0  0  0  0  0  0  0  0  0  0  0  0
   35.2514   -9.1927    8.4407 C   0  0  0  0  0  0  0  0  0  0  0  0
   34.7982   -7.8910    9.0768 C   0  0  0  0  0  0  0  0  0  0  0  0
   34.2937   -7.0215    7.9897 C   0  0  0  0  0  0  0  0  0  0  0  0
   35.3198   -6.5253    7.0414 N   0  0  0  0  0  0  0  0  0  0  0  0
   35.4818   -5.0497    7.0575 C   0  0  0  0  0  0  0  0  0  0  0  0
   36.7775   -4.4999    6.3901 C   0  0  0  0  0  0  0  0  0  0  0  0
   37.9272   -4.6145    7.4066 C   0  0  0  0  0  0  0  0  0  0  0  0
   37.8867   -3.5066    8.3576 N   0  0  0  0  0  0  0  0  0  0  0  0
  1  2  1  0  0  0  0
  2  3  1  0  0  0  0
  3  4  1  0  0  0  0
  4  5  1  0  0  0  0
  5  6  1  0  0  0  0
  6  7  1  0  0  0  0
  7  8  1  0  0  0  0
  8  9  1  0  0  0  0
  9 10  1  0  0  0  0
 10 11  1  0  0  0  0
 11 12  1  0  0  0  0
 12 13  1  0  0  0  0
 13 14  1  0  0  0  0
M  END
>  <CHROM.1>
-173.91087297,54.02403845,89.13652754,74.11056191,-159.70365785,70.15876584
-68.51245614,-116.26636878,164.11633095,-81.81179315,-80.65091426,36.35255798
-7.47608094,6.56191560,-1.44768968,0.97691396,0.50922561

>  <Name>
ligand

>  <RI>
0

>  <Rbt.Current_Directory>
/home/itssahil/PROJECTS/Mol_Feturizer/New_Systems/rnas/1EVV

>  <Rbt.Executable>
rbdock ($Id: //depot/dev/client3/rdock/2013.1/src/exe/rbdock.cxx#4 $)

>  <Rbt.Library>
libRbt.so (2013.1, Build901 2013/11/27)

>  <Rbt.Parameter_File>
/export/apps/rDock/src/rDock_2013.1_src/data/scripts/dock_solv.prm

>  <Rbt.Receptor>
prm/blind_docking_40.prm

>  <SCORE>
9.18014

>  <SCORE.INTER>
13.6658

>  <SCORE.INTER.CONST>
1

>  <SCORE.INTER.POLAR>
0

>  <SCORE.INTER.ROT>
11

>  <SCORE.INTER.SOLV>
16.5843

>  <SCORE.INTER.VDW>
-7.35093

>  <SCORE.INTER.norm>
0.976127

>  <SCORE.INTRA>
-4.54199

>  <SCORE.INTRA.DIHEDRAL>
-12.6418

>  <SCORE.INTRA.DIHEDRAL.0>
20.2131

>  <SCORE.INTRA.POLAR>
0

>  <SCORE.INTRA.POLAR.0>
0

>  <SCORE.INTRA.REPUL>
0

>  <SCORE.INTRA.REPUL.0>
0

>  <SCORE.INTRA.SOLV>
1.87642

>  <SCORE.INTRA.SOLV.lig_0>
-48.2851

>  <SCORE.INTRA.VDW>
0.840693

>  <SCORE.INTRA.VDW.0>
-1.08658

>  <SCORE.INTRA.norm>
-0.324428

>  <SCORE.RESTR>
0.056354

>  <SCORE.RESTR.CAVITY>
0.056354

>  <SCORE.RESTR.norm>
0.00402529

>  <SCORE.SYSTEM>
0

>  <SCORE.SYSTEM.CONST>
0

>  <SCORE.SYSTEM.DIHEDRAL>
0

>  <SCORE.SYSTEM.SOLV>
0

>  <SCORE.SYSTEM.norm>
0

>  <SCORE.heavy>
14

>  <SCORE.norm>
0.655724

>  <RMSD>
41.607

$$$$
ligand
 OpenBabel11021811393D
libRbt.so/2013.1/901 2013/11/27
 14 13  0  0  0  0  0  0  0  0999 V2000
   38.5490   -3.3256    6.9394 N   0  0  0  0  0  0  0  0  0  0  0  0
   37.5752   -3.6831    7.9593 C   0  0  0  0  0  0  0  0  0  0  0  0
   36.3687   -4.4191    7.3141 C   0  0  0  0  0  0  0  0  0  0  0  0
   36.6350   -5.8066    6.6289 C   0  0  0  0  0  0  0  0  0  0  0  0
   37.1015   -6.9060    7.5510 N   0  0  0  0  0  0  0  0  0  0  0  0
   36.1718   -7.1755    8.6861 C   0  0  0  0  0  0  0  0  0  0  0  0
   36.1342   -8.6292    9.1212 C   0  0  0  0  0  0  0  0  0  0  0  0
   35.4819   -9.5303    8.0884 C   0  0  0  0  0  0  0  0  0  0  0  0
   36.4816   -9.7768    7.0244 C   0  0  0  0  0  0  0  0  0  0  0  0
   35.9252  -10.0936    5.6872 N   0  0  0  0  0  0  0  0  0  0  0  0
   35.4857   -8.8972    4.9262 C   0  0  0  0  0  0  0  0  0  0  0  0
   35.9131   -8.8479    3.4290 C   0  0  0  0  0  0  0  0  0  0  0  0
   37.4503   -8.8810    3.3669 C   0  0  0  0  0  0  0  0  0  0  0  0
   37.9506  -10.2152    3.6882 N   0  0  0  0  0  0  0  0  0  0  0  0
  1  2  1  0  0  0  0
  2  3  1  0  0  0  0
  3  4  1  0  0  0  0
  4  5  1  0  0  0  0
  5  6  1  0  0  0  0
  6  7  1  0  0  0  0
  7  8  1  0  0  0  0
  8  9  1  0  0  0  0
  9 10  1  0  0  0  0
 10 11  1  0  0  0  0
 11 12  1  0  0  0  0
 12 13  1  0  0  0  0
 13 14  1  0  0  0  0
M  END
>  <CHROM.1>
63.97930865,63.99455343,56.85514314,147.02705902,-69.24768085,78.37377675
-153.87178701,80.36570143,134.92476313,-59.87957668,73.22791359,36.65854909
-7.58478051,6.45808977,-1.19937844,-1.20560265,-2.27663981

>  <Name>
ligand

>  <RI>
0

>  <Rbt.Current_Directory>
/home/itssahil/PROJECTS/Mol_Feturizer/New_Systems/rnas/1EVV

>  <Rbt.Executable>
rbdock ($Id: //depot/dev/client3/rdock/2013.1/src/exe/rbdock.cxx#4 $)

>  <Rbt.Library>
libRbt.so (2013.1, Build901 2013/11/27)

>  <Rbt.Parameter_File>
/export/apps/rDock/src/rDock_2013.1_src/data/scripts/dock_solv.prm

>  <Rbt.Receptor>
prm/blind_docking_40.prm

>  <SCORE>
7.34365

>  <SCORE.INTER>
11.1323

>  <SCORE.INTER.CONST>
1

>  <SCORE.INTER.POLAR>
0

>  <SCORE.INTER.ROT>
11

>  <SCORE.INTER.SOLV>
11.0628

>  <SCORE.INTER.VDW>
-7.19941

>  <SCORE.INTER.norm>
0.795164

>  <SCORE.INTRA>
-3.79477

>  <SCORE.INTRA.DIHEDRAL>
-13.5885

>  <SCORE.INTRA.DIHEDRAL.0>
20.2131

>  <SCORE.INTRA.POLAR>
0

>  <SCORE.INTRA.POLAR.0>
0

>  <SCORE.INTRA.REPUL>
0

>  <SCORE.INTRA.REPUL.0>
0

>  <SCORE.INTRA.SOLV>
5.15258

>  <SCORE.INTRA.SOLV.lig_0>
-48.2851

>  <SCORE.INTRA.VDW>
0.423178

>  <SCORE.INTRA.VDW.0>
-1.08658

>  <SCORE.INTRA.norm>
-0.271055

>  <SCORE.RESTR>
0.00612682

>  <SCORE.RESTR.CAVITY>
0.00612682

>  <SCORE.RESTR.norm>
0.00043763

>  <SCORE.SYSTEM>
0

>  <SCORE.SYSTEM.CONST>
0

>  <SCORE.SYSTEM.DIHEDRAL>
0

>  <SCORE.SYSTEM.SOLV>
0

>  <SCORE.SYSTEM.norm>
0

>  <SCORE.heavy>
14

>  <SCORE.norm>
0.524547

>  <RMSD>
41.690

$$$$
ligand
 OpenBabel11021811393D
libRbt.so/2013.1/901 2013/11/27
 14 13  0  0  0  0  0  0  0  0999 V2000
   38.0051   -8.5181    3.4618 N   0  0  0  0  0  0  0  0  0  0  0  0
   36.5540   -8.5803    3.3812 C   0  0  0  0  0  0  0  0  0  0  0  0
   36.0353   -9.8841    4.0482 C   0  0  0  0  0  0  0  0  0  0  0  0
   36.1974  -10.0290    5.6032 C   0  0  0  0  0  0  0  0  0  0  0  0
   35.4021   -9.0507    6.4320 N   0  0  0  0  0  0  0  0  0  0  0  0
   34.9833   -9.5866    7.7597 C   0  0  0  0  0  0  0  0  0  0  0  0
   36.0659   -9.5200    8.8215 C   0  0  0  0  0  0  0  0  0  0  0  0
   36.1220   -8.1699    9.5132 C   0  0  0  0  0  0  0  0  0  0  0  0
   37.1010   -7.3380    8.7771 C   0  0  0  0  0  0  0  0  0  0  0  0
   36.7480   -7.0321    7.3699 N   0  0  0  0  0  0  0  0  0  0  0  0
   37.1952   -5.6894    6.9220 C   0  0  0  0  0  0  0  0  0  0  0  0
   36.2881   -4.4946    7.3422 C   0  0  0  0  0  0  0  0  0  0  0  0
   34.8848   -4.7273    6.7552 C   0  0  0  0  0  0  0  0  0  0  0  0
   34.2495   -5.8840    7.3813 N   0  0  0  0  0  0  0  0  0  0  0  0
  1  2  1  0  0  0  0
  2  3  1  0  0  0  0
  3  4  1  0  0  0  0
  4  5  1  0  0  0  0
  5  6  1  0  0  0  0
  6  7  1  0  0  0  0
  7  8  1  0  0  0  0
  8  9  1  0  0  0  0
  9 10  1  0  0  0  0
 10 11  1  0  0  0  0
 11 12  1  0  0  0  0
 12 13  1  0  0  0  0
 13 14  1  0  0  0  0
M  END
>  <CHROM.1>
67.63844250,65.29356926,149.53836989,81.22958989,84.51928213,-92.22035947
63.40153163,145.91131427,-80.60734478,-59.56911920,66.90971766,36.13083652
-7.75035974,6.68369525,-0.73201891,1.38343882,0.00314030

>  <Name>
ligand

>  <RI>
0

>  <Rbt.Current_Directory>
/home/itssahil/PROJECTS/Mol_Feturizer/New_Systems/rnas/1EVV

>  <Rbt.Executable>
rbdock ($Id: //depot/dev/client3/rdock/2013.1/src/exe/rbdock.cxx#4 $)

>  <Rbt.Library>
libRbt.so (2013.1, Build901 2013/11/27)

>  <Rbt.Parameter_File>
/export/apps/rDock/src/rDock_2013.1_src/data/scripts/dock_solv.prm

>  <Rbt.Receptor>
prm/blind_docking_40.prm

>  <SCORE>
9.97596

>  <SCORE.INTER>
11.3359

>  <SCORE.INTER.CONST>
1

>  <SCORE.INTER.POLAR>
0

>  <SCORE.INTER.ROT>
11

>  <SCORE.INTER.SOLV>
10.1685

>  <SCORE.INTER.VDW>
-6.76554

>  <SCORE.INTER.norm>
0.809708

>  <SCORE.INTRA>
-2.03068

>  <SCORE.INTRA.DIHEDRAL>
-12.2805

>  <SCORE.INTRA.DIHEDRAL.0>
20.2131

>  <SCORE.INTRA.POLAR>
0

>  <SCORE.INTRA.POLAR.0>
0

>  <SCORE.INTRA.REPUL>
0

>  <SCORE.INTRA.REPUL.0>
0

>  <SCORE.INTRA.SOLV>
9.15195

>  <SCORE.INTRA.SOLV.lig_0>
-48.2851

>  <SCORE.INTRA.VDW>
-0.466398

>  <SCORE.INTRA.VDW.0>
-1.08658

>  <SCORE.INTRA.norm>
-0.145049

>  <SCORE.RESTR>
0.670722

>  <SCORE.RESTR.CAVITY>
0.670722

>  <SCORE.RESTR.norm>
0.0479087

>  <SCORE.SYSTEM>
0

>  <SCORE.SYSTEM.CONST>
0

>  <SCORE.SYSTEM.DIHEDRAL>
0

>  <SCORE.SYSTEM.SOLV>
0

>  <SCORE.SYSTEM.norm>
0

>  <SCORE.heavy>
14

>  <SCORE.norm>
0.712568

>  <RMSD>
41.749

$$$$
ligand
 OpenBabel11021811393D
libRbt.so/2013.1/901 2013/11/27
 14 13  0  0  0  0  0  0  0  0999 V2000
   37.9730   -2.4163    7.5762 N   0  0  0  0  0  0  0  0  0  0  0  0
   37.8551   -3.8106    7.9739 C   0  0  0  0  0  0  0  0  0  0  0  0
   37.2287   -4.6453    6.8230 C   0  0  0  0  0  0  0  0  0  0  0  0
   37.1056   -6.1977    7.0237 C   0  0  0  0  0  0  0  0  0  0  0  0
   35.9889   -6.6473    7.9333 N   0  0  0  0  0  0  0  0  0  0  0  0
   36.4604   -7.2466    9.2155 C   0  0  0  0  0  0  0  0  0  0  0  0
   37.1088   -8.6099    9.0579 C   0  0  0  0  0  0  0  0  0  0  0  0
   36.2279   -9.5911    8.3059 C   0  0  0  0  0  0  0  0  0  0  0  0
   36.4085   -9.3270    6.8603 C   0  0  0  0  0  0  0  0  0  0  0  0
   35.4472  -10.0106    5.9619 N   0  0  0  0  0  0  0  0  0  0  0  0
   35.2081   -9.2898    4.6863 C   0  0  0  0  0  0  0  0  0  0  0  0
   35.8938   -9.8934    3.4245 C   0  0  0  0  0  0  0  0  0  0  0  0
   37.4134   -9.9125    3.6665 C   0  0  0  0  0  0  0  0  0  0  0  0
   38.1106  -10.4904    2.5204 N   0  0  0  0  0  0  0  0  0  0  0  0
  1  2  1  0  0  0  0
  2  3  1  0  0  0  0
  3  4  1  0  0  0  0
  4  5  1  0  0  0  0
  5  6  1  0  0  0  0
  6  7  1  0  0  0  0
  7  8  1  0  0  0  0
  8  9  1  0  0  0  0
  9 10  1  0  0  0  0
 10 11  1  0  0  0  0
 11 12  1  0  0  0  0
 12 13  1  0  0  0  0
 13 14  1  0  0  0  0
M  END
>  <CHROM.1>
176.03823793,76.28269071,-111.94050600,-70.76771558,-53.16009353,82.10516198
-169.13584499,152.47631531,104.67495163,-59.27732831,179.09295433,36.74494270
-7.72074822,6.50231073,-1.19224644,-1.24201284,-2.18787000

>  <Name>
ligand

>  <RI>
0

>  <Rbt.Current_Directory>
/home/itssahil/PROJECTS/Mol_Feturizer/New_Systems/rnas/1EVV

>  <Rbt.Executable>
rbdock ($Id: //depot/dev/client3/rdock/2013.1/src/exe/rbdock.cxx#4 $)

>  <Rbt.Library>
libRbt.so (2013.1, Build901 2013/11/27)

>  <Rbt.Parameter_File>
/export/apps/rDock/src/rDock_2013.1_src/data/scripts/dock_solv.prm

>  <Rbt.Receptor>
prm/blind_docking_40.prm

>  <SCORE>
7.92316

>  <SCORE.INTER>
13.2214

>  <SCORE.INTER.CONST>
1

>  <SCORE.INTER.POLAR>
0

>  <SCORE.INTER.ROT>
11

>  <SCORE.INTER.SOLV>
17.2962

>  <SCORE.INTER.VDW>
-7.88448

>  <SCORE.INTER.norm>
0.944384

>  <SCORE.INTRA>
-5.74817

>  <SCORE.INTRA.DIHEDRAL>
-13.9849

>  <SCORE.INTRA.DIHEDRAL.0>
20.2131

>  <SCORE.INTRA.POLAR>
0

>  <SCORE.INTRA.POLAR.0>
0

>  <SCORE.INTRA.REPUL>
0

>  <SCORE.INTRA.REPUL.0>
0

>  <SCORE.INTRA.SOLV>
0.884226

>  <SCORE.INTRA.SOLV.lig_0>
-48.2851

>  <SCORE.INTRA.VDW>
0.802188

>  <SCORE.INTRA.VDW.0>
-1.08658

>  <SCORE.INTRA.norm>
-0.410584

>  <SCORE.RESTR>
0.449955

>  <SCORE.RESTR.CAVITY>
0.449955

>  <SCORE.RESTR.norm>
0.0321397

>  <SCORE.SYSTEM>
0

>  <SCORE.SYSTEM.CONST>
0

>  <SCORE.SYSTEM.DIHEDRAL>
0

>  <SCORE.SYSTEM.SOLV>
0

>  <SCORE.SYSTEM.norm>
0

>  <SCORE.heavy>
14

>  <SCORE.norm>
0.56594

>  <RMSD>
41.750

$$$$
ligand
 OpenBabel11021811393D
libRbt.so/2013.1/901 2013/11/27
 14 13  0  0  0  0  0  0  0  0999 V2000
   37.9943   -8.2884    2.5277 N   0  0  0  0  0  0  0  0  0  0  0  0
   38.5174   -9.5480    3.0335 C   0  0  0  0  0  0  0  0  0  0  0  0
   37.3867  -10.6116    3.0963 C   0  0  0  0  0  0  0  0  0  0  0  0
   36.0030  -10.1787    3.6990 C   0  0  0  0  0  0  0  0  0  0  0  0
   36.0751   -9.3400    4.9512 N   0  0  0  0  0  0  0  0  0  0  0  0
   36.3191  -10.1304    6.1926 C   0  0  0  0  0  0  0  0  0  0  0  0
   36.7338   -9.2908    7.3872 C   0  0  0  0  0  0  0  0  0  0  0  0
   35.6799   -8.2700    7.7766 C   0  0  0  0  0  0  0  0  0  0  0  0
   36.3257   -7.2940    8.6836 C   0  0  0  0  0  0  0  0  0  0  0  0
   37.3526   -6.4256    8.0596 N   0  0  0  0  0  0  0  0  0  0  0  0
   36.8023   -5.1749    7.4793 C   0  0  0  0  0  0  0  0  0  0  0  0
   37.8479   -4.1739    6.9037 C   0  0  0  0  0  0  0  0  0  0  0  0
   38.7289   -3.6792    8.0644 C   0  0  0  0  0  0  0  0  0  0  0  0
   37.9602   -2.8272    8.9681 N   0  0  0  0  0  0  0  0  0  0  0  0
  1  2  1  0  0  0  0
  2  3  1  0  0  0  0
  3  4  1  0  0  0  0
  4  5  1  0  0  0  0
  5  6  1  0  0  0  0
  6  7  1  0  0  0  0
  7  8  1  0  0  0  0
  8  9  1  0  0  0  0
  9 10  1  0  0  0  0
 10 11  1  0  0  0  0
 11 12  1  0  0  0  0
 12 13  1  0  0  0  0
 13 14  1  0  0  0  0
M  END
>  <CHROM.1>
-45.26232428,-43.06172239,-79.93848082,165.58250802,60.71792919,-165.04315326
67.98805817,88.71875918,175.63371228,-64.14649371,-69.09524414,37.12325588
-7.51696151,6.20166687,-1.74167691,1.02236857,0.81745813

>  <Name>
ligand

>  <RI>
0

>  <Rbt.Current_Directory>
/home/itssahil/PROJECTS/Mol_Feturizer/New_Systems/rnas/1EVV

>  <Rbt.Executable>
rbdock ($Id: //depot/dev/client3/rdock/2013.1/src/exe/rbdock.cxx#4 $)

>  <Rbt.Library>
libRbt.so (2013.1, Build901 2013/11/27)

>  <Rbt.Parameter_File>
/export/apps/rDock/src/rDock_2013.1_src/data/scripts/dock_solv.prm

>  <Rbt.Receptor>
prm/blind_docking_40.prm

>  <SCORE>
5.77501

>  <SCORE.INTER>
11.6506

>  <SCORE.INTER.CONST>
1

>  <SCORE.INTER.POLAR>
0

>  <SCORE.INTER.ROT>
11

>  <SCORE.INTER.SOLV>
17.5214

>  <SCORE.INTER.VDW>
-9.00674

>  <SCORE.INTER.norm>
0.832186

>  <SCORE.INTRA>
-5.98814

>  <SCORE.INTRA.DIHEDRAL>
-15.8754

>  <SCORE.INTRA.DIHEDRAL.0>
20.2131

>  <SCORE.INTRA.POLAR>
0

>  <SCORE.INTRA.POLAR.0>
0

>  <SCORE.INTRA.REPUL>
0

>  <SCORE.INTRA.REPUL.0>
0

>  <SCORE.INTRA.SOLV>
3.59912

>  <SCORE.INTRA.SOLV.lig_0>
-48.2851

>  <SCORE.INTRA.VDW>
0.149988

>  <SCORE.INTRA.VDW.0>
-1.08658

>  <SCORE.INTRA.norm>
-0.427725

>  <SCORE.RESTR>
0.112557

>  <SCORE.RESTR.CAVITY>
0.112557

>  <SCORE.RESTR.norm>
0.00803976

>  <SCORE.SYSTEM>
0

>  <SCORE.SYSTEM.CONST>
0

>  <SCORE.SYSTEM.DIHEDRAL>
0

>  <SCORE.SYSTEM.SOLV>
0

>  <SCORE.SYSTEM.norm>
0

>  <SCORE.heavy>
14

>  <SCORE.norm>
0.412501

>  <RMSD>
41.794

$$$$
ligand
 OpenBabel11021811393D
libRbt.so/2013.1/901 2013/11/27
 14 13  0  0  0  0  0  0  0  0999 V2000
   38.3422   -8.5396    2.6239 N   0  0  0  0  0  0  0  0  0  0  0  0
   38.1546   -9.9822    2.6215 C   0  0  0  0  0  0  0  0  0  0  0  0
   37.4072  -10.4279    3.9085 C   0  0  0  0  0  0  0  0  0  0  0  0
   36.0028   -9.7896    4.2013 C   0  0  0  0  0  0  0  0  0  0  0  0
   35.4500  -10.0443    5.5819 N   0  0  0  0  0  0  0  0  0  0  0  0
   36.1738   -9.3165    6.6645 C   0  0  0  0  0  0  0  0  0  0  0  0
   35.4863   -9.3788    8.0163 C   0  0  0  0  0  0  0  0  0  0  0  0
   36.3038   -8.7269    9.1168 C   0  0  0  0  0  0  0  0  0  0  0  0
   36.2400   -7.2629    8.9048 C   0  0  0  0  0  0  0  0  0  0  0  0
   37.2470   -6.7094    7.9678 N   0  0  0  0  0  0  0  0  0  0  0  0
   36.6666   -5.8348    6.9181 C   0  0  0  0  0  0  0  0  0  0  0  0
   36.2526   -4.4046    7.3761 C   0  0  0  0  0  0  0  0  0  0  0  0
   37.4984   -3.7030    7.9450 C   0  0  0  0  0  0  0  0  0  0  0  0
   38.4695   -3.4385    6.8865 N   0  0  0  0  0  0  0  0  0  0  0  0
  1  2  1  0  0  0  0
  2  3  1  0  0  0  0
  3  4  1  0  0  0  0
  4  5  1  0  0  0  0
  5  6  1  0  0  0  0
  6  7  1  0  0  0  0
  7  8  1  0  0  0  0
  8  9  1  0  0  0  0
  9 10  1  0  0  0  0
 10 11  1  0  0  0  0
 11 12  1  0  0  0  0
 12 13  1  0  0  0  0
 13 14  1  0  0  0  0
M  END
>  <CHROM.1>
57.16798640,-168.37074637,70.63496610,170.19906783,175.30269718,72.64651047
-85.99593130,129.68219369,76.03149142,58.55998375,67.95577926,36.83511824
-7.68299110,6.33831923,-1.58228205,1.08392920,0.67611413

>  <Name>
ligand

>  <RI>
0

>  <Rbt.Current_Directory>
/home/itssahil/PROJECTS/Mol_Feturizer/New_Systems/rnas/1EVV

>  <Rbt.Executable>
rbdock ($Id: //depot/dev/client3/rdock/2013.1/src/exe/rbdock.cxx#4 $)

>  <Rbt.Library>
libRbt.so (2013.1, Build901 2013/11/27)

>  <Rbt.Parameter_File>
/export/apps/rDock/src/rDock_2013.1_src/data/scripts/dock_solv.prm

>  <Rbt.Receptor>
prm/blind_docking_40.prm

>  <SCORE>
6.65623

>  <SCORE.INTER>
11.7875

>  <SCORE.INTER.CONST>
1

>  <SCORE.INTER.POLAR>
0

>  <SCORE.INTER.ROT>
11

>  <SCORE.INTER.SOLV>
12.2259

>  <SCORE.INTER.VDW>
-7.15031

>  <SCORE.INTER.norm>
0.841962

>  <SCORE.INTRA>
-5.55412

>  <SCORE.INTRA.DIHEDRAL>
-15.0359

>  <SCORE.INTRA.DIHEDRAL.0>
20.2131

>  <SCORE.INTRA.POLAR>
0

>  <SCORE.INTRA.POLAR.0>
0

>  <SCORE.INTRA.REPUL>
0

>  <SCORE.INTRA.REPUL.0>
0

>  <SCORE.INTRA.SOLV>
2.05575

>  <SCORE.INTRA.SOLV.lig_0>
-48.2851

>  <SCORE.INTRA.VDW>
0.935945

>  <SCORE.INTRA.VDW.0>
-1.08658

>  <SCORE.INTRA.norm>
-0.396723

>  <SCORE.RESTR>
0.422883

>  <SCORE.RESTR.CAVITY>
0.422883

>  <SCORE.RESTR.norm>
0.0302059

>  <SCORE.SYSTEM>
0

>  <SCORE.SYSTEM.CONST>
0

>  <SCORE.SYSTEM.DIHEDRAL>
0

>  <SCORE.SYSTEM.SOLV>
0

>  <SCORE.SYSTEM.norm>
0

>  <SCORE.heavy>
14

>  <SCORE.norm>
0.475445

>  <RMSD>
41.840

$$$$
ligand
 OpenBabel11021811393D
libRbt.so/2013.1/901 2013/11/27
 14 13  0  0  0  0  0  0  0  0999 V2000
   35.4800   -9.4853    3.0602 N   0  0  0  0  0  0  0  0  0  0  0  0
   36.4410   -8.7031    3.8223 C   0  0  0  0  0  0  0  0  0  0  0  0
   37.1418   -9.5984    4.8810 C   0  0  0  0  0  0  0  0  0  0  0  0
   36.2624  -10.1961    6.0363 C   0  0  0  0  0  0  0  0  0  0  0  0
   35.9240   -9.2407    7.1541 N   0  0  0  0  0  0  0  0  0  0  0  0
   37.1177   -8.7023    7.8687 C   0  0  0  0  0  0  0  0  0  0  0  0
   37.0994   -8.9412    9.3676 C   0  0  0  0  0  0  0  0  0  0  0  0
   36.0325   -8.1254   10.0751 C   0  0  0  0  0  0  0  0  0  0  0  0
   34.7625   -8.8800    9.9754 C   0  0  0  0  0  0  0  0  0  0  0  0
   33.5773   -8.0842    9.5752 N   0  0  0  0  0  0  0  0  0  0  0  0
   33.3848   -8.0001    8.1057 C   0  0  0  0  0  0  0  0  0  0  0  0
   33.5297   -6.5807    7.4804 C   0  0  0  0  0  0  0  0  0  0  0  0
   35.0297   -6.2572    7.3657 C   0  0  0  0  0  0  0  0  0  0  0  0
   35.2352   -5.0283    6.6033 N   0  0  0  0  0  0  0  0  0  0  0  0
  1  2  1  0  0  0  0
  2  3  1  0  0  0  0
  3  4  1  0  0  0  0
  4  5  1  0  0  0  0
  5  6  1  0  0  0  0
  6  7  1  0  0  0  0
  7  8  1  0  0  0  0
  8  9  1  0  0  0  0
  9 10  1  0  0  0  0
 10 11  1  0  0  0  0
 11 12  1  0  0  0  0
 12 13  1  0  0  0  0
 13 14  1  0  0  0  0
M  END
>  <CHROM.1>
-64.98058171,-78.25835125,-60.51002432,-124.24951896,-69.06785571,84.12344209
-133.79508860,88.35629178,-114.96514355,78.04093508,171.43799274,35.50148204
-8.27319157,7.24103878,1.10140286,0.90112507,-1.46808366

>  <Name>
ligand

>  <RI>
0

>  <Rbt.Current_Directory>
/home/itssahil/PROJECTS/Mol_Feturizer/New_Systems/rnas/1EVV

>  <Rbt.Executable>
rbdock ($Id: //depot/dev/client3/rdock/2013.1/src/exe/rbdock.cxx#4 $)

>  <Rbt.Library>
libRbt.so (2013.1, Build901 2013/11/27)

>  <Rbt.Parameter_File>
/export/apps/rDock/src/rDock_2013.1_src/data/scripts/dock_solv.prm

>  <Rbt.Receptor>
prm/blind_docking_40.prm

>  <SCORE>
11.6186

>  <SCORE.INTER>
13.4264

>  <SCORE.INTER.CONST>
1

>  <SCORE.INTER.POLAR>
0

>  <SCORE.INTER.ROT>
11

>  <SCORE.INTER.SOLV>
12.798

>  <SCORE.INTER.VDW>
-6.24837

>  <SCORE.INTER.norm>
0.95903

>  <SCORE.INTRA>
-2.40394

>  <SCORE.INTRA.DIHEDRAL>
-7.3541

>  <SCORE.INTRA.DIHEDRAL.0>
20.2131

>  <SCORE.INTRA.POLAR>
0

>  <SCORE.INTRA.POLAR.0>
0

>  <SCORE.INTRA.REPUL>
0

>  <SCORE.INTRA.REPUL.0>
0

>  <SCORE.INTRA.SOLV>
3.42882

>  <SCORE.INTRA.SOLV.lig_0>
-48.2851

>  <SCORE.INTRA.VDW>
-0.441302

>  <SCORE.INTRA.VDW.0>
-1.08658

>  <SCORE.INTRA.norm>
-0.17171

>  <SCORE.RESTR>
0.596087

>  <SCORE.RESTR.CAVITY>
0.596087

>  <SCORE.RESTR.norm>
0.0425776

>  <SCORE.SYSTEM>
0

>  <SCORE.SYSTEM.CONST>
0

>  <SCORE.SYSTEM.DIHEDRAL>
0

>  <SCORE.SYSTEM.SOLV>
0

>  <SCORE.SYSTEM.norm>
0

>  <SCORE.heavy>
14

>  <SCORE.norm>
0.829898

>  <RMSD>
41.880

$$$$
ligand
 OpenBabel11021811393D
libRbt.so/2013.1/901 2013/11/27
 14 13  0  0  0  0  0  0  0  0999 V2000
   38.6014   -4.3472    8.1052 N   0  0  0  0  0  0  0  0  0  0  0  0
   37.5824   -3.6712    7.3172 C   0  0  0  0  0  0  0  0  0  0  0  0
   36.2201   -4.4043    7.4601 C   0  0  0  0  0  0  0  0  0  0  0  0
   36.1039   -5.8591    6.8811 C   0  0  0  0  0  0  0  0  0  0  0  0
   37.0713   -6.8646    7.4554 N   0  0  0  0  0  0  0  0  0  0  0  0
   36.6638   -7.4007    8.7866 C   0  0  0  0  0  0  0  0  0  0  0  0
   35.4987   -8.3720    8.7303 C   0  0  0  0  0  0  0  0  0  0  0  0
   35.7404   -9.5172    7.7638 C   0  0  0  0  0  0  0  0  0  0  0  0
   35.4236   -9.0215    6.4051 C   0  0  0  0  0  0  0  0  0  0  0  0
   35.7669   -9.9414    5.2941 N   0  0  0  0  0  0  0  0  0  0  0  0
   35.7642   -9.2910    3.9597 C   0  0  0  0  0  0  0  0  0  0  0  0
   37.0490   -8.4918    3.5894 C   0  0  0  0  0  0  0  0  0  0  0  0
   38.2410   -9.4648    3.6047 C   0  0  0  0  0  0  0  0  0  0  0  0
   38.0977  -10.4722    2.5567 N   0  0  0  0  0  0  0  0  0  0  0  0
  1  2  1  0  0  0  0
  2  3  1  0  0  0  0
  3  4  1  0  0  0  0
  4  5  1  0  0  0  0
  5  6  1  0  0  0  0
  6  7  1  0  0  0  0
  7  8  1  0  0  0  0
  8  9  1  0  0  0  0
  9 10  1  0  0  0  0
 10 11  1  0  0  0  0
 11 12  1  0  0  0  0
 12 13  1  0  0  0  0
 13 14  1  0  0  0  0
M  END
>  <CHROM.1>
-65.75312674,58.75037042,79.57673577,73.02403910,53.92182916,-81.49975653
172.29437852,-165.17817921,81.30988736,60.26605797,65.09313371,36.70146362
-7.65126145,6.27942120,-1.54204733,-1.00012495,-2.40632609

>  <Name>
ligand

>  <RI>
0

>  <Rbt.Current_Directory>
/home/itssahil/PROJECTS/Mol_Feturizer/New_Systems/rnas/1EVV

>  <Rbt.Executable>
rbdock ($Id: //depot/dev/client3/rdock/2013.1/src/exe/rbdock.cxx#4 $)

>  <Rbt.Library>
libRbt.so (2013.1, Build901 2013/11/27)

>  <Rbt.Parameter_File>
/export/apps/rDock/src/rDock_2013.1_src/data/scripts/dock_solv.prm

>  <Rbt.Receptor>
prm/blind_docking_40.prm

>  <SCORE>
6.16475

>  <SCORE.INTER>
11.0283

>  <SCORE.INTER.CONST>
1

>  <SCORE.INTER.POLAR>
0

>  <SCORE.INTER.ROT>
11

>  <SCORE.INTER.SOLV>
11.5482

>  <SCORE.INTER.VDW>
-7.43053

>  <SCORE.INTER.norm>
0.787736

>  <SCORE.INTRA>
-5.14179

>  <SCORE.INTRA.DIHEDRAL>
-16.9515

>  <SCORE.INTRA.DIHEDRAL.0>
20.2131

>  <SCORE.INTRA.POLAR>
0

>  <SCORE.INTRA.POLAR.0>
0

>  <SCORE.INTRA.REPUL>
0

>  <SCORE.INTRA.REPUL.0>
0

>  <SCORE.INTRA.SOLV>
5.11754

>  <SCORE.INTRA.SOLV.lig_0>
-48.2851

>  <SCORE.INTRA.VDW>
0.775176

>  <SCORE.INTRA.VDW.0>
-1.08658

>  <SCORE.INTRA.norm>
-0.36727

>  <SCORE.RESTR>
0.278234

>  <SCORE.RESTR.CAVITY>
0.278234

>  <SCORE.RESTR.norm>
0.0198739

>  <SCORE.SYSTEM>
0

>  <SCORE.SYSTEM.CONST>
0

>  <SCORE.SYSTEM.DIHEDRAL>
0

>  <SCORE.SYSTEM.SOLV>
0

>  <SCORE.SYSTEM.norm>
0

>  <SCORE.heavy>
14

>  <SCORE.norm>
0.440339

>  <RMSD>
41.884

$$$$
ligand
 OpenBabel11021811393D
libRbt.so/2013.1/901 2013/11/27
 14 13  0  0  0  0  0  0  0  0999 V2000
   38.0269  -10.5526    2.5875 N   0  0  0  0  0  0  0  0  0  0  0  0
   36.6271  -10.3043    2.8960 C   0  0  0  0  0  0  0  0  0  0  0  0
   36.4856   -9.0056    3.7368 C   0  0  0  0  0  0  0  0  0  0  0  0
   37.2135   -8.9468    5.1268 C   0  0  0  0  0  0  0  0  0  0  0  0
   36.9437  -10.1096    6.0496 N   0  0  0  0  0  0  0  0  0  0  0  0
   36.3377   -9.7152    7.3545 C   0  0  0  0  0  0  0  0  0  0  0  0
   34.8817   -9.2972    7.2574 C   0  0  0  0  0  0  0  0  0  0  0  0
   34.3954   -8.5835    8.5057 C   0  0  0  0  0  0  0  0  0  0  0  0
   35.1325   -7.3025    8.5963 C   0  0  0  0  0  0  0  0  0  0  0  0
   34.9271   -6.3669    7.4647 N   0  0  0  0  0  0  0  0  0  0  0  0
   36.1896   -5.8188    6.9084 C   0  0  0  0  0  0  0  0  0  0  0  0
   36.6709   -4.4674    7.5157 C   0  0  0  0  0  0  0  0  0  0  0  0
   38.0406   -4.1261    6.9028 C   0  0  0  0  0  0  0  0  0  0  0  0
   38.5713   -2.8941    7.4806 N   0  0  0  0  0  0  0  0  0  0  0  0
  1  2  1  0  0  0  0
  2  3  1  0  0  0  0
  3  4  1  0  0  0  0
  4  5  1  0  0  0  0
  5  6  1  0  0  0  0
  6  7  1  0  0  0  0
  7  8  1  0  0  0  0
  8  9  1  0  0  0  0
  9 10  1  0  0  0  0
 10 11  1  0  0  0  0
 11 12  1  0  0  0  0
 12 13  1  0  0  0  0
 13 14  1  0  0  0  0
M  END
>  <CHROM.1>
-60.08994000,-51.37453413,-120.74470445,73.02045867,-165.75170189,66.07450778
61.23590864,-131.43362255,-92.21043120,175.31188452,-177.49736541,36.45998676
-7.67797143,6.31322027,-1.59540998,0.88324018,0.58037465

>  <Name>
ligand

>  <RI>
0

>  <Rbt.Current_Directory>
/home/itssahil/PROJECTS/Mol_Feturizer/New_Systems/rnas/1EVV

>  <Rbt.Executable>
rbdock ($Id: //depot/dev/client3/rdock/2013.1/src/exe/rbdock.cxx#4 $)

>  <Rbt.Library>
libRbt.so (2013.1, Build901 2013/11/27)

>  <Rbt.Parameter_File>
/export/apps/rDock/src/rDock_2013.1_src/data/scripts/dock_solv.prm

>  <Rbt.Receptor>
prm/blind_docking_40.prm

>  <SCORE>
7.18492

>  <SCORE.INTER>
13.543

>  <SCORE.INTER.CONST>
1

>  <SCORE.INTER.POLAR>
0

>  <SCORE.INTER.ROT>
11

>  <SCORE.INTER.SOLV>
16.3555

>  <SCORE.INTER.VDW>
-7.35648

>  <SCORE.INTER.norm>
0.967359

>  <SCORE.INTRA>
-6.38574

>  <SCORE.INTRA.DIHEDRAL>
-15.839

>  <SCORE.INTRA.DIHEDRAL.0>
20.2131

>  <SCORE.INTRA.POLAR>
0

>  <SCORE.INTRA.POLAR.0>
0

>  <SCORE.INTRA.REPUL>
0

>  <SCORE.INTRA.REPUL.0>
0

>  <SCORE.INTRA.SOLV>
1.55616

>  <SCORE.INTRA.SOLV.lig_0>
-48.2851

>  <SCORE.INTRA.VDW>
0.755696

>  <SCORE.INTRA.VDW.0>
-1.08658

>  <SCORE.INTRA.norm>
-0.456124

>  <SCORE.RESTR>
0.0276346

>  <SCORE.RESTR.CAVITY>
0.0276346

>  <SCORE.RESTR.norm>
0.0019739

>  <SCORE.SYSTEM>
0

>  <SCORE.SYSTEM.CONST>
0

>  <SCORE.SYSTEM.DIHEDRAL>
0

>  <SCORE.SYSTEM.SOLV>
0

>  <SCORE.SYSTEM.norm>
0

>  <SCORE.heavy>
14

>  <SCORE.norm>
0.513208

>  <RMSD>
41.912

$$$$
ligand
 OpenBabel11021811393D
libRbt.so/2013.1/901 2013/11/27
 14 13  0  0  0  0  0  0  0  0999 V2000
   38.0595  -10.7567    2.4788 N   0  0  0  0  0  0  0  0  0  0  0  0
   38.4059   -9.4807    3.0854 C   0  0  0  0  0  0  0  0  0  0  0  0
   37.1351   -8.6018    3.2481 C   0  0  0  0  0  0  0  0  0  0  0  0
   35.9108   -9.2148    4.0167 C   0  0  0  0  0  0  0  0  0  0  0  0
   36.1880   -9.6518    5.4340 N   0  0  0  0  0  0  0  0  0  0  0  0
   36.8029   -8.5901    6.2826 C   0  0  0  0  0  0  0  0  0  0  0  0
   36.8786   -8.9449    7.7566 C   0  0  0  0  0  0  0  0  0  0  0  0
   35.5084   -9.1312    8.3827 C   0  0  0  0  0  0  0  0  0  0  0  0
   34.7678   -7.8610    8.2082 C   0  0  0  0  0  0  0  0  0  0  0  0
   35.5683   -6.6260    8.3873 N   0  0  0  0  0  0  0  0  0  0  0  0
   35.5896   -5.7509    7.1884 C   0  0  0  0  0  0  0  0  0  0  0  0
   36.3095   -4.3800    7.3589 C   0  0  0  0  0  0  0  0  0  0  0  0
   37.8241   -4.6396    7.4399 C   0  0  0  0  0  0  0  0  0  0  0  0
   38.5551   -3.3839    7.5893 N   0  0  0  0  0  0  0  0  0  0  0  0
  1  2  1  0  0  0  0
  2  3  1  0  0  0  0
  3  4  1  0  0  0  0
  4  5  1  0  0  0  0
  5  6  1  0  0  0  0
  6  7  1  0  0  0  0
  7  8  1  0  0  0  0
  8  9  1  0  0  0  0
  9 10  1  0  0  0  0
 10 11  1  0  0  0  0
 11 12  1  0  0  0  0
 12 13  1  0  0  0  0
 13 14  1  0  0  0  0
M  END
>  <CHROM.1>
54.16966658,58.49806187,53.24505794,170.68823914,-63.15243541,-58.98045279
-39.19627623,120.61001194,174.77841213,71.98765697,179.50918130,36.67868040
-7.64382793,6.20415487,-1.39879813,0.93679314,0.60873833

>  <Name>
ligand

>  <RI>
0

>  <Rbt.Current_Directory>
/home/itssahil/PROJECTS/Mol_Feturizer/New_Systems/rnas/1EVV

>  <Rbt.Executable>
rbdock ($Id: //depot/dev/client3/rdock/2013.1/src/exe/rbdock.cxx#4 $)

>  <Rbt.Library>
libRbt.so (2013.1, Build901 2013/11/27)

>  <Rbt.Parameter_File>
/export/apps/rDock/src/rDock_2013.1_src/data/scripts/dock_solv.prm

>  <Rbt.Receptor>
prm/blind_docking_40.prm

>  <SCORE>
8.15269

>  <SCORE.INTER>
12.2542

>  <SCORE.INTER.CONST>
1

>  <SCORE.INTER.POLAR>
0

>  <SCORE.INTER.ROT>
11

>  <SCORE.INTER.SOLV>
15.1773

>  <SCORE.INTER.VDW>
-7.82296

>  <SCORE.INTER.norm>
0.875301

>  <SCORE.INTRA>
-4.31671

>  <SCORE.INTRA.DIHEDRAL>
-16.6973

>  <SCORE.INTRA.DIHEDRAL.0>
20.2131

>  <SCORE.INTRA.POLAR>
0

>  <SCORE.INTRA.POLAR.0>
0

>  <SCORE.INTRA.REPUL>
0

>  <SCORE.INTRA.REPUL.0>
0

>  <SCORE.INTRA.SOLV>
2.60755

>  <SCORE.INTRA.SOLV.lig_0>
-48.2851

>  <SCORE.INTRA.VDW>
2.72819

>  <SCORE.INTRA.VDW.0>
-1.08658

>  <SCORE.INTRA.norm>
-0.308336

>  <SCORE.RESTR>
0.215186

>  <SCORE.RESTR.CAVITY>
0.215186

>  <SCORE.RESTR.norm>
0.0153704

>  <SCORE.SYSTEM>
0

>  <SCORE.SYSTEM.CONST>
0

>  <SCORE.SYSTEM.DIHEDRAL>
0

>  <SCORE.SYSTEM.SOLV>
0

>  <SCORE.SYSTEM.norm>
0

>  <SCORE.heavy>
14

>  <SCORE.norm>
0.582335

>  <RMSD>
41.952

$$$$
ligand
 OpenBabel11021811393D
libRbt.so/2013.1/901 2013/11/27
 14 13  0  0  0  0  0  0  0  0999 V2000
   38.5879   -2.9337    7.8198 N   0  0  0  0  0  0  0  0  0  0  0  0
   38.1538   -4.3197    7.7374 C   0  0  0  0  0  0  0  0  0  0  0  0
   37.0314   -4.4676    6.6733 C   0  0  0  0  0  0  0  0  0  0  0  0
   36.4612   -5.9051    6.4014 C   0  0  0  0  0  0  0  0  0  0  0  0
   35.7246   -6.5394    7.5554 N   0  0  0  0  0  0  0  0  0  0  0  0
   36.5843   -7.4000    8.4190 C   0  0  0  0  0  0  0  0  0  0  0  0
   36.8615   -8.7750    7.8387 C   0  0  0  0  0  0  0  0  0  0  0  0
   35.5903   -9.5287    7.4922 C   0  0  0  0  0  0  0  0  0  0  0  0
   35.1953   -9.1213    6.1246 C   0  0  0  0  0  0  0  0  0  0  0  0
   36.0978   -9.5732    5.0385 N   0  0  0  0  0  0  0  0  0  0  0  0
   36.4154   -8.5137    4.0485 C   0  0  0  0  0  0  0  0  0  0  0  0
   37.8847   -8.4832    3.5319 C   0  0  0  0  0  0  0  0  0  0  0  0
   38.1291   -9.7567    2.7035 C   0  0  0  0  0  0  0  0  0  0  0  0
   37.9973  -10.9480    3.5384 N   0  0  0  0  0  0  0  0  0  0  0  0
  1  2  1  0  0  0  0
  2  3  1  0  0  0  0
  3  4  1  0  0  0  0
  4  5  1  0  0  0  0
  5  6  1  0  0  0  0
  6  7  1  0  0  0  0
  7  8  1  0  0  0  0
  8  9  1  0  0  0  0
  9 10  1  0  0  0  0
 10 11  1  0  0  0  0
 11 12  1  0  0  0  0
 12 13  1  0  0  0  0
 13 14  1  0  0  0  0
M  END
>  <CHROM.1>
178.00368573,65.39010508,-93.12821077,-78.62020888,-54.94616991,86.14547335
68.25475915,-134.80657077,140.50139173,66.98665831,-63.19886218,36.90809551
-7.59041859,6.06593237,-1.47504581,-0.97159715,-2.46678383

>  <Name>
ligand

>  <RI>
0

>  <Rbt.Current_Directory>
/home/itssahil/PROJECTS/Mol_Feturizer/New_Systems/rnas/1EVV

>  <Rbt.Executable>
rbdock ($Id: //depot/dev/client3/rdock/2013.1/src/exe/rbdock.cxx#4 $)

>  <Rbt.Library>
libRbt.so (2013.1, Build901 2013/11/27)

>  <Rbt.Parameter_File>
/export/apps/rDock/src/rDock_2013.1_src/data/scripts/dock_solv.prm

>  <Rbt.Receptor>
prm/blind_docking_40.prm

>  <SCORE>
6.82298

>  <SCORE.INTER>
11.5528

>  <SCORE.INTER.CONST>
1

>  <SCORE.INTER.POLAR>
0

>  <SCORE.INTER.ROT>
11

>  <SCORE.INTER.SOLV>
11.897

>  <SCORE.INTER.VDW>
-7.19711

>  <SCORE.INTER.norm>
0.825203

>  <SCORE.INTRA>
-5.12125

>  <SCORE.INTRA.DIHEDRAL>
-14.1952

>  <SCORE.INTRA.DIHEDRAL.0>
20.2131

>  <SCORE.INTRA.POLAR>
0

>  <SCORE.INTRA.POLAR.0>
0

>  <SCORE.INTRA.REPUL>
0

>  <SCORE.INTRA.REPUL.0>
0

>  <SCORE.INTRA.SOLV>
4.0151

>  <SCORE.INTRA.SOLV.lig_0>
-48.2851

>  <SCORE.INTRA.VDW>
-0.0311881

>  <SCORE.INTRA.VDW.0>
-1.08658

>  <SCORE.INTRA.norm>
-0.365804

>  <SCORE.RESTR>
0.391394

>  <SCORE.RESTR.CAVITY>
0.391394

>  <SCORE.RESTR.norm>
0.0279567

>  <SCORE.SYSTEM>
0

>  <SCORE.SYSTEM.CONST>
0

>  <SCORE.SYSTEM.DIHEDRAL>
0

>  <SCORE.SYSTEM.SOLV>
0

>  <SCORE.SYSTEM.norm>
0

>  <SCORE.heavy>
14

>  <SCORE.norm>
0.487356

>  <RMSD>
41.968

$$$$
ligand
 OpenBabel11021811393D
libRbt.so/2013.1/901 2013/11/27
 14 13  0  0  0  0  0  0  0  0999 V2000
   38.2214   -8.1753    3.3690 N   0  0  0  0  0  0  0  0  0  0  0  0
   38.7402   -9.3831    2.7459 C   0  0  0  0  0  0  0  0  0  0  0  0
   38.0045  -10.6326    3.3036 C   0  0  0  0  0  0  0  0  0  0  0  0
   36.4350  -10.6423    3.2594 C   0  0  0  0  0  0  0  0  0  0  0  0
   35.7589   -9.5082    3.9896 N   0  0  0  0  0  0  0  0  0  0  0  0
   35.5178   -9.7817    5.4362 C   0  0  0  0  0  0  0  0  0  0  0  0
   36.3120   -8.8902    6.3735 C   0  0  0  0  0  0  0  0  0  0  0  0
   36.0489   -9.2005    7.8359 C   0  0  0  0  0  0  0  0  0  0  0  0
   36.6631   -8.1152    8.6341 C   0  0  0  0  0  0  0  0  0  0  0  0
   36.1375   -6.7540    8.3712 N   0  0  0  0  0  0  0  0  0  0  0  0
   37.1009   -5.8687    7.6697 C   0  0  0  0  0  0  0  0  0  0  0  0
   36.6174   -4.4120    7.4037 C   0  0  0  0  0  0  0  0  0  0  0  0
   37.8099   -3.6005    6.8676 C   0  0  0  0  0  0  0  0  0  0  0  0
   38.8476   -3.4738    7.8877 N   0  0  0  0  0  0  0  0  0  0  0  0
  1  2  1  0  0  0  0
  2  3  1  0  0  0  0
  3  4  1  0  0  0  0
  4  5  1  0  0  0  0
  5  6  1  0  0  0  0
  6  7  1  0  0  0  0
  7  8  1  0  0  0  0
  8  9  1  0  0  0  0
  9 10  1  0  0  0  0
 10 11  1  0  0  0  0
 11 12  1  0  0  0  0
 12 13  1  0  0  0  0
 13 14  1  0  0  0  0
M  END
>  <CHROM.1>
52.84644046,-58.26268975,-87.34518445,114.13023033,-179.67270698,-169.30299582
60.43269900,-109.71155712,-178.28717348,171.69869910,-65.48684586,37.01527685
-7.74589147,5.93909529,-1.65138166,0.96030059,0.73585681

>  <Name>
ligand

>  <RI>
0

>  <Rbt.Current_Directory>
/home/itssahil/PROJECTS/Mol_Feturizer/New_Systems/rnas/1EVV

>  <Rbt.Executable>
rbdock ($Id: //depot/dev/client3/rdock/2013.1/src/exe/rbdock.cxx#4 $)

>  <Rbt.Library>
libRbt.so (2013.1, Build901 2013/11/27)

>  <Rbt.Parameter_File>
/export/apps/rDock/src/rDock_2013.1_src/data/scripts/dock_solv.prm

>  <Rbt.Receptor>
prm/blind_docking_40.prm

>  <SCORE>
4.48378

>  <SCORE.INTER>
9.86681

>  <SCORE.INTER.CONST>
1

>  <SCORE.INTER.POLAR>
0

>  <SCORE.INTER.ROT>
11

>  <SCORE.INTER.SOLV>
11.9299

>  <SCORE.INTER.VDW>
-8.33211

>  <SCORE.INTER.norm>
0.704772

>  <SCORE.INTRA>
-6.33882

>  <SCORE.INTRA.DIHEDRAL>
-16.3658

>  <SCORE.INTRA.DIHEDRAL.0>
20.2131

>  <SCORE.INTRA.POLAR>
0

>  <SCORE.INTRA.POLAR.0>
0

>  <SCORE.INTRA.REPUL>
0

>  <SCORE.INTRA.REPUL.0>
0

>  <SCORE.INTRA.SOLV>
3.90425

>  <SCORE.INTRA.SOLV.lig_0>
-48.2851

>  <SCORE.INTRA.VDW>
-0.10806

>  <SCORE.INTRA.VDW.0>
-1.08658

>  <SCORE.INTRA.norm>
-0.452773

>  <SCORE.RESTR>
0.955794

>  <SCORE.RESTR.CAVITY>
0.955794

>  <SCORE.RESTR.norm>
0.068271

>  <SCORE.SYSTEM>
0

>  <SCORE.SYSTEM.CONST>
0

>  <SCORE.SYSTEM.DIHEDRAL>
0

>  <SCORE.SYSTEM.SOLV>
0

>  <SCORE.SYSTEM.norm>
0

>  <SCORE.heavy>
14

>  <SCORE.norm>
0.32027

>  <RMSD>
42.164

$$$$
ligand
 OpenBabel11021811393D
libRbt.so/2013.1/901 2013/11/27
 14 13  0  0  0  0  0  0  0  0999 V2000
   38.8429  -10.8429    3.5290 N   0  0  0  0  0  0  0  0  0  0  0  0
   38.2472   -9.6403    2.9676 C   0  0  0  0  0  0  0  0  0  0  0  0
   36.7173   -9.8364    2.7815 C   0  0  0  0  0  0  0  0  0  0  0  0
   35.8318   -9.9748    4.0708 C   0  0  0  0  0  0  0  0  0  0  0  0
   35.8050   -8.7648    4.9718 N   0  0  0  0  0  0  0  0  0  0  0  0
   35.1718   -9.0158    6.2991 C   0  0  0  0  0  0  0  0  0  0  0  0
   36.1646   -9.1741    7.4363 C   0  0  0  0  0  0  0  0  0  0  0  0
   37.0540   -7.9560    7.6078 C   0  0  0  0  0  0  0  0  0  0  0  0
   37.5953   -7.9959    8.9853 C   0  0  0  0  0  0  0  0  0  0  0  0
   36.6402   -7.6258   10.0572 N   0  0  0  0  0  0  0  0  0  0  0  0
   35.9000   -8.7825   10.6209 C   0  0  0  0  0  0  0  0  0  0  0  0
   34.3995   -8.5323   10.9565 C   0  0  0  0  0  0  0  0  0  0  0  0
   33.6116   -8.4944    9.6352 C   0  0  0  0  0  0  0  0  0  0  0  0
   34.0180   -7.3488    8.8253 N   0  0  0  0  0  0  0  0  0  0  0  0
  1  2  1  0  0  0  0
  2  3  1  0  0  0  0
  3  4  1  0  0  0  0
  4  5  1  0  0  0  0
  5  6  1  0  0  0  0
  6  7  1  0  0  0  0
  7  8  1  0  0  0  0
  8  9  1  0  0  0  0
  9 10  1  0  0  0  0
 10 11  1  0  0  0  0
 11 12  1  0  0  0  0
 12 13  1  0  0  0  0
 13 14  1  0  0  0  0
M  END
>  <CHROM.1>
67.27593862,63.47538105,-169.10080851,102.99718334,58.60677702,159.32918317
-74.96628807,91.34054702,-141.08213933,74.64316950,-65.28859609,36.14272403
-8.85613515,7.05324437,-1.25478117,-0.04660314,1.32413961

>  <Name>
ligand

>  <RI>
0

>  <Rbt.Current_Directory>
/home/itssahil/PROJECTS/Mol_Feturizer/New_Systems/rnas/1EVV

>  <Rbt.Executable>
rbdock ($Id: //depot/dev/client3/rdock/2013.1/src/exe/rbdock.cxx#4 $)

>  <Rbt.Library>
libRbt.so (2013.1, Build901 2013/11/27)

>  <Rbt.Parameter_File>
/export/apps/rDock/src/rDock_2013.1_src/data/scripts/dock_solv.prm

>  <Rbt.Receptor>
prm/blind_docking_40.prm

>  <SCORE>
10.7583

>  <SCORE.INTER>
14.0263

>  <SCORE.INTER.CONST>
1

>  <SCORE.INTER.POLAR>
0

>  <SCORE.INTER.ROT>
11

>  <SCORE.INTER.SOLV>
12.1729

>  <SCORE.INTER.VDW>
-5.64008

>  <SCORE.INTER.norm>
1.00188

>  <SCORE.INTRA>
-4.25937

>  <SCORE.INTRA.DIHEDRAL>
-14.0712

>  <SCORE.INTRA.DIHEDRAL.0>
20.2131

>  <SCORE.INTRA.POLAR>
0

>  <SCORE.INTRA.POLAR.0>
0

>  <SCORE.INTRA.REPUL>
0

>  <SCORE.INTRA.REPUL.0>
0

>  <SCORE.INTRA.SOLV>
6.79982

>  <SCORE.INTRA.SOLV.lig_0>
-48.2851

>  <SCORE.INTRA.VDW>
-0.623674

>  <SCORE.INTRA.VDW.0>
-1.08658

>  <SCORE.INTRA.norm>
-0.304241

>  <SCORE.RESTR>
0.99139

>  <SCORE.RESTR.CAVITY>
0.99139

>  <SCORE.RESTR.norm>
0.0708136

>  <SCORE.SYSTEM>
0

>  <SCORE.SYSTEM.CONST>
0

>  <SCORE.SYSTEM.DIHEDRAL>
0

>  <SCORE.SYSTEM.SOLV>
0

>  <SCORE.SYSTEM.norm>
0

>  <SCORE.heavy>
14

>  <SCORE.norm>
0.768452

>  <RMSD>
42.442

$$$$
ligand
 OpenBabel11021811393D
libRbt.so/2013.1/901 2013/11/27
 14 13  0  0  0  0  0  0  0  0999 V2000
   33.5241   -8.3282    8.5817 N   0  0  0  0  0  0  0  0  0  0  0  0
   33.4391   -8.0011    9.9966 C   0  0  0  0  0  0  0  0  0  0  0  0
   34.4406   -8.8681   10.8085 C   0  0  0  0  0  0  0  0  0  0  0  0
   35.9734   -8.5722   10.6402 C   0  0  0  0  0  0  0  0  0  0  0  0
   36.4876   -8.6020    9.2220 N   0  0  0  0  0  0  0  0  0  0  0  0
   37.1056   -7.3188    8.7780 C   0  0  0  0  0  0  0  0  0  0  0  0
   36.7169   -6.9008    7.3715 C   0  0  0  0  0  0  0  0  0  0  0  0
   37.0512   -7.9586    6.3354 C   0  0  0  0  0  0  0  0  0  0  0  0
   35.9651   -8.9644    6.3662 C   0  0  0  0  0  0  0  0  0  0  0  0
   36.1168  -10.0965    5.4208 N   0  0  0  0  0  0  0  0  0  0  0  0
   35.8192   -9.7392    4.0111 C   0  0  0  0  0  0  0  0  0  0  0  0
   36.9875   -9.0878    3.2127 C   0  0  0  0  0  0  0  0  0  0  0  0
   38.1047  -10.1345    3.0565 C   0  0  0  0  0  0  0  0  0  0  0  0
   39.2501   -9.5646    2.3516 N   0  0  0  0  0  0  0  0  0  0  0  0
  1  2  1  0  0  0  0
  2  3  1  0  0  0  0
  3  4  1  0  0  0  0
  4  5  1  0  0  0  0
  5  6  1  0  0  0  0
  6  7  1  0  0  0  0
  7  8  1  0  0  0  0
  8  9  1  0  0  0  0
  9 10  1  0  0  0  0
 10 11  1  0  0  0  0
 11 12  1  0  0  0  0
 12 13  1  0  0  0  0
 13 14  1  0  0  0  0
M  END
>  <CHROM.1>
70.23099245,-54.65075487,120.95037775,-137.27869090,-56.85660624,81.33014528
-179.57340037,-75.37007590,83.65723694,65.87573213,-178.10442651,36.21293419
-8.72387711,6.86825351,1.98917464,0.32134581,1.23458378

>  <Name>
ligand

>  <RI>
0

>  <Rbt.Current_Directory>
/home/itssahil/PROJECTS/Mol_Feturizer/New_Systems/rnas/1EVV

>  <Rbt.Executable>
rbdock ($Id: //depot/dev/client3/rdock/2013.1/src/exe/rbdock.cxx#4 $)

>  <Rbt.Library>
libRbt.so (2013.1, Build901 2013/11/27)

>  <Rbt.Parameter_File>
/export/apps/rDock/src/rDock_2013.1_src/data/scripts/dock_solv.prm

>  <Rbt.Receptor>
prm/blind_docking_40.prm

>  <SCORE>
8.26034

>  <SCORE.INTER>
12.134

>  <SCORE.INTER.CONST>
1

>  <SCORE.INTER.POLAR>
0

>  <SCORE.INTER.ROT>
11

>  <SCORE.INTER.SOLV>
9.73701

>  <SCORE.INTER.VDW>
-6.08969

>  <SCORE.INTER.norm>
0.866712

>  <SCORE.INTRA>
-4.88639

>  <SCORE.INTRA.DIHEDRAL>
-15.0612

>  <SCORE.INTRA.DIHEDRAL.0>
20.2131

>  <SCORE.INTRA.POLAR>
0

>  <SCORE.INTRA.POLAR.0>
0

>  <SCORE.INTRA.REPUL>
0

>  <SCORE.INTRA.REPUL.0>
0

>  <SCORE.INTRA.SOLV>
4.95456

>  <SCORE.INTRA.SOLV.lig_0>
-48.2851

>  <SCORE.INTRA.VDW>
0.16695

>  <SCORE.INTRA.VDW.0>
-1.08658

>  <SCORE.INTRA.norm>
-0.349028

>  <SCORE.RESTR>
1.01277

>  <SCORE.RESTR.CAVITY>
1.01277

>  <SCORE.RESTR.norm>
0.0723405

>  <SCORE.SYSTEM>
0

>  <SCORE.SYSTEM.CONST>
0

>  <SCORE.SYSTEM.DIHEDRAL>
0

>  <SCORE.SYSTEM.SOLV>
0

>  <SCORE.SYSTEM.norm>
0

>  <SCORE.heavy>
14

>  <SCORE.norm>
0.590024

>  <RMSD>
42.486

$$$$
ligand
 OpenBabel11021811393D
libRbt.so/2013.1/901 2013/11/27
 14 13  0  0  0  0  0  0  0  0999 V2000
   38.5939  -11.1494    2.8087 N   0  0  0  0  0  0  0  0  0  0  0  0
   40.0057  -10.9327    3.0845 C   0  0  0  0  0  0  0  0  0  0  0  0
   40.8662  -11.4085    1.8817 C   0  0  0  0  0  0  0  0  0  0  0  0
   40.7437  -10.6168    0.5314 C   0  0  0  0  0  0  0  0  0  0  0  0
   41.2426   -9.1932    0.5670 N   0  0  0  0  0  0  0  0  0  0  0  0
   41.3605   -8.5622   -0.7797 C   0  0  0  0  0  0  0  0  0  0  0  0
   42.0768   -7.2240   -0.7736 C   0  0  0  0  0  0  0  0  0  0  0  0
   42.2816   -6.6658   -2.1702 C   0  0  0  0  0  0  0  0  0  0  0  0
   43.0040   -5.3810   -2.0298 C   0  0  0  0  0  0  0  0  0  0  0  0
   42.2344   -4.2819   -1.3989 N   0  0  0  0  0  0  0  0  0  0  0  0
   42.9754   -2.9973   -1.3330 C   0  0  0  0  0  0  0  0  0  0  0  0
   42.1470   -1.7557   -0.8872 C   0  0  0  0  0  0  0  0  0  0  0  0
   41.6707   -1.9895    0.5573 C   0  0  0  0  0  0  0  0  0  0  0  0
   40.8002   -0.9016    0.9956 N   0  0  0  0  0  0  0  0  0  0  0  0
  1  2  1  0  0  0  0
  2  3  1  0  0  0  0
  3  4  1  0  0  0  0
  4  5  1  0  0  0  0
  5  6  1  0  0  0  0
  6  7  1  0  0  0  0
  7  8  1  0  0  0  0
  8  9  1  0  0  0  0
  9 10  1  0  0  0  0
 10 11  1  0  0  0  0
 11 12  1  0  0  0  0
 12 13  1  0  0  0  0
 13 14  1  0  0  0  0
M  END
>  <CHROM.1>
66.90723506,65.94705053,168.65371296,-170.24932148,175.21251898,-179.08141003
-68.41646683,-177.43397209,170.81556820,63.54117967,-175.63253823,41.42905272
-6.64722228,0.07500374,1.97737961,-1.01446372,-3.06938341

>  <Name>
ligand

>  <RI>
0

>  <Rbt.Current_Directory>
/home/itssahil/PROJECTS/Mol_Feturizer/New_Systems/rnas/1EVV

>  <Rbt.Executable>
rbdock ($Id: //depot/dev/client3/rdock/2013.1/src/exe/rbdock.cxx#4 $)

>  <Rbt.Library>
libRbt.so (2013.1, Build901 2013/11/27)

>  <Rbt.Parameter_File>
/export/apps/rDock/src/rDock_2013.1_src/data/scripts/dock_solv.prm

>  <Rbt.Receptor>
prm/blind_docking_60.prm

>  <SCORE>
-9.11127

>  <SCORE.INTER>
0.327468

>  <SCORE.INTER.CONST>
1

>  <SCORE.INTER.POLAR>
0

>  <SCORE.INTER.ROT>
11

>  <SCORE.INTER.SOLV>
12.9796

>  <SCORE.INTER.VDW>
-15.0415

>  <SCORE.INTER.norm>
0.0233906

>  <SCORE.INTRA>
-9.43874

>  <SCORE.INTRA.DIHEDRAL>
-19.1764

>  <SCORE.INTRA.DIHEDRAL.0>
20.2131

>  <SCORE.INTRA.POLAR>
0

>  <SCORE.INTRA.POLAR.0>
0

>  <SCORE.INTRA.REPUL>
0

>  <SCORE.INTRA.REPUL.0>
0

>  <SCORE.INTRA.SOLV>
0.636454

>  <SCORE.INTRA.SOLV.lig_0>
-48.2851

>  <SCORE.INTRA.VDW>
-0.168745

>  <SCORE.INTRA.VDW.0>
-1.08658

>  <SCORE.INTRA.norm>
-0.674196

>  <SCORE.RESTR>
0

>  <SCORE.RESTR.CAVITY>
0

>  <SCORE.RESTR.norm>
0

>  <SCORE.SYSTEM>
0

>  <SCORE.SYSTEM.CONST>
0

>  <SCORE.SYSTEM.DIHEDRAL>
0

>  <SCORE.SYSTEM.SOLV>
0

>  <SCORE.SYSTEM.norm>
0

>  <SCORE.heavy>
14

>  <SCORE.norm>
-0.650805

>  <RMSD>
45.627

$$$$
ligand
 OpenBabel11021811393D
libRbt.so/2013.1/901 2013/11/27
 14 13  0  0  0  0  0  0  0  0999 V2000
   42.4548   -1.3061   -3.3091 N   0  0  0  0  0  0  0  0  0  0  0  0
   43.2903   -1.0936   -2.1374 C   0  0  0  0  0  0  0  0  0  0  0  0
   42.7450   -1.9115   -0.9344 C   0  0  0  0  0  0  0  0  0  0  0  0
   42.7490   -3.4776   -1.0481 C   0  0  0  0  0  0  0  0  0  0  0  0
   41.7975   -4.0561   -2.0662 N   0  0  0  0  0  0  0  0  0  0  0  0
   42.3019   -5.2950   -2.7266 C   0  0  0  0  0  0  0  0  0  0  0  0
   42.1999   -6.5396   -1.8636 C   0  0  0  0  0  0  0  0  0  0  0  0
   40.7720   -6.8472   -1.4503 C   0  0  0  0  0  0  0  0  0  0  0  0
   40.7519   -8.2347   -0.9338 C   0  0  0  0  0  0  0  0  0  0  0  0
   41.5672   -8.4752    0.2809 N   0  0  0  0  0  0  0  0  0  0  0  0
   42.0308   -9.8786    0.4189 C   0  0  0  0  0  0  0  0  0  0  0  0
   40.9410  -10.9197    0.8130 C   0  0  0  0  0  0  0  0  0  0  0  0
   40.4833  -10.6154    2.2503 C   0  0  0  0  0  0  0  0  0  0  0  0
   39.7693   -9.3423    2.3052 N   0  0  0  0  0  0  0  0  0  0  0  0
  1  2  1  0  0  0  0
  2  3  1  0  0  0  0
  3  4  1  0  0  0  0
  4  5  1  0  0  0  0
  5  6  1  0  0  0  0
  6  7  1  0  0  0  0
  7  8  1  0  0  0  0
  8  9  1  0  0  0  0
  9 10  1  0  0  0  0
 10 11  1  0  0  0  0
 11 12  1  0  0  0  0
 12 13  1  0  0  0  0
 13 14  1  0  0  0  0
M  END
>  <CHROM.1>
63.95665681,-67.88281015,146.35488383,76.78673459,59.62813667,165.46970960
63.13379458,-153.73834120,-72.74440315,-67.32395233,67.42560403,41.70397692
-6.28538263,-0.74296775,-0.27313126,-1.34197896,-2.25662971

>  <Name>
ligand

>  <RI>
0

>  <Rbt.Current_Directory>
/home/itssahil/PROJECTS/Mol_Feturizer/New_Systems/rnas/1EVV

>  <Rbt.Executable>
rbdock ($Id: //depot/dev/client3/rdock/2013.1/src/exe/rbdock.cxx#4 $)

>  <Rbt.Library>
libRbt.so (2013.1, Build901 2013/11/27)

>  <Rbt.Parameter_File>
/export/apps/rDock/src/rDock_2013.1_src/data/scripts/dock_solv.prm

>  <Rbt.Receptor>
prm/blind_docking_80.prm

>  <SCORE>
-7.74772

>  <SCORE.INTER>
-2.21014

>  <SCORE.INTER.CONST>
1

>  <SCORE.INTER.POLAR>
0

>  <SCORE.INTER.ROT>
11

>  <SCORE.INTER.SOLV>
10.0673

>  <SCORE.INTER.VDW>
-15.7625

>  <SCORE.INTER.norm>
-0.157867

>  <SCORE.INTRA>
-5.53759

>  <SCORE.INTRA.DIHEDRAL>
-17.0915

>  <SCORE.INTRA.DIHEDRAL.0>
20.2131

>  <SCORE.INTRA.POLAR>
0

>  <SCORE.INTRA.POLAR.0>
0

>  <SCORE.INTRA.REPUL>
0

>  <SCORE.INTRA.REPUL.0>
0

>  <SCORE.INTRA.SOLV>
5.54193

>  <SCORE.INTRA.SOLV.lig_0>
-48.2851

>  <SCORE.INTRA.VDW>
0.23722

>  <SCORE.INTRA.VDW.0>
-1.08658

>  <SCORE.INTRA.norm>
-0.395542

>  <SCORE.RESTR>
0

>  <SCORE.RESTR.CAVITY>
0

>  <SCORE.RESTR.norm>
0

>  <SCORE.SYSTEM>
0

>  <SCORE.SYSTEM.CONST>
0

>  <SCORE.SYSTEM.DIHEDRAL>
0

>  <SCORE.SYSTEM.SOLV>
0

>  <SCORE.SYSTEM.norm>
0

>  <SCORE.heavy>
14

>  <SCORE.norm>
-0.553409

>  <RMSD>
46.009

$$$$
ligand
 OpenBabel11021811393D
libRbt.so/2013.1/901 2013/11/27
 14 13  0  0  0  0  0  0  0  0999 V2000
   39.4895  -12.5398    2.0745 N   0  0  0  0  0  0  0  0  0  0  0  0
   40.9183  -12.2925    2.1902 C   0  0  0  0  0  0  0  0  0  0  0  0
   41.4266  -11.4976    0.9559 C   0  0  0  0  0  0  0  0  0  0  0  0
   40.8000  -10.0841    0.6830 C   0  0  0  0  0  0  0  0  0  0  0  0
   41.4363   -9.2981   -0.4368 N   0  0  0  0  0  0  0  0  0  0  0  0
   40.7123   -8.0386   -0.7760 C   0  0  0  0  0  0  0  0  0  0  0  0
   41.4856   -7.1107   -1.6953 C   0  0  0  0  0  0  0  0  0  0  0  0
   40.7202   -5.8408   -2.0203 C   0  0  0  0  0  0  0  0  0  0  0  0
   41.5918   -5.0090   -2.8810 C   0  0  0  0  0  0  0  0  0  0  0  0
   42.7844   -4.4332   -2.2144 N   0  0  0  0  0  0  0  0  0  0  0  0
   42.5436   -3.0980   -1.6119 C   0  0  0  0  0  0  0  0  0  0  0  0
   41.9641   -3.0982   -0.1659 C   0  0  0  0  0  0  0  0  0  0  0  0
   41.6435   -1.6444    0.2233 C   0  0  0  0  0  0  0  0  0  0  0  0
   41.0006   -1.5913    1.5337 N   0  0  0  0  0  0  0  0  0  0  0  0
  1  2  1  0  0  0  0
  2  3  1  0  0  0  0
  3  4  1  0  0  0  0
  4  5  1  0  0  0  0
  5  6  1  0  0  0  0
  6  7  1  0  0  0  0
  7  8  1  0  0  0  0
  8  9  1  0  0  0  0
  9 10  1  0  0  0  0
 10 11  1  0  0  0  0
 11 12  1  0  0  0  0
 12 13  1  0  0  0  0
 13 14  1  0  0  0  0
M  END
>  <CHROM.1>
60.02289700,173.61122895,172.91005589,168.34041871,179.96742618,178.23642491
-69.26895213,-90.08467282,86.01040757,-173.97243029,175.67385312,41.32268159
-6.82681713,-0.29599908,2.17181929,-1.33601157,-2.77909013

>  <Name>
ligand

>  <RI>
0

>  <Rbt.Current_Directory>
/home/itssahil/PROJECTS/Mol_Feturizer/New_Systems/rnas/1EVV

>  <Rbt.Executable>
rbdock ($Id: //depot/dev/client3/rdock/2013.1/src/exe/rbdock.cxx#4 $)

>  <Rbt.Library>
libRbt.so (2013.1, Build901 2013/11/27)

>  <Rbt.Parameter_File>
/export/apps/rDock/src/rDock_2013.1_src/data/scripts/dock_solv.prm

>  <Rbt.Receptor>
prm/blind_docking_100.prm

>  <SCORE>
-10.3668

>  <SCORE.INTER>
-1.05592

>  <SCORE.INTER.CONST>
1

>  <SCORE.INTER.POLAR>
0

>  <SCORE.INTER.ROT>
11

>  <SCORE.INTER.SOLV>
12.7528

>  <SCORE.INTER.VDW>
-15.8882

>  <SCORE.INTER.norm>
-0.0754228

>  <SCORE.INTRA>
-9.31088

>  <SCORE.INTRA.DIHEDRAL>
-18.2941

>  <SCORE.INTRA.DIHEDRAL.0>
20.2131

>  <SCORE.INTRA.POLAR>
0

>  <SCORE.INTRA.POLAR.0>
0

>  <SCORE.INTRA.REPUL>
0

>  <SCORE.INTRA.REPUL.0>
0

>  <SCORE.INTRA.SOLV>
-0.354388

>  <SCORE.INTRA.SOLV.lig_0>
-48.2851

>  <SCORE.INTRA.VDW>
0.01336

>  <SCORE.INTRA.VDW.0>
-1.08658

>  <SCORE.INTRA.norm>
-0.665063

>  <SCORE.RESTR>
0

>  <SCORE.RESTR.CAVITY>
0

>  <SCORE.RESTR.norm>
0

>  <SCORE.SYSTEM>
0

>  <SCORE.SYSTEM.CONST>
0

>  <SCORE.SYSTEM.DIHEDRAL>
0

>  <SCORE.SYSTEM.SOLV>
0

>  <SCORE.SYSTEM.norm>
0

>  <SCORE.heavy>
14

>  <SCORE.norm>
-0.740486

>  <RMSD>
46.050

$$$$
ligand
 OpenBabel11021811393D
libRbt.so/2013.1/901 2013/11/27
 14 13  0  0  0  0  0  0  0  0999 V2000
   40.4270   -1.5943    0.3247 N   0  0  0  0  0  0  0  0  0  0  0  0
   41.7554   -1.8325   -0.2181 C   0  0  0  0  0  0  0  0  0  0  0  0
   41.7396   -3.0772   -1.1477 C   0  0  0  0  0  0  0  0  0  0  0  0
   43.0896   -3.5058   -1.8252 C   0  0  0  0  0  0  0  0  0  0  0  0
   43.0090   -4.7160   -2.7227 N   0  0  0  0  0  0  0  0  0  0  0  0
   43.7491   -5.9023   -2.2027 C   0  0  0  0  0  0  0  0  0  0  0  0
   42.9273   -6.7884   -1.2843 C   0  0  0  0  0  0  0  0  0  0  0  0
   41.7450   -7.4248   -1.9924 C   0  0  0  0  0  0  0  0  0  0  0  0
   40.9514   -8.1415   -0.9682 C   0  0  0  0  0  0  0  0  0  0  0  0
   41.6243   -9.3018   -0.3365 N   0  0  0  0  0  0  0  0  0  0  0  0
   40.7171  -10.1415    0.4854 C   0  0  0  0  0  0  0  0  0  0  0  0
   41.3587  -11.4052    1.1321 C   0  0  0  0  0  0  0  0  0  0  0  0
   40.2645  -12.1525    1.9145 C   0  0  0  0  0  0  0  0  0  0  0  0
   40.8282  -13.3003    2.6204 N   0  0  0  0  0  0  0  0  0  0  0  0
  1  2  1  0  0  0  0
  2  3  1  0  0  0  0
  3  4  1  0  0  0  0
  4  5  1  0  0  0  0
  5  6  1  0  0  0  0
  6  7  1  0  0  0  0
  7  8  1  0  0  0  0
  8  9  1  0  0  0  0
  9 10  1  0  0  0  0
 10 11  1  0  0  0  0
 11 12  1  0  0  0  0
 12 13  1  0  0  0  0
 13 14  1  0  0  0  0
M  END
>  <CHROM.1>
-179.54619599,-179.64176436,-112.76655093,88.15192229,63.84278883,-174.20146108
-65.87536883,-169.00683274,177.86343584,-178.93681171,-176.11111998,41.72769242
-7.09166611,-0.44450904,1.34340550,0.92788022,-0.10459709

>  <Name>
ligand

>  <RI>
0

>  <Rbt.Current_Directory>
/home/itssahil/PROJECTS/Mol_Feturizer/New_Systems/rnas/1EVV

>  <Rbt.Executable>
rbdock ($Id: //depot/dev/client3/rdock/2013.1/src/exe/rbdock.cxx#4 $)

>  <Rbt.Library>
libRbt.so (2013.1, Build901 2013/11/27)

>  <Rbt.Parameter_File>
/export/apps/rDock/src/rDock_2013.1_src/data/scripts/dock_solv.prm

>  <Rbt.Receptor>
prm/blind_docking_100.prm

>  <SCORE>
-11.6749

>  <SCORE.INTER>
-2.22862

>  <SCORE.INTER.CONST>
1

>  <SCORE.INTER.POLAR>
0

>  <SCORE.INTER.ROT>
11

>  <SCORE.INTER.SOLV>
10.2569

>  <SCORE.INTER.VDW>
-15.8381

>  <SCORE.INTER.norm>
-0.159187

>  <SCORE.INTRA>
-9.44629

>  <SCORE.INTRA.DIHEDRAL>
-18.0254

>  <SCORE.INTRA.DIHEDRAL.0>
20.2131

>  <SCORE.INTRA.POLAR>
0

>  <SCORE.INTRA.POLAR.0>
0

>  <SCORE.INTRA.REPUL>
0

>  <SCORE.INTRA.REPUL.0>
0

>  <SCORE.INTRA.SOLV>
-0.61235

>  <SCORE.INTRA.SOLV.lig_0>
-48.2851

>  <SCORE.INTRA.VDW>
-0.1274

>  <SCORE.INTRA.VDW.0>
-1.08658

>  <SCORE.INTRA.norm>
-0.674735

>  <SCORE.RESTR>
0

>  <SCORE.RESTR.CAVITY>
0

>  <SCORE.RESTR.norm>
0

>  <SCORE.SYSTEM>
0

>  <SCORE.SYSTEM.CONST>
0

>  <SCORE.SYSTEM.DIHEDRAL>
0

>  <SCORE.SYSTEM.SOLV>
0

>  <SCORE.SYSTEM.norm>
0

>  <SCORE.heavy>
14

>  <SCORE.norm>
-0.833922

>  <RMSD>
46.328

$$$$
ligand
 OpenBabel11021811393D
libRbt.so/2013.1/901 2013/11/27
 14 13  0  0  0  0  0  0  0  0999 V2000
   39.2147  -12.5204    2.8110 N   0  0  0  0  0  0  0  0  0  0  0  0
   39.9872  -11.3806    2.3419 C   0  0  0  0  0  0  0  0  0  0  0  0
   40.8970  -11.8013    1.1548 C   0  0  0  0  0  0  0  0  0  0  0  0
   41.8508  -10.7166    0.5393 C   0  0  0  0  0  0  0  0  0  0  0  0
   41.1698   -9.4755    0.0172 N   0  0  0  0  0  0  0  0  0  0  0  0
   41.9594   -8.7442   -1.0158 C   0  0  0  0  0  0  0  0  0  0  0  0
   41.4661   -7.3343   -1.2859 C   0  0  0  0  0  0  0  0  0  0  0  0
   42.3080   -6.6102   -2.3208 C   0  0  0  0  0  0  0  0  0  0  0  0
   41.8352   -5.2080   -2.3708 C   0  0  0  0  0  0  0  0  0  0  0  0
   42.1601   -4.3824   -1.1829 N   0  0  0  0  0  0  0  0  0  0  0  0
   41.6091   -3.0055   -1.2456 C   0  0  0  0  0  0  0  0  0  0  0  0
   42.6413   -1.8509   -1.0778 C   0  0  0  0  0  0  0  0  0  0  0  0
   43.4889   -1.7743   -2.3599 C   0  0  0  0  0  0  0  0  0  0  0  0
   42.6777   -1.3245   -3.4881 N   0  0  0  0  0  0  0  0  0  0  0  0
  1  2  1  0  0  0  0
  2  3  1  0  0  0  0
  3  4  1  0  0  0  0
  4  5  1  0  0  0  0
  5  6  1  0  0  0  0
  6  7  1  0  0  0  0
  7  8  1  0  0  0  0
  8  9  1  0  0  0  0
  9 10  1  0  0  0  0
 10 11  1  0  0  0  0
 11 12  1  0  0  0  0
 12 13  1  0  0  0  0
 13 14  1  0  0  0  0
M  END
>  <CHROM.1>
-177.88334545,-57.91038323,-156.60584285,-165.19353595,178.85779143,-173.12070486
70.53647554,-177.09568598,-124.69017236,72.32112552,67.99121949,41.66194624
-6.86632382,-0.67747856,2.07407969,-1.11082856,-3.07604369

>  <Name>
ligand

>  <RI>
0

>  <Rbt.Current_Directory>
/home/itssahil/PROJECTS/Mol_Feturizer/New_Systems/rnas/1EVV

>  <Rbt.Executable>
rbdock ($Id: //depot/dev/client3/rdock/2013.1/src/exe/rbdock.cxx#4 $)

>  <Rbt.Library>
libRbt.so (2013.1, Build901 2013/11/27)

>  <Rbt.Parameter_File>
/export/apps/rDock/src/rDock_2013.1_src/data/scripts/dock_solv.prm

>  <Rbt.Receptor>
prm/blind_docking_80.prm

>  <SCORE>
-10.5592

>  <SCORE.INTER>
-2.45322

>  <SCORE.INTER.CONST>
1

>  <SCORE.INTER.POLAR>
0

>  <SCORE.INTER.ROT>
11

>  <SCORE.INTER.SOLV>
10.1372

>  <SCORE.INTER.VDW>
-15.9479

>  <SCORE.INTER.norm>
-0.17523

>  <SCORE.INTRA>
-8.106

>  <SCORE.INTRA.DIHEDRAL>
-17.0192

>  <SCORE.INTRA.DIHEDRAL.0>
20.2131

>  <SCORE.INTRA.POLAR>
0

>  <SCORE.INTRA.POLAR.0>
0

>  <SCORE.INTRA.REPUL>
0

>  <SCORE.INTRA.REPUL.0>
0

>  <SCORE.INTRA.SOLV>
1.22773

>  <SCORE.INTRA.SOLV.lig_0>
-48.2851

>  <SCORE.INTRA.VDW>
-0.21028

>  <SCORE.INTRA.VDW.0>
-1.08658

>  <SCORE.INTRA.norm>
-0.579

>  <SCORE.RESTR>
0

>  <SCORE.RESTR.CAVITY>
0

>  <SCORE.RESTR.norm>
0

>  <SCORE.SYSTEM>
0

>  <SCORE.SYSTEM.CONST>
0

>  <SCORE.SYSTEM.DIHEDRAL>
0

>  <SCORE.SYSTEM.SOLV>
0

>  <SCORE.SYSTEM.norm>
0

>  <SCORE.heavy>
14

>  <SCORE.norm>
-0.75423

>  <RMSD>
46.352

$$$$
ligand
 OpenBabel11021811393D
libRbt.so/2013.1/901 2013/11/27
 14 13  0  0  0  0  0  0  0  0999 V2000
   41.3226   -1.5867   -0.1882 N   0  0  0  0  0  0  0  0  0  0  0  0
   42.5815   -2.1108   -0.6950 C   0  0  0  0  0  0  0  0  0  0  0  0
   42.5011   -2.3036   -2.2345 C   0  0  0  0  0  0  0  0  0  0  0  0
   43.7254   -2.9705   -2.9567 C   0  0  0  0  0  0  0  0  0  0  0  0
   44.1290   -4.3258   -2.4305 N   0  0  0  0  0  0  0  0  0  0  0  0
   43.0399   -5.3435   -2.4885 C   0  0  0  0  0  0  0  0  0  0  0  0
   43.4563   -6.7212   -2.0064 C   0  0  0  0  0  0  0  0  0  0  0  0
   42.3171   -7.7234   -2.0503 C   0  0  0  0  0  0  0  0  0  0  0  0
   42.8877   -9.0533   -1.7370 C   0  0  0  0  0  0  0  0  0  0  0  0
   43.3874   -9.2227   -0.3514 N   0  0  0  0  0  0  0  0  0  0  0  0
   42.3182   -9.5154    0.6359 C   0  0  0  0  0  0  0  0  0  0  0  0
   41.7163  -10.9512    0.5818 C   0  0  0  0  0  0  0  0  0  0  0  0
   40.8139  -11.1404    1.8139 C   0  0  0  0  0  0  0  0  0  0  0  0
   39.7283  -10.1633    1.8127 N   0  0  0  0  0  0  0  0  0  0  0  0
  1  2  1  0  0  0  0
  2  3  1  0  0  0  0
  3  4  1  0  0  0  0
  4  5  1  0  0  0  0
  5  6  1  0  0  0  0
  6  7  1  0  0  0  0
  7  8  1  0  0  0  0
  8  9  1  0  0  0  0
  9 10  1  0  0  0  0
 10 11  1  0  0  0  0
 11 12  1  0  0  0  0
 12 13  1  0  0  0  0
 13 14  1  0  0  0  0
M  END
>  <CHROM.1>
-175.21087689,55.74542534,58.20704972,177.92656632,178.74511655,172.47394193
67.29182171,80.78381881,73.59557579,170.45134873,60.36811781,42.42329559
-6.65240844,-0.87838499,1.30645670,0.87180658,-0.12355028

>  <Name>
ligand

>  <RI>
0

>  <Rbt.Current_Directory>
/home/itssahil/PROJECTS/Mol_Feturizer/New_Systems/rnas/1EVV

>  <Rbt.Executable>
rbdock ($Id: //depot/dev/client3/rdock/2013.1/src/exe/rbdock.cxx#4 $)

>  <Rbt.Library>
libRbt.so (2013.1, Build901 2013/11/27)

>  <Rbt.Parameter_File>
/export/apps/rDock/src/rDock_2013.1_src/data/scripts/dock_solv.prm

>  <Rbt.Receptor>
prm/blind_docking_80.prm

>  <SCORE>
-9.8521

>  <SCORE.INTER>
-1.52475

>  <SCORE.INTER.CONST>
1

>  <SCORE.INTER.POLAR>
0

>  <SCORE.INTER.ROT>
11

>  <SCORE.INTER.SOLV>
12.7597

>  <SCORE.INTER.VDW>
-16.2031

>  <SCORE.INTER.norm>
-0.108911

>  <SCORE.INTRA>
-8.32734

>  <SCORE.INTRA.DIHEDRAL>
-18.8076

>  <SCORE.INTRA.DIHEDRAL.0>
20.2131

>  <SCORE.INTRA.POLAR>
0

>  <SCORE.INTRA.POLAR.0>
0

>  <SCORE.INTRA.REPUL>
0

>  <SCORE.INTRA.REPUL.0>
0

>  <SCORE.INTRA.SOLV>
0.123199

>  <SCORE.INTRA.SOLV.lig_0>
-48.2851

>  <SCORE.INTRA.VDW>
1.01486

>  <SCORE.INTRA.VDW.0>
-1.08658

>  <SCORE.INTRA.norm>
-0.59481

>  <SCORE.RESTR>
0

>  <SCORE.RESTR.CAVITY>
0

>  <SCORE.RESTR.norm>
0

>  <SCORE.SYSTEM>
0

>  <SCORE.SYSTEM.CONST>
0

>  <SCORE.SYSTEM.DIHEDRAL>
0

>  <SCORE.SYSTEM.SOLV>
0

>  <SCORE.SYSTEM.norm>
0

>  <SCORE.heavy>
14

>  <SCORE.norm>
-0.703721

>  <RMSD>
46.373

$$$$
ligand
 OpenBabel11021811393D
libRbt.so/2013.1/901 2013/11/27
 14 13  0  0  0  0  0  0  0  0999 V2000
   40.7079  -12.7813    2.5712 N   0  0  0  0  0  0  0  0  0  0  0  0
   39.9081  -12.1889    1.5103 C   0  0  0  0  0  0  0  0  0  0  0  0
   40.4250  -10.7608    1.1828 C   0  0  0  0  0  0  0  0  0  0  0  0
   41.8594  -10.6234    0.5591 C   0  0  0  0  0  0  0  0  0  0  0  0
   42.3402   -9.2094    0.3444 N   0  0  0  0  0  0  0  0  0  0  0  0
   41.6567   -8.5045   -0.7787 C   0  0  0  0  0  0  0  0  0  0  0  0
   42.2855   -7.1723   -1.1449 C   0  0  0  0  0  0  0  0  0  0  0  0
   41.5667   -6.4837   -2.2909 C   0  0  0  0  0  0  0  0  0  0  0  0
   42.2828   -5.2165   -2.5623 C   0  0  0  0  0  0  0  0  0  0  0  0
   42.1484   -4.1716   -1.5191 N   0  0  0  0  0  0  0  0  0  0  0  0
   43.2373   -3.1629   -1.5426 C   0  0  0  0  0  0  0  0  0  0  0  0
   42.7926   -1.6863   -1.7634 C   0  0  0  0  0  0  0  0  0  0  0  0
   42.0932   -1.5948   -3.1311 C   0  0  0  0  0  0  0  0  0  0  0  0
   43.0270   -1.9083   -4.2096 N   0  0  0  0  0  0  0  0  0  0  0  0
  1  2  1  0  0  0  0
  2  3  1  0  0  0  0
  3  4  1  0  0  0  0
  4  5  1  0  0  0  0
  5  6  1  0  0  0  0
  6  7  1  0  0  0  0
  7  8  1  0  0  0  0
  8  9  1  0  0  0  0
  9 10  1  0  0  0  0
 10 11  1  0  0  0  0
 11 12  1  0  0  0  0
 12 13  1  0  0  0  0
 13 14  1  0  0  0  0
M  END
>  <CHROM.1>
65.91494792,-176.28057254,-72.26359100,-170.59527848,179.94413374,-179.17338150
-69.86389232,157.98946666,120.54902881,-60.92470999,-63.87532189,41.88069852
-6.81882109,-0.91256914,-2.37632943,-1.31935896,-1.21770509

>  <Name>
ligand

>  <RI>
0

>  <Rbt.Current_Directory>
/home/itssahil/PROJECTS/Mol_Feturizer/New_Systems/rnas/1EVV

>  <Rbt.Executable>
rbdock ($Id: //depot/dev/client3/rdock/2013.1/src/exe/rbdock.cxx#4 $)

>  <Rbt.Library>
libRbt.so (2013.1, Build901 2013/11/27)

>  <Rbt.Parameter_File>
/export/apps/rDock/src/rDock_2013.1_src/data/scripts/dock_solv.prm

>  <Rbt.Receptor>
prm/blind_docking_60.prm

>  <SCORE>
-9.4236

>  <SCORE.INTER>
-1.70281

>  <SCORE.INTER.CONST>
1

>  <SCORE.INTER.POLAR>
0

>  <SCORE.INTER.ROT>
11

>  <SCORE.INTER.SOLV>
9.3749

>  <SCORE.INTER.VDW>
-15.1935

>  <SCORE.INTER.norm>
-0.121629

>  <SCORE.INTRA>
-7.72079

>  <SCORE.INTRA.DIHEDRAL>
-17.8601

>  <SCORE.INTRA.DIHEDRAL.0>
20.2131

>  <SCORE.INTRA.POLAR>
0

>  <SCORE.INTRA.POLAR.0>
0

>  <SCORE.INTRA.REPUL>
0

>  <SCORE.INTRA.REPUL.0>
0

>  <SCORE.INTRA.SOLV>
2.1236

>  <SCORE.INTRA.SOLV.lig_0>
-48.2851

>  <SCORE.INTRA.VDW>
0.147465

>  <SCORE.INTRA.VDW.0>
-1.08658

>  <SCORE.INTRA.norm>
-0.551485

>  <SCORE.RESTR>
0

>  <SCORE.RESTR.CAVITY>
0

>  <SCORE.RESTR.norm>
0

>  <SCORE.SYSTEM>
0

>  <SCORE.SYSTEM.CONST>
0

>  <SCORE.SYSTEM.DIHEDRAL>
0

>  <SCORE.SYSTEM.SOLV>
0

>  <SCORE.SYSTEM.norm>
0

>  <SCORE.heavy>
14

>  <SCORE.norm>
-0.673115

>  <RMSD>
46.513

$$$$
ligand
 OpenBabel11021811393D
libRbt.so/2013.1/901 2013/11/27
 14 13  0  0  0  0  0  0  0  0999 V2000
   48.0450   -6.0081   -3.1726 N   0  0  0  0  0  0  0  0  0  0  0  0
   46.6589   -6.3948   -2.9595 C   0  0  0  0  0  0  0  0  0  0  0  0
   46.5814   -7.8708   -2.4809 C   0  0  0  0  0  0  0  0  0  0  0  0
   45.1601   -8.5200   -2.3269 C   0  0  0  0  0  0  0  0  0  0  0  0
   44.2184   -7.8042   -1.3903 N   0  0  0  0  0  0  0  0  0  0  0  0
   42.9190   -7.4239   -2.0167 C   0  0  0  0  0  0  0  0  0  0  0  0
   42.6980   -5.9256   -2.1183 C   0  0  0  0  0  0  0  0  0  0  0  0
   41.3920   -5.5742   -2.8075 C   0  0  0  0  0  0  0  0  0  0  0  0
   41.2600   -4.0998   -2.7763 C   0  0  0  0  0  0  0  0  0  0  0  0
   42.3257   -3.3487   -3.4822 N   0  0  0  0  0  0  0  0  0  0  0  0
   42.3453   -1.8993   -3.1617 C   0  0  0  0  0  0  0  0  0  0  0  0
   43.3093   -1.4684   -2.0164 C   0  0  0  0  0  0  0  0  0  0  0  0
   42.8376   -2.1385   -0.7139 C   0  0  0  0  0  0  0  0  0  0  0  0
   41.5309   -1.6236   -0.3131 N   0  0  0  0  0  0  0  0  0  0  0  0
  1  2  1  0  0  0  0
  2  3  1  0  0  0  0
  3  4  1  0  0  0  0
  4  5  1  0  0  0  0
  5  6  1  0  0  0  0
  6  7  1  0  0  0  0
  7  8  1  0  0  0  0
  8  9  1  0  0  0  0
  9 10  1  0  0  0  0
 10 11  1  0  0  0  0
 11 12  1  0  0  0  0
 12 13  1  0  0  0  0
 13 14  1  0  0  0  0
M  END
>  <CHROM.1>
-174.27655370,-57.42927219,124.53910469,-115.01566560,177.81032288,176.92491095
61.35523971,-166.19594182,94.14856007,-63.38075552,-65.79147334,43.66280814
-5.00725396,-2.26695555,-0.92602551,0.11571865,0.02662640

>  <Name>
ligand

>  <RI>
0

>  <Rbt.Current_Directory>
/home/itssahil/PROJECTS/Mol_Feturizer/New_Systems/rnas/1EVV

>  <Rbt.Executable>
rbdock ($Id: //depot/dev/client3/rdock/2013.1/src/exe/rbdock.cxx#4 $)

>  <Rbt.Library>
libRbt.so (2013.1, Build901 2013/11/27)

>  <Rbt.Parameter_File>
/export/apps/rDock/src/rDock_2013.1_src/data/scripts/dock_solv.prm

>  <Rbt.Receptor>
prm/blind_docking_80.prm

>  <SCORE>
-9.36208

>  <SCORE.INTER>
-1.83966

>  <SCORE.INTER.CONST>
1

>  <SCORE.INTER.POLAR>
0

>  <SCORE.INTER.ROT>
11

>  <SCORE.INTER.SOLV>
9.5716

>  <SCORE.INTER.VDW>
-15.3503

>  <SCORE.INTER.norm>
-0.131404

>  <SCORE.INTRA>
-7.52242

>  <SCORE.INTRA.DIHEDRAL>
-16.5893

>  <SCORE.INTRA.DIHEDRAL.0>
20.2131

>  <SCORE.INTRA.POLAR>
0

>  <SCORE.INTRA.POLAR.0>
0

>  <SCORE.INTRA.REPUL>
0

>  <SCORE.INTRA.REPUL.0>
0

>  <SCORE.INTRA.SOLV>
1.99285

>  <SCORE.INTRA.SOLV.lig_0>
-48.2851

>  <SCORE.INTRA.VDW>
-0.224184

>  <SCORE.INTRA.VDW.0>
-1.08658

>  <SCORE.INTRA.norm>
-0.537316

>  <SCORE.RESTR>
0

>  <SCORE.RESTR.CAVITY>
0

>  <SCORE.RESTR.norm>
0

>  <SCORE.SYSTEM>
0

>  <SCORE.SYSTEM.CONST>
0

>  <SCORE.SYSTEM.DIHEDRAL>
0

>  <SCORE.SYSTEM.SOLV>
0

>  <SCORE.SYSTEM.norm>
0

>  <SCORE.heavy>
14

>  <SCORE.norm>
-0.66872

>  <RMSD>
46.589

$$$$
ligand
 OpenBabel11021811393D
libRbt.so/2013.1/901 2013/11/27
 14 13  0  0  0  0  0  0  0  0999 V2000
   40.8543  -13.4296    2.6731 N   0  0  0  0  0  0  0  0  0  0  0  0
   40.2198  -12.5266    1.7254 C   0  0  0  0  0  0  0  0  0  0  0  0
   41.1289  -11.2931    1.4690 C   0  0  0  0  0  0  0  0  0  0  0  0
   40.5736  -10.1495    0.5474 C   0  0  0  0  0  0  0  0  0  0  0  0
   41.4896   -8.9652    0.3604 N   0  0  0  0  0  0  0  0  0  0  0  0
   40.9684   -7.9453   -0.5954 C   0  0  0  0  0  0  0  0  0  0  0  0
   41.5892   -8.0217   -1.9785 C   0  0  0  0  0  0  0  0  0  0  0  0
   43.0456   -7.5942   -1.9884 C   0  0  0  0  0  0  0  0  0  0  0  0
   43.0748   -6.1247   -1.8095 C   0  0  0  0  0  0  0  0  0  0  0  0
   42.4343   -5.3375   -2.8904 N   0  0  0  0  0  0  0  0  0  0  0  0
   42.2413   -3.9054   -2.5501 C   0  0  0  0  0  0  0  0  0  0  0  0
   43.5092   -3.0057   -2.6480 C   0  0  0  0  0  0  0  0  0  0  0  0
   43.1052   -1.5655   -2.2867 C   0  0  0  0  0  0  0  0  0  0  0  0
   42.6364   -1.4928   -0.9052 N   0  0  0  0  0  0  0  0  0  0  0  0
  1  2  1  0  0  0  0
  2  3  1  0  0  0  0
  3  4  1  0  0  0  0
  4  5  1  0  0  0  0
  5  6  1  0  0  0  0
  6  7  1  0  0  0  0
  7  8  1  0  0  0  0
  8  9  1  0  0  0  0
  9 10  1  0  0  0  0
 10 11  1  0  0  0  0
 11 12  1  0  0  0  0
 12 13  1  0  0  0  0
 13 14  1  0  0  0  0
M  END
>  <CHROM.1>
-175.82850188,178.72268726,175.96424090,-100.86231306,-69.55281689,-72.41289959
-63.22133368,168.37852176,77.77674719,178.95442264,63.10657528,41.91937591
-7.23974004,-0.77715645,2.35322251,-1.25787658,-2.78240511

>  <Name>
ligand

>  <RI>
0

>  <Rbt.Current_Directory>
/home/itssahil/PROJECTS/Mol_Feturizer/New_Systems/rnas/1EVV

>  <Rbt.Executable>
rbdock ($Id: //depot/dev/client3/rdock/2013.1/src/exe/rbdock.cxx#4 $)

>  <Rbt.Library>
libRbt.so (2013.1, Build901 2013/11/27)

>  <Rbt.Parameter_File>
/export/apps/rDock/src/rDock_2013.1_src/data/scripts/dock_solv.prm

>  <Rbt.Receptor>
prm/blind_docking_100.prm

>  <SCORE>
-10.4217

>  <SCORE.INTER>
-2.89199

>  <SCORE.INTER.CONST>
1

>  <SCORE.INTER.POLAR>
0

>  <SCORE.INTER.ROT>
11

>  <SCORE.INTER.SOLV>
13.2266

>  <SCORE.INTER.VDW>
-17.2702

>  <SCORE.INTER.norm>
-0.206571

>  <SCORE.INTRA>
-7.52968

>  <SCORE.INTRA.DIHEDRAL>
-17.8138

>  <SCORE.INTRA.DIHEDRAL.0>
20.2131

>  <SCORE.INTRA.POLAR>
0

>  <SCORE.INTRA.POLAR.0>
0

>  <SCORE.INTRA.REPUL>
0

>  <SCORE.INTRA.REPUL.0>
0

>  <SCORE.INTRA.SOLV>
0.615293

>  <SCORE.INTRA.SOLV.lig_0>
-48.2851

>  <SCORE.INTRA.VDW>
1.06957

>  <SCORE.INTRA.VDW.0>
-1.08658

>  <SCORE.INTRA.norm>
-0.537835

>  <SCORE.RESTR>
0

>  <SCORE.RESTR.CAVITY>
0

>  <SCORE.RESTR.norm>
0

>  <SCORE.SYSTEM>
0

>  <SCORE.SYSTEM.CONST>
0

>  <SCORE.SYSTEM.DIHEDRAL>
0

>  <SCORE.SYSTEM.SOLV>
0

>  <SCORE.SYSTEM.norm>
0

>  <SCORE.heavy>
14

>  <SCORE.norm>
-0.744405

>  <RMSD>
46.660

$$$$
ligand
 OpenBabel11021811393D
libRbt.so/2013.1/901 2013/11/27
 14 13  0  0  0  0  0  0  0  0999 V2000
   41.0291   -8.9197    1.4107 N   0  0  0  0  0  0  0  0  0  0  0  0
   40.8427  -10.1072    0.5914 C   0  0  0  0  0  0  0  0  0  0  0  0
   42.1849  -10.8766    0.4492 C   0  0  0  0  0  0  0  0  0  0  0  0
   43.3781  -10.1474   -0.2649 C   0  0  0  0  0  0  0  0  0  0  0  0
   43.1580   -9.8166   -1.7205 N   0  0  0  0  0  0  0  0  0  0  0  0
   42.6481   -8.4342   -1.9538 C   0  0  0  0  0  0  0  0  0  0  0  0
   43.7382   -7.3821   -2.0480 C   0  0  0  0  0  0  0  0  0  0  0  0
   43.1946   -6.0088   -2.3980 C   0  0  0  0  0  0  0  0  0  0  0  0
   44.3443   -5.0767   -2.4377 C   0  0  0  0  0  0  0  0  0  0  0  0
   44.0395   -3.7078   -2.9189 N   0  0  0  0  0  0  0  0  0  0  0  0
   43.2837   -2.8868   -1.9399 C   0  0  0  0  0  0  0  0  0  0  0  0
   43.0988   -1.3849   -2.3100 C   0  0  0  0  0  0  0  0  0  0  0  0
   42.2889   -1.3083   -3.6162 C   0  0  0  0  0  0  0  0  0  0  0  0
   40.9494   -1.8583   -3.4252 N   0  0  0  0  0  0  0  0  0  0  0  0
  1  2  1  0  0  0  0
  2  3  1  0  0  0  0
  3  4  1  0  0  0  0
  4  5  1  0  0  0  0
  5  6  1  0  0  0  0
  6  7  1  0  0  0  0
  7  8  1  0  0  0  0
  8  9  1  0  0  0  0
  9 10  1  0  0  0  0
 10 11  1  0  0  0  0
 11 12  1  0  0  0  0
 12 13  1  0  0  0  0
 13 14  1  0  0  0  0
M  END
>  <CHROM.1>
-62.57918592,-64.18627165,94.73781443,86.07770643,175.30630797,179.11299994
173.19223183,73.30257796,172.20389838,62.04063104,63.58586972,42.72719344
-6.27975747,-1.61296335,1.64973018,-0.57513663,2.82916675

>  <Name>
ligand

>  <RI>
0

>  <Rbt.Current_Directory>
/home/itssahil/PROJECTS/Mol_Feturizer/New_Systems/rnas/1EVV

>  <Rbt.Executable>
rbdock ($Id: //depot/dev/client3/rdock/2013.1/src/exe/rbdock.cxx#4 $)

>  <Rbt.Library>
libRbt.so (2013.1, Build901 2013/11/27)

>  <Rbt.Parameter_File>
/export/apps/rDock/src/rDock_2013.1_src/data/scripts/dock_solv.prm

>  <Rbt.Receptor>
prm/blind_docking_60.prm

>  <SCORE>
-10.9325

>  <SCORE.INTER>
-3.34482

>  <SCORE.INTER.CONST>
1

>  <SCORE.INTER.POLAR>
0

>  <SCORE.INTER.ROT>
11

>  <SCORE.INTER.SOLV>
11.3017

>  <SCORE.INTER.VDW>
-16.9304

>  <SCORE.INTER.norm>
-0.238916

>  <SCORE.INTRA>
-7.58764

>  <SCORE.INTRA.DIHEDRAL>
-18.384

>  <SCORE.INTRA.DIHEDRAL.0>
20.2131

>  <SCORE.INTRA.POLAR>
0

>  <SCORE.INTRA.POLAR.0>
0

>  <SCORE.INTRA.REPUL>
0

>  <SCORE.INTRA.REPUL.0>
0

>  <SCORE.INTRA.SOLV>
2.64615

>  <SCORE.INTRA.SOLV.lig_0>
-48.2851

>  <SCORE.INTRA.VDW>
0.281284

>  <SCORE.INTRA.VDW.0>
-1.08658

>  <SCORE.INTRA.norm>
-0.541974

>  <SCORE.RESTR>
0

>  <SCORE.RESTR.CAVITY>
0

>  <SCORE.RESTR.norm>
0

>  <SCORE.SYSTEM>
0

>  <SCORE.SYSTEM.CONST>
0

>  <SCORE.SYSTEM.DIHEDRAL>
0

>  <SCORE.SYSTEM.SOLV>
0

>  <SCORE.SYSTEM.norm>
0

>  <SCORE.heavy>
14

>  <SCORE.norm>
-0.78089

>  <RMSD>
46.730

$$$$
ligand
 OpenBabel11021811393D
libRbt.so/2013.1/901 2013/11/27
 14 13  0  0  0  0  0  0  0  0999 V2000
   42.0135   -3.0157   -0.7582 N   0  0  0  0  0  0  0  0  0  0  0  0
   41.8975   -1.9995   -1.7925 C   0  0  0  0  0  0  0  0  0  0  0  0
   43.2927   -1.6956   -2.4046 C   0  0  0  0  0  0  0  0  0  0  0  0
   43.9983   -2.8323   -3.2265 C   0  0  0  0  0  0  0  0  0  0  0  0
   44.2874   -4.1008   -2.4624 N   0  0  0  0  0  0  0  0  0  0  0  0
   45.4431   -4.8770   -2.9984 C   0  0  0  0  0  0  0  0  0  0  0  0
   45.7191   -6.1687   -2.2504 C   0  0  0  0  0  0  0  0  0  0  0  0
   44.5758   -7.1613   -2.3593 C   0  0  0  0  0  0  0  0  0  0  0  0
   44.9469   -8.3505   -1.5590 C   0  0  0  0  0  0  0  0  0  0  0  0
   44.0094   -9.4958   -1.6458 N   0  0  0  0  0  0  0  0  0  0  0  0
   42.7996   -9.3407   -0.7997 C   0  0  0  0  0  0  0  0  0  0  0  0
   42.4708  -10.5360    0.1435 C   0  0  0  0  0  0  0  0  0  0  0  0
   41.1230  -10.2503    0.8290 C   0  0  0  0  0  0  0  0  0  0  0  0
   40.8130  -11.2879    1.8092 N   0  0  0  0  0  0  0  0  0  0  0  0
  1  2  1  0  0  0  0
  2  3  1  0  0  0  0
  3  4  1  0  0  0  0
  4  5  1  0  0  0  0
  5  6  1  0  0  0  0
  6  7  1  0  0  0  0
  7  8  1  0  0  0  0
  8  9  1  0  0  0  0
  9 10  1  0  0  0  0
 10 11  1  0  0  0  0
 11 12  1  0  0  0  0
 12 13  1  0  0  0  0
 13 14  1  0  0  0  0
M  END
>  <CHROM.1>
66.47860833,-60.49045461,-153.50723234,-178.78103050,63.70462309,-178.24297550
-174.29342604,-79.34936386,-128.72771309,-174.57785368,-175.42380370,43.38526003
-6.50781476,-1.39132790,1.36499441,0.56976654,-0.23008982

>  <Name>
ligand

>  <RI>
0

>  <Rbt.Current_Directory>
/home/itssahil/PROJECTS/Mol_Feturizer/New_Systems/rnas/1EVV

>  <Rbt.Executable>
rbdock ($Id: //depot/dev/client3/rdock/2013.1/src/exe/rbdock.cxx#4 $)

>  <Rbt.Library>
libRbt.so (2013.1, Build901 2013/11/27)

>  <Rbt.Parameter_File>
/export/apps/rDock/src/rDock_2013.1_src/data/scripts/dock_solv.prm

>  <Rbt.Receptor>
prm/blind_docking_80.prm

>  <SCORE>
-11.4089

>  <SCORE.INTER>
-3.12556

>  <SCORE.INTER.CONST>
1

>  <SCORE.INTER.POLAR>
0

>  <SCORE.INTER.ROT>
11

>  <SCORE.INTER.SOLV>
11.8419

>  <SCORE.INTER.VDW>
-16.9643

>  <SCORE.INTER.norm>
-0.223254

>  <SCORE.INTRA>
-8.28334

>  <SCORE.INTRA.DIHEDRAL>
-17.7661

>  <SCORE.INTRA.DIHEDRAL.0>
20.2131

>  <SCORE.INTRA.POLAR>
0

>  <SCORE.INTRA.POLAR.0>
0

>  <SCORE.INTRA.REPUL>
0

>  <SCORE.INTRA.REPUL.0>
0

>  <SCORE.INTRA.SOLV>
1.42671

>  <SCORE.INTRA.SOLV.lig_0>
-48.2851

>  <SCORE.INTRA.VDW>
-0.113669

>  <SCORE.INTRA.VDW.0>
-1.08658

>  <SCORE.INTRA.norm>
-0.591667

>  <SCORE.RESTR>
0

>  <SCORE.RESTR.CAVITY>
0

>  <SCORE.RESTR.norm>
0

>  <SCORE.SYSTEM>
0

>  <SCORE.SYSTEM.CONST>
0

>  <SCORE.SYSTEM.DIHEDRAL>
0

>  <SCORE.SYSTEM.SOLV>
0

>  <SCORE.SYSTEM.norm>
0

>  <SCORE.heavy>
14

>  <SCORE.norm>
-0.814922

>  <RMSD>
46.739

$$$$
ligand
 OpenBabel11021811393D
libRbt.so/2013.1/901 2013/11/27
 14 13  0  0  0  0  0  0  0  0999 V2000
   43.1857   -1.0762   -2.2381 N   0  0  0  0  0  0  0  0  0  0  0  0
   42.7841   -2.3396   -2.8370 C   0  0  0  0  0  0  0  0  0  0  0  0
   43.2618   -3.5266   -1.9558 C   0  0  0  0  0  0  0  0  0  0  0  0
   42.9330   -4.9826   -2.4429 C   0  0  0  0  0  0  0  0  0  0  0  0
   43.4395   -6.0929   -1.5557 N   0  0  0  0  0  0  0  0  0  0  0  0
   43.7918   -7.3407   -2.2936 C   0  0  0  0  0  0  0  0  0  0  0  0
   44.6340   -8.3155   -1.4908 C   0  0  0  0  0  0  0  0  0  0  0  0
   43.8738   -8.9195   -0.3240 C   0  0  0  0  0  0  0  0  0  0  0  0
   43.0017   -9.9842   -0.8701 C   0  0  0  0  0  0  0  0  0  0  0  0
   42.2030  -10.7308    0.1314 N   0  0  0  0  0  0  0  0  0  0  0  0
   40.9261  -10.0647    0.4913 C   0  0  0  0  0  0  0  0  0  0  0  0
   40.2192  -10.5959    1.7738 C   0  0  0  0  0  0  0  0  0  0  0  0
   39.9038  -12.0876    1.5655 C   0  0  0  0  0  0  0  0  0  0  0  0
   39.1686  -12.6235    2.7083 N   0  0  0  0  0  0  0  0  0  0  0  0
  1  2  1  0  0  0  0
  2  3  1  0  0  0  0
  3  4  1  0  0  0  0
  4  5  1  0  0  0  0
  5  6  1  0  0  0  0
  6  7  1  0  0  0  0
  7  8  1  0  0  0  0
  8  9  1  0  0  0  0
  9 10  1  0  0  0  0
 10 11  1  0  0  0  0
 11 12  1  0  0  0  0
 12 13  1  0  0  0  0
 13 14  1  0  0  0  0
M  END
>  <CHROM.1>
-179.51297608,179.16095132,-148.73160989,164.56656268,67.56593374,78.59379230
178.06392075,84.57354524,-165.29814501,-59.95251805,-176.71122057,42.38059498
-7.76293503,-0.66714435,1.22820482,0.53305852,-0.24925134

>  <Name>
ligand

>  <RI>
0

>  <Rbt.Current_Directory>
/home/itssahil/PROJECTS/Mol_Feturizer/New_Systems/rnas/1EVV

>  <Rbt.Executable>
rbdock ($Id: //depot/dev/client3/rdock/2013.1/src/exe/rbdock.cxx#4 $)

>  <Rbt.Library>
libRbt.so (2013.1, Build901 2013/11/27)

>  <Rbt.Parameter_File>
/export/apps/rDock/src/rDock_2013.1_src/data/scripts/dock_solv.prm

>  <Rbt.Receptor>
prm/blind_docking_60.prm

>  <SCORE>
-8.73518

>  <SCORE.INTER>
-0.445415

>  <SCORE.INTER.CONST>
1

>  <SCORE.INTER.POLAR>
0

>  <SCORE.INTER.ROT>
11

>  <SCORE.INTER.SOLV>
14.4609

>  <SCORE.INTER.VDW>
-16.0506

>  <SCORE.INTER.norm>
-0.0318154

>  <SCORE.INTRA>
-8.28977

>  <SCORE.INTRA.DIHEDRAL>
-17.1754

>  <SCORE.INTRA.DIHEDRAL.0>
20.2131

>  <SCORE.INTRA.POLAR>
0

>  <SCORE.INTRA.POLAR.0>
0

>  <SCORE.INTRA.REPUL>
0

>  <SCORE.INTRA.REPUL.0>
0

>  <SCORE.INTRA.SOLV>
-0.448954

>  <SCORE.INTRA.SOLV.lig_0>
-48.2851

>  <SCORE.INTRA.VDW>
0.52239

>  <SCORE.INTRA.VDW.0>
-1.08658

>  <SCORE.INTRA.norm>
-0.592126

>  <SCORE.RESTR>
0

>  <SCORE.RESTR.CAVITY>
0

>  <SCORE.RESTR.norm>
0

>  <SCORE.SYSTEM>
0

>  <SCORE.SYSTEM.CONST>
0

>  <SCORE.SYSTEM.DIHEDRAL>
0

>  <SCORE.SYSTEM.SOLV>
0

>  <SCORE.SYSTEM.norm>
0

>  <SCORE.heavy>
14

>  <SCORE.norm>
-0.623942

>  <RMSD>
46.880

$$$$
ligand
 OpenBabel11021811393D
libRbt.so/2013.1/901 2013/11/27
 14 13  0  0  0  0  0  0  0  0999 V2000
   38.5400  -13.3654    3.1374 N   0  0  0  0  0  0  0  0  0  0  0  0
   39.2320  -12.7568    2.0117 C   0  0  0  0  0  0  0  0  0  0  0  0
   40.7688  -12.8157    2.2316 C   0  0  0  0  0  0  0  0  0  0  0  0
   41.6926  -12.1602    1.1443 C   0  0  0  0  0  0  0  0  0  0  0  0
   41.5028  -10.6772    0.9408 N   0  0  0  0  0  0  0  0  0  0  0  0
   42.3701  -10.0996   -0.1267 C   0  0  0  0  0  0  0  0  0  0  0  0
   41.9004   -8.7509   -0.6408 C   0  0  0  0  0  0  0  0  0  0  0  0
   42.7028   -8.2711   -1.8367 C   0  0  0  0  0  0  0  0  0  0  0  0
   42.1312   -6.9720   -2.2584 C   0  0  0  0  0  0  0  0  0  0  0  0
   42.4394   -5.8222   -1.3744 N   0  0  0  0  0  0  0  0  0  0  0  0
   42.6150   -4.5409   -2.1031 C   0  0  0  0  0  0  0  0  0  0  0  0
   42.9783   -3.3044   -1.2280 C   0  0  0  0  0  0  0  0  0  0  0  0
   43.1611   -2.0935   -2.1599 C   0  0  0  0  0  0  0  0  0  0  0  0
   41.8991   -1.7469   -2.8084 N   0  0  0  0  0  0  0  0  0  0  0  0
  1  2  1  0  0  0  0
  2  3  1  0  0  0  0
  3  4  1  0  0  0  0
  4  5  1  0  0  0  0
  5  6  1  0  0  0  0
  6  7  1  0  0  0  0
  7  8  1  0  0  0  0
  8  9  1  0  0  0  0
  9 10  1  0  0  0  0
 10 11  1  0  0  0  0
 11 12  1  0  0  0  0
 12 13  1  0  0  0  0
 13 14  1  0  0  0  0
M  END
>  <CHROM.1>
-177.85653470,61.39978330,-178.33766116,161.74224648,-173.03139454,178.72669866
73.63434840,145.18228453,-178.43125533,178.21920407,65.21035639,41.70979731
-8.09841914,-0.36232356,1.87594235,-0.67726654,2.91785135

>  <Name>
ligand

>  <RI>
0

>  <Rbt.Current_Directory>
/home/itssahil/PROJECTS/Mol_Feturizer/New_Systems/rnas/1EVV

>  <Rbt.Executable>
rbdock ($Id: //depot/dev/client3/rdock/2013.1/src/exe/rbdock.cxx#4 $)

>  <Rbt.Library>
libRbt.so (2013.1, Build901 2013/11/27)

>  <Rbt.Parameter_File>
/export/apps/rDock/src/rDock_2013.1_src/data/scripts/dock_solv.prm

>  <Rbt.Receptor>
prm/blind_docking_80.prm

>  <SCORE>
-11.6921

>  <SCORE.INTER>
-2.55742

>  <SCORE.INTER.CONST>
1

>  <SCORE.INTER.POLAR>
0

>  <SCORE.INTER.ROT>
11

>  <SCORE.INTER.SOLV>
8.81603

>  <SCORE.INTER.VDW>
-15.577

>  <SCORE.INTER.norm>
-0.182673

>  <SCORE.INTRA>
-9.13466

>  <SCORE.INTRA.DIHEDRAL>
-18.2039

>  <SCORE.INTRA.DIHEDRAL.0>
20.2131

>  <SCORE.INTRA.POLAR>
0

>  <SCORE.INTRA.POLAR.0>
0

>  <SCORE.INTRA.REPUL>
0

>  <SCORE.INTRA.REPUL.0>
0

>  <SCORE.INTRA.SOLV>
0.00502483

>  <SCORE.INTRA.SOLV.lig_0>
-48.2851

>  <SCORE.INTRA.VDW>
-0.035218

>  <SCORE.INTRA.VDW.0>
-1.08658

>  <SCORE.INTRA.norm>
-0.652476

>  <SCORE.RESTR>
0

>  <SCORE.RESTR.CAVITY>
0

>  <SCORE.RESTR.norm>
0

>  <SCORE.SYSTEM>
0

>  <SCORE.SYSTEM.CONST>
0

>  <SCORE.SYSTEM.DIHEDRAL>
0

>  <SCORE.SYSTEM.SOLV>
0

>  <SCORE.SYSTEM.norm>
0

>  <SCORE.heavy>
14

>  <SCORE.norm>
-0.835149

>  <RMSD>
46.887

$$$$
ligand
 OpenBabel11021811393D
libRbt.so/2013.1/901 2013/11/27
 14 13  0  0  0  0  0  0  0  0999 V2000
   40.5287   -8.5104    2.9578 N   0  0  0  0  0  0  0  0  0  0  0  0
   40.8296   -9.9233    3.1292 C   0  0  0  0  0  0  0  0  0  0  0  0
   40.1034  -10.7619    2.0415 C   0  0  0  0  0  0  0  0  0  0  0  0
   40.6004  -10.6299    0.5580 C   0  0  0  0  0  0  0  0  0  0  0  0
   41.9230  -11.2905    0.2562 N   0  0  0  0  0  0  0  0  0  0  0  0
   43.0474  -10.3287    0.0660 C   0  0  0  0  0  0  0  0  0  0  0  0
   42.8362   -9.3503   -1.0751 C   0  0  0  0  0  0  0  0  0  0  0  0
   43.9490   -8.3228   -1.1757 C   0  0  0  0  0  0  0  0  0  0  0  0
   43.4836   -7.2574   -2.0926 C   0  0  0  0  0  0  0  0  0  0  0  0
   42.2849   -6.5087   -1.6444 N   0  0  0  0  0  0  0  0  0  0  0  0
   41.5836   -5.7953   -2.7412 C   0  0  0  0  0  0  0  0  0  0  0  0
   40.4842   -4.7832   -2.3012 C   0  0  0  0  0  0  0  0  0  0  0  0
   39.4005   -5.5566   -1.5295 C   0  0  0  0  0  0  0  0  0  0  0  0
   38.3473   -4.6526   -1.0747 N   0  0  0  0  0  0  0  0  0  0  0  0
  1  2  1  0  0  0  0
  2  3  1  0  0  0  0
  3  4  1  0  0  0  0
  4  5  1  0  0  0  0
  5  6  1  0  0  0  0
  6  7  1  0  0  0  0
  7  8  1  0  0  0  0
  8  9  1  0  0  0  0
  9 10  1  0  0  0  0
 10 11  1  0  0  0  0
 11 12  1  0  0  0  0
 12 13  1  0  0  0  0
 13 14  1  0  0  0  0
M  END
>  <CHROM.1>
69.59978554,72.91024719,-106.86853347,-59.99261322,175.76265137,-166.96695062
62.42256813,-160.44347706,-168.99056257,-60.88961541,179.25274796,41.38610318
-8.11957044,-0.33058554,1.43903031,-0.57796490,2.45658336

>  <Name>
ligand

>  <RI>
0

>  <Rbt.Current_Directory>
/home/itssahil/PROJECTS/Mol_Feturizer/New_Systems/rnas/1EVV

>  <Rbt.Executable>
rbdock ($Id: //depot/dev/client3/rdock/2013.1/src/exe/rbdock.cxx#4 $)

>  <Rbt.Library>
libRbt.so (2013.1, Build901 2013/11/27)

>  <Rbt.Parameter_File>
/export/apps/rDock/src/rDock_2013.1_src/data/scripts/dock_solv.prm

>  <Rbt.Receptor>
prm/blind_docking_80.prm

>  <SCORE>
-7.31514

>  <SCORE.INTER>
0.444998

>  <SCORE.INTER.CONST>
1

>  <SCORE.INTER.POLAR>
0

>  <SCORE.INTER.ROT>
11

>  <SCORE.INTER.SOLV>
12.628

>  <SCORE.INTER.VDW>
-14.846

>  <SCORE.INTER.norm>
0.0317856

>  <SCORE.INTRA>
-7.76014

>  <SCORE.INTRA.DIHEDRAL>
-17.036

>  <SCORE.INTRA.DIHEDRAL.0>
20.2131

>  <SCORE.INTRA.POLAR>
0

>  <SCORE.INTRA.POLAR.0>
0

>  <SCORE.INTRA.REPUL>
0

>  <SCORE.INTRA.REPUL.0>
0

>  <SCORE.INTRA.SOLV>
0.888007

>  <SCORE.INTRA.SOLV.lig_0>
-48.2851

>  <SCORE.INTRA.VDW>
0.313844

>  <SCORE.INTRA.VDW.0>
-1.08658

>  <SCORE.INTRA.norm>
-0.554295

>  <SCORE.RESTR>
0

>  <SCORE.RESTR.CAVITY>
0

>  <SCORE.RESTR.norm>
0

>  <SCORE.SYSTEM>
0

>  <SCORE.SYSTEM.CONST>
0

>  <SCORE.SYSTEM.DIHEDRAL>
0

>  <SCORE.SYSTEM.SOLV>
0

>  <SCORE.SYSTEM.norm>
0

>  <SCORE.heavy>
14

>  <SCORE.norm>
-0.52251

>  <RMSD>
46.887

$$$$
ligand
 OpenBabel11021811393D
libRbt.so/2013.1/901 2013/11/27
 14 13  0  0  0  0  0  0  0  0999 V2000
   42.0102   -1.1780   -3.8161 N   0  0  0  0  0  0  0  0  0  0  0  0
   42.9814   -0.9875   -2.7500 C   0  0  0  0  0  0  0  0  0  0  0  0
   43.3010   -2.3457   -2.0668 C   0  0  0  0  0  0  0  0  0  0  0  0
   43.9604   -3.4711   -2.9410 C   0  0  0  0  0  0  0  0  0  0  0  0
   45.2925   -3.1179   -3.5554 N   0  0  0  0  0  0  0  0  0  0  0  0
   46.0616   -4.2982   -4.0461 C   0  0  0  0  0  0  0  0  0  0  0  0
   47.1037   -4.8064   -3.0665 C   0  0  0  0  0  0  0  0  0  0  0  0
   47.4615   -6.2631   -3.2993 C   0  0  0  0  0  0  0  0  0  0  0  0
   46.5177   -7.0812   -2.5043 C   0  0  0  0  0  0  0  0  0  0  0  0
   45.0826   -6.8919   -2.8249 N   0  0  0  0  0  0  0  0  0  0  0  0
   44.1740   -7.7397   -2.0129 C   0  0  0  0  0  0  0  0  0  0  0  0
   42.6561   -7.4052   -2.1177 C   0  0  0  0  0  0  0  0  0  0  0  0
   41.8834   -8.3970   -1.2305 C   0  0  0  0  0  0  0  0  0  0  0  0
   42.1852   -8.1698    0.1805 N   0  0  0  0  0  0  0  0  0  0  0  0
  1  2  1  0  0  0  0
  2  3  1  0  0  0  0
  3  4  1  0  0  0  0
  4  5  1  0  0  0  0
  5  6  1  0  0  0  0
  6  7  1  0  0  0  0
  7  8  1  0  0  0  0
  8  9  1  0  0  0  0
  9 10  1  0  0  0  0
 10 11  1  0  0  0  0
 11 12  1  0  0  0  0
 12 13  1  0  0  0  0
 13 14  1  0  0  0  0
M  END
>  <CHROM.1>
62.49026340,59.64365679,163.77955012,-96.92273658,156.75814489,-88.67387809
58.85748982,179.49085299,169.37564404,179.12524509,67.29501816,44.33394833
-5.15387745,-2.57510474,1.57698638,0.32935815,-0.27730637

>  <Name>
ligand

>  <RI>
0

>  <Rbt.Current_Directory>
/home/itssahil/PROJECTS/Mol_Feturizer/New_Systems/rnas/1EVV

>  <Rbt.Executable>
rbdock ($Id: //depot/dev/client3/rdock/2013.1/src/exe/rbdock.cxx#4 $)

>  <Rbt.Library>
libRbt.so (2013.1, Build901 2013/11/27)

>  <Rbt.Parameter_File>
/export/apps/rDock/src/rDock_2013.1_src/data/scripts/dock_solv.prm

>  <Rbt.Receptor>
prm/blind_docking_100.prm

>  <SCORE>
-9.4728

>  <SCORE.INTER>
-3.62321

>  <SCORE.INTER.CONST>
1

>  <SCORE.INTER.POLAR>
0

>  <SCORE.INTER.ROT>
11

>  <SCORE.INTER.SOLV>
10.5223

>  <SCORE.INTER.VDW>
-16.8562

>  <SCORE.INTER.norm>
-0.258801

>  <SCORE.INTRA>
-5.84959

>  <SCORE.INTRA.DIHEDRAL>
-14.2241

>  <SCORE.INTRA.DIHEDRAL.0>
20.2131

>  <SCORE.INTRA.POLAR>
0

>  <SCORE.INTRA.POLAR.0>
0

>  <SCORE.INTRA.REPUL>
0

>  <SCORE.INTRA.REPUL.0>
0

>  <SCORE.INTRA.SOLV>
2.67195

>  <SCORE.INTRA.SOLV.lig_0>
-48.2851

>  <SCORE.INTRA.VDW>
-0.0735374

>  <SCORE.INTRA.VDW.0>
-1.08658

>  <SCORE.INTRA.norm>
-0.417828

>  <SCORE.RESTR>
0

>  <SCORE.RESTR.CAVITY>
0

>  <SCORE.RESTR.norm>
0

>  <SCORE.SYSTEM>
0

>  <SCORE.SYSTEM.CONST>
0

>  <SCORE.SYSTEM.DIHEDRAL>
0

>  <SCORE.SYSTEM.SOLV>
0

>  <SCORE.SYSTEM.norm>
0

>  <SCORE.heavy>
14

>  <SCORE.norm>
-0.676629

>  <RMSD>
46.904

$$$$
ligand
 OpenBabel11021811393D
libRbt.so/2013.1/901 2013/11/27
 14 13  0  0  0  0  0  0  0  0999 V2000
   41.8634  -11.5472    1.3449 N   0  0  0  0  0  0  0  0  0  0  0  0
   40.5797  -11.0563    0.8682 C   0  0  0  0  0  0  0  0  0  0  0  0
   40.6422   -9.5199    0.6459 C   0  0  0  0  0  0  0  0  0  0  0  0
   41.6367   -8.9742   -0.4398 C   0  0  0  0  0  0  0  0  0  0  0  0
   43.0915   -9.3016   -0.2094 N   0  0  0  0  0  0  0  0  0  0  0  0
   43.9757   -8.9599   -1.3613 C   0  0  0  0  0  0  0  0  0  0  0  0
   44.4137   -7.5069   -1.3933 C   0  0  0  0  0  0  0  0  0  0  0  0
   45.4018   -7.2201   -2.5094 C   0  0  0  0  0  0  0  0  0  0  0  0
   45.7047   -5.7714   -2.4683 C   0  0  0  0  0  0  0  0  0  0  0  0
   44.5574   -4.8718   -2.7382 N   0  0  0  0  0  0  0  0  0  0  0  0
   44.9286   -3.6378   -3.4752 C   0  0  0  0  0  0  0  0  0  0  0  0
   43.7762   -2.6187   -3.7203 C   0  0  0  0  0  0  0  0  0  0  0  0
   43.3201   -2.0721   -2.3560 C   0  0  0  0  0  0  0  0  0  0  0  0
   42.5432   -3.0753   -1.6325 N   0  0  0  0  0  0  0  0  0  0  0  0
  1  2  1  0  0  0  0
  2  3  1  0  0  0  0
  3  4  1  0  0  0  0
  4  5  1  0  0  0  0
  5  6  1  0  0  0  0
  6  7  1  0  0  0  0
  7  8  1  0  0  0  0
  8  9  1  0  0  0  0
  9 10  1  0  0  0  0
 10 11  1  0  0  0  0
 11 12  1  0  0  0  0
 12 13  1  0  0  0  0
 13 14  1  0  0  0  0
M  END
>  <CHROM.1>
62.99288135,-60.01472178,170.76570590,83.33810352,175.26387773,177.71026342
-63.59225576,-145.09250713,-176.86006188,65.42023131,-74.07290470,43.31690014
-6.86651706,-1.38913973,-1.91995898,0.44719288,-0.29810108

>  <Name>
ligand

>  <RI>
0

>  <Rbt.Current_Directory>
/home/itssahil/PROJECTS/Mol_Feturizer/New_Systems/rnas/1EVV

>  <Rbt.Executable>
rbdock ($Id: //depot/dev/client3/rdock/2013.1/src/exe/rbdock.cxx#4 $)

>  <Rbt.Library>
libRbt.so (2013.1, Build901 2013/11/27)

>  <Rbt.Parameter_File>
/export/apps/rDock/src/rDock_2013.1_src/data/scripts/dock_solv.prm

>  <Rbt.Receptor>
prm/blind_docking_100.prm

>  <SCORE>
-9.1622

>  <SCORE.INTER>
-2.28276

>  <SCORE.INTER.CONST>
1

>  <SCORE.INTER.POLAR>
0

>  <SCORE.INTER.ROT>
11

>  <SCORE.INTER.SOLV>
12.8624

>  <SCORE.INTER.VDW>
-16.7426

>  <SCORE.INTER.norm>
-0.163054

>  <SCORE.INTRA>
-6.87944

>  <SCORE.INTRA.DIHEDRAL>
-17.9736

>  <SCORE.INTRA.DIHEDRAL.0>
20.2131

>  <SCORE.INTRA.POLAR>
0

>  <SCORE.INTRA.POLAR.0>
0

>  <SCORE.INTRA.REPUL>
0

>  <SCORE.INTRA.REPUL.0>
0

>  <SCORE.INTRA.SOLV>
4.45439

>  <SCORE.INTRA.SOLV.lig_0>
-48.2851

>  <SCORE.INTRA.VDW>
-0.119851

>  <SCORE.INTRA.VDW.0>
-1.08658

>  <SCORE.INTRA.norm>
-0.491389

>  <SCORE.RESTR>
0

>  <SCORE.RESTR.CAVITY>
0

>  <SCORE.RESTR.norm>
0

>  <SCORE.SYSTEM>
0

>  <SCORE.SYSTEM.CONST>
0

>  <SCORE.SYSTEM.DIHEDRAL>
0

>  <SCORE.SYSTEM.SOLV>
0

>  <SCORE.SYSTEM.norm>
0

>  <SCORE.heavy>
14

>  <SCORE.norm>
-0.654443

>  <RMSD>
46.912

$$$$
ligand
 OpenBabel11021811393D
libRbt.so/2013.1/901 2013/11/27
 14 13  0  0  0  0  0  0  0  0999 V2000
   40.2352  -13.4064    2.5148 N   0  0  0  0  0  0  0  0  0  0  0  0
   39.8874  -12.3206    1.6114 C   0  0  0  0  0  0  0  0  0  0  0  0
   41.1055  -11.3767    1.4135 C   0  0  0  0  0  0  0  0  0  0  0  0
   40.9035  -10.0898    0.5369 C   0  0  0  0  0  0  0  0  0  0  0  0
   42.1158   -9.2022    0.3992 N   0  0  0  0  0  0  0  0  0  0  0  0
   42.7031   -9.1928   -0.9721 C   0  0  0  0  0  0  0  0  0  0  0  0
   42.0300   -8.2218   -1.9250 C   0  0  0  0  0  0  0  0  0  0  0  0
   42.1748   -6.7767   -1.4836 C   0  0  0  0  0  0  0  0  0  0  0  0
   41.5178   -5.9347   -2.5091 C   0  0  0  0  0  0  0  0  0  0  0  0
   41.6243   -4.4712   -2.2969 N   0  0  0  0  0  0  0  0  0  0  0  0
   42.9696   -3.9217   -2.6000 C   0  0  0  0  0  0  0  0  0  0  0  0
   43.0186   -2.4114   -2.9784 C   0  0  0  0  0  0  0  0  0  0  0  0
   42.1907   -2.2102   -4.2599 C   0  0  0  0  0  0  0  0  0  0  0  0
   42.1240   -0.7946   -4.6135 N   0  0  0  0  0  0  0  0  0  0  0  0
  1  2  1  0  0  0  0
  2  3  1  0  0  0  0
  3  4  1  0  0  0  0
  4  5  1  0  0  0  0
  5  6  1  0  0  0  0
  6  7  1  0  0  0  0
  7  8  1  0  0  0  0
  8  9  1  0  0  0  0
  9 10  1  0  0  0  0
 10 11  1  0  0  0  0
 11 12  1  0  0  0  0
 12 13  1  0  0  0  0
 13 14  1  0  0  0  0
M  END
>  <CHROM.1>
-176.36939766,179.08945646,110.86483457,84.03026792,63.23062726,178.30018929
-176.46284023,74.35655657,155.41244832,-61.66954717,176.11927660,41.75725528
-7.16655957,-1.22600334,1.72609642,-0.18826748,2.67325057

>  <Name>
ligand

>  <RI>
0

>  <Rbt.Current_Directory>
/home/itssahil/PROJECTS/Mol_Feturizer/New_Systems/rnas/1EVV

>  <Rbt.Executable>
rbdock ($Id: //depot/dev/client3/rdock/2013.1/src/exe/rbdock.cxx#4 $)

>  <Rbt.Library>
libRbt.so (2013.1, Build901 2013/11/27)

>  <Rbt.Parameter_File>
/export/apps/rDock/src/rDock_2013.1_src/data/scripts/dock_solv.prm

>  <Rbt.Receptor>
prm/blind_docking_60.prm

>  <SCORE>
-10.6049

>  <SCORE.INTER>
-1.70233

>  <SCORE.INTER.CONST>
1

>  <SCORE.INTER.POLAR>
0

>  <SCORE.INTER.ROT>
11

>  <SCORE.INTER.SOLV>
8.7148

>  <SCORE.INTER.VDW>
-14.9732

>  <SCORE.INTER.norm>
-0.121595

>  <SCORE.INTRA>
-8.90998

>  <SCORE.INTRA.DIHEDRAL>
-17.8522

>  <SCORE.INTRA.DIHEDRAL.0>
20.2131

>  <SCORE.INTRA.POLAR>
0

>  <SCORE.INTRA.POLAR.0>
0

>  <SCORE.INTRA.REPUL>
0

>  <SCORE.INTRA.REPUL.0>
0

>  <SCORE.INTRA.SOLV>
-0.653323

>  <SCORE.INTRA.SOLV.lig_0>
-48.2851

>  <SCORE.INTRA.VDW>
0.342774

>  <SCORE.INTRA.VDW.0>
-1.08658

>  <SCORE.INTRA.norm>
-0.636427

>  <SCORE.RESTR>
0.00739348

>  <SCORE.RESTR.CAVITY>
0.00739348

>  <SCORE.RESTR.norm>
0.000528106

>  <SCORE.SYSTEM>
0

>  <SCORE.SYSTEM.CONST>
0

>  <SCORE.SYSTEM.DIHEDRAL>
0

>  <SCORE.SYSTEM.SOLV>
0

>  <SCORE.SYSTEM.norm>
0

>  <SCORE.heavy>
14

>  <SCORE.norm>
-0.757494

>  <RMSD>
46.986

$$$$
ligand
 OpenBabel11021811393D
libRbt.so/2013.1/901 2013/11/27
 14 13  0  0  0  0  0  0  0  0999 V2000
   45.8819   -7.9202   -1.4364 N   0  0  0  0  0  0  0  0  0  0  0  0
   45.8489   -8.8810   -2.5282 C   0  0  0  0  0  0  0  0  0  0  0  0
   45.2750  -10.2368   -2.0320 C   0  0  0  0  0  0  0  0  0  0  0  0
   43.7733  -10.2762   -1.5750 C   0  0  0  0  0  0  0  0  0  0  0  0
   43.4600   -9.5139   -0.3112 N   0  0  0  0  0  0  0  0  0  0  0  0
   42.0000   -9.3594   -0.0469 C   0  0  0  0  0  0  0  0  0  0  0  0
   41.4393   -8.0080   -0.4510 C   0  0  0  0  0  0  0  0  0  0  0  0
   41.5403   -7.7577   -1.9447 C   0  0  0  0  0  0  0  0  0  0  0  0
   41.2633   -6.3209   -2.1706 C   0  0  0  0  0  0  0  0  0  0  0  0
   42.2514   -5.3813   -1.5882 N   0  0  0  0  0  0  0  0  0  0  0  0
   42.0589   -3.9732   -2.0169 C   0  0  0  0  0  0  0  0  0  0  0  0
   43.1106   -2.9516   -1.4907 C   0  0  0  0  0  0  0  0  0  0  0  0
   42.7292   -1.5562   -2.0153 C   0  0  0  0  0  0  0  0  0  0  0  0
   42.7361   -1.5349   -3.4758 N   0  0  0  0  0  0  0  0  0  0  0  0
  1  2  1  0  0  0  0
  2  3  1  0  0  0  0
  3  4  1  0  0  0  0
  4  5  1  0  0  0  0
  5  6  1  0  0  0  0
  6  7  1  0  0  0  0
  7  8  1  0  0  0  0
  8  9  1  0  0  0  0
  9 10  1  0  0  0  0
 10 11  1  0  0  0  0
 11 12  1  0  0  0  0
 12 13  1  0  0  0  0
 13 14  1  0  0  0  0
M  END
>  <CHROM.1>
65.66828804,-68.07712469,169.20796657,-99.59889640,63.33175985,-167.16001765
64.88450404,170.79009847,-177.14870626,-178.91833155,-60.68845454,43.09753037
-6.69104917,-1.64875716,-1.35214280,0.28529553,-0.20553462

>  <Name>
ligand

>  <RI>
0

>  <Rbt.Current_Directory>
/home/itssahil/PROJECTS/Mol_Feturizer/New_Systems/rnas/1EVV

>  <Rbt.Executable>
rbdock ($Id: //depot/dev/client3/rdock/2013.1/src/exe/rbdock.cxx#4 $)

>  <Rbt.Library>
libRbt.so (2013.1, Build901 2013/11/27)

>  <Rbt.Parameter_File>
/export/apps/rDock/src/rDock_2013.1_src/data/scripts/dock_solv.prm

>  <Rbt.Receptor>
prm/blind_docking_100.prm

>  <SCORE>
-8.4871

>  <SCORE.INTER>
-0.76449

>  <SCORE.INTER.CONST>
1

>  <SCORE.INTER.POLAR>
0

>  <SCORE.INTER.ROT>
11

>  <SCORE.INTER.SOLV>
11.1598

>  <SCORE.INTER.VDW>
-15.1629

>  <SCORE.INTER.norm>
-0.0546065

>  <SCORE.INTRA>
-7.72261

>  <SCORE.INTRA.DIHEDRAL>
-17.9882

>  <SCORE.INTRA.DIHEDRAL.0>
20.2131

>  <SCORE.INTRA.POLAR>
0

>  <SCORE.INTRA.POLAR.0>
0

>  <SCORE.INTRA.REPUL>
0

>  <SCORE.INTRA.REPUL.0>
0

>  <SCORE.INTRA.SOLV>
3.11622

>  <SCORE.INTRA.SOLV.lig_0>
-48.2851

>  <SCORE.INTRA.VDW>
-0.286649

>  <SCORE.INTRA.VDW.0>
-1.08658

>  <SCORE.INTRA.norm>
-0.551615

>  <SCORE.RESTR>
0

>  <SCORE.RESTR.CAVITY>
0

>  <SCORE.RESTR.norm>
0

>  <SCORE.SYSTEM>
0

>  <SCORE.SYSTEM.CONST>
0

>  <SCORE.SYSTEM.DIHEDRAL>
0

>  <SCORE.SYSTEM.SOLV>
0

>  <SCORE.SYSTEM.norm>
0

>  <SCORE.heavy>
14

>  <SCORE.norm>
-0.606222

>  <RMSD>
47.005

$$$$
ligand
 OpenBabel11021811393D
libRbt.so/2013.1/901 2013/11/27
 14 13  0  0  0  0  0  0  0  0999 V2000
   40.7751   -7.9594   -0.7807 N   0  0  0  0  0  0  0  0  0  0  0  0
   41.7867   -7.9753   -1.8259 C   0  0  0  0  0  0  0  0  0  0  0  0
   43.0365   -7.1701   -1.3748 C   0  0  0  0  0  0  0  0  0  0  0  0
   44.2664   -7.1148   -2.3494 C   0  0  0  0  0  0  0  0  0  0  0  0
   45.4635   -6.3506   -1.8399 N   0  0  0  0  0  0  0  0  0  0  0  0
   46.7703   -6.9964   -2.1572 C   0  0  0  0  0  0  0  0  0  0  0  0
   47.4244   -6.4757   -3.4241 C   0  0  0  0  0  0  0  0  0  0  0  0
   47.9600   -5.0642   -3.2661 C   0  0  0  0  0  0  0  0  0  0  0  0
   46.9965   -4.1513   -3.9221 C   0  0  0  0  0  0  0  0  0  0  0  0
   45.6734   -4.0390   -3.2626 N   0  0  0  0  0  0  0  0  0  0  0  0
   44.7927   -3.0074   -3.8659 C   0  0  0  0  0  0  0  0  0  0  0  0
   43.6692   -2.4475   -2.9434 C   0  0  0  0  0  0  0  0  0  0  0  0
   42.7471   -3.6140   -2.5473 C   0  0  0  0  0  0  0  0  0  0  0  0
   41.6286   -3.1354   -1.7389 N   0  0  0  0  0  0  0  0  0  0  0  0
  1  2  1  0  0  0  0
  2  3  1  0  0  0  0
  3  4  1  0  0  0  0
  4  5  1  0  0  0  0
  5  6  1  0  0  0  0
  6  7  1  0  0  0  0
  7  8  1  0  0  0  0
  8  9  1  0  0  0  0
  9 10  1  0  0  0  0
 10 11  1  0  0  0  0
 11 12  1  0  0  0  0
 12 13  1  0  0  0  0
 13 14  1  0  0  0  0
M  END
>  <CHROM.1>
177.75126090,-178.36455501,139.63021306,94.77494449,71.20449212,-102.21836833
67.75525575,173.77483973,-157.09235283,-61.15641625,-176.88830750,44.49975924
-5.39293880,-2.52156864,-2.70435079,0.26234356,-0.26198184

>  <Name>
ligand

>  <RI>
0

>  <Rbt.Current_Directory>
/home/itssahil/PROJECTS/Mol_Feturizer/New_Systems/rnas/1EVV

>  <Rbt.Executable>
rbdock ($Id: //depot/dev/client3/rdock/2013.1/src/exe/rbdock.cxx#4 $)

>  <Rbt.Library>
libRbt.so (2013.1, Build901 2013/11/27)

>  <Rbt.Parameter_File>
/export/apps/rDock/src/rDock_2013.1_src/data/scripts/dock_solv.prm

>  <Rbt.Receptor>
prm/blind_docking_60.prm

>  <SCORE>
-9.65165

>  <SCORE.INTER>
-3.69308

>  <SCORE.INTER.CONST>
1

>  <SCORE.INTER.POLAR>
0

>  <SCORE.INTER.ROT>
11

>  <SCORE.INTER.SOLV>
11.3383

>  <SCORE.INTER.VDW>
-17.1748

>  <SCORE.INTER.norm>
-0.263791

>  <SCORE.INTRA>
-5.95857

>  <SCORE.INTRA.DIHEDRAL>
-12.4972

>  <SCORE.INTRA.DIHEDRAL.0>
20.2131

>  <SCORE.INTRA.POLAR>
0

>  <SCORE.INTRA.POLAR.0>
0

>  <SCORE.INTRA.REPUL>
0

>  <SCORE.INTRA.REPUL.0>
0

>  <SCORE.INTRA.SOLV>
2.70207

>  <SCORE.INTRA.SOLV.lig_0>
-48.2851

>  <SCORE.INTRA.VDW>
-1.06099

>  <SCORE.INTRA.VDW.0>
-1.08658

>  <SCORE.INTRA.norm>
-0.425612

>  <SCORE.RESTR>
0

>  <SCORE.RESTR.CAVITY>
0

>  <SCORE.RESTR.norm>
0

>  <SCORE.SYSTEM>
0

>  <SCORE.SYSTEM.CONST>
0

>  <SCORE.SYSTEM.DIHEDRAL>
0

>  <SCORE.SYSTEM.SOLV>
0

>  <SCORE.SYSTEM.norm>
0

>  <SCORE.heavy>
14

>  <SCORE.norm>
-0.689404

>  <RMSD>
47.019

$$$$
ligand
 OpenBabel11021811393D
libRbt.so/2013.1/901 2013/11/27
 14 13  0  0  0  0  0  0  0  0999 V2000
   40.7957  -14.0485    2.7351 N   0  0  0  0  0  0  0  0  0  0  0  0
   39.5857  -13.3240    2.3785 C   0  0  0  0  0  0  0  0  0  0  0  0
   39.9226  -12.1678    1.3970 C   0  0  0  0  0  0  0  0  0  0  0  0
   40.8074  -10.9853    1.9301 C   0  0  0  0  0  0  0  0  0  0  0  0
   41.2107   -9.9610    0.8982 N   0  0  0  0  0  0  0  0  0  0  0  0
   42.3388  -10.3973    0.0250 C   0  0  0  0  0  0  0  0  0  0  0  0
   43.0802   -9.2535   -0.6430 C   0  0  0  0  0  0  0  0  0  0  0  0
   42.1637   -8.3658   -1.4652 C   0  0  0  0  0  0  0  0  0  0  0  0
   42.9580   -7.1941   -1.8993 C   0  0  0  0  0  0  0  0  0  0  0  0
   42.1753   -6.0595   -2.4455 N   0  0  0  0  0  0  0  0  0  0  0  0
   42.9228   -4.7772   -2.4698 C   0  0  0  0  0  0  0  0  0  0  0  0
   42.1765   -3.5663   -3.1051 C   0  0  0  0  0  0  0  0  0  0  0  0
   43.1214   -2.3520   -3.0784 C   0  0  0  0  0  0  0  0  0  0  0  0
   43.3631   -1.9170   -1.7052 N   0  0  0  0  0  0  0  0  0  0  0  0
  1  2  1  0  0  0  0
  2  3  1  0  0  0  0
  3  4  1  0  0  0  0
  4  5  1  0  0  0  0
  5  6  1  0  0  0  0
  6  7  1  0  0  0  0
  7  8  1  0  0  0  0
  8  9  1  0  0  0  0
  9 10  1  0  0  0  0
 10 11  1  0  0  0  0
 11 12  1  0  0  0  0
 12 13  1  0  0  0  0
 13 14  1  0  0  0  0
M  END
>  <CHROM.1>
-65.91027993,174.37661679,-78.37965497,-158.72646590,-56.40622623,172.06841413
-166.44693979,161.88985635,176.81814389,-178.23508252,-67.41649168,41.90158676
-8.16931096,-0.53214934,-1.93166025,0.87175238,-0.18083565

>  <Name>
ligand

>  <RI>
0

>  <Rbt.Current_Directory>
/home/itssahil/PROJECTS/Mol_Feturizer/New_Systems/rnas/1EVV

>  <Rbt.Executable>
rbdock ($Id: //depot/dev/client3/rdock/2013.1/src/exe/rbdock.cxx#4 $)

>  <Rbt.Library>
libRbt.so (2013.1, Build901 2013/11/27)

>  <Rbt.Parameter_File>
/export/apps/rDock/src/rDock_2013.1_src/data/scripts/dock_solv.prm

>  <Rbt.Receptor>
prm/blind_docking_60.prm

>  <SCORE>
-9.27578

>  <SCORE.INTER>
-0.702008

>  <SCORE.INTER.CONST>
1

>  <SCORE.INTER.POLAR>
0

>  <SCORE.INTER.ROT>
11

>  <SCORE.INTER.SOLV>
12.9452

>  <SCORE.INTER.VDW>
-15.7164

>  <SCORE.INTER.norm>
-0.0501434

>  <SCORE.INTRA>
-8.57377

>  <SCORE.INTRA.DIHEDRAL>
-17.9201

>  <SCORE.INTRA.DIHEDRAL.0>
20.2131

>  <SCORE.INTRA.POLAR>
0

>  <SCORE.INTRA.POLAR.0>
0

>  <SCORE.INTRA.REPUL>
0

>  <SCORE.INTRA.REPUL.0>
0

>  <SCORE.INTRA.SOLV>
0.425741

>  <SCORE.INTRA.SOLV.lig_0>
-48.2851

>  <SCORE.INTRA.VDW>
0.173411

>  <SCORE.INTRA.VDW.0>
-1.08658

>  <SCORE.INTRA.norm>
-0.612412

>  <SCORE.RESTR>
0

>  <SCORE.RESTR.CAVITY>
0

>  <SCORE.RESTR.norm>
0

>  <SCORE.SYSTEM>
0

>  <SCORE.SYSTEM.CONST>
0

>  <SCORE.SYSTEM.DIHEDRAL>
0

>  <SCORE.SYSTEM.SOLV>
0

>  <SCORE.SYSTEM.norm>
0

>  <SCORE.heavy>
14

>  <SCORE.norm>
-0.662556

>  <RMSD>
47.058

$$$$
ligand
 OpenBabel11021811393D
libRbt.so/2013.1/901 2013/11/27
 14 13  0  0  0  0  0  0  0  0999 V2000
   43.3811   -7.9044   -1.5767 N   0  0  0  0  0  0  0  0  0  0  0  0
   44.4927   -7.0284   -1.9130 C   0  0  0  0  0  0  0  0  0  0  0  0
   45.7315   -7.8693   -2.3278 C   0  0  0  0  0  0  0  0  0  0  0  0
   47.0647   -7.1046   -2.6492 C   0  0  0  0  0  0  0  0  0  0  0  0
   46.9808   -6.0981   -3.7701 N   0  0  0  0  0  0  0  0  0  0  0  0
   47.3944   -4.7203   -3.3749 C   0  0  0  0  0  0  0  0  0  0  0  0
   47.2072   -3.6827   -4.4669 C   0  0  0  0  0  0  0  0  0  0  0  0
   45.7526   -3.5115   -4.8655 C   0  0  0  0  0  0  0  0  0  0  0  0
   45.0485   -2.9042   -3.7133 C   0  0  0  0  0  0  0  0  0  0  0  0
   43.6127   -2.6040   -3.9290 N   0  0  0  0  0  0  0  0  0  0  0  0
   42.9704   -1.9110   -2.7841 C   0  0  0  0  0  0  0  0  0  0  0  0
   42.6784   -2.7912   -1.5325 C   0  0  0  0  0  0  0  0  0  0  0  0
   41.7360   -3.9314   -1.9564 C   0  0  0  0  0  0  0  0  0  0  0  0
   40.4504   -3.3993   -2.4010 N   0  0  0  0  0  0  0  0  0  0  0  0
  1  2  1  0  0  0  0
  2  3  1  0  0  0  0
  3  4  1  0  0  0  0
  4  5  1  0  0  0  0
  5  6  1  0  0  0  0
  6  7  1  0  0  0  0
  7  8  1  0  0  0  0
  8  9  1  0  0  0  0
  9 10  1  0  0  0  0
 10 11  1  0  0  0  0
 11 12  1  0  0  0  0
 12 13  1  0  0  0  0
 13 14  1  0  0  0  0
M  END
>  <CHROM.1>
-176.52744407,-59.23009938,123.62360244,-175.39520631,62.66864967,67.65162689
177.58183813,-175.97295019,-74.14392200,-59.79914878,-63.57355243,44.60766000
-4.67562322,-2.94719850,0.57762591,-0.37848917,2.78044423

>  <Name>
ligand

>  <RI>
0

>  <Rbt.Current_Directory>
/home/itssahil/PROJECTS/Mol_Feturizer/New_Systems/rnas/1EVV

>  <Rbt.Executable>
rbdock ($Id: //depot/dev/client3/rdock/2013.1/src/exe/rbdock.cxx#4 $)

>  <Rbt.Library>
libRbt.so (2013.1, Build901 2013/11/27)

>  <Rbt.Parameter_File>
/export/apps/rDock/src/rDock_2013.1_src/data/scripts/dock_solv.prm

>  <Rbt.Receptor>
prm/blind_docking_80.prm

>  <SCORE>
-9.7928

>  <SCORE.INTER>
-2.1544

>  <SCORE.INTER.CONST>
1

>  <SCORE.INTER.POLAR>
0

>  <SCORE.INTER.ROT>
11

>  <SCORE.INTER.SOLV>
7.66492

>  <SCORE.INTER.VDW>
-14.9246

>  <SCORE.INTER.norm>
-0.153886

>  <SCORE.INTRA>
-7.6384

>  <SCORE.INTRA.DIHEDRAL>
-18.4487

>  <SCORE.INTRA.DIHEDRAL.0>
20.2131

>  <SCORE.INTRA.POLAR>
0

>  <SCORE.INTRA.POLAR.0>
0

>  <SCORE.INTRA.REPUL>
0

>  <SCORE.INTRA.REPUL.0>
0

>  <SCORE.INTRA.SOLV>
1.87343

>  <SCORE.INTRA.SOLV.lig_0>
-48.2851

>  <SCORE.INTRA.VDW>
0.64926

>  <SCORE.INTRA.VDW.0>
-1.08658

>  <SCORE.INTRA.norm>
-0.5456

>  <SCORE.RESTR>
0

>  <SCORE.RESTR.CAVITY>
0

>  <SCORE.RESTR.norm>
0

>  <SCORE.SYSTEM>
0

>  <SCORE.SYSTEM.CONST>
0

>  <SCORE.SYSTEM.DIHEDRAL>
0

>  <SCORE.SYSTEM.SOLV>
0

>  <SCORE.SYSTEM.norm>
0

>  <SCORE.heavy>
14

>  <SCORE.norm>
-0.699486

>  <RMSD>
47.076

$$$$
ligand
 OpenBabel11021811393D
libRbt.so/2013.1/901 2013/11/27
 14 13  0  0  0  0  0  0  0  0999 V2000
   45.7727  -10.8780   -1.9225 N   0  0  0  0  0  0  0  0  0  0  0  0
   44.3800  -10.5653   -1.6415 C   0  0  0  0  0  0  0  0  0  0  0  0
   43.9817  -11.1042   -0.2399 C   0  0  0  0  0  0  0  0  0  0  0  0
   42.5149  -10.8462    0.2572 C   0  0  0  0  0  0  0  0  0  0  0  0
   42.0986   -9.3975    0.3248 N   0  0  0  0  0  0  0  0  0  0  0  0
   40.6493   -9.1736    0.0512 C   0  0  0  0  0  0  0  0  0  0  0  0
   40.2973   -7.7323   -0.2695 C   0  0  0  0  0  0  0  0  0  0  0  0
   40.8870   -7.2677   -1.5888 C   0  0  0  0  0  0  0  0  0  0  0  0
   42.3263   -7.0058   -1.3603 C   0  0  0  0  0  0  0  0  0  0  0  0
   42.9807   -6.1253   -2.3576 N   0  0  0  0  0  0  0  0  0  0  0  0
   42.7968   -4.6775   -2.0857 C   0  0  0  0  0  0  0  0  0  0  0  0
   43.7663   -3.7157   -2.8350 C   0  0  0  0  0  0  0  0  0  0  0  0
   43.4312   -2.2734   -2.4158 C   0  0  0  0  0  0  0  0  0  0  0  0
   42.0897   -1.9056   -2.8613 N   0  0  0  0  0  0  0  0  0  0  0  0
  1  2  1  0  0  0  0
  2  3  1  0  0  0  0
  3  4  1  0  0  0  0
  4  5  1  0  0  0  0
  5  6  1  0  0  0  0
  6  7  1  0  0  0  0
  7  8  1  0  0  0  0
  8  9  1  0  0  0  0
  9 10  1  0  0  0  0
 10 11  1  0  0  0  0
 11 12  1  0  0  0  0
 12 13  1  0  0  0  0
 13 14  1  0  0  0  0
M  END
>  <CHROM.1>
179.12917680,-57.98184243,148.01448254,-163.64821237,67.09879318,-76.59301068
-160.00281041,83.59139772,163.42400673,-179.43470249,-64.72237024,42.71210622
-7.33354180,-1.35306125,-1.50282928,0.39919465,-0.29440169

>  <Name>
ligand

>  <RI>
0

>  <Rbt.Current_Directory>
/home/itssahil/PROJECTS/Mol_Feturizer/New_Systems/rnas/1EVV

>  <Rbt.Executable>
rbdock ($Id: //depot/dev/client3/rdock/2013.1/src/exe/rbdock.cxx#4 $)

>  <Rbt.Library>
libRbt.so (2013.1, Build901 2013/11/27)

>  <Rbt.Parameter_File>
/export/apps/rDock/src/rDock_2013.1_src/data/scripts/dock_solv.prm

>  <Rbt.Receptor>
prm/blind_docking_80.prm

>  <SCORE>
-8.29549

>  <SCORE.INTER>
-1.24486

>  <SCORE.INTER.CONST>
1

>  <SCORE.INTER.POLAR>
0

>  <SCORE.INTER.ROT>
11

>  <SCORE.INTER.SOLV>
12.7636

>  <SCORE.INTER.VDW>
-16.0178

>  <SCORE.INTER.norm>
-0.0889184

>  <SCORE.INTRA>
-7.05063

>  <SCORE.INTRA.DIHEDRAL>
-15.9739

>  <SCORE.INTRA.DIHEDRAL.0>
20.2131

>  <SCORE.INTRA.POLAR>
0

>  <SCORE.INTRA.POLAR.0>
0

>  <SCORE.INTRA.REPUL>
0

>  <SCORE.INTRA.REPUL.0>
0

>  <SCORE.INTRA.SOLV>
0.743341

>  <SCORE.INTRA.SOLV.lig_0>
-48.2851

>  <SCORE.INTRA.VDW>
0.564657

>  <SCORE.INTRA.VDW.0>
-1.08658

>  <SCORE.INTRA.norm>
-0.503617

>  <SCORE.RESTR>
0

>  <SCORE.RESTR.CAVITY>
0

>  <SCORE.RESTR.norm>
0

>  <SCORE.SYSTEM>
0

>  <SCORE.SYSTEM.CONST>
0

>  <SCORE.SYSTEM.DIHEDRAL>
0

>  <SCORE.SYSTEM.SOLV>
0

>  <SCORE.SYSTEM.norm>
0

>  <SCORE.heavy>
14

>  <SCORE.norm>
-0.592535

>  <RMSD>
47.149

$$$$
ligand
 OpenBabel11021811393D
libRbt.so/2013.1/901 2013/11/27
 14 13  0  0  0  0  0  0  0  0999 V2000
   39.7419  -11.7315    2.7670 N   0  0  0  0  0  0  0  0  0  0  0  0
   40.0690  -12.2414    1.4444 C   0  0  0  0  0  0  0  0  0  0  0  0
   41.4616  -11.7176    0.9971 C   0  0  0  0  0  0  0  0  0  0  0  0
   41.6635  -10.1640    0.8920 C   0  0  0  0  0  0  0  0  0  0  0  0
   40.7344   -9.4525   -0.0604 N   0  0  0  0  0  0  0  0  0  0  0  0
   41.2641   -8.1499   -0.5586 C   0  0  0  0  0  0  0  0  0  0  0  0
   41.8565   -8.2179   -1.9545 C   0  0  0  0  0  0  0  0  0  0  0  0
   43.1436   -9.0211   -2.0032 C   0  0  0  0  0  0  0  0  0  0  0  0
   44.2251   -8.1525   -1.4853 C   0  0  0  0  0  0  0  0  0  0  0  0
   44.5851   -7.0002   -2.3461 N   0  0  0  0  0  0  0  0  0  0  0  0
   43.9181   -5.7330   -1.9547 C   0  0  0  0  0  0  0  0  0  0  0  0
   44.2656   -4.4853   -2.8203 C   0  0  0  0  0  0  0  0  0  0  0  0
   43.4081   -3.3059   -2.3288 C   0  0  0  0  0  0  0  0  0  0  0  0
   43.6558   -2.1158   -3.1387 N   0  0  0  0  0  0  0  0  0  0  0  0
  1  2  1  0  0  0  0
  2  3  1  0  0  0  0
  3  4  1  0  0  0  0
  4  5  1  0  0  0  0
  5  6  1  0  0  0  0
  6  7  1  0  0  0  0
  7  8  1  0  0  0  0
  8  9  1  0  0  0  0
  9 10  1  0  0  0  0
 10 11  1  0  0  0  0
 11 12  1  0  0  0  0
 12 13  1  0  0  0  0
 13 14  1  0  0  0  0
M  END
>  <CHROM.1>
-59.68275436,-58.88305160,-156.65178546,100.67056708,-68.69747225,-78.40534500
-68.57380503,96.39728953,179.67548907,175.98093751,-177.91097810,42.42813555
-7.96362357,-0.89651789,2.04061966,-0.61117977,2.91843484

>  <Name>
ligand

>  <RI>
0

>  <Rbt.Current_Directory>
/home/itssahil/PROJECTS/Mol_Feturizer/New_Systems/rnas/1EVV

>  <Rbt.Executable>
rbdock ($Id: //depot/dev/client3/rdock/2013.1/src/exe/rbdock.cxx#4 $)

>  <Rbt.Library>
libRbt.so (2013.1, Build901 2013/11/27)

>  <Rbt.Parameter_File>
/export/apps/rDock/src/rDock_2013.1_src/data/scripts/dock_solv.prm

>  <Rbt.Receptor>
prm/blind_docking_60.prm

>  <SCORE>
-9.91879

>  <SCORE.INTER>
-2.86459

>  <SCORE.INTER.CONST>
1

>  <SCORE.INTER.POLAR>
0

>  <SCORE.INTER.ROT>
11

>  <SCORE.INTER.SOLV>
14.0575

>  <SCORE.INTER.VDW>
-17.5289

>  <SCORE.INTER.norm>
-0.204614

>  <SCORE.INTRA>
-7.0542

>  <SCORE.INTRA.DIHEDRAL>
-16.151

>  <SCORE.INTRA.DIHEDRAL.0>
20.2131

>  <SCORE.INTRA.POLAR>
0

>  <SCORE.INTRA.POLAR.0>
0

>  <SCORE.INTRA.REPUL>
0

>  <SCORE.INTRA.REPUL.0>
0

>  <SCORE.INTRA.SOLV>
1.328

>  <SCORE.INTRA.SOLV.lig_0>
-48.2851

>  <SCORE.INTRA.VDW>
0.35729

>  <SCORE.INTRA.VDW.0>
-1.08658

>  <SCORE.INTRA.norm>
-0.503871

>  <SCORE.RESTR>
0

>  <SCORE.RESTR.CAVITY>
0

>  <SCORE.RESTR.norm>
0

>  <SCORE.SYSTEM>
0

>  <SCORE.SYSTEM.CONST>
0

>  <SCORE.SYSTEM.DIHEDRAL>
0

>  <SCORE.SYSTEM.SOLV>
0

>  <SCORE.SYSTEM.norm>
0

>  <SCORE.heavy>
14

>  <SCORE.norm>
-0.708485

>  <RMSD>
47.171

$$$$
ligand
 OpenBabel11021811393D
libRbt.so/2013.1/901 2013/11/27
 14 13  0  0  0  0  0  0  0  0999 V2000
   40.8016  -14.2183    2.8224 N   0  0  0  0  0  0  0  0  0  0  0  0
   40.5781  -12.9019    3.3996 C   0  0  0  0  0  0  0  0  0  0  0  0
   39.8298  -11.9922    2.3866 C   0  0  0  0  0  0  0  0  0  0  0  0
   40.5737  -11.6023    1.0599 C   0  0  0  0  0  0  0  0  0  0  0  0
   41.8399  -10.8012    1.2380 N   0  0  0  0  0  0  0  0  0  0  0  0
   42.5535  -10.5104   -0.0393 C   0  0  0  0  0  0  0  0  0  0  0  0
   42.3265   -9.1054   -0.5670 C   0  0  0  0  0  0  0  0  0  0  0  0
   43.1191   -8.8217   -1.8301 C   0  0  0  0  0  0  0  0  0  0  0  0
   43.0121   -7.3700   -2.1008 C   0  0  0  0  0  0  0  0  0  0  0  0
   41.6506   -6.8800   -2.4245 N   0  0  0  0  0  0  0  0  0  0  0  0
   41.6033   -5.4370   -2.7695 C   0  0  0  0  0  0  0  0  0  0  0  0
   40.8098   -4.5274   -1.7848 C   0  0  0  0  0  0  0  0  0  0  0  0
   40.9220   -3.0738   -2.2773 C   0  0  0  0  0  0  0  0  0  0  0  0
   42.2930   -2.5883   -2.1426 N   0  0  0  0  0  0  0  0  0  0  0  0
  1  2  1  0  0  0  0
  2  3  1  0  0  0  0
  3  4  1  0  0  0  0
  4  5  1  0  0  0  0
  5  6  1  0  0  0  0
  6  7  1  0  0  0  0
  7  8  1  0  0  0  0
  8  9  1  0  0  0  0
  9 10  1  0  0  0  0
 10 11  1  0  0  0  0
 11 12  1  0  0  0  0
 12 13  1  0  0  0  0
 13 14  1  0  0  0  0
M  END
>  <CHROM.1>
-65.42413508,-62.25723914,177.04608879,101.07988382,177.23036019,-169.83429878
-64.99919102,-176.46887053,-114.93999226,177.78139974,-67.79508267,41.56517197
-8.55925016,-0.35933107,1.69501843,-0.73997999,2.71989065

>  <Name>
ligand

>  <RI>
0

>  <Rbt.Current_Directory>
/home/itssahil/PROJECTS/Mol_Feturizer/New_Systems/rnas/1EVV

>  <Rbt.Executable>
rbdock ($Id: //depot/dev/client3/rdock/2013.1/src/exe/rbdock.cxx#4 $)

>  <Rbt.Library>
libRbt.so (2013.1, Build901 2013/11/27)

>  <Rbt.Parameter_File>
/export/apps/rDock/src/rDock_2013.1_src/data/scripts/dock_solv.prm

>  <Rbt.Receptor>
prm/blind_docking_80.prm

>  <SCORE>
-9.05342

>  <SCORE.INTER>
-1.0571

>  <SCORE.INTER.CONST>
1

>  <SCORE.INTER.POLAR>
0

>  <SCORE.INTER.ROT>
11

>  <SCORE.INTER.SOLV>
11.3277

>  <SCORE.INTER.VDW>
-15.414

>  <SCORE.INTER.norm>
-0.0755069

>  <SCORE.INTRA>
-7.99632

>  <SCORE.INTRA.DIHEDRAL>
-17.1663

>  <SCORE.INTRA.DIHEDRAL.0>
20.2131

>  <SCORE.INTRA.POLAR>
0

>  <SCORE.INTRA.POLAR.0>
0

>  <SCORE.INTRA.REPUL>
0

>  <SCORE.INTRA.REPUL.0>
0

>  <SCORE.INTRA.SOLV>
1.17793

>  <SCORE.INTRA.SOLV.lig_0>
-48.2851

>  <SCORE.INTRA.VDW>
-0.00211622

>  <SCORE.INTRA.VDW.0>
-1.08658

>  <SCORE.INTRA.norm>
-0.571166

>  <SCORE.RESTR>
0

>  <SCORE.RESTR.CAVITY>
0

>  <SCORE.RESTR.norm>
0

>  <SCORE.SYSTEM>
0

>  <SCORE.SYSTEM.CONST>
0

>  <SCORE.SYSTEM.DIHEDRAL>
0

>  <SCORE.SYSTEM.SOLV>
0

>  <SCORE.SYSTEM.norm>
0

>  <SCORE.heavy>
14

>  <SCORE.norm>
-0.646673

>  <RMSD>
47.199

$$$$
ligand
 OpenBabel11021811393D
libRbt.so/2013.1/901 2013/11/27
 14 13  0  0  0  0  0  0  0  0999 V2000
   39.8776  -13.4445    2.5740 N   0  0  0  0  0  0  0  0  0  0  0  0
   41.1163  -13.0973    1.8949 C   0  0  0  0  0  0  0  0  0  0  0  0
   40.9895  -11.6989    1.2301 C   0  0  0  0  0  0  0  0  0  0  0  0
   42.2342  -11.1382    0.4543 C   0  0  0  0  0  0  0  0  0  0  0  0
   42.0683   -9.7545   -0.1241 N   0  0  0  0  0  0  0  0  0  0  0  0
   43.1210   -9.3853   -1.1145 C   0  0  0  0  0  0  0  0  0  0  0  0
   43.1946   -7.8985   -1.4115 C   0  0  0  0  0  0  0  0  0  0  0  0
   41.9344   -7.3733   -2.0749 C   0  0  0  0  0  0  0  0  0  0  0  0
   42.0159   -5.8949   -2.0676 C   0  0  0  0  0  0  0  0  0  0  0  0
   43.1480   -5.3145   -2.8291 N   0  0  0  0  0  0  0  0  0  0  0  0
   43.6879   -4.0661   -2.2345 C   0  0  0  0  0  0  0  0  0  0  0  0
   43.7827   -2.8415   -3.1927 C   0  0  0  0  0  0  0  0  0  0  0  0
   42.3533   -2.3689   -3.5111 C   0  0  0  0  0  0  0  0  0  0  0  0
   42.3777   -1.2426   -4.4407 N   0  0  0  0  0  0  0  0  0  0  0  0
  1  2  1  0  0  0  0
  2  3  1  0  0  0  0
  3  4  1  0  0  0  0
  4  5  1  0  0  0  0
  5  6  1  0  0  0  0
  6  7  1  0  0  0  0
  7  8  1  0  0  0  0
  8  9  1  0  0  0  0
  9 10  1  0  0  0  0
 10 11  1  0  0  0  0
 11 12  1  0  0  0  0
 12 13  1  0  0  0  0
 13 14  1  0  0  0  0
M  END
>  <CHROM.1>
179.48276971,-177.75773893,-166.21223459,-164.06622169,-64.27237982,169.03890300
62.18956392,-146.44698903,-126.90525669,69.52656644,-178.32577991,42.27882724
-7.53711999,-1.20337588,1.74775815,-0.27028069,2.71136255

>  <Name>
ligand

>  <RI>
0

>  <Rbt.Current_Directory>
/home/itssahil/PROJECTS/Mol_Feturizer/New_Systems/rnas/1EVV

>  <Rbt.Executable>
rbdock ($Id: //depot/dev/client3/rdock/2013.1/src/exe/rbdock.cxx#4 $)

>  <Rbt.Library>
libRbt.so (2013.1, Build901 2013/11/27)

>  <Rbt.Parameter_File>
/export/apps/rDock/src/rDock_2013.1_src/data/scripts/dock_solv.prm

>  <Rbt.Receptor>
prm/blind_docking_60.prm

>  <SCORE>
-11.0928

>  <SCORE.INTER>
-2.30587

>  <SCORE.INTER.CONST>
1

>  <SCORE.INTER.POLAR>
0

>  <SCORE.INTER.ROT>
11

>  <SCORE.INTER.SOLV>
10.8139

>  <SCORE.INTER.VDW>
-16.0752

>  <SCORE.INTER.norm>
-0.164705

>  <SCORE.INTRA>
-8.78695

>  <SCORE.INTRA.DIHEDRAL>
-17.0502

>  <SCORE.INTRA.DIHEDRAL.0>
20.2131

>  <SCORE.INTRA.POLAR>
0

>  <SCORE.INTRA.POLAR.0>
0

>  <SCORE.INTRA.REPUL>
0

>  <SCORE.INTRA.REPUL.0>
0

>  <SCORE.INTRA.SOLV>
-0.274743

>  <SCORE.INTRA.SOLV.lig_0>
-48.2851

>  <SCORE.INTRA.VDW>
-0.124471

>  <SCORE.INTRA.VDW.0>
-1.08658

>  <SCORE.INTRA.norm>
-0.627639

>  <SCORE.RESTR>
0

>  <SCORE.RESTR.CAVITY>
0

>  <SCORE.RESTR.norm>
0

>  <SCORE.SYSTEM>
0

>  <SCORE.SYSTEM.CONST>
0

>  <SCORE.SYSTEM.DIHEDRAL>
0

>  <SCORE.SYSTEM.SOLV>
0

>  <SCORE.SYSTEM.norm>
0

>  <SCORE.heavy>
14

>  <SCORE.norm>
-0.792345

>  <RMSD>
47.206

$$$$
ligand
 OpenBabel11021811393D
libRbt.so/2013.1/901 2013/11/27
 14 13  0  0  0  0  0  0  0  0999 V2000
   42.0910   -2.9111   -0.8171 N   0  0  0  0  0  0  0  0  0  0  0  0
   42.1195   -1.8179   -1.7764 C   0  0  0  0  0  0  0  0  0  0  0  0
   43.5304   -1.7029   -2.4166 C   0  0  0  0  0  0  0  0  0  0  0  0
   44.0928   -2.9512   -3.1851 C   0  0  0  0  0  0  0  0  0  0  0  0
   45.4802   -2.7901   -3.7560 N   0  0  0  0  0  0  0  0  0  0  0  0
   46.1114   -4.0746   -4.1770 C   0  0  0  0  0  0  0  0  0  0  0  0
   47.0970   -4.6373   -3.1691 C   0  0  0  0  0  0  0  0  0  0  0  0
   47.2709   -6.1396   -3.2996 C   0  0  0  0  0  0  0  0  0  0  0  0
   46.0669   -6.7749   -2.7172 C   0  0  0  0  0  0  0  0  0  0  0  0
   46.0525   -8.2572   -2.7417 N   0  0  0  0  0  0  0  0  0  0  0  0
   44.8249   -8.8508   -2.1550 C   0  0  0  0  0  0  0  0  0  0  0  0
   45.0089  -10.2172   -1.4299 C   0  0  0  0  0  0  0  0  0  0  0  0
   43.6652  -10.6053   -0.7883 C   0  0  0  0  0  0  0  0  0  0  0  0
   43.8133  -11.8040    0.0332 N   0  0  0  0  0  0  0  0  0  0  0  0
  1  2  1  0  0  0  0
  2  3  1  0  0  0  0
  3  4  1  0  0  0  0
  4  5  1  0  0  0  0
  5  6  1  0  0  0  0
  6  7  1  0  0  0  0
  7  8  1  0  0  0  0
  8  9  1  0  0  0  0
  9 10  1  0  0  0  0
 10 11  1  0  0  0  0
 11 12  1  0  0  0  0
 12 13  1  0  0  0  0
 13 14  1  0  0  0  0
M  END
>  <CHROM.1>
58.82931532,-178.58877618,165.76545701,-99.78602023,155.68220409,-75.40647813
-179.55728212,-179.68288640,-147.23636021,175.09191455,-173.62336421,44.80194063
-5.96652478,-2.31417470,1.66131618,0.53725253,-0.23567443

>  <Name>
ligand

>  <RI>
0

>  <Rbt.Current_Directory>
/home/itssahil/PROJECTS/Mol_Feturizer/New_Systems/rnas/1EVV

>  <Rbt.Executable>
rbdock ($Id: //depot/dev/client3/rdock/2013.1/src/exe/rbdock.cxx#4 $)

>  <Rbt.Library>
libRbt.so (2013.1, Build901 2013/11/27)

>  <Rbt.Parameter_File>
/export/apps/rDock/src/rDock_2013.1_src/data/scripts/dock_solv.prm

>  <Rbt.Receptor>
prm/blind_docking_100.prm

>  <SCORE>
-9.94364

>  <SCORE.INTER>
-2.52654

>  <SCORE.INTER.CONST>
1

>  <SCORE.INTER.POLAR>
0

>  <SCORE.INTER.ROT>
11

>  <SCORE.INTER.SOLV>
16.635

>  <SCORE.INTER.VDW>
-18.1627

>  <SCORE.INTER.norm>
-0.180467

>  <SCORE.INTRA>
-7.4171

>  <SCORE.INTRA.DIHEDRAL>
-15.3231

>  <SCORE.INTRA.DIHEDRAL.0>
20.2131

>  <SCORE.INTRA.POLAR>
0

>  <SCORE.INTRA.POLAR.0>
0

>  <SCORE.INTRA.REPUL>
0

>  <SCORE.INTRA.REPUL.0>
0

>  <SCORE.INTRA.SOLV>
-0.398948

>  <SCORE.INTRA.SOLV.lig_0>
-48.2851

>  <SCORE.INTRA.VDW>
0.443921

>  <SCORE.INTRA.VDW.0>
-1.08658

>  <SCORE.INTRA.norm>
-0.529793

>  <SCORE.RESTR>
0

>  <SCORE.RESTR.CAVITY>
0

>  <SCORE.RESTR.norm>
0

>  <SCORE.SYSTEM>
0

>  <SCORE.SYSTEM.CONST>
0

>  <SCORE.SYSTEM.DIHEDRAL>
0

>  <SCORE.SYSTEM.SOLV>
0

>  <SCORE.SYSTEM.norm>
0

>  <SCORE.heavy>
14

>  <SCORE.norm>
-0.71026

>  <RMSD>
47.284

$$$$
ligand
 OpenBabel11021811393D
libRbt.so/2013.1/901 2013/11/27
 14 13  0  0  0  0  0  0  0  0999 V2000
   42.9571   -1.6718   -3.8529 N   0  0  0  0  0  0  0  0  0  0  0  0
   43.9231   -2.5154   -3.1663 C   0  0  0  0  0  0  0  0  0  0  0  0
   45.0087   -3.0078   -4.1626 C   0  0  0  0  0  0  0  0  0  0  0  0
   46.0667   -4.0453   -3.6433 C   0  0  0  0  0  0  0  0  0  0  0  0
   45.4970   -5.3086   -3.0466 N   0  0  0  0  0  0  0  0  0  0  0  0
   46.5311   -6.2444   -2.5169 C   0  0  0  0  0  0  0  0  0  0  0  0
   46.0006   -7.2392   -1.5006 C   0  0  0  0  0  0  0  0  0  0  0  0
   44.9418   -8.1584   -2.0821 C   0  0  0  0  0  0  0  0  0  0  0  0
   44.3579   -8.9248   -0.9578 C   0  0  0  0  0  0  0  0  0  0  0  0
   43.3943   -9.9846   -1.3405 N   0  0  0  0  0  0  0  0  0  0  0  0
   42.6396  -10.5464   -0.1922 C   0  0  0  0  0  0  0  0  0  0  0  0
   41.2634   -9.8815    0.1086 C   0  0  0  0  0  0  0  0  0  0  0  0
   40.4449  -10.8465    0.9843 C   0  0  0  0  0  0  0  0  0  0  0  0
   41.0461  -10.9762    2.3092 N   0  0  0  0  0  0  0  0  0  0  0  0
  1  2  1  0  0  0  0
  2  3  1  0  0  0  0
  3  4  1  0  0  0  0
  4  5  1  0  0  0  0
  5  6  1  0  0  0  0
  6  7  1  0  0  0  0
  7  8  1  0  0  0  0
  8  9  1  0  0  0  0
  9 10  1  0  0  0  0
 10 11  1  0  0  0  0
 11 12  1  0  0  0  0
 12 13  1  0  0  0  0
 13 14  1  0  0  0  0
M  END
>  <CHROM.1>
-174.21828197,55.38584728,-177.73530356,159.19382910,62.01311059,-171.23638253
-173.97766127,-168.79432454,93.05257595,161.74385734,67.75203616,43.86256609
-7.09654027,-1.64719538,1.19178695,0.31510202,-0.40330957

>  <Name>
ligand

>  <RI>
0

>  <Rbt.Current_Directory>
/home/itssahil/PROJECTS/Mol_Feturizer/New_Systems/rnas/1EVV

>  <Rbt.Executable>
rbdock ($Id: //depot/dev/client3/rdock/2013.1/src/exe/rbdock.cxx#4 $)

>  <Rbt.Library>
libRbt.so (2013.1, Build901 2013/11/27)

>  <Rbt.Parameter_File>
/export/apps/rDock/src/rDock_2013.1_src/data/scripts/dock_solv.prm

>  <Rbt.Receptor>
prm/blind_docking_60.prm

>  <SCORE>
-11.5292

>  <SCORE.INTER>
-2.983

>  <SCORE.INTER.CONST>
1

>  <SCORE.INTER.POLAR>
0

>  <SCORE.INTER.ROT>
11

>  <SCORE.INTER.SOLV>
13.4738

>  <SCORE.INTER.VDW>
-17.4133

>  <SCORE.INTER.norm>
-0.213072

>  <SCORE.INTRA>
-8.54624

>  <SCORE.INTRA.DIHEDRAL>
-17.0252

>  <SCORE.INTRA.DIHEDRAL.0>
20.2131

>  <SCORE.INTRA.POLAR>
0

>  <SCORE.INTRA.POLAR.0>
0

>  <SCORE.INTRA.REPUL>
0

>  <SCORE.INTRA.REPUL.0>
0

>  <SCORE.INTRA.SOLV>
0.0369483

>  <SCORE.INTRA.SOLV.lig_0>
-48.2851

>  <SCORE.INTRA.VDW>
-0.0520998

>  <SCORE.INTRA.VDW.0>
-1.08658

>  <SCORE.INTRA.norm>
-0.610446

>  <SCORE.RESTR>
0

>  <SCORE.RESTR.CAVITY>
0

>  <SCORE.RESTR.norm>
0

>  <SCORE.SYSTEM>
0

>  <SCORE.SYSTEM.CONST>
0

>  <SCORE.SYSTEM.DIHEDRAL>
0

>  <SCORE.SYSTEM.SOLV>
0

>  <SCORE.SYSTEM.norm>
0

>  <SCORE.heavy>
14

>  <SCORE.norm>
-0.823518

>  <RMSD>
47.287

$$$$
ligand
 OpenBabel11021811393D
libRbt.so/2013.1/901 2013/11/27
 14 13  0  0  0  0  0  0  0  0999 V2000
   43.3398   -1.9557   -1.7271 N   0  0  0  0  0  0  0  0  0  0  0  0
   42.8565   -3.2917   -1.4147 C   0  0  0  0  0  0  0  0  0  0  0  0
   42.6869   -4.1191   -2.7187 C   0  0  0  0  0  0  0  0  0  0  0  0
   41.9389   -5.4963   -2.6233 C   0  0  0  0  0  0  0  0  0  0  0  0
   42.6489   -6.5662   -1.8310 N   0  0  0  0  0  0  0  0  0  0  0  0
   42.0417   -7.9218   -1.9698 C   0  0  0  0  0  0  0  0  0  0  0  0
   42.8089   -9.0180   -1.2530 C   0  0  0  0  0  0  0  0  0  0  0  0
   43.9211   -9.6036   -2.1041 C   0  0  0  0  0  0  0  0  0  0  0  0
   45.1364   -8.7942   -1.8589 C   0  0  0  0  0  0  0  0  0  0  0  0
   45.2323   -7.5354   -2.6365 N   0  0  0  0  0  0  0  0  0  0  0  0
   46.6276   -7.1128   -2.9161 C   0  0  0  0  0  0  0  0  0  0  0  0
   47.0215   -5.6912   -2.4155 C   0  0  0  0  0  0  0  0  0  0  0  0
   46.3518   -4.6554   -3.3356 C   0  0  0  0  0  0  0  0  0  0  0  0
   46.9769   -4.6580   -4.6557 N   0  0  0  0  0  0  0  0  0  0  0  0
  1  2  1  0  0  0  0
  2  3  1  0  0  0  0
  3  4  1  0  0  0  0
  4  5  1  0  0  0  0
  5  6  1  0  0  0  0
  6  7  1  0  0  0  0
  7  8  1  0  0  0  0
  8  9  1  0  0  0  0
  9 10  1  0  0  0  0
 10 11  1  0  0  0  0
 11 12  1  0  0  0  0
 12 13  1  0  0  0  0
 13 14  1  0  0  0  0
M  END
>  <CHROM.1>
-169.44626358,-66.69966979,-169.31404119,175.94946967,-86.48535362,88.95523848
-82.38731754,-151.01724247,-122.87905063,-73.60614041,-70.68357801,44.25624187
-6.17321592,-2.38988009,1.50280696,0.31415034,-0.09285702

>  <Name>
ligand

>  <RI>
0

>  <Rbt.Current_Directory>
/home/itssahil/PROJECTS/Mol_Feturizer/New_Systems/rnas/1EVV

>  <Rbt.Executable>
rbdock ($Id: //depot/dev/client3/rdock/2013.1/src/exe/rbdock.cxx#4 $)

>  <Rbt.Library>
libRbt.so (2013.1, Build901 2013/11/27)

>  <Rbt.Parameter_File>
/export/apps/rDock/src/rDock_2013.1_src/data/scripts/dock_solv.prm

>  <Rbt.Receptor>
prm/blind_docking_60.prm

>  <SCORE>
-6.45465

>  <SCORE.INTER>
-2.25404

>  <SCORE.INTER.CONST>
1

>  <SCORE.INTER.POLAR>
0

>  <SCORE.INTER.ROT>
11

>  <SCORE.INTER.SOLV>
14.3958

>  <SCORE.INTER.VDW>
-17.2346

>  <SCORE.INTER.norm>
-0.161003

>  <SCORE.INTRA>
-4.2006

>  <SCORE.INTRA.DIHEDRAL>
-9.83972

>  <SCORE.INTRA.DIHEDRAL.0>
20.2131

>  <SCORE.INTRA.POLAR>
0

>  <SCORE.INTRA.POLAR.0>
0

>  <SCORE.INTRA.REPUL>
0.00809384

>  <SCORE.INTRA.REPUL.0>
0

>  <SCORE.INTRA.SOLV>
3.54003

>  <SCORE.INTRA.SOLV.lig_0>
-48.2851

>  <SCORE.INTRA.VDW>
-1.09123

>  <SCORE.INTRA.VDW.0>
-1.08658

>  <SCORE.INTRA.norm>
-0.300043

>  <SCORE.RESTR>
0

>  <SCORE.RESTR.CAVITY>
0

>  <SCORE.RESTR.norm>
0

>  <SCORE.SYSTEM>
0

>  <SCORE.SYSTEM.CONST>
0

>  <SCORE.SYSTEM.DIHEDRAL>
0

>  <SCORE.SYSTEM.SOLV>
0

>  <SCORE.SYSTEM.norm>
0

>  <SCORE.heavy>
14

>  <SCORE.norm>
-0.461046

>  <RMSD>
47.293

$$$$
ligand
 OpenBabel11021811393D
libRbt.so/2013.1/901 2013/11/27
 14 13  0  0  0  0  0  0  0  0999 V2000
   41.1142  -15.1774    3.0903 N   0  0  0  0  0  0  0  0  0  0  0  0
   40.9639  -13.7338    3.1882 C   0  0  0  0  0  0  0  0  0  0  0  0
   40.1243  -13.1999    1.9951 C   0  0  0  0  0  0  0  0  0  0  0  0
   39.8873  -11.6508    1.8979 C   0  0  0  0  0  0  0  0  0  0  0  0
   41.1358  -10.8084    1.8072 N   0  0  0  0  0  0  0  0  0  0  0  0
   41.9557  -11.0753    0.5898 C   0  0  0  0  0  0  0  0  0  0  0  0
   42.5074   -9.8241   -0.0691 C   0  0  0  0  0  0  0  0  0  0  0  0
   41.4150   -8.8645   -0.5050 C   0  0  0  0  0  0  0  0  0  0  0  0
   42.0520   -7.8221   -1.3415 C   0  0  0  0  0  0  0  0  0  0  0  0
   41.1267   -6.8286   -1.9375 N   0  0  0  0  0  0  0  0  0  0  0  0
   41.8174   -5.7116   -2.6296 C   0  0  0  0  0  0  0  0  0  0  0  0
   40.9069   -4.7585   -3.4598 C   0  0  0  0  0  0  0  0  0  0  0  0
   39.9021   -4.0973   -2.5001 C   0  0  0  0  0  0  0  0  0  0  0  0
   40.5917   -3.2263   -1.5517 N   0  0  0  0  0  0  0  0  0  0  0  0
  1  2  1  0  0  0  0
  2  3  1  0  0  0  0
  3  4  1  0  0  0  0
  4  5  1  0  0  0  0
  5  6  1  0  0  0  0
  6  7  1  0  0  0  0
  7  8  1  0  0  0  0
  8  9  1  0  0  0  0
  9 10  1  0  0  0  0
 10 11  1  0  0  0  0
 11 12  1  0  0  0  0
 12 13  1  0  0  0  0
 13 14  1  0  0  0  0
M  END
>  <CHROM.1>
-178.15877885,59.04927533,62.41844947,138.17522188,-59.31445780,-169.85380850
176.37514264,173.01170860,170.93554258,61.50870547,65.59207881,41.10722111
-9.05565032,-0.10203623,-1.57340503,0.59145527,-0.51628626

>  <Name>
ligand

>  <RI>
0

>  <Rbt.Current_Directory>
/home/itssahil/PROJECTS/Mol_Feturizer/New_Systems/rnas/1EVV

>  <Rbt.Executable>
rbdock ($Id: //depot/dev/client3/rdock/2013.1/src/exe/rbdock.cxx#4 $)

>  <Rbt.Library>
libRbt.so (2013.1, Build901 2013/11/27)

>  <Rbt.Parameter_File>
/export/apps/rDock/src/rDock_2013.1_src/data/scripts/dock_solv.prm

>  <Rbt.Receptor>
prm/blind_docking_80.prm

>  <SCORE>
-10.0829

>  <SCORE.INTER>
-1.65586

>  <SCORE.INTER.CONST>
1

>  <SCORE.INTER.POLAR>
0

>  <SCORE.INTER.ROT>
11

>  <SCORE.INTER.SOLV>
8.78664

>  <SCORE.INTER.VDW>
-14.9661

>  <SCORE.INTER.norm>
-0.118276

>  <SCORE.INTRA>
-8.42702

>  <SCORE.INTRA.DIHEDRAL>
-18.5387

>  <SCORE.INTRA.DIHEDRAL.0>
20.2131

>  <SCORE.INTRA.POLAR>
0

>  <SCORE.INTRA.POLAR.0>
0

>  <SCORE.INTRA.REPUL>
0

>  <SCORE.INTRA.REPUL.0>
0

>  <SCORE.INTRA.SOLV>
1.10045

>  <SCORE.INTRA.SOLV.lig_0>
-48.2851

>  <SCORE.INTRA.VDW>
0.292099

>  <SCORE.INTRA.VDW.0>
-1.08658

>  <SCORE.INTRA.norm>
-0.60193

>  <SCORE.RESTR>
0

>  <SCORE.RESTR.CAVITY>
0

>  <SCORE.RESTR.norm>
0

>  <SCORE.SYSTEM>
0

>  <SCORE.SYSTEM.CONST>
0

>  <SCORE.SYSTEM.DIHEDRAL>
0

>  <SCORE.SYSTEM.SOLV>
0

>  <SCORE.SYSTEM.norm>
0

>  <SCORE.heavy>
14

>  <SCORE.norm>
-0.720206

>  <RMSD>
47.343

$$$$
ligand
 OpenBabel11021811393D
libRbt.so/2013.1/901 2013/11/27
 14 13  0  0  0  0  0  0  0  0999 V2000
   41.0555  -15.5391    2.2491 N   0  0  0  0  0  0  0  0  0  0  0  0
   41.5031  -14.4987    3.1619 C   0  0  0  0  0  0  0  0  0  0  0  0
   40.4113  -13.4024    3.3024 C   0  0  0  0  0  0  0  0  0  0  0  0
   39.9991  -12.6061    2.0134 C   0  0  0  0  0  0  0  0  0  0  0  0
   41.1161  -11.8575    1.3289 N   0  0  0  0  0  0  0  0  0  0  0  0
   40.6826  -10.5818    0.6884 C   0  0  0  0  0  0  0  0  0  0  0  0
   41.7950   -9.8461   -0.0364 C   0  0  0  0  0  0  0  0  0  0  0  0
   41.3473   -8.5012   -0.5795 C   0  0  0  0  0  0  0  0  0  0  0  0
   42.5199   -7.8778   -1.2341 C   0  0  0  0  0  0  0  0  0  0  0  0
   42.3390   -6.4691   -1.6599 N   0  0  0  0  0  0  0  0  0  0  0  0
   43.5239   -5.8979   -2.3478 C   0  0  0  0  0  0  0  0  0  0  0  0
   43.6338   -4.3440   -2.3371 C   0  0  0  0  0  0  0  0  0  0  0  0
   42.3191   -3.7657   -2.8896 C   0  0  0  0  0  0  0  0  0  0  0  0
   42.3632   -2.3058   -2.9020 N   0  0  0  0  0  0  0  0  0  0  0  0
  1  2  1  0  0  0  0
  2  3  1  0  0  0  0
  3  4  1  0  0  0  0
  4  5  1  0  0  0  0
  5  6  1  0  0  0  0
  6  7  1  0  0  0  0
  7  8  1  0  0  0  0
  8  9  1  0  0  0  0
  9 10  1  0  0  0  0
 10 11  1  0  0  0  0
 11 12  1  0  0  0  0
 12 13  1  0  0  0  0
 13 14  1  0  0  0  0
M  END
>  <CHROM.1>
-61.57200739,-58.88681525,-146.50153736,-178.28588538,-175.37092073,178.88515465
-171.55982463,-178.23416008,-157.60705477,-53.58141398,179.92937491,41.75778439
-9.10668679,-0.08867490,-1.77043905,0.43539404,-0.39738399

>  <Name>
ligand

>  <RI>
0

>  <Rbt.Current_Directory>
/home/itssahil/PROJECTS/Mol_Feturizer/New_Systems/rnas/1EVV

>  <Rbt.Executable>
rbdock ($Id: //depot/dev/client3/rdock/2013.1/src/exe/rbdock.cxx#4 $)

>  <Rbt.Library>
libRbt.so (2013.1, Build901 2013/11/27)

>  <Rbt.Parameter_File>
/export/apps/rDock/src/rDock_2013.1_src/data/scripts/dock_solv.prm

>  <Rbt.Receptor>
prm/blind_docking_80.prm

>  <SCORE>
-10.3231

>  <SCORE.INTER>
-1.20568

>  <SCORE.INTER.CONST>
1

>  <SCORE.INTER.POLAR>
0

>  <SCORE.INTER.ROT>
11

>  <SCORE.INTER.SOLV>
9.44881

>  <SCORE.INTER.VDW>
-14.8867

>  <SCORE.INTER.norm>
-0.0861201

>  <SCORE.INTRA>
-9.11741

>  <SCORE.INTRA.DIHEDRAL>
-18.6121

>  <SCORE.INTRA.DIHEDRAL.0>
20.2131

>  <SCORE.INTRA.POLAR>
0

>  <SCORE.INTRA.POLAR.0>
0

>  <SCORE.INTRA.REPUL>
0

>  <SCORE.INTRA.REPUL.0>
0

>  <SCORE.INTRA.SOLV>
0.595494

>  <SCORE.INTRA.SOLV.lig_0>
-48.2851

>  <SCORE.INTRA.VDW>
-0.109117

>  <SCORE.INTRA.VDW.0>
-1.08658

>  <SCORE.INTRA.norm>
-0.651244

>  <SCORE.RESTR>
0

>  <SCORE.RESTR.CAVITY>
0

>  <SCORE.RESTR.norm>
0

>  <SCORE.SYSTEM>
0

>  <SCORE.SYSTEM.CONST>
0

>  <SCORE.SYSTEM.DIHEDRAL>
0

>  <SCORE.SYSTEM.SOLV>
0

>  <SCORE.SYSTEM.norm>
0

>  <SCORE.heavy>
14

>  <SCORE.norm>
-0.737364

>  <RMSD>
47.354

$$$$
ligand
 OpenBabel11021811393D
libRbt.so/2013.1/901 2013/11/27
 14 13  0  0  0  0  0  0  0  0999 V2000
   43.0644   -1.9223   -2.3265 N   0  0  0  0  0  0  0  0  0  0  0  0
   43.1751   -3.3114   -2.7440 C   0  0  0  0  0  0  0  0  0  0  0  0
   42.0306   -4.1531   -2.1152 C   0  0  0  0  0  0  0  0  0  0  0  0
   41.9915   -5.6911   -2.4290 C   0  0  0  0  0  0  0  0  0  0  0  0
   43.1835   -6.4814   -1.9480 N   0  0  0  0  0  0  0  0  0  0  0  0
   43.0022   -7.9594   -2.0374 C   0  0  0  0  0  0  0  0  0  0  0  0
   44.1993   -8.7582   -1.5546 C   0  0  0  0  0  0  0  0  0  0  0  0
   45.4092   -8.5987   -2.4572 C   0  0  0  0  0  0  0  0  0  0  0  0
   45.9959   -7.2685   -2.1767 C   0  0  0  0  0  0  0  0  0  0  0  0
   47.2608   -6.9661   -2.8887 N   0  0  0  0  0  0  0  0  0  0  0  0
   47.7902   -5.6072   -2.6114 C   0  0  0  0  0  0  0  0  0  0  0  0
   47.2512   -4.4671   -3.5259 C   0  0  0  0  0  0  0  0  0  0  0  0
   47.7231   -4.7416   -4.9646 C   0  0  0  0  0  0  0  0  0  0  0  0
   47.2681   -3.6866   -5.8665 N   0  0  0  0  0  0  0  0  0  0  0  0
  1  2  1  0  0  0  0
  2  3  1  0  0  0  0
  3  4  1  0  0  0  0
  4  5  1  0  0  0  0
  5  6  1  0  0  0  0
  6  7  1  0  0  0  0
  7  8  1  0  0  0  0
  8  9  1  0  0  0  0
  9 10  1  0  0  0  0
 10 11  1  0  0  0  0
 11 12  1  0  0  0  0
 12 13  1  0  0  0  0
 13 14  1  0  0  0  0
M  END
>  <CHROM.1>
-178.98971965,62.35010594,169.39100930,179.99304091,-67.59296371,75.92475325
175.33953367,178.16736331,-87.26163902,-64.71538442,-178.87575330,44.95312711
-5.68699110,-2.83166459,2.87180050,-0.35491462,2.84334274

>  <Name>
ligand

>  <RI>
0

>  <Rbt.Current_Directory>
/home/itssahil/PROJECTS/Mol_Feturizer/New_Systems/rnas/1EVV

>  <Rbt.Executable>
rbdock ($Id: //depot/dev/client3/rdock/2013.1/src/exe/rbdock.cxx#4 $)

>  <Rbt.Library>
libRbt.so (2013.1, Build901 2013/11/27)

>  <Rbt.Parameter_File>
/export/apps/rDock/src/rDock_2013.1_src/data/scripts/dock_solv.prm

>  <Rbt.Receptor>
prm/blind_docking_60.prm

>  <SCORE>
-11.4166

>  <SCORE.INTER>
-2.69895

>  <SCORE.INTER.CONST>
1

>  <SCORE.INTER.POLAR>
0

>  <SCORE.INTER.ROT>
11

>  <SCORE.INTER.SOLV>
9.97308

>  <SCORE.INTER.VDW>
-16.057

>  <SCORE.INTER.norm>
-0.192782

>  <SCORE.INTRA>
-8.71761

>  <SCORE.INTRA.DIHEDRAL>
-18.1921

>  <SCORE.INTRA.DIHEDRAL.0>
20.2131

>  <SCORE.INTRA.POLAR>
0

>  <SCORE.INTRA.POLAR.0>
0

>  <SCORE.INTRA.REPUL>
0

>  <SCORE.INTRA.REPUL.0>
0

>  <SCORE.INTRA.SOLV>
0.318264

>  <SCORE.INTRA.SOLV.lig_0>
-48.2851

>  <SCORE.INTRA.VDW>
0.219337

>  <SCORE.INTRA.VDW.0>
-1.08658

>  <SCORE.INTRA.norm>
-0.622686

>  <SCORE.RESTR>
0

>  <SCORE.RESTR.CAVITY>
0

>  <SCORE.RESTR.norm>
0

>  <SCORE.SYSTEM>
0

>  <SCORE.SYSTEM.CONST>
0

>  <SCORE.SYSTEM.DIHEDRAL>
0

>  <SCORE.SYSTEM.SOLV>
0

>  <SCORE.SYSTEM.norm>
0

>  <SCORE.heavy>
14

>  <SCORE.norm>
-0.815469

>  <RMSD>
47.383

$$$$
ligand
 OpenBabel11021811393D
libRbt.so/2013.1/901 2013/11/27
 14 13  0  0  0  0  0  0  0  0999 V2000
   39.0969  -11.9163    2.1894 N   0  0  0  0  0  0  0  0  0  0  0  0
   39.4088  -10.4955    2.2064 C   0  0  0  0  0  0  0  0  0  0  0  0
   40.9474  -10.2838    2.1654 C   0  0  0  0  0  0  0  0  0  0  0  0
   41.6981  -10.6053    0.8243 C   0  0  0  0  0  0  0  0  0  0  0  0
   41.3598   -9.7066   -0.3396 N   0  0  0  0  0  0  0  0  0  0  0  0
   42.2855   -8.5470   -0.4945 C   0  0  0  0  0  0  0  0  0  0  0  0
   42.5893   -8.1884   -1.9378 C   0  0  0  0  0  0  0  0  0  0  0  0
   43.4623   -6.9527   -2.0603 C   0  0  0  0  0  0  0  0  0  0  0  0
   44.8467   -7.3561   -1.7245 C   0  0  0  0  0  0  0  0  0  0  0  0
   45.8463   -6.2611   -1.7167 N   0  0  0  0  0  0  0  0  0  0  0  0
   46.3926   -5.9437   -3.0600 C   0  0  0  0  0  0  0  0  0  0  0  0
   47.4957   -4.8447   -3.1039 C   0  0  0  0  0  0  0  0  0  0  0  0
   47.8400   -4.5684   -4.5781 C   0  0  0  0  0  0  0  0  0  0  0  0
   46.7229   -3.9142   -5.2545 N   0  0  0  0  0  0  0  0  0  0  0  0
  1  2  1  0  0  0  0
  2  3  1  0  0  0  0
  3  4  1  0  0  0  0
  4  5  1  0  0  0  0
  5  6  1  0  0  0  0
  6  7  1  0  0  0  0
  7  8  1  0  0  0  0
  8  9  1  0  0  0  0
  9 10  1  0  0  0  0
 10 11  1  0  0  0  0
 11 12  1  0  0  0  0
 12 13  1  0  0  0  0
 13 14  1  0  0  0  0
M  END
>  <CHROM.1>
71.07768628,66.22491596,93.65867242,142.72631219,176.38366365,76.40068218
-176.85718848,-83.60887257,-177.30901876,-174.93723423,68.71184843,43.57099753
-7.82737149,-1.20600646,2.33576475,0.37137448,2.05308895

>  <Name>
ligand

>  <RI>
0

>  <Rbt.Current_Directory>
/home/itssahil/PROJECTS/Mol_Feturizer/New_Systems/rnas/1EVV

>  <Rbt.Executable>
rbdock ($Id: //depot/dev/client3/rdock/2013.1/src/exe/rbdock.cxx#4 $)

>  <Rbt.Library>
libRbt.so (2013.1, Build901 2013/11/27)

>  <Rbt.Parameter_File>
/export/apps/rDock/src/rDock_2013.1_src/data/scripts/dock_solv.prm

>  <Rbt.Receptor>
prm/blind_docking_60.prm

>  <SCORE>
-9.38552

>  <SCORE.INTER>
-2.41027

>  <SCORE.INTER.CONST>
1

>  <SCORE.INTER.POLAR>
0

>  <SCORE.INTER.ROT>
11

>  <SCORE.INTER.SOLV>
13.8261

>  <SCORE.INTER.VDW>
-17.1489

>  <SCORE.INTER.norm>
-0.172162

>  <SCORE.INTRA>
-6.97525

>  <SCORE.INTRA.DIHEDRAL>
-16.1444

>  <SCORE.INTRA.DIHEDRAL.0>
20.2131

>  <SCORE.INTRA.POLAR>
0

>  <SCORE.INTRA.POLAR.0>
0

>  <SCORE.INTRA.REPUL>
0

>  <SCORE.INTRA.REPUL.0>
0

>  <SCORE.INTRA.SOLV>
0.786901

>  <SCORE.INTRA.SOLV.lig_0>
-48.2851

>  <SCORE.INTRA.VDW>
0.703521

>  <SCORE.INTRA.VDW.0>
-1.08658

>  <SCORE.INTRA.norm>
-0.498232

>  <SCORE.RESTR>
0

>  <SCORE.RESTR.CAVITY>
0

>  <SCORE.RESTR.norm>
0

>  <SCORE.SYSTEM>
0

>  <SCORE.SYSTEM.CONST>
0

>  <SCORE.SYSTEM.DIHEDRAL>
0

>  <SCORE.SYSTEM.SOLV>
0

>  <SCORE.SYSTEM.norm>
0

>  <SCORE.heavy>
14

>  <SCORE.norm>
-0.670394

>  <RMSD>
47.388

$$$$
ligand
 OpenBabel11021811393D
libRbt.so/2013.1/901 2013/11/27
 14 13  0  0  0  0  0  0  0  0999 V2000
   38.8857  -11.7754    2.8860 N   0  0  0  0  0  0  0  0  0  0  0  0
   40.1415  -11.2911    2.3339 C   0  0  0  0  0  0  0  0  0  0  0  0
   40.8394  -12.4165    1.5215 C   0  0  0  0  0  0  0  0  0  0  0  0
   42.2567  -12.1154    0.9164 C   0  0  0  0  0  0  0  0  0  0  0  0
   42.3282  -10.9228   -0.0051 N   0  0  0  0  0  0  0  0  0  0  0  0
   43.7046  -10.6217   -0.4953 C   0  0  0  0  0  0  0  0  0  0  0  0
   43.7985   -9.3609   -1.3353 C   0  0  0  0  0  0  0  0  0  0  0  0
   45.2260   -9.0280   -1.7298 C   0  0  0  0  0  0  0  0  0  0  0  0
   45.1799   -7.8003   -2.5563 C   0  0  0  0  0  0  0  0  0  0  0  0
   44.7237   -6.5761   -1.8553 N   0  0  0  0  0  0  0  0  0  0  0  0
   43.3499   -6.1539   -2.2270 C   0  0  0  0  0  0  0  0  0  0  0  0
   43.0021   -4.6588   -1.9616 C   0  0  0  0  0  0  0  0  0  0  0  0
   43.8765   -3.7912   -2.8839 C   0  0  0  0  0  0  0  0  0  0  0  0
   43.5790   -2.3740   -2.6929 N   0  0  0  0  0  0  0  0  0  0  0  0
  1  2  1  0  0  0  0
  2  3  1  0  0  0  0
  3  4  1  0  0  0  0
  4  5  1  0  0  0  0
  5  6  1  0  0  0  0
  6  7  1  0  0  0  0
  7  8  1  0  0  0  0
  8  9  1  0  0  0  0
  9 10  1  0  0  0  0
 10 11  1  0  0  0  0
 11 12  1  0  0  0  0
 12 13  1  0  0  0  0
 13 14  1  0  0  0  0
M  END
>  <CHROM.1>
-176.35140409,-57.13351077,176.58766261,-175.51856613,175.70614213,179.13978249
65.36401941,-106.27291201,-158.46862893,65.68344949,179.16135199,42.92106246
-8.49208647,-0.72044467,2.00274823,-0.56100790,2.85780771

>  <Name>
ligand

>  <RI>
0

>  <Rbt.Current_Directory>
/home/itssahil/PROJECTS/Mol_Feturizer/New_Systems/rnas/1EVV

>  <Rbt.Executable>
rbdock ($Id: //depot/dev/client3/rdock/2013.1/src/exe/rbdock.cxx#4 $)

>  <Rbt.Library>
libRbt.so (2013.1, Build901 2013/11/27)

>  <Rbt.Parameter_File>
/export/apps/rDock/src/rDock_2013.1_src/data/scripts/dock_solv.prm

>  <Rbt.Receptor>
prm/blind_docking_100.prm

>  <SCORE>
-11.7009

>  <SCORE.INTER>
-2.23967

>  <SCORE.INTER.CONST>
1

>  <SCORE.INTER.POLAR>
0

>  <SCORE.INTER.ROT>
11

>  <SCORE.INTER.SOLV>
14.7342

>  <SCORE.INTER.VDW>
-17.3378

>  <SCORE.INTER.norm>
-0.159976

>  <SCORE.INTRA>
-9.46122

>  <SCORE.INTRA.DIHEDRAL>
-18.4071

>  <SCORE.INTRA.DIHEDRAL.0>
20.2131

>  <SCORE.INTRA.POLAR>
0

>  <SCORE.INTRA.POLAR.0>
0

>  <SCORE.INTRA.REPUL>
0

>  <SCORE.INTRA.REPUL.0>
0

>  <SCORE.INTRA.SOLV>
-0.385821

>  <SCORE.INTRA.SOLV.lig_0>
-48.2851

>  <SCORE.INTRA.VDW>
-0.0647727

>  <SCORE.INTRA.VDW.0>
-1.08658

>  <SCORE.INTRA.norm>
-0.675801

>  <SCORE.RESTR>
0

>  <SCORE.RESTR.CAVITY>
0

>  <SCORE.RESTR.norm>
0

>  <SCORE.SYSTEM>
0

>  <SCORE.SYSTEM.CONST>
0

>  <SCORE.SYSTEM.DIHEDRAL>
0

>  <SCORE.SYSTEM.SOLV>
0

>  <SCORE.SYSTEM.norm>
0

>  <SCORE.heavy>
14

>  <SCORE.norm>
-0.835777

>  <RMSD>
47.405

$$$$
ligand
 OpenBabel11021811393D
libRbt.so/2013.1/901 2013/11/27
 14 13  0  0  0  0  0  0  0  0999 V2000
   42.8272   -1.5448   -3.6837 N   0  0  0  0  0  0  0  0  0  0  0  0
   43.3435   -2.6847   -2.9419 C   0  0  0  0  0  0  0  0  0  0  0  0
   42.2440   -3.7726   -2.7967 C   0  0  0  0  0  0  0  0  0  0  0  0
   42.5977   -5.0722   -1.9896 C   0  0  0  0  0  0  0  0  0  0  0  0
   43.7363   -5.8911   -2.5461 N   0  0  0  0  0  0  0  0  0  0  0  0
   44.0093   -7.1420   -1.7804 C   0  0  0  0  0  0  0  0  0  0  0  0
   44.8846   -8.1386   -2.5184 C   0  0  0  0  0  0  0  0  0  0  0  0
   45.1033   -9.4177   -1.7309 C   0  0  0  0  0  0  0  0  0  0  0  0
   43.8534  -10.2069   -1.8160 C   0  0  0  0  0  0  0  0  0  0  0  0
   42.7129   -9.6827   -1.0268 N   0  0  0  0  0  0  0  0  0  0  0  0
   42.3656  -10.5216    0.1476 C   0  0  0  0  0  0  0  0  0  0  0  0
   40.8756  -10.4760    0.5999 C   0  0  0  0  0  0  0  0  0  0  0  0
   40.7325  -11.3341    1.8693 C   0  0  0  0  0  0  0  0  0  0  0  0
   41.0356  -12.7338    1.5822 N   0  0  0  0  0  0  0  0  0  0  0  0
  1  2  1  0  0  0  0
  2  3  1  0  0  0  0
  3  4  1  0  0  0  0
  4  5  1  0  0  0  0
  5  6  1  0  0  0  0
  6  7  1  0  0  0  0
  7  8  1  0  0  0  0
  8  9  1  0  0  0  0
  9 10  1  0  0  0  0
 10 11  1  0  0  0  0
 11 12  1  0  0  0  0
 12 13  1  0  0  0  0
 13 14  1  0  0  0  0
M  END
>  <CHROM.1>
-178.43197677,-60.77087453,-177.90268020,164.80861293,-178.06306115,75.33004145
-72.38853768,-109.83628777,-151.68169696,-176.64222729,-63.70874410,42.88024160
-7.75860595,-1.33078749,1.38999501,0.54946285,-0.33886188

>  <Name>
ligand

>  <RI>
0

>  <Rbt.Current_Directory>
/home/itssahil/PROJECTS/Mol_Feturizer/New_Systems/rnas/1EVV

>  <Rbt.Executable>
rbdock ($Id: //depot/dev/client3/rdock/2013.1/src/exe/rbdock.cxx#4 $)

>  <Rbt.Library>
libRbt.so (2013.1, Build901 2013/11/27)

>  <Rbt.Parameter_File>
/export/apps/rDock/src/rDock_2013.1_src/data/scripts/dock_solv.prm

>  <Rbt.Receptor>
prm/blind_docking_100.prm

>  <SCORE>
-9.02907

>  <SCORE.INTER>
-1.76937

>  <SCORE.INTER.CONST>
1

>  <SCORE.INTER.POLAR>
0

>  <SCORE.INTER.ROT>
11

>  <SCORE.INTER.SOLV>
14.3363

>  <SCORE.INTER.VDW>
-16.8917

>  <SCORE.INTER.norm>
-0.126383

>  <SCORE.INTRA>
-7.2597

>  <SCORE.INTRA.DIHEDRAL>
-16.7506

>  <SCORE.INTRA.DIHEDRAL.0>
20.2131

>  <SCORE.INTRA.POLAR>
0

>  <SCORE.INTRA.POLAR.0>
0

>  <SCORE.INTRA.REPUL>
0

>  <SCORE.INTRA.REPUL.0>
0

>  <SCORE.INTRA.SOLV>
0.819317

>  <SCORE.INTRA.SOLV.lig_0>
-48.2851

>  <SCORE.INTRA.VDW>
0.705921

>  <SCORE.INTRA.VDW.0>
-1.08658

>  <SCORE.INTRA.norm>
-0.51855

>  <SCORE.RESTR>
0

>  <SCORE.RESTR.CAVITY>
0

>  <SCORE.RESTR.norm>
0

>  <SCORE.SYSTEM>
0

>  <SCORE.SYSTEM.CONST>
0

>  <SCORE.SYSTEM.DIHEDRAL>
0

>  <SCORE.SYSTEM.SOLV>
0

>  <SCORE.SYSTEM.norm>
0

>  <SCORE.heavy>
14

>  <SCORE.norm>
-0.644934

>  <RMSD>
47.415

$$$$
ligand
 OpenBabel11021811393D
libRbt.so/2013.1/901 2013/11/27
 14 13  0  0  0  0  0  0  0  0999 V2000
   46.6076   -3.8398   -3.7000 N   0  0  0  0  0  0  0  0  0  0  0  0
   47.3072   -5.1075   -3.5598 C   0  0  0  0  0  0  0  0  0  0  0  0
   46.6632   -5.9529   -2.4266 C   0  0  0  0  0  0  0  0  0  0  0  0
   45.1023   -6.1233   -2.4330 C   0  0  0  0  0  0  0  0  0  0  0  0
   44.5706   -7.2582   -1.5929 N   0  0  0  0  0  0  0  0  0  0  0  0
   43.2204   -7.7358   -2.0105 C   0  0  0  0  0  0  0  0  0  0  0  0
   42.8962   -9.1465   -1.5535 C   0  0  0  0  0  0  0  0  0  0  0  0
   42.5416   -9.2148   -0.0791 C   0  0  0  0  0  0  0  0  0  0  0  0
   42.1579  -10.6138    0.2175 C   0  0  0  0  0  0  0  0  0  0  0  0
   41.6975  -10.8689    1.6036 N   0  0  0  0  0  0  0  0  0  0  0  0
   41.1365  -12.2286    1.8042 C   0  0  0  0  0  0  0  0  0  0  0  0
   39.6228  -12.3955    1.4762 C   0  0  0  0  0  0  0  0  0  0  0  0
   38.8205  -11.5134    2.4490 C   0  0  0  0  0  0  0  0  0  0  0  0
   38.8884  -12.0490    3.8062 N   0  0  0  0  0  0  0  0  0  0  0  0
  1  2  1  0  0  0  0
  2  3  1  0  0  0  0
  3  4  1  0  0  0  0
  4  5  1  0  0  0  0
  5  6  1  0  0  0  0
  6  7  1  0  0  0  0
  7  8  1  0  0  0  0
  8  9  1  0  0  0  0
  9 10  1  0  0  0  0
 10 11  1  0  0  0  0
 11 12  1  0  0  0  0
 12 13  1  0  0  0  0
 13 14  1  0  0  0  0
M  END
>  <CHROM.1>
48.87408353,162.35217282,-157.29756939,158.52498633,76.12758676,176.14115508
-176.57657266,171.49784127,-86.38409416,-63.67373457,-69.47454283,42.94519219
-8.86072062,-0.42865849,0.79617766,0.52441307,-0.22978504

>  <Name>
ligand

>  <RI>
0

>  <Rbt.Current_Directory>
/home/itssahil/PROJECTS/Mol_Feturizer/New_Systems/rnas/1EVV

>  <Rbt.Executable>
rbdock ($Id: //depot/dev/client3/rdock/2013.1/src/exe/rbdock.cxx#4 $)

>  <Rbt.Library>
libRbt.so (2013.1, Build901 2013/11/27)

>  <Rbt.Parameter_File>
/export/apps/rDock/src/rDock_2013.1_src/data/scripts/dock_solv.prm

>  <Rbt.Receptor>
prm/blind_docking_100.prm

>  <SCORE>
-9.88258

>  <SCORE.INTER>
-2.63891

>  <SCORE.INTER.CONST>
1

>  <SCORE.INTER.POLAR>
0

>  <SCORE.INTER.ROT>
11

>  <SCORE.INTER.SOLV>
15.5557

>  <SCORE.INTER.VDW>
-17.8779

>  <SCORE.INTER.norm>
-0.188493

>  <SCORE.INTRA>
-7.24367

>  <SCORE.INTRA.DIHEDRAL>
-15.9812

>  <SCORE.INTRA.DIHEDRAL.0>
20.2131

>  <SCORE.INTRA.POLAR>
0

>  <SCORE.INTRA.POLAR.0>
0

>  <SCORE.INTRA.REPUL>
0

>  <SCORE.INTRA.REPUL.0>
0

>  <SCORE.INTRA.SOLV>
1.33648

>  <SCORE.INTRA.SOLV.lig_0>
-48.2851

>  <SCORE.INTRA.VDW>
0.0787124

>  <SCORE.INTRA.VDW.0>
-1.08658

>  <SCORE.INTRA.norm>
-0.517405

>  <SCORE.RESTR>
0

>  <SCORE.RESTR.CAVITY>
0

>  <SCORE.RESTR.norm>
0

>  <SCORE.SYSTEM>
0

>  <SCORE.SYSTEM.CONST>
0

>  <SCORE.SYSTEM.DIHEDRAL>
0

>  <SCORE.SYSTEM.SOLV>
0

>  <SCORE.SYSTEM.norm>
0

>  <SCORE.heavy>
14

>  <SCORE.norm>
-0.705898

>  <RMSD>
47.416

$$$$
ligand
 OpenBabel11021811393D
libRbt.so/2013.1/901 2013/11/27
 14 13  0  0  0  0  0  0  0  0999 V2000
   42.2795   -2.4815   -2.2680 N   0  0  0  0  0  0  0  0  0  0  0  0
   43.6293   -2.7875   -2.7159 C   0  0  0  0  0  0  0  0  0  0  0  0
   43.8982   -4.3136   -2.6044 C   0  0  0  0  0  0  0  0  0  0  0  0
   45.3284   -4.8377   -2.9855 C   0  0  0  0  0  0  0  0  0  0  0  0
   45.4984   -6.3366   -2.9572 N   0  0  0  0  0  0  0  0  0  0  0  0
   45.4872   -6.9185   -1.5836 C   0  0  0  0  0  0  0  0  0  0  0  0
   44.5879   -8.1322   -1.4348 C   0  0  0  0  0  0  0  0  0  0  0  0
   45.0456   -9.3046   -2.2834 C   0  0  0  0  0  0  0  0  0  0  0  0
   44.0441  -10.3831   -2.1218 C   0  0  0  0  0  0  0  0  0  0  0  0
   43.9141  -10.9330   -0.7511 N   0  0  0  0  0  0  0  0  0  0  0  0
   42.6281  -10.5929   -0.0923 C   0  0  0  0  0  0  0  0  0  0  0  0
   42.0338  -11.6857    0.8455 C   0  0  0  0  0  0  0  0  0  0  0  0
   40.6607  -11.1986    1.3409 C   0  0  0  0  0  0  0  0  0  0  0  0
   40.8081  -10.0226    2.1946 N   0  0  0  0  0  0  0  0  0  0  0  0
  1  2  1  0  0  0  0
  2  3  1  0  0  0  0
  3  4  1  0  0  0  0
  4  5  1  0  0  0  0
  5  6  1  0  0  0  0
  6  7  1  0  0  0  0
  7  8  1  0  0  0  0
  8  9  1  0  0  0  0
  9 10  1  0  0  0  0
 10 11  1  0  0  0  0
 11 12  1  0  0  0  0
 12 13  1  0  0  0  0
 13 14  1  0  0  0  0
M  END
>  <CHROM.1>
-177.44984071,-175.58480098,-70.65384405,132.55473677,63.83625668,-176.25614241
-63.47111084,110.89509355,144.99337781,-175.59744882,-66.00124949,43.56042015
-7.85217791,-1.24418061,1.25530507,0.61654419,-0.24678697

>  <Name>
ligand

>  <RI>
0

>  <Rbt.Current_Directory>
/home/itssahil/PROJECTS/Mol_Feturizer/New_Systems/rnas/1EVV

>  <Rbt.Executable>
rbdock ($Id: //depot/dev/client3/rdock/2013.1/src/exe/rbdock.cxx#4 $)

>  <Rbt.Library>
libRbt.so (2013.1, Build901 2013/11/27)

>  <Rbt.Parameter_File>
/export/apps/rDock/src/rDock_2013.1_src/data/scripts/dock_solv.prm

>  <Rbt.Receptor>
prm/blind_docking_100.prm

>  <SCORE>
-12.1046

>  <SCORE.INTER>
-4.20641

>  <SCORE.INTER.CONST>
1

>  <SCORE.INTER.POLAR>
0

>  <SCORE.INTER.ROT>
11

>  <SCORE.INTER.SOLV>
12.7945

>  <SCORE.INTER.VDW>
-18.0024

>  <SCORE.INTER.norm>
-0.300458

>  <SCORE.INTRA>
-7.89814

>  <SCORE.INTRA.DIHEDRAL>
-16.6929

>  <SCORE.INTRA.DIHEDRAL.0>
20.2131

>  <SCORE.INTRA.POLAR>
0

>  <SCORE.INTRA.POLAR.0>
0

>  <SCORE.INTRA.REPUL>
0

>  <SCORE.INTRA.REPUL.0>
0

>  <SCORE.INTRA.SOLV>
0.162939

>  <SCORE.INTRA.SOLV.lig_0>
-48.2851

>  <SCORE.INTRA.VDW>
0.366852

>  <SCORE.INTRA.VDW.0>
-1.08658

>  <SCORE.INTRA.norm>
-0.564153

>  <SCORE.RESTR>
0

>  <SCORE.RESTR.CAVITY>
0

>  <SCORE.RESTR.norm>
0

>  <SCORE.SYSTEM>
0

>  <SCORE.SYSTEM.CONST>
0

>  <SCORE.SYSTEM.DIHEDRAL>
0

>  <SCORE.SYSTEM.SOLV>
0

>  <SCORE.SYSTEM.norm>
0

>  <SCORE.heavy>
14

>  <SCORE.norm>
-0.864611

>  <RMSD>
47.420

$$$$
ligand
 OpenBabel11021811393D
libRbt.so/2013.1/901 2013/11/27
 14 13  0  0  0  0  0  0  0  0999 V2000
   40.7835  -13.4855    2.6901 N   0  0  0  0  0  0  0  0  0  0  0  0
   39.8283  -12.7840    1.8464 C   0  0  0  0  0  0  0  0  0  0  0  0
   39.5811  -11.3510    2.3933 C   0  0  0  0  0  0  0  0  0  0  0  0
   40.7578  -10.3156    2.3003 C   0  0  0  0  0  0  0  0  0  0  0  0
   41.1286   -9.8792    0.9043 N   0  0  0  0  0  0  0  0  0  0  0  0
   42.1217  -10.7710    0.2381 C   0  0  0  0  0  0  0  0  0  0  0  0
   43.3974  -10.0661   -0.1856 C   0  0  0  0  0  0  0  0  0  0  0  0
   43.1347   -8.8892   -1.1077 C   0  0  0  0  0  0  0  0  0  0  0  0
   44.4314   -8.2133   -1.3400 C   0  0  0  0  0  0  0  0  0  0  0  0
   44.3556   -6.9150   -2.0521 N   0  0  0  0  0  0  0  0  0  0  0  0
   45.6831   -6.3345   -2.3751 C   0  0  0  0  0  0  0  0  0  0  0  0
   45.6650   -4.9935   -3.1677 C   0  0  0  0  0  0  0  0  0  0  0  0
   47.1118   -4.6502   -3.5640 C   0  0  0  0  0  0  0  0  0  0  0  0
   47.1357   -3.5534   -4.5283 N   0  0  0  0  0  0  0  0  0  0  0  0
  1  2  1  0  0  0  0
  2  3  1  0  0  0  0
  3  4  1  0  0  0  0
  4  5  1  0  0  0  0
  5  6  1  0  0  0  0
  6  7  1  0  0  0  0
  7  8  1  0  0  0  0
  8  9  1  0  0  0  0
  9 10  1  0  0  0  0
 10 11  1  0  0  0  0
 11 12  1  0  0  0  0
 12 13  1  0  0  0  0
 13 14  1  0  0  0  0
M  END
>  <CHROM.1>
68.69993257,67.97810832,-87.05688320,-121.35559282,-56.66152140,174.61165767
-171.08800742,-174.61771057,177.95933982,-172.71795598,168.79445279,43.22250177
-8.72880014,-0.56763439,-2.28693897,0.56834375,-0.22517730

>  <Name>
ligand

>  <RI>
0

>  <Rbt.Current_Directory>
/home/itssahil/PROJECTS/Mol_Feturizer/New_Systems/rnas/1EVV

>  <Rbt.Executable>
rbdock ($Id: //depot/dev/client3/rdock/2013.1/src/exe/rbdock.cxx#4 $)

>  <Rbt.Library>
libRbt.so (2013.1, Build901 2013/11/27)

>  <Rbt.Parameter_File>
/export/apps/rDock/src/rDock_2013.1_src/data/scripts/dock_solv.prm

>  <Rbt.Receptor>
prm/blind_docking_60.prm

>  <SCORE>
-11.1524

>  <SCORE.INTER>
-2.99865

>  <SCORE.INTER.CONST>
1

>  <SCORE.INTER.POLAR>
0

>  <SCORE.INTER.ROT>
11

>  <SCORE.INTER.SOLV>
14.6564

>  <SCORE.INTER.VDW>
-17.8179

>  <SCORE.INTER.norm>
-0.21419

>  <SCORE.INTRA>
-8.15375

>  <SCORE.INTRA.DIHEDRAL>
-16.843

>  <SCORE.INTRA.DIHEDRAL.0>
20.2131

>  <SCORE.INTRA.POLAR>
0

>  <SCORE.INTRA.POLAR.0>
0

>  <SCORE.INTRA.REPUL>
0

>  <SCORE.INTRA.REPUL.0>
0

>  <SCORE.INTRA.SOLV>
0.915971

>  <SCORE.INTRA.SOLV.lig_0>
-48.2851

>  <SCORE.INTRA.VDW>
-0.19024

>  <SCORE.INTRA.VDW.0>
-1.08658

>  <SCORE.INTRA.norm>
-0.582411

>  <SCORE.RESTR>
0

>  <SCORE.RESTR.CAVITY>
0

>  <SCORE.RESTR.norm>
0

>  <SCORE.SYSTEM>
0

>  <SCORE.SYSTEM.CONST>
0

>  <SCORE.SYSTEM.DIHEDRAL>
0

>  <SCORE.SYSTEM.SOLV>
0

>  <SCORE.SYSTEM.norm>
0

>  <SCORE.heavy>
14

>  <SCORE.norm>
-0.7966

>  <RMSD>
47.441

$$$$
ligand
 OpenBabel11021811393D
libRbt.so/2013.1/901 2013/11/27
 14 13  0  0  0  0  0  0  0  0999 V2000
   38.8159  -14.5825    4.6781 N   0  0  0  0  0  0  0  0  0  0  0  0
   39.9270  -15.0176    3.8461 C   0  0  0  0  0  0  0  0  0  0  0  0
   40.7690  -13.7932    3.3927 C   0  0  0  0  0  0  0  0  0  0  0  0
   40.0442  -12.6642    2.5769 C   0  0  0  0  0  0  0  0  0  0  0  0
   40.9357  -11.5592    2.0663 N   0  0  0  0  0  0  0  0  0  0  0  0
   41.7639  -11.9490    0.8883 C   0  0  0  0  0  0  0  0  0  0  0  0
   42.5908  -10.8138    0.3126 C   0  0  0  0  0  0  0  0  0  0  0  0
   41.7362   -9.6544   -0.1666 C   0  0  0  0  0  0  0  0  0  0  0  0
   42.6404   -8.6807   -0.8197 C   0  0  0  0  0  0  0  0  0  0  0  0
   41.9934   -7.4422   -1.3154 N   0  0  0  0  0  0  0  0  0  0  0  0
   42.8875   -6.5928   -2.1417 C   0  0  0  0  0  0  0  0  0  0  0  0
   42.4764   -5.0958   -2.2706 C   0  0  0  0  0  0  0  0  0  0  0  0
   41.1125   -5.0316   -2.9802 C   0  0  0  0  0  0  0  0  0  0  0  0
   40.6714   -3.6467   -3.1250 N   0  0  0  0  0  0  0  0  0  0  0  0
  1  2  1  0  0  0  0
  2  3  1  0  0  0  0
  3  4  1  0  0  0  0
  4  5  1  0  0  0  0
  5  6  1  0  0  0  0
  6  7  1  0  0  0  0
  7  8  1  0  0  0  0
  8  9  1  0  0  0  0
  9 10  1  0  0  0  0
 10 11  1  0  0  0  0
 11 12  1  0  0  0  0
 12 13  1  0  0  0  0
 13 14  1  0  0  0  0
M  END
>  <CHROM.1>
-58.60154144,-175.10387675,75.45358445,176.02603942,-60.20864219,-174.59360070
-177.84941763,-171.14993983,-159.20933658,-62.87226216,179.76940958,41.31200868
-9.75185619,0.35288897,1.74576625,-0.37912742,2.59894927

>  <Name>
ligand

>  <RI>
0

>  <Rbt.Current_Directory>
/home/itssahil/PROJECTS/Mol_Feturizer/New_Systems/rnas/1EVV

>  <Rbt.Executable>
rbdock ($Id: //depot/dev/client3/rdock/2013.1/src/exe/rbdock.cxx#4 $)

>  <Rbt.Library>
libRbt.so (2013.1, Build901 2013/11/27)

>  <Rbt.Parameter_File>
/export/apps/rDock/src/rDock_2013.1_src/data/scripts/dock_solv.prm

>  <Rbt.Receptor>
prm/blind_docking_80.prm

>  <SCORE>
-10.9096

>  <SCORE.INTER>
-1.35966

>  <SCORE.INTER.CONST>
1

>  <SCORE.INTER.POLAR>
0

>  <SCORE.INTER.ROT>
11

>  <SCORE.INTER.SOLV>
7.73004

>  <SCORE.INTER.VDW>
-14.4165

>  <SCORE.INTER.norm>
-0.0971188

>  <SCORE.INTRA>
-9.54997

>  <SCORE.INTRA.DIHEDRAL>
-19.3609

>  <SCORE.INTRA.DIHEDRAL.0>
20.2131

>  <SCORE.INTRA.POLAR>
0

>  <SCORE.INTRA.POLAR.0>
0

>  <SCORE.INTRA.REPUL>
0

>  <SCORE.INTRA.REPUL.0>
0

>  <SCORE.INTRA.SOLV>
0.0186731

>  <SCORE.INTRA.SOLV.lig_0>
-48.2851

>  <SCORE.INTRA.VDW>
0.121117

>  <SCORE.INTRA.VDW.0>
-1.08658

>  <SCORE.INTRA.norm>
-0.682141

>  <SCORE.RESTR>
0

>  <SCORE.RESTR.CAVITY>
0

>  <SCORE.RESTR.norm>
0

>  <SCORE.SYSTEM>
0

>  <SCORE.SYSTEM.CONST>
0

>  <SCORE.SYSTEM.DIHEDRAL>
0

>  <SCORE.SYSTEM.SOLV>
0

>  <SCORE.SYSTEM.norm>
0

>  <SCORE.heavy>
14

>  <SCORE.norm>
-0.77926

>  <RMSD>
47.462

$$$$
ligand
 OpenBabel11021811393D
libRbt.so/2013.1/901 2013/11/27
 14 13  0  0  0  0  0  0  0  0999 V2000
   41.7036  -12.9282    1.3958 N   0  0  0  0  0  0  0  0  0  0  0  0
   40.3664  -12.4000    1.6170 C   0  0  0  0  0  0  0  0  0  0  0  0
   40.4001  -10.8469    1.6387 C   0  0  0  0  0  0  0  0  0  0  0  0
   40.9123  -10.1048    0.3533 C   0  0  0  0  0  0  0  0  0  0  0  0
   40.8368   -8.5986    0.4008 N   0  0  0  0  0  0  0  0  0  0  0  0
   40.5831   -7.9658   -0.9261 C   0  0  0  0  0  0  0  0  0  0  0  0
   41.7991   -7.9272   -1.8339 C   0  0  0  0  0  0  0  0  0  0  0  0
   42.9445   -7.1270   -1.2407 C   0  0  0  0  0  0  0  0  0  0  0  0
   44.0424   -7.1260   -2.2341 C   0  0  0  0  0  0  0  0  0  0  0  0
   45.2793   -6.4227   -1.8175 N   0  0  0  0  0  0  0  0  0  0  0  0
   46.2329   -6.1851   -2.9300 C   0  0  0  0  0  0  0  0  0  0  0  0
   47.5809   -5.5095   -2.5385 C   0  0  0  0  0  0  0  0  0  0  0  0
   48.3888   -5.2678   -3.8257 C   0  0  0  0  0  0  0  0  0  0  0  0
   47.7207   -4.2868   -4.6771 N   0  0  0  0  0  0  0  0  0  0  0  0
  1  2  1  0  0  0  0
  2  3  1  0  0  0  0
  3  4  1  0  0  0  0
  4  5  1  0  0  0  0
  5  6  1  0  0  0  0
  6  7  1  0  0  0  0
  7  8  1  0  0  0  0
  8  9  1  0  0  0  0
  9 10  1  0  0  0  0
 10 11  1  0  0  0  0
 11 12  1  0  0  0  0
 12 13  1  0  0  0  0
 13 14  1  0  0  0  0
M  END
>  <CHROM.1>
60.02123696,176.14846457,-147.87852417,-76.31707836,-61.03349706,-178.06410095
-178.18138429,-167.31724838,-177.20811415,-176.46604108,66.02895805,43.48489242
-8.04973474,-1.18700147,-2.31451176,0.15851191,-0.51797492

>  <Name>
ligand

>  <RI>
0

>  <Rbt.Current_Directory>
/home/itssahil/PROJECTS/Mol_Feturizer/New_Systems/rnas/1EVV

>  <Rbt.Executable>
rbdock ($Id: //depot/dev/client3/rdock/2013.1/src/exe/rbdock.cxx#4 $)

>  <Rbt.Library>
libRbt.so (2013.1, Build901 2013/11/27)

>  <Rbt.Parameter_File>
/export/apps/rDock/src/rDock_2013.1_src/data/scripts/dock_solv.prm

>  <Rbt.Receptor>
prm/blind_docking_100.prm

>  <SCORE>
-13.2304

>  <SCORE.INTER>
-4.2904

>  <SCORE.INTER.CONST>
1

>  <SCORE.INTER.POLAR>
0

>  <SCORE.INTER.ROT>
11

>  <SCORE.INTER.SOLV>
15.0794

>  <SCORE.INTER.VDW>
-18.8201

>  <SCORE.INTER.norm>
-0.306457

>  <SCORE.INTRA>
-8.94

>  <SCORE.INTRA.DIHEDRAL>
-18.9351

>  <SCORE.INTRA.DIHEDRAL.0>
20.2131

>  <SCORE.INTRA.POLAR>
0

>  <SCORE.INTRA.POLAR.0>
0

>  <SCORE.INTRA.REPUL>
0

>  <SCORE.INTRA.REPUL.0>
0

>  <SCORE.INTRA.SOLV>
0.475504

>  <SCORE.INTRA.SOLV.lig_0>
-48.2851

>  <SCORE.INTRA.VDW>
0.289776

>  <SCORE.INTRA.VDW.0>
-1.08658

>  <SCORE.INTRA.norm>
-0.638572

>  <SCORE.RESTR>
0

>  <SCORE.RESTR.CAVITY>
0

>  <SCORE.RESTR.norm>
0

>  <SCORE.SYSTEM>
0

>  <SCORE.SYSTEM.CONST>
0

>  <SCORE.SYSTEM.DIHEDRAL>
0

>  <SCORE.SYSTEM.SOLV>
0

>  <SCORE.SYSTEM.norm>
0

>  <SCORE.heavy>
14

>  <SCORE.norm>
-0.945029

>  <RMSD>
47.508

$$$$
ligand
 OpenBabel11021811393D
libRbt.so/2013.1/901 2013/11/27
 14 13  0  0  0  0  0  0  0  0999 V2000
   43.8436   -9.9964   -2.2421 N   0  0  0  0  0  0  0  0  0  0  0  0
   43.8211   -8.9918   -1.1903 C   0  0  0  0  0  0  0  0  0  0  0  0
   42.3621   -8.7420   -0.7185 C   0  0  0  0  0  0  0  0  0  0  0  0
   41.3507   -8.1279   -1.7508 C   0  0  0  0  0  0  0  0  0  0  0  0
   41.7684   -6.8145   -2.3649 N   0  0  0  0  0  0  0  0  0  0  0  0
   41.9286   -5.7102   -1.3748 C   0  0  0  0  0  0  0  0  0  0  0  0
   42.5087   -4.4356   -1.9604 C   0  0  0  0  0  0  0  0  0  0  0  0
   43.8181   -4.6727   -2.6908 C   0  0  0  0  0  0  0  0  0  0  0  0
   44.3239   -3.3518   -3.1285 C   0  0  0  0  0  0  0  0  0  0  0  0
   45.4397   -3.3873   -4.1043 N   0  0  0  0  0  0  0  0  0  0  0  0
   46.5133   -4.3481   -3.7468 C   0  0  0  0  0  0  0  0  0  0  0  0
   47.6675   -4.4955   -4.7826 C   0  0  0  0  0  0  0  0  0  0  0  0
   48.3622   -5.8467   -4.5387 C   0  0  0  0  0  0  0  0  0  0  0  0
   48.9068   -5.9094   -3.1848 N   0  0  0  0  0  0  0  0  0  0  0  0
  1  2  1  0  0  0  0
  2  3  1  0  0  0  0
  3  4  1  0  0  0  0
  4  5  1  0  0  0  0
  5  6  1  0  0  0  0
  6  7  1  0  0  0  0
  7  8  1  0  0  0  0
  8  9  1  0  0  0  0
  9 10  1  0  0  0  0
 10 11  1  0  0  0  0
 11 12  1  0  0  0  0
 12 13  1  0  0  0  0
 13 14  1  0  0  0  0
M  END
>  <CHROM.1>
-64.51510645,-56.12271189,-61.86300109,172.99395061,-53.77079124,-176.11679916
-167.53877701,-46.01387017,176.19614112,-158.78860590,-59.87613571,44.47227234
-6.05908787,-2.69835638,-2.51878879,0.32401042,-0.23553092

>  <Name>
ligand

>  <RI>
0

>  <Rbt.Current_Directory>
/home/itssahil/PROJECTS/Mol_Feturizer/New_Systems/rnas/1EVV

>  <Rbt.Executable>
rbdock ($Id: //depot/dev/client3/rdock/2013.1/src/exe/rbdock.cxx#4 $)

>  <Rbt.Library>
libRbt.so (2013.1, Build901 2013/11/27)

>  <Rbt.Parameter_File>
/export/apps/rDock/src/rDock_2013.1_src/data/scripts/dock_solv.prm

>  <Rbt.Receptor>
prm/blind_docking_100.prm

>  <SCORE>
-6.15342

>  <SCORE.INTER>
-0.0210306

>  <SCORE.INTER.CONST>
1

>  <SCORE.INTER.POLAR>
0

>  <SCORE.INTER.ROT>
11

>  <SCORE.INTER.SOLV>
16.4153

>  <SCORE.INTER.VDW>
-16.4191

>  <SCORE.INTER.norm>
-0.00150219

>  <SCORE.INTRA>
-6.13239

>  <SCORE.INTRA.DIHEDRAL>
-17.5614

>  <SCORE.INTRA.DIHEDRAL.0>
20.2131

>  <SCORE.INTRA.POLAR>
0

>  <SCORE.INTRA.POLAR.0>
0

>  <SCORE.INTRA.REPUL>
0

>  <SCORE.INTRA.REPUL.0>
0

>  <SCORE.INTRA.SOLV>
1.41088

>  <SCORE.INTRA.SOLV.lig_0>
-48.2851

>  <SCORE.INTRA.VDW>
1.94288

>  <SCORE.INTRA.VDW.0>
-1.08658

>  <SCORE.INTRA.norm>
-0.438028

>  <SCORE.RESTR>
0

>  <SCORE.RESTR.CAVITY>
0

>  <SCORE.RESTR.norm>
0

>  <SCORE.SYSTEM>
0

>  <SCORE.SYSTEM.CONST>
0

>  <SCORE.SYSTEM.DIHEDRAL>
0

>  <SCORE.SYSTEM.SOLV>
0

>  <SCORE.SYSTEM.norm>
0

>  <SCORE.heavy>
14

>  <SCORE.norm>
-0.43953

>  <RMSD>
47.527

$$$$
ligand
 OpenBabel11021811393D
libRbt.so/2013.1/901 2013/11/27
 14 13  0  0  0  0  0  0  0  0999 V2000
   46.8158   -2.6569   -5.8275 N   0  0  0  0  0  0  0  0  0  0  0  0
   46.0275   -3.2606   -4.7644 C   0  0  0  0  0  0  0  0  0  0  0  0
   46.8577   -4.3527   -4.0352 C   0  0  0  0  0  0  0  0  0  0  0  0
   46.1282   -5.2359   -2.9613 C   0  0  0  0  0  0  0  0  0  0  0  0
   46.9863   -6.2786   -2.2881 N   0  0  0  0  0  0  0  0  0  0  0  0
   46.2120   -7.4177   -1.7150 C   0  0  0  0  0  0  0  0  0  0  0  0
   46.1273   -8.6275   -2.6277 C   0  0  0  0  0  0  0  0  0  0  0  0
   45.2945   -9.7490   -2.0336 C   0  0  0  0  0  0  0  0  0  0  0  0
   43.8712   -9.3754   -2.1975 C   0  0  0  0  0  0  0  0  0  0  0  0
   43.4247   -8.2020   -1.4089 N   0  0  0  0  0  0  0  0  0  0  0  0
   42.0591   -7.7352   -1.7567 C   0  0  0  0  0  0  0  0  0  0  0  0
   41.6585   -6.3334   -1.2080 C   0  0  0  0  0  0  0  0  0  0  0  0
   40.1916   -6.0690   -1.5906 C   0  0  0  0  0  0  0  0  0  0  0  0
   39.7614   -4.7589   -1.1091 N   0  0  0  0  0  0  0  0  0  0  0  0
  1  2  1  0  0  0  0
  2  3  1  0  0  0  0
  3  4  1  0  0  0  0
  4  5  1  0  0  0  0
  5  6  1  0  0  0  0
  6  7  1  0  0  0  0
  7  8  1  0  0  0  0
  8  9  1  0  0  0  0
  9 10  1  0  0  0  0
 10 11  1  0  0  0  0
 11 12  1  0  0  0  0
 12 13  1  0  0  0  0
 13 14  1  0  0  0  0
M  END
>  <CHROM.1>
-173.16031976,179.99113121,-156.90517403,95.94252861,-178.08145625,77.20220143
-66.80481367,171.11828000,-166.66466329,-176.32187942,-179.57776497,44.38690424
-6.43272883,-2.53735510,0.60733068,0.30419766,-0.37688453

>  <Name>
ligand

>  <RI>
0

>  <Rbt.Current_Directory>
/home/itssahil/PROJECTS/Mol_Feturizer/New_Systems/rnas/1EVV

>  <Rbt.Executable>
rbdock ($Id: //depot/dev/client3/rdock/2013.1/src/exe/rbdock.cxx#4 $)

>  <Rbt.Library>
libRbt.so (2013.1, Build901 2013/11/27)

>  <Rbt.Parameter_File>
/export/apps/rDock/src/rDock_2013.1_src/data/scripts/dock_solv.prm

>  <Rbt.Receptor>
prm/blind_docking_100.prm

>  <SCORE>
-11.8502

>  <SCORE.INTER>
-3.67505

>  <SCORE.INTER.CONST>
1

>  <SCORE.INTER.POLAR>
0

>  <SCORE.INTER.ROT>
11

>  <SCORE.INTER.SOLV>
11.1565

>  <SCORE.INTER.VDW>
-17.1022

>  <SCORE.INTER.norm>
-0.262504

>  <SCORE.INTRA>
-8.17517

>  <SCORE.INTRA.DIHEDRAL>
-17.2639

>  <SCORE.INTRA.DIHEDRAL.0>
20.2131

>  <SCORE.INTRA.POLAR>
0

>  <SCORE.INTRA.POLAR.0>
0

>  <SCORE.INTRA.REPUL>
0

>  <SCORE.INTRA.REPUL.0>
0

>  <SCORE.INTRA.SOLV>
-0.068078

>  <SCORE.INTRA.SOLV.lig_0>
-48.2851

>  <SCORE.INTRA.VDW>
0.490828

>  <SCORE.INTRA.VDW.0>
-1.08658

>  <SCORE.INTRA.norm>
-0.583941

>  <SCORE.RESTR>
0

>  <SCORE.RESTR.CAVITY>
0

>  <SCORE.RESTR.norm>
0

>  <SCORE.SYSTEM>
0

>  <SCORE.SYSTEM.CONST>
0

>  <SCORE.SYSTEM.DIHEDRAL>
0

>  <SCORE.SYSTEM.SOLV>
0

>  <SCORE.SYSTEM.norm>
0

>  <SCORE.heavy>
14

>  <SCORE.norm>
-0.846444

>  <RMSD>
47.527

$$$$
ligand
 OpenBabel11021811393D
libRbt.so/2013.1/901 2013/11/27
 14 13  0  0  0  0  0  0  0  0999 V2000
   40.6981  -15.5842    2.4112 N   0  0  0  0  0  0  0  0  0  0  0  0
   41.1953  -14.6348    3.3949 C   0  0  0  0  0  0  0  0  0  0  0  0
   40.8809  -13.1816    2.9442 C   0  0  0  0  0  0  0  0  0  0  0  0
   41.5298  -12.6694    1.6094 C   0  0  0  0  0  0  0  0  0  0  0  0
   41.2451  -11.2291    1.2611 N   0  0  0  0  0  0  0  0  0  0  0  0
   42.1383  -10.6776    0.2011 C   0  0  0  0  0  0  0  0  0  0  0  0
   41.7731   -9.2733   -0.2445 C   0  0  0  0  0  0  0  0  0  0  0  0
   42.6987   -8.7453   -1.3255 C   0  0  0  0  0  0  0  0  0  0  0  0
   42.3611   -7.3192   -1.5368 C   0  0  0  0  0  0  0  0  0  0  0  0
   43.2515   -6.5838   -2.4667 N   0  0  0  0  0  0  0  0  0  0  0  0
   43.3685   -5.1362   -2.1595 C   0  0  0  0  0  0  0  0  0  0  0  0
   42.3560   -4.2020   -2.8868 C   0  0  0  0  0  0  0  0  0  0  0  0
   40.9432   -4.5341   -2.3754 C   0  0  0  0  0  0  0  0  0  0  0  0
   39.9571   -3.6298   -2.9614 N   0  0  0  0  0  0  0  0  0  0  0  0
  1  2  1  0  0  0  0
  2  3  1  0  0  0  0
  3  4  1  0  0  0  0
  4  5  1  0  0  0  0
  5  6  1  0  0  0  0
  6  7  1  0  0  0  0
  7  8  1  0  0  0  0
  8  9  1  0  0  0  0
  9 10  1  0  0  0  0
 10 11  1  0  0  0  0
 11 12  1  0  0  0  0
 12 13  1  0  0  0  0
 13 14  1  0  0  0  0
M  END
>  <CHROM.1>
-62.55682772,-176.98570963,165.17565275,174.57646879,-179.82539524,-172.30516611
174.15944472,-150.41691652,-91.71539721,65.78985222,176.42521344,41.74280995
-9.09996215,-0.29528689,1.64874016,-0.28748912,2.65634897

>  <Name>
ligand

>  <RI>
0

>  <Rbt.Current_Directory>
/home/itssahil/PROJECTS/Mol_Feturizer/New_Systems/rnas/1EVV

>  <Rbt.Executable>
rbdock ($Id: //depot/dev/client3/rdock/2013.1/src/exe/rbdock.cxx#4 $)

>  <Rbt.Library>
libRbt.so (2013.1, Build901 2013/11/27)

>  <Rbt.Parameter_File>
/export/apps/rDock/src/rDock_2013.1_src/data/scripts/dock_solv.prm

>  <Rbt.Receptor>
prm/blind_docking_60.prm

>  <SCORE>
-9.68825

>  <SCORE.INTER>
-0.508673

>  <SCORE.INTER.CONST>
1

>  <SCORE.INTER.POLAR>
0

>  <SCORE.INTER.ROT>
11

>  <SCORE.INTER.SOLV>
10.5406

>  <SCORE.INTER.VDW>
-14.786

>  <SCORE.INTER.norm>
-0.0363338

>  <SCORE.INTRA>
-9.17958

>  <SCORE.INTRA.DIHEDRAL>
-18.1703

>  <SCORE.INTRA.DIHEDRAL.0>
20.2131

>  <SCORE.INTRA.POLAR>
0

>  <SCORE.INTRA.POLAR.0>
0

>  <SCORE.INTRA.REPUL>
0

>  <SCORE.INTRA.REPUL.0>
0

>  <SCORE.INTRA.SOLV>
-0.373932

>  <SCORE.INTRA.SOLV.lig_0>
-48.2851

>  <SCORE.INTRA.VDW>
0.092528

>  <SCORE.INTRA.VDW.0>
-1.08658

>  <SCORE.INTRA.norm>
-0.655684

>  <SCORE.RESTR>
0

>  <SCORE.RESTR.CAVITY>
0

>  <SCORE.RESTR.norm>
0

>  <SCORE.SYSTEM>
0

>  <SCORE.SYSTEM.CONST>
0

>  <SCORE.SYSTEM.DIHEDRAL>
0

>  <SCORE.SYSTEM.SOLV>
0

>  <SCORE.SYSTEM.norm>
0

>  <SCORE.heavy>
14

>  <SCORE.norm>
-0.692018

>  <RMSD>
47.538

$$$$
ligand
 OpenBabel11021811393D
libRbt.so/2013.1/901 2013/11/27
 14 13  0  0  0  0  0  0  0  0999 V2000
   48.6040   -6.2949   -4.0018 N   0  0  0  0  0  0  0  0  0  0  0  0
   48.2519   -5.0952   -3.2583 C   0  0  0  0  0  0  0  0  0  0  0  0
   46.7081   -4.9284   -3.2094 C   0  0  0  0  0  0  0  0  0  0  0  0
   45.8700   -6.0483   -2.4962 C   0  0  0  0  0  0  0  0  0  0  0  0
   44.3801   -5.8141   -2.4518 N   0  0  0  0  0  0  0  0  0  0  0  0
   43.5904   -7.0251   -2.0840 C   0  0  0  0  0  0  0  0  0  0  0  0
   42.0881   -6.8081   -2.0922 C   0  0  0  0  0  0  0  0  0  0  0  0
   41.3147   -8.0714   -1.7602 C   0  0  0  0  0  0  0  0  0  0  0  0
   41.4611   -8.3084   -0.3060 C   0  0  0  0  0  0  0  0  0  0  0  0
   40.8450   -9.5577    0.2020 N   0  0  0  0  0  0  0  0  0  0  0  0
   41.8329  -10.6073    0.5573 C   0  0  0  0  0  0  0  0  0  0  0  0
   41.2399  -11.9727    1.0162 C   0  0  0  0  0  0  0  0  0  0  0  0
   40.3850  -11.7274    2.2720 C   0  0  0  0  0  0  0  0  0  0  0  0
   39.8423  -12.9848    2.7799 N   0  0  0  0  0  0  0  0  0  0  0  0
  1  2  1  0  0  0  0
  2  3  1  0  0  0  0
  3  4  1  0  0  0  0
  4  5  1  0  0  0  0
  5  6  1  0  0  0  0
  6  7  1  0  0  0  0
  7  8  1  0  0  0  0
  8  9  1  0  0  0  0
  9 10  1  0  0  0  0
 10 11  1  0  0  0  0
 11 12  1  0  0  0  0
 12 13  1  0  0  0  0
 13 14  1  0  0  0  0
M  END
>  <CHROM.1>
62.06269944,178.58562607,165.57937724,-177.68543754,178.03809922,74.17450018
-176.09711437,106.97353701,-176.46755173,-60.29514796,-177.82649684,43.31521295
-8.23151759,-1.05954157,-0.86499910,-0.10995088,2.55751665

>  <Name>
ligand

>  <RI>
0

>  <Rbt.Current_Directory>
/home/itssahil/PROJECTS/Mol_Feturizer/New_Systems/rnas/1EVV

>  <Rbt.Executable>
rbdock ($Id: //depot/dev/client3/rdock/2013.1/src/exe/rbdock.cxx#4 $)

>  <Rbt.Library>
libRbt.so (2013.1, Build901 2013/11/27)

>  <Rbt.Parameter_File>
/export/apps/rDock/src/rDock_2013.1_src/data/scripts/dock_solv.prm

>  <Rbt.Receptor>
prm/blind_docking_100.prm

>  <SCORE>
-14.2363

>  <SCORE.INTER>
-5.71225

>  <SCORE.INTER.CONST>
1

>  <SCORE.INTER.POLAR>
0

>  <SCORE.INTER.ROT>
11

>  <SCORE.INTER.SOLV>
12.287

>  <SCORE.INTER.VDW>
-18.8372

>  <SCORE.INTER.norm>
-0.408018

>  <SCORE.INTRA>
-8.5241

>  <SCORE.INTRA.DIHEDRAL>
-18.0511

>  <SCORE.INTRA.DIHEDRAL.0>
20.2131

>  <SCORE.INTRA.POLAR>
0

>  <SCORE.INTRA.POLAR.0>
0

>  <SCORE.INTRA.REPUL>
0

>  <SCORE.INTRA.REPUL.0>
0

>  <SCORE.INTRA.SOLV>
-0.189983

>  <SCORE.INTRA.SOLV.lig_0>
-48.2851

>  <SCORE.INTRA.VDW>
0.596442

>  <SCORE.INTRA.VDW.0>
-1.08658

>  <SCORE.INTRA.norm>
-0.608864

>  <SCORE.RESTR>
0

>  <SCORE.RESTR.CAVITY>
0

>  <SCORE.RESTR.norm>
0

>  <SCORE.SYSTEM>
0

>  <SCORE.SYSTEM.CONST>
0

>  <SCORE.SYSTEM.DIHEDRAL>
0

>  <SCORE.SYSTEM.SOLV>
0

>  <SCORE.SYSTEM.norm>
0

>  <SCORE.heavy>
14

>  <SCORE.norm>
-1.01688

>  <RMSD>
47.539

$$$$
ligand
 OpenBabel11021811393D
libRbt.so/2013.1/901 2013/11/27
 14 13  0  0  0  0  0  0  0  0999 V2000
   47.2965   -4.9504   -5.0484 N   0  0  0  0  0  0  0  0  0  0  0  0
   48.3134   -5.0295   -4.0111 C   0  0  0  0  0  0  0  0  0  0  0  0
   48.0272   -6.2322   -3.0703 C   0  0  0  0  0  0  0  0  0  0  0  0
   46.7184   -6.1924   -2.2036 C   0  0  0  0  0  0  0  0  0  0  0  0
   45.4255   -6.2634   -2.9782 N   0  0  0  0  0  0  0  0  0  0  0  0
   44.2062   -6.1315   -2.1288 C   0  0  0  0  0  0  0  0  0  0  0  0
   43.9065   -7.3571   -1.2850 C   0  0  0  0  0  0  0  0  0  0  0  0
   42.7622   -7.1306   -0.3135 C   0  0  0  0  0  0  0  0  0  0  0  0
   42.5952   -8.3765    0.4689 C   0  0  0  0  0  0  0  0  0  0  0  0
   42.0948   -9.5460   -0.2928 N   0  0  0  0  0  0  0  0  0  0  0  0
   41.0103  -10.2873    0.3984 C   0  0  0  0  0  0  0  0  0  0  0  0
   41.4407  -11.5869    1.1417 C   0  0  0  0  0  0  0  0  0  0  0  0
   40.1896  -12.2071    1.7884 C   0  0  0  0  0  0  0  0  0  0  0  0
   40.5423  -13.4010    2.5523 N   0  0  0  0  0  0  0  0  0  0  0  0
  1  2  1  0  0  0  0
  2  3  1  0  0  0  0
  3  4  1  0  0  0  0
  4  5  1  0  0  0  0
  5  6  1  0  0  0  0
  6  7  1  0  0  0  0
  7  8  1  0  0  0  0
  8  9  1  0  0  0  0
  9 10  1  0  0  0  0
 10 11  1  0  0  0  0
 11 12  1  0  0  0  0
 12 13  1  0  0  0  0
 13 14  1  0  0  0  0
M  END
>  <CHROM.1>
-64.88624136,66.53575739,-176.14548638,-73.14436125,173.12727526,-178.48805250
-68.19040129,-134.16116753,-100.08865831,-179.97608176,-177.47378045,43.89493327
-8.19212574,-1.06999422,-0.84522671,-0.36123162,2.75430810

>  <Name>
ligand

>  <RI>
0

>  <Rbt.Current_Directory>
/home/itssahil/PROJECTS/Mol_Feturizer/New_Systems/rnas/1EVV

>  <Rbt.Executable>
rbdock ($Id: //depot/dev/client3/rdock/2013.1/src/exe/rbdock.cxx#4 $)

>  <Rbt.Library>
libRbt.so (2013.1, Build901 2013/11/27)

>  <Rbt.Parameter_File>
/export/apps/rDock/src/rDock_2013.1_src/data/scripts/dock_solv.prm

>  <Rbt.Receptor>
prm/blind_docking_100.prm

>  <SCORE>
-9.90347

>  <SCORE.INTER>
-2.02246

>  <SCORE.INTER.CONST>
1

>  <SCORE.INTER.POLAR>
0

>  <SCORE.INTER.ROT>
11

>  <SCORE.INTER.SOLV>
11.6844

>  <SCORE.INTER.VDW>
-16.1764

>  <SCORE.INTER.norm>
-0.144461

>  <SCORE.INTRA>
-7.88101

>  <SCORE.INTRA.DIHEDRAL>
-17.4092

>  <SCORE.INTRA.DIHEDRAL.0>
20.2131

>  <SCORE.INTRA.POLAR>
0

>  <SCORE.INTRA.POLAR.0>
0

>  <SCORE.INTRA.REPUL>
0

>  <SCORE.INTRA.REPUL.0>
0

>  <SCORE.INTRA.SOLV>
1.46076

>  <SCORE.INTRA.SOLV.lig_0>
-48.2851

>  <SCORE.INTRA.VDW>
0.0932141

>  <SCORE.INTRA.VDW.0>
-1.08658

>  <SCORE.INTRA.norm>
-0.562929

>  <SCORE.RESTR>
0

>  <SCORE.RESTR.CAVITY>
0

>  <SCORE.RESTR.norm>
0

>  <SCORE.SYSTEM>
0

>  <SCORE.SYSTEM.CONST>
0

>  <SCORE.SYSTEM.DIHEDRAL>
0

>  <SCORE.SYSTEM.SOLV>
0

>  <SCORE.SYSTEM.norm>
0

>  <SCORE.heavy>
14

>  <SCORE.norm>
-0.70739

>  <RMSD>
47.541

$$$$
ligand
 OpenBabel11021811393D
libRbt.so/2013.1/901 2013/11/27
 14 13  0  0  0  0  0  0  0  0999 V2000
   43.5698   -2.0810   -3.2103 N   0  0  0  0  0  0  0  0  0  0  0  0
   44.4296   -3.2438   -3.3681 C   0  0  0  0  0  0  0  0  0  0  0  0
   43.8738   -4.4375   -2.5436 C   0  0  0  0  0  0  0  0  0  0  0  0
   44.7032   -5.7706   -2.5295 C   0  0  0  0  0  0  0  0  0  0  0  0
   44.0467   -6.9353   -1.8300 N   0  0  0  0  0  0  0  0  0  0  0  0
   44.7387   -8.2384   -2.0504 C   0  0  0  0  0  0  0  0  0  0  0  0
   43.9037   -9.4508   -1.6808 C   0  0  0  0  0  0  0  0  0  0  0  0
   43.4563   -9.4306   -0.2304 C   0  0  0  0  0  0  0  0  0  0  0  0
   42.5159  -10.5589   -0.0435 C   0  0  0  0  0  0  0  0  0  0  0  0
   41.8000  -10.5844    1.2546 N   0  0  0  0  0  0  0  0  0  0  0  0
   40.6169  -11.4810    1.2648 C   0  0  0  0  0  0  0  0  0  0  0  0
   40.7215  -12.7356    2.1822 C   0  0  0  0  0  0  0  0  0  0  0  0
   41.9025  -13.5919    1.6922 C   0  0  0  0  0  0  0  0  0  0  0  0
   42.0325  -14.8015    2.5005 N   0  0  0  0  0  0  0  0  0  0  0  0
  1  2  1  0  0  0  0
  2  3  1  0  0  0  0
  3  4  1  0  0  0  0
  4  5  1  0  0  0  0
  5  6  1  0  0  0  0
  6  7  1  0  0  0  0
  7  8  1  0  0  0  0
  8  9  1  0  0  0  0
  9 10  1  0  0  0  0
 10 11  1  0  0  0  0
 11 12  1  0  0  0  0
 12 13  1  0  0  0  0
 13 14  1  0  0  0  0
M  END
>  <CHROM.1>
-177.14030323,-174.03816731,169.34286700,-164.29471996,-58.10741724,172.81275970
-170.74389904,163.95836613,112.98508879,-61.01075379,-178.79439879,43.02230008
-8.81017842,-0.61386298,1.26880444,0.56481438,-0.32002279

>  <Name>
ligand

>  <RI>
0

>  <Rbt.Current_Directory>
/home/itssahil/PROJECTS/Mol_Feturizer/New_Systems/rnas/1EVV

>  <Rbt.Executable>
rbdock ($Id: //depot/dev/client3/rdock/2013.1/src/exe/rbdock.cxx#4 $)

>  <Rbt.Library>
libRbt.so (2013.1, Build901 2013/11/27)

>  <Rbt.Parameter_File>
/export/apps/rDock/src/rDock_2013.1_src/data/scripts/dock_solv.prm

>  <Rbt.Receptor>
prm/blind_docking_100.prm

>  <SCORE>
-12.3753

>  <SCORE.INTER>
-3.02452

>  <SCORE.INTER.CONST>
1

>  <SCORE.INTER.POLAR>
0

>  <SCORE.INTER.ROT>
11

>  <SCORE.INTER.SOLV>
13.8622

>  <SCORE.INTER.VDW>
-17.5704

>  <SCORE.INTER.norm>
-0.216037

>  <SCORE.INTRA>
-9.35078

>  <SCORE.INTRA.DIHEDRAL>
-17.8518

>  <SCORE.INTRA.DIHEDRAL.0>
20.2131

>  <SCORE.INTRA.POLAR>
0

>  <SCORE.INTRA.POLAR.0>
0

>  <SCORE.INTRA.REPUL>
0

>  <SCORE.INTRA.REPUL.0>
0

>  <SCORE.INTRA.SOLV>
-0.616472

>  <SCORE.INTRA.SOLV.lig_0>
-48.2851

>  <SCORE.INTRA.VDW>
-0.116639

>  <SCORE.INTRA.VDW.0>
-1.08658

>  <SCORE.INTRA.norm>
-0.667913

>  <SCORE.RESTR>
0

>  <SCORE.RESTR.CAVITY>
0

>  <SCORE.RESTR.norm>
0

>  <SCORE.SYSTEM>
0

>  <SCORE.SYSTEM.CONST>
0

>  <SCORE.SYSTEM.DIHEDRAL>
0

>  <SCORE.SYSTEM.SOLV>
0

>  <SCORE.SYSTEM.norm>
0

>  <SCORE.heavy>
14

>  <SCORE.norm>
-0.883951

>  <RMSD>
47.548

$$$$
ligand
 OpenBabel11021811393D
libRbt.so/2013.1/901 2013/11/27
 14 13  0  0  0  0  0  0  0  0999 V2000
   39.8355   -2.9858   -3.0868 N   0  0  0  0  0  0  0  0  0  0  0  0
   40.7547   -4.0796   -3.3607 C   0  0  0  0  0  0  0  0  0  0  0  0
   41.9698   -4.0134   -2.3950 C   0  0  0  0  0  0  0  0  0  0  0  0
   43.0680   -5.1289   -2.5177 C   0  0  0  0  0  0  0  0  0  0  0  0
   42.5714   -6.5463   -2.3723 N   0  0  0  0  0  0  0  0  0  0  0  0
   43.6314   -7.5184   -1.9763 C   0  0  0  0  0  0  0  0  0  0  0  0
   43.1002   -8.8862   -1.5875 C   0  0  0  0  0  0  0  0  0  0  0  0
   44.1681   -9.7739   -0.9746 C   0  0  0  0  0  0  0  0  0  0  0  0
   43.4977  -11.0052   -0.4983 C   0  0  0  0  0  0  0  0  0  0  0  0
   42.4374  -10.8020    0.5179 N   0  0  0  0  0  0  0  0  0  0  0  0
   41.8382  -12.0661    1.0144 C   0  0  0  0  0  0  0  0  0  0  0  0
   40.5151  -11.9204    1.8237 C   0  0  0  0  0  0  0  0  0  0  0  0
   40.0871  -13.3196    2.3005 C   0  0  0  0  0  0  0  0  0  0  0  0
   38.8588  -13.2427    3.0871 N   0  0  0  0  0  0  0  0  0  0  0  0
  1  2  1  0  0  0  0
  2  3  1  0  0  0  0
  3  4  1  0  0  0  0
  4  5  1  0  0  0  0
  5  6  1  0  0  0  0
  6  7  1  0  0  0  0
  7  8  1  0  0  0  0
  8  9  1  0  0  0  0
  9 10  1  0  0  0  0
 10 11  1  0  0  0  0
 11 12  1  0  0  0  0
 12 13  1  0  0  0  0
 13 14  1  0  0  0  0
M  END
>  <CHROM.1>
179.01012082,-56.64544649,-157.94612758,169.60981284,-170.51875306,173.53053661
-59.71256813,-177.21242094,-166.44883138,-177.55677724,179.06336083,41.88133264
-8.66356981,-0.71622194,1.46828349,0.34740788,-0.48651845

>  <Name>
ligand

>  <RI>
0

>  <Rbt.Current_Directory>
/home/itssahil/PROJECTS/Mol_Feturizer/New_Systems/rnas/1EVV

>  <Rbt.Executable>
rbdock ($Id: //depot/dev/client3/rdock/2013.1/src/exe/rbdock.cxx#4 $)

>  <Rbt.Library>
libRbt.so (2013.1, Build901 2013/11/27)

>  <Rbt.Parameter_File>
/export/apps/rDock/src/rDock_2013.1_src/data/scripts/dock_solv.prm

>  <Rbt.Receptor>
prm/blind_docking_80.prm

>  <SCORE>
-11.8149

>  <SCORE.INTER>
-1.93908

>  <SCORE.INTER.CONST>
1

>  <SCORE.INTER.POLAR>
0

>  <SCORE.INTER.ROT>
11

>  <SCORE.INTER.SOLV>
9.90075

>  <SCORE.INTER.VDW>
-15.5263

>  <SCORE.INTER.norm>
-0.138505

>  <SCORE.INTRA>
-9.87584

>  <SCORE.INTRA.DIHEDRAL>
-19.0384

>  <SCORE.INTRA.DIHEDRAL.0>
20.2131

>  <SCORE.INTRA.POLAR>
0

>  <SCORE.INTRA.POLAR.0>
0

>  <SCORE.INTRA.REPUL>
0

>  <SCORE.INTRA.REPUL.0>
0

>  <SCORE.INTRA.SOLV>
-0.639586

>  <SCORE.INTRA.SOLV.lig_0>
-48.2851

>  <SCORE.INTRA.VDW>
-0.0368415

>  <SCORE.INTRA.VDW.0>
-1.08658

>  <SCORE.INTRA.norm>
-0.705417

>  <SCORE.RESTR>
0

>  <SCORE.RESTR.CAVITY>
0

>  <SCORE.RESTR.norm>
0

>  <SCORE.SYSTEM>
0

>  <SCORE.SYSTEM.CONST>
0

>  <SCORE.SYSTEM.DIHEDRAL>
0

>  <SCORE.SYSTEM.SOLV>
0

>  <SCORE.SYSTEM.norm>
0

>  <SCORE.heavy>
14

>  <SCORE.norm>
-0.843923

>  <RMSD>
47.548

$$$$
ligand
 OpenBabel11021811393D
libRbt.so/2013.1/901 2013/11/27
 14 13  0  0  0  0  0  0  0  0999 V2000
   39.6057   -8.9921    2.0344 N   0  0  0  0  0  0  0  0  0  0  0  0
   40.6089   -9.8092    2.6993 C   0  0  0  0  0  0  0  0  0  0  0  0
   40.9544  -11.0484    1.8282 C   0  0  0  0  0  0  0  0  0  0  0  0
   41.5921  -10.7989    0.4152 C   0  0  0  0  0  0  0  0  0  0  0  0
   42.9220  -10.0862    0.4208 N   0  0  0  0  0  0  0  0  0  0  0  0
   43.7419  -10.3311   -0.8012 C   0  0  0  0  0  0  0  0  0  0  0  0
   43.2940   -9.5363   -2.0144 C   0  0  0  0  0  0  0  0  0  0  0  0
   43.4903   -8.0416   -1.8373 C   0  0  0  0  0  0  0  0  0  0  0  0
   44.9265   -7.7566   -2.0573 C   0  0  0  0  0  0  0  0  0  0  0  0
   45.3334   -6.3439   -1.8651 N   0  0  0  0  0  0  0  0  0  0  0  0
   46.7504   -6.0787   -2.2192 C   0  0  0  0  0  0  0  0  0  0  0  0
   46.9932   -5.4272   -3.6132 C   0  0  0  0  0  0  0  0  0  0  0  0
   48.5121   -5.3137   -3.8324 C   0  0  0  0  0  0  0  0  0  0  0  0
   48.8019   -4.7008   -5.1262 N   0  0  0  0  0  0  0  0  0  0  0  0
  1  2  1  0  0  0  0
  2  3  1  0  0  0  0
  3  4  1  0  0  0  0
  4  5  1  0  0  0  0
  5  6  1  0  0  0  0
  6  7  1  0  0  0  0
  7  8  1  0  0  0  0
  8  9  1  0  0  0  0
  9 10  1  0  0  0  0
 10 11  1  0  0  0  0
 11 12  1  0  0  0  0
 12 13  1  0  0  0  0
 13 14  1  0  0  0  0
M  END
>  <CHROM.1>
62.56829864,61.23876597,157.05713423,77.56796615,66.05805728,78.14659336
-177.28788993,-174.53899787,100.48349045,-176.51318871,-179.70322399,44.10905242
-8.16201338,-1.14059653,2.81210669,-0.76235026,-2.86272065

>  <Name>
ligand

>  <RI>
0

>  <Rbt.Current_Directory>
/home/itssahil/PROJECTS/Mol_Feturizer/New_Systems/rnas/1EVV

>  <Rbt.Executable>
rbdock ($Id: //depot/dev/client3/rdock/2013.1/src/exe/rbdock.cxx#4 $)

>  <Rbt.Library>
libRbt.so (2013.1, Build901 2013/11/27)

>  <Rbt.Parameter_File>
/export/apps/rDock/src/rDock_2013.1_src/data/scripts/dock_solv.prm

>  <Rbt.Receptor>
prm/blind_docking_100.prm

>  <SCORE>
-10.1541

>  <SCORE.INTER>
-2.48529

>  <SCORE.INTER.CONST>
1

>  <SCORE.INTER.POLAR>
0

>  <SCORE.INTER.ROT>
11

>  <SCORE.INTER.SOLV>
14.0953

>  <SCORE.INTER.VDW>
-17.2886

>  <SCORE.INTER.norm>
-0.17752

>  <SCORE.INTRA>
-7.66882

>  <SCORE.INTRA.DIHEDRAL>
-17.1332

>  <SCORE.INTRA.DIHEDRAL.0>
20.2131

>  <SCORE.INTRA.POLAR>
0

>  <SCORE.INTRA.POLAR.0>
0

>  <SCORE.INTRA.REPUL>
0

>  <SCORE.INTRA.REPUL.0>
0

>  <SCORE.INTRA.SOLV>
0.752288

>  <SCORE.INTRA.SOLV.lig_0>
-48.2851

>  <SCORE.INTRA.VDW>
0.521613

>  <SCORE.INTRA.VDW.0>
-1.08658

>  <SCORE.INTRA.norm>
-0.547773

>  <SCORE.RESTR>
0

>  <SCORE.RESTR.CAVITY>
0

>  <SCORE.RESTR.norm>
0

>  <SCORE.SYSTEM>
0

>  <SCORE.SYSTEM.CONST>
0

>  <SCORE.SYSTEM.DIHEDRAL>
0

>  <SCORE.SYSTEM.SOLV>
0

>  <SCORE.SYSTEM.norm>
0

>  <SCORE.heavy>
14

>  <SCORE.norm>
-0.725293

>  <RMSD>
47.551

$$$$
ligand
 OpenBabel11021811393D
libRbt.so/2013.1/901 2013/11/27
 14 13  0  0  0  0  0  0  0  0999 V2000
   39.4807  -11.0287    2.6056 N   0  0  0  0  0  0  0  0  0  0  0  0
   39.5887  -12.1642    1.7026 C   0  0  0  0  0  0  0  0  0  0  0  0
   41.0758  -12.4106    1.3265 C   0  0  0  0  0  0  0  0  0  0  0  0
   41.8423  -11.2669    0.5716 C   0  0  0  0  0  0  0  0  0  0  0  0
   43.2723  -11.5779    0.2041 N   0  0  0  0  0  0  0  0  0  0  0  0
   44.0230  -10.4083   -0.3381 C   0  0  0  0  0  0  0  0  0  0  0  0
   44.0833  -10.3627   -1.8542 C   0  0  0  0  0  0  0  0  0  0  0  0
   45.0600   -9.3204   -2.3678 C   0  0  0  0  0  0  0  0  0  0  0  0
   44.4472   -7.9919   -2.1398 C   0  0  0  0  0  0  0  0  0  0  0  0
   45.1477   -6.8490   -2.7732 N   0  0  0  0  0  0  0  0  0  0  0  0
   44.7366   -5.5272   -2.2369 C   0  0  0  0  0  0  0  0  0  0  0  0
   43.2424   -5.1413   -2.4491 C   0  0  0  0  0  0  0  0  0  0  0  0
   43.0329   -3.7159   -1.9085 C   0  0  0  0  0  0  0  0  0  0  0  0
   41.6323   -3.3195   -2.0289 N   0  0  0  0  0  0  0  0  0  0  0  0
  1  2  1  0  0  0  0
  2  3  1  0  0  0  0
  3  4  1  0  0  0  0
  4  5  1  0  0  0  0
  5  6  1  0  0  0  0
  6  7  1  0  0  0  0
  7  8  1  0  0  0  0
  8  9  1  0  0  0  0
  9 10  1  0  0  0  0
 10 11  1  0  0  0  0
 11 12  1  0  0  0  0
 12 13  1  0  0  0  0
 13 14  1  0  0  0  0
M  END
>  <CHROM.1>
-61.52308101,-178.58252538,-171.95034946,-97.60104497,-169.32973352,-73.00310833
-170.44123855,-164.42276024,-62.58514915,-176.55758643,-177.58193928,42.90486533
-8.64907180,-0.83487028,1.95852702,-0.55411418,2.86116910

>  <Name>
ligand

>  <RI>
0

>  <Rbt.Current_Directory>
/home/itssahil/PROJECTS/Mol_Feturizer/New_Systems/rnas/1EVV

>  <Rbt.Executable>
rbdock ($Id: //depot/dev/client3/rdock/2013.1/src/exe/rbdock.cxx#4 $)

>  <Rbt.Library>
libRbt.so (2013.1, Build901 2013/11/27)

>  <Rbt.Parameter_File>
/export/apps/rDock/src/rDock_2013.1_src/data/scripts/dock_solv.prm

>  <Rbt.Receptor>
prm/blind_docking_80.prm

>  <SCORE>
-11.1928

>  <SCORE.INTER>
-3.26643

>  <SCORE.INTER.CONST>
1

>  <SCORE.INTER.POLAR>
0

>  <SCORE.INTER.ROT>
11

>  <SCORE.INTER.SOLV>
13.7085

>  <SCORE.INTER.VDW>
-17.6805

>  <SCORE.INTER.norm>
-0.233317

>  <SCORE.INTRA>
-7.92635

>  <SCORE.INTRA.DIHEDRAL>
-17.6102

>  <SCORE.INTRA.DIHEDRAL.0>
20.2131

>  <SCORE.INTRA.POLAR>
0

>  <SCORE.INTRA.POLAR.0>
0

>  <SCORE.INTRA.REPUL>
0

>  <SCORE.INTRA.REPUL.0>
0

>  <SCORE.INTRA.SOLV>
-0.554982

>  <SCORE.INTRA.SOLV.lig_0>
-48.2851

>  <SCORE.INTRA.VDW>
1.15626

>  <SCORE.INTRA.VDW.0>
-1.08658

>  <SCORE.INTRA.norm>
-0.566168

>  <SCORE.RESTR>
0

>  <SCORE.RESTR.CAVITY>
0

>  <SCORE.RESTR.norm>
0

>  <SCORE.SYSTEM>
0

>  <SCORE.SYSTEM.CONST>
0

>  <SCORE.SYSTEM.DIHEDRAL>
0

>  <SCORE.SYSTEM.SOLV>
0

>  <SCORE.SYSTEM.norm>
0

>  <SCORE.heavy>
14

>  <SCORE.norm>
-0.799485

>  <RMSD>
47.595

$$$$
ligand
 OpenBabel11021811393D
libRbt.so/2013.1/901 2013/11/27
 14 13  0  0  0  0  0  0  0  0999 V2000
   39.8338   -9.9614    2.0927 N   0  0  0  0  0  0  0  0  0  0  0  0
   39.7748  -11.3107    2.6330 C   0  0  0  0  0  0  0  0  0  0  0  0
   40.2336  -12.3379    1.5615 C   0  0  0  0  0  0  0  0  0  0  0  0
   41.7380  -12.3096    1.1128 C   0  0  0  0  0  0  0  0  0  0  0  0
   42.2113  -11.0084    0.5131 N   0  0  0  0  0  0  0  0  0  0  0  0
   43.4999  -11.1209   -0.2302 C   0  0  0  0  0  0  0  0  0  0  0  0
   43.8729   -9.8737   -1.0108 C   0  0  0  0  0  0  0  0  0  0  0  0
   45.1226  -10.0639   -1.8512 C   0  0  0  0  0  0  0  0  0  0  0  0
   45.4073   -8.7719   -2.5161 C   0  0  0  0  0  0  0  0  0  0  0  0
   45.7711   -7.6552   -1.6112 N   0  0  0  0  0  0  0  0  0  0  0  0
   45.6222   -6.3142   -2.2303 C   0  0  0  0  0  0  0  0  0  0  0  0
   44.1799   -5.7255   -2.2403 C   0  0  0  0  0  0  0  0  0  0  0  0
   44.2453   -4.3044   -2.8269 C   0  0  0  0  0  0  0  0  0  0  0  0
   42.9307   -3.6689   -2.7861 N   0  0  0  0  0  0  0  0  0  0  0  0
  1  2  1  0  0  0  0
  2  3  1  0  0  0  0
  3  4  1  0  0  0  0
  4  5  1  0  0  0  0
  5  6  1  0  0  0  0
  6  7  1  0  0  0  0
  7  8  1  0  0  0  0
  8  9  1  0  0  0  0
  9 10  1  0  0  0  0
 10 11  1  0  0  0  0
 11 12  1  0  0  0  0
 12 13  1  0  0  0  0
 13 14  1  0  0  0  0
M  END
>  <CHROM.1>
67.05359403,-59.53430843,-164.25709504,171.14732516,-174.93139714,-177.85584599
65.43254038,-161.37668701,81.49736808,176.10325592,-176.53447536,43.17473460
-8.88795880,-0.67080807,2.13579609,-0.52360689,2.84520807

>  <Name>
ligand

>  <RI>
0

>  <Rbt.Current_Directory>
/home/itssahil/PROJECTS/Mol_Feturizer/New_Systems/rnas/1EVV

>  <Rbt.Executable>
rbdock ($Id: //depot/dev/client3/rdock/2013.1/src/exe/rbdock.cxx#4 $)

>  <Rbt.Library>
libRbt.so (2013.1, Build901 2013/11/27)

>  <Rbt.Parameter_File>
/export/apps/rDock/src/rDock_2013.1_src/data/scripts/dock_solv.prm

>  <Rbt.Receptor>
prm/blind_docking_80.prm

>  <SCORE>
-12.7392

>  <SCORE.INTER>
-3.87486

>  <SCORE.INTER.CONST>
1

>  <SCORE.INTER.POLAR>
0

>  <SCORE.INTER.ROT>
11

>  <SCORE.INTER.SOLV>
13.9785

>  <SCORE.INTER.VDW>
-18.1761

>  <SCORE.INTER.norm>
-0.276776

>  <SCORE.INTRA>
-8.86429

>  <SCORE.INTRA.DIHEDRAL>
-18.836

>  <SCORE.INTRA.DIHEDRAL.0>
20.2131

>  <SCORE.INTRA.POLAR>
0

>  <SCORE.INTRA.POLAR.0>
0

>  <SCORE.INTRA.REPUL>
0

>  <SCORE.INTRA.REPUL.0>
0

>  <SCORE.INTRA.SOLV>
1.47359

>  <SCORE.INTRA.SOLV.lig_0>
-48.2851

>  <SCORE.INTRA.VDW>
-0.183081

>  <SCORE.INTRA.VDW.0>
-1.08658

>  <SCORE.INTRA.norm>
-0.633164

>  <SCORE.RESTR>
0

>  <SCORE.RESTR.CAVITY>
0

>  <SCORE.RESTR.norm>
0

>  <SCORE.SYSTEM>
0

>  <SCORE.SYSTEM.CONST>
0

>  <SCORE.SYSTEM.DIHEDRAL>
0

>  <SCORE.SYSTEM.SOLV>
0

>  <SCORE.SYSTEM.norm>
0

>  <SCORE.heavy>
14

>  <SCORE.norm>
-0.90994

>  <RMSD>
47.607

$$$$
ligand
 OpenBabel11021811393D
libRbt.so/2013.1/901 2013/11/27
 14 13  0  0  0  0  0  0  0  0999 V2000
   39.0097  -13.5152    1.8744 N   0  0  0  0  0  0  0  0  0  0  0  0
   39.7468  -12.6798    2.8098 C   0  0  0  0  0  0  0  0  0  0  0  0
   40.9439  -11.9981    2.0915 C   0  0  0  0  0  0  0  0  0  0  0  0
   41.9993  -12.9211    1.3847 C   0  0  0  0  0  0  0  0  0  0  0  0
   43.2651  -12.2332    0.9362 N   0  0  0  0  0  0  0  0  0  0  0  0
   43.0400  -11.1492   -0.0636 C   0  0  0  0  0  0  0  0  0  0  0  0
   44.2922  -10.7306   -0.8125 C   0  0  0  0  0  0  0  0  0  0  0  0
   43.9932   -9.8018   -1.9753 C   0  0  0  0  0  0  0  0  0  0  0  0
   43.5883   -8.4971   -1.4043 C   0  0  0  0  0  0  0  0  0  0  0  0
   43.3182   -7.4247   -2.3918 N   0  0  0  0  0  0  0  0  0  0  0  0
   42.9941   -6.1142   -1.7743 C   0  0  0  0  0  0  0  0  0  0  0  0
   43.6149   -4.8638   -2.4655 C   0  0  0  0  0  0  0  0  0  0  0  0
   43.1736   -3.6140   -1.6838 C   0  0  0  0  0  0  0  0  0  0  0  0
   41.7334   -3.4074   -1.8124 N   0  0  0  0  0  0  0  0  0  0  0  0
  1  2  1  0  0  0  0
  2  3  1  0  0  0  0
  3  4  1  0  0  0  0
  4  5  1  0  0  0  0
  5  6  1  0  0  0  0
  6  7  1  0  0  0  0
  7  8  1  0  0  0  0
  8  9  1  0  0  0  0
  9 10  1  0  0  0  0
 10 11  1  0  0  0  0
 11 12  1  0  0  0  0
 12 13  1  0  0  0  0
 13 14  1  0  0  0  0
M  END
>  <CHROM.1>
-57.29899085,-168.80581507,-61.00348620,-163.22606341,170.34882498,70.98227551
177.02869260,-176.58507183,139.68099173,-179.75198571,-66.77424120,42.47974241
-9.21076468,-0.37765100,1.84476968,-0.55322580,2.84088559

>  <Name>
ligand

>  <RI>
0

>  <Rbt.Current_Directory>
/home/itssahil/PROJECTS/Mol_Feturizer/New_Systems/rnas/1EVV

>  <Rbt.Executable>
rbdock ($Id: //depot/dev/client3/rdock/2013.1/src/exe/rbdock.cxx#4 $)

>  <Rbt.Library>
libRbt.so (2013.1, Build901 2013/11/27)

>  <Rbt.Parameter_File>
/export/apps/rDock/src/rDock_2013.1_src/data/scripts/dock_solv.prm

>  <Rbt.Receptor>
prm/blind_docking_80.prm

>  <SCORE>
-8.6489

>  <SCORE.INTER>
-1.30884

>  <SCORE.INTER.CONST>
1

>  <SCORE.INTER.POLAR>
0

>  <SCORE.INTER.ROT>
11

>  <SCORE.INTER.SOLV>
15.0286

>  <SCORE.INTER.VDW>
-16.8154

>  <SCORE.INTER.norm>
-0.0934884

>  <SCORE.INTRA>
-7.34006

>  <SCORE.INTRA.DIHEDRAL>
-17.5465

>  <SCORE.INTRA.DIHEDRAL.0>
20.2131

>  <SCORE.INTRA.POLAR>
0

>  <SCORE.INTRA.POLAR.0>
0

>  <SCORE.INTRA.REPUL>
0

>  <SCORE.INTRA.REPUL.0>
0

>  <SCORE.INTRA.SOLV>
0.262646

>  <SCORE.INTRA.SOLV.lig_0>
-48.2851

>  <SCORE.INTRA.VDW>
1.30187

>  <SCORE.INTRA.VDW.0>
-1.08658

>  <SCORE.INTRA.norm>
-0.52429

>  <SCORE.RESTR>
0

>  <SCORE.RESTR.CAVITY>
0

>  <SCORE.RESTR.norm>
0

>  <SCORE.SYSTEM>
0

>  <SCORE.SYSTEM.CONST>
0

>  <SCORE.SYSTEM.DIHEDRAL>
0

>  <SCORE.SYSTEM.SOLV>
0

>  <SCORE.SYSTEM.norm>
0

>  <SCORE.heavy>
14

>  <SCORE.norm>
-0.617778

>  <RMSD>
47.611

$$$$
ligand
 OpenBabel11021811393D
libRbt.so/2013.1/901 2013/11/27
 14 13  0  0  0  0  0  0  0  0999 V2000
   47.6491   -5.3901   -4.0997 N   0  0  0  0  0  0  0  0  0  0  0  0
   46.8322   -5.5457   -2.9062 C   0  0  0  0  0  0  0  0  0  0  0  0
   46.5663   -7.0514   -2.6310 C   0  0  0  0  0  0  0  0  0  0  0  0
   45.6835   -7.4268   -1.3879 C   0  0  0  0  0  0  0  0  0  0  0  0
   44.2593   -6.9304   -1.4305 N   0  0  0  0  0  0  0  0  0  0  0  0
   43.2868   -7.9341   -1.9523 C   0  0  0  0  0  0  0  0  0  0  0  0
   41.9005   -7.3729   -2.2122 C   0  0  0  0  0  0  0  0  0  0  0  0
   41.1838   -6.9744   -0.9348 C   0  0  0  0  0  0  0  0  0  0  0  0
   40.5034   -8.1827   -0.4158 C   0  0  0  0  0  0  0  0  0  0  0  0
   41.3979   -9.2895    0.0002 N   0  0  0  0  0  0  0  0  0  0  0  0
   40.6836  -10.4272    0.6320 C   0  0  0  0  0  0  0  0  0  0  0  0
   41.5679  -11.6416    1.0443 C   0  0  0  0  0  0  0  0  0  0  0  0
   40.6686  -12.6743    1.7463 C   0  0  0  0  0  0  0  0  0  0  0  0
   41.4658  -13.7797    2.2716 N   0  0  0  0  0  0  0  0  0  0  0  0
  1  2  1  0  0  0  0
  2  3  1  0  0  0  0
  3  4  1  0  0  0  0
  4  5  1  0  0  0  0
  5  6  1  0  0  0  0
  6  7  1  0  0  0  0
  7  8  1  0  0  0  0
  8  9  1  0  0  0  0
  9 10  1  0  0  0  0
 10 11  1  0  0  0  0
 11 12  1  0  0  0  0
 12 13  1  0  0  0  0
 13 14  1  0  0  0  0
M  END
>  <CHROM.1>
-179.29517751,62.90847619,95.33902433,-170.47579085,-67.75324891,-86.33408244
64.36804340,174.51883641,177.93470311,176.87226610,-174.51403095,43.11754687
-8.61566845,-0.87688010,-0.90950093,-0.16849608,2.63230988

>  <Name>
ligand

>  <RI>
0

>  <Rbt.Current_Directory>
/home/itssahil/PROJECTS/Mol_Feturizer/New_Systems/rnas/1EVV

>  <Rbt.Executable>
rbdock ($Id: //depot/dev/client3/rdock/2013.1/src/exe/rbdock.cxx#4 $)

>  <Rbt.Library>
libRbt.so (2013.1, Build901 2013/11/27)

>  <Rbt.Parameter_File>
/export/apps/rDock/src/rDock_2013.1_src/data/scripts/dock_solv.prm

>  <Rbt.Receptor>
prm/blind_docking_60.prm

>  <SCORE>
-12.1325

>  <SCORE.INTER>
-4.32544

>  <SCORE.INTER.CONST>
1

>  <SCORE.INTER.POLAR>
0

>  <SCORE.INTER.ROT>
11

>  <SCORE.INTER.SOLV>
12.3612

>  <SCORE.INTER.VDW>
-17.9374

>  <SCORE.INTER.norm>
-0.30896

>  <SCORE.INTRA>
-7.80702

>  <SCORE.INTRA.DIHEDRAL>
-16.3902

>  <SCORE.INTRA.DIHEDRAL.0>
20.2131

>  <SCORE.INTRA.POLAR>
0

>  <SCORE.INTRA.POLAR.0>
0

>  <SCORE.INTRA.REPUL>
0

>  <SCORE.INTRA.REPUL.0>
0

>  <SCORE.INTRA.SOLV>
0.535385

>  <SCORE.INTRA.SOLV.lig_0>
-48.2851

>  <SCORE.INTRA.VDW>
0.120388

>  <SCORE.INTRA.VDW.0>
-1.08658

>  <SCORE.INTRA.norm>
-0.557644

>  <SCORE.RESTR>
0

>  <SCORE.RESTR.CAVITY>
0

>  <SCORE.RESTR.norm>
0

>  <SCORE.SYSTEM>
0

>  <SCORE.SYSTEM.CONST>
0

>  <SCORE.SYSTEM.DIHEDRAL>
0

>  <SCORE.SYSTEM.SOLV>
0

>  <SCORE.SYSTEM.norm>
0

>  <SCORE.heavy>
14

>  <SCORE.norm>
-0.866604

>  <RMSD>
47.623

$$$$
ligand
 OpenBabel11021811393D
libRbt.so/2013.1/901 2013/11/27
 14 13  0  0  0  0  0  0  0  0999 V2000
   41.2538   -3.6063   -3.7010 N   0  0  0  0  0  0  0  0  0  0  0  0
   40.6107   -4.6648   -2.9381 C   0  0  0  0  0  0  0  0  0  0  0  0
   41.6322   -5.7902   -2.6161 C   0  0  0  0  0  0  0  0  0  0  0  0
   42.8942   -5.4147   -1.7605 C   0  0  0  0  0  0  0  0  0  0  0  0
   43.8045   -6.5653   -1.4083 N   0  0  0  0  0  0  0  0  0  0  0  0
   44.7594   -6.9323   -2.4941 C   0  0  0  0  0  0  0  0  0  0  0  0
   45.5318   -8.2120   -2.2300 C   0  0  0  0  0  0  0  0  0  0  0  0
   44.6411   -9.4412   -2.2290 C   0  0  0  0  0  0  0  0  0  0  0  0
   43.9418   -9.4775   -0.9244 C   0  0  0  0  0  0  0  0  0  0  0  0
   43.1116  -10.6811   -0.6788 N   0  0  0  0  0  0  0  0  0  0  0  0
   42.0877  -10.4927    0.3794 C   0  0  0  0  0  0  0  0  0  0  0  0
   41.4615  -11.7955    0.9603 C   0  0  0  0  0  0  0  0  0  0  0  0
   40.3518  -11.3957    1.9486 C   0  0  0  0  0  0  0  0  0  0  0  0
   39.7322  -12.5813    2.5351 N   0  0  0  0  0  0  0  0  0  0  0  0
  1  2  1  0  0  0  0
  2  3  1  0  0  0  0
  3  4  1  0  0  0  0
  4  5  1  0  0  0  0
  5  6  1  0  0  0  0
  6  7  1  0  0  0  0
  7  8  1  0  0  0  0
  8  9  1  0  0  0  0
  9 10  1  0  0  0  0
 10 11  1  0  0  0  0
 11 12  1  0  0  0  0
 12 13  1  0  0  0  0
 13 14  1  0  0  0  0
M  END
>  <CHROM.1>
60.75897879,176.35228027,82.03358462,-171.37095687,66.73848148,-78.16768229
-174.60682333,-160.22749019,-163.61547115,-175.41043205,-179.58411634,42.55840218
-8.36076216,-1.08274688,1.38666981,0.32726940,-0.51270890

>  <Name>
ligand

>  <RI>
0

>  <Rbt.Current_Directory>
/home/itssahil/PROJECTS/Mol_Feturizer/New_Systems/rnas/1EVV

>  <Rbt.Executable>
rbdock ($Id: //depot/dev/client3/rdock/2013.1/src/exe/rbdock.cxx#4 $)

>  <Rbt.Library>
libRbt.so (2013.1, Build901 2013/11/27)

>  <Rbt.Parameter_File>
/export/apps/rDock/src/rDock_2013.1_src/data/scripts/dock_solv.prm

>  <Rbt.Receptor>
prm/blind_docking_60.prm

>  <SCORE>
-10.8312

>  <SCORE.INTER>
-2.66026

>  <SCORE.INTER.CONST>
1

>  <SCORE.INTER.POLAR>
0

>  <SCORE.INTER.ROT>
11

>  <SCORE.INTER.SOLV>
12.0391

>  <SCORE.INTER.VDW>
-16.7199

>  <SCORE.INTER.norm>
-0.190018

>  <SCORE.INTRA>
-8.17099

>  <SCORE.INTRA.DIHEDRAL>
-17.5998

>  <SCORE.INTRA.DIHEDRAL.0>
20.2131

>  <SCORE.INTRA.POLAR>
0

>  <SCORE.INTRA.POLAR.0>
0

>  <SCORE.INTRA.REPUL>
0

>  <SCORE.INTRA.REPUL.0>
0

>  <SCORE.INTRA.SOLV>
0.402126

>  <SCORE.INTRA.SOLV.lig_0>
-48.2851

>  <SCORE.INTRA.VDW>
0.42783

>  <SCORE.INTRA.VDW.0>
-1.08658

>  <SCORE.INTRA.norm>
-0.583642

>  <SCORE.RESTR>
0

>  <SCORE.RESTR.CAVITY>
0

>  <SCORE.RESTR.norm>
0

>  <SCORE.SYSTEM>
0

>  <SCORE.SYSTEM.CONST>
0

>  <SCORE.SYSTEM.DIHEDRAL>
0

>  <SCORE.SYSTEM.SOLV>
0

>  <SCORE.SYSTEM.norm>
0

>  <SCORE.heavy>
14

>  <SCORE.norm>
-0.77366

>  <RMSD>
47.630

$$$$
ligand
 OpenBabel11021811393D
libRbt.so/2013.1/901 2013/11/27
 14 13  0  0  0  0  0  0  0  0999 V2000
   48.7494   -5.9026   -3.0299 N   0  0  0  0  0  0  0  0  0  0  0  0
   47.8974   -6.7536   -3.8460 C   0  0  0  0  0  0  0  0  0  0  0  0
   46.9127   -7.5486   -2.9449 C   0  0  0  0  0  0  0  0  0  0  0  0
   45.8498   -6.7365   -2.1227 C   0  0  0  0  0  0  0  0  0  0  0  0
   44.8396   -7.5671   -1.3702 N   0  0  0  0  0  0  0  0  0  0  0  0
   43.8090   -8.1998   -2.2438 C   0  0  0  0  0  0  0  0  0  0  0  0
   42.8966   -9.1714   -1.5175 C   0  0  0  0  0  0  0  0  0  0  0  0
   41.9221   -8.4720   -0.5873 C   0  0  0  0  0  0  0  0  0  0  0  0
   41.1189   -9.5218    0.0798 C   0  0  0  0  0  0  0  0  0  0  0  0
   41.8552  -10.3699    1.0477 N   0  0  0  0  0  0  0  0  0  0  0  0
   41.4635  -11.8011    1.0042 C   0  0  0  0  0  0  0  0  0  0  0  0
   40.0022  -12.1204    1.4393 C   0  0  0  0  0  0  0  0  0  0  0  0
   39.8641  -11.7919    2.9363 C   0  0  0  0  0  0  0  0  0  0  0  0
   39.9385  -10.3499    3.1566 N   0  0  0  0  0  0  0  0  0  0  0  0
  1  2  1  0  0  0  0
  2  3  1  0  0  0  0
  3  4  1  0  0  0  0
  4  5  1  0  0  0  0
  5  6  1  0  0  0  0
  6  7  1  0  0  0  0
  7  8  1  0  0  0  0
  8  9  1  0  0  0  0
  9 10  1  0  0  0  0
 10 11  1  0  0  0  0
 11 12  1  0  0  0  0
 12 13  1  0  0  0  0
 13 14  1  0  0  0  0
M  END
>  <CHROM.1>
64.16768276,174.42933766,-73.69990944,172.81885475,71.55130502,-178.63746575
68.89005431,-140.81096461,-65.50835500,-66.03477894,69.02473826,43.36543869
-9.02210169,-0.57153536,-0.67150217,0.40848798,1.84234070

>  <Name>
ligand

>  <RI>
0

>  <Rbt.Current_Directory>
/home/itssahil/PROJECTS/Mol_Feturizer/New_Systems/rnas/1EVV

>  <Rbt.Executable>
rbdock ($Id: //depot/dev/client3/rdock/2013.1/src/exe/rbdock.cxx#4 $)

>  <Rbt.Library>
libRbt.so (2013.1, Build901 2013/11/27)

>  <Rbt.Parameter_File>
/export/apps/rDock/src/rDock_2013.1_src/data/scripts/dock_solv.prm

>  <Rbt.Receptor>
prm/blind_docking_100.prm

>  <SCORE>
-9.62677

>  <SCORE.INTER>
-2.94626

>  <SCORE.INTER.CONST>
1

>  <SCORE.INTER.POLAR>
0

>  <SCORE.INTER.ROT>
11

>  <SCORE.INTER.SOLV>
12.8077

>  <SCORE.INTER.VDW>
-17.1667

>  <SCORE.INTER.norm>
-0.210447

>  <SCORE.INTRA>
-6.68051

>  <SCORE.INTRA.DIHEDRAL>
-17.7087

>  <SCORE.INTRA.DIHEDRAL.0>
20.2131

>  <SCORE.INTRA.POLAR>
0

>  <SCORE.INTRA.POLAR.0>
0

>  <SCORE.INTRA.REPUL>
0

>  <SCORE.INTRA.REPUL.0>
0

>  <SCORE.INTRA.SOLV>
3.51177

>  <SCORE.INTRA.SOLV.lig_0>
-48.2851

>  <SCORE.INTRA.VDW>
0.417976

>  <SCORE.INTRA.VDW.0>
-1.08658

>  <SCORE.INTRA.norm>
-0.477179

>  <SCORE.RESTR>
0

>  <SCORE.RESTR.CAVITY>
0

>  <SCORE.RESTR.norm>
0

>  <SCORE.SYSTEM>
0

>  <SCORE.SYSTEM.CONST>
0

>  <SCORE.SYSTEM.DIHEDRAL>
0

>  <SCORE.SYSTEM.SOLV>
0

>  <SCORE.SYSTEM.norm>
0

>  <SCORE.heavy>
14

>  <SCORE.norm>
-0.687626

>  <RMSD>
47.646

$$$$
ligand
 OpenBabel11021811393D
libRbt.so/2013.1/901 2013/11/27
 14 13  0  0  0  0  0  0  0  0999 V2000
   48.8073   -4.7862   -4.7272 N   0  0  0  0  0  0  0  0  0  0  0  0
   47.8211   -5.8503   -4.6205 C   0  0  0  0  0  0  0  0  0  0  0  0
   48.2438   -6.8650   -3.5227 C   0  0  0  0  0  0  0  0  0  0  0  0
   47.3255   -8.1164   -3.2855 C   0  0  0  0  0  0  0  0  0  0  0  0
   45.8993   -7.8101   -2.8998 N   0  0  0  0  0  0  0  0  0  0  0  0
   45.7711   -7.0388   -1.6293 C   0  0  0  0  0  0  0  0  0  0  0  0
   44.5893   -7.4540   -0.7719 C   0  0  0  0  0  0  0  0  0  0  0  0
   43.2564   -7.1840   -1.4461 C   0  0  0  0  0  0  0  0  0  0  0  0
   42.2155   -7.2173   -0.3936 C   0  0  0  0  0  0  0  0  0  0  0  0
   42.0932   -8.4985    0.3424 N   0  0  0  0  0  0  0  0  0  0  0  0
   40.8057   -9.1995    0.1082 C   0  0  0  0  0  0  0  0  0  0  0  0
   40.7532  -10.6923    0.5502 C   0  0  0  0  0  0  0  0  0  0  0  0
   40.7551  -10.7381    2.0884 C   0  0  0  0  0  0  0  0  0  0  0  0
   40.5876  -12.1092    2.5635 N   0  0  0  0  0  0  0  0  0  0  0  0
  1  2  1  0  0  0  0
  2  3  1  0  0  0  0
  3  4  1  0  0  0  0
  4  5  1  0  0  0  0
  5  6  1  0  0  0  0
  6  7  1  0  0  0  0
  7  8  1  0  0  0  0
  8  9  1  0  0  0  0
  9 10  1  0  0  0  0
 10 11  1  0  0  0  0
 11 12  1  0  0  0  0
 12 13  1  0  0  0  0
 13 14  1  0  0  0  0
M  END
>  <CHROM.1>
-178.17179454,-59.05875927,-60.50544007,-142.22101092,-64.21234761,-162.50446902
-60.08022151,-113.93742010,165.16504223,70.79239210,174.98974553,44.20882769
-8.11133039,-1.26030149,0.63731482,0.45522200,-0.36644768

>  <Name>
ligand

>  <RI>
0

>  <Rbt.Current_Directory>
/home/itssahil/PROJECTS/Mol_Feturizer/New_Systems/rnas/1EVV

>  <Rbt.Executable>
rbdock ($Id: //depot/dev/client3/rdock/2013.1/src/exe/rbdock.cxx#4 $)

>  <Rbt.Library>
libRbt.so (2013.1, Build901 2013/11/27)

>  <Rbt.Parameter_File>
/export/apps/rDock/src/rDock_2013.1_src/data/scripts/dock_solv.prm

>  <Rbt.Receptor>
prm/blind_docking_100.prm

>  <SCORE>
-7.08846

>  <SCORE.INTER>
0.671995

>  <SCORE.INTER.CONST>
1

>  <SCORE.INTER.POLAR>
0

>  <SCORE.INTER.ROT>
11

>  <SCORE.INTER.SOLV>
12.8539

>  <SCORE.INTER.VDW>
-14.77

>  <SCORE.INTER.norm>
0.0479997

>  <SCORE.INTRA>
-7.76045

>  <SCORE.INTRA.DIHEDRAL>
-16.2302

>  <SCORE.INTRA.DIHEDRAL.0>
20.2131

>  <SCORE.INTRA.POLAR>
0

>  <SCORE.INTRA.POLAR.0>
0

>  <SCORE.INTRA.REPUL>
0

>  <SCORE.INTRA.REPUL.0>
0

>  <SCORE.INTRA.SOLV>
-0.0344493

>  <SCORE.INTRA.SOLV.lig_0>
-48.2851

>  <SCORE.INTRA.VDW>
0.371847

>  <SCORE.INTRA.VDW.0>
-1.08658

>  <SCORE.INTRA.norm>
-0.554318

>  <SCORE.RESTR>
0

>  <SCORE.RESTR.CAVITY>
0

>  <SCORE.RESTR.norm>
0

>  <SCORE.SYSTEM>
0

>  <SCORE.SYSTEM.CONST>
0

>  <SCORE.SYSTEM.DIHEDRAL>
0

>  <SCORE.SYSTEM.SOLV>
0

>  <SCORE.SYSTEM.norm>
0

>  <SCORE.heavy>
14

>  <SCORE.norm>
-0.506318

>  <RMSD>
47.648

$$$$
ligand
 OpenBabel11021811393D
libRbt.so/2013.1/901 2013/11/27
 14 13  0  0  0  0  0  0  0  0999 V2000
   40.8669  -13.9216    2.6679 N   0  0  0  0  0  0  0  0  0  0  0  0
   40.1435  -12.7583    2.1785 C   0  0  0  0  0  0  0  0  0  0  0  0
   41.0696  -11.8877    1.2853 C   0  0  0  0  0  0  0  0  0  0  0  0
   40.5070  -10.5208    0.7557 C   0  0  0  0  0  0  0  0  0  0  0  0
   41.4422   -9.7337   -0.1288 N   0  0  0  0  0  0  0  0  0  0  0  0
   40.8299   -8.5036   -0.7096 C   0  0  0  0  0  0  0  0  0  0  0  0
   41.7010   -7.8079   -1.7398 C   0  0  0  0  0  0  0  0  0  0  0  0
   43.0346   -7.3606   -1.1692 C   0  0  0  0  0  0  0  0  0  0  0  0
   43.7651   -6.6625   -2.2515 C   0  0  0  0  0  0  0  0  0  0  0  0
   45.1207   -6.1779   -1.8968 N   0  0  0  0  0  0  0  0  0  0  0  0
   45.7004   -5.2457   -2.8961 C   0  0  0  0  0  0  0  0  0  0  0  0
   47.1635   -5.5461   -3.3387 C   0  0  0  0  0  0  0  0  0  0  0  0
   47.5662   -4.5090   -4.4018 C   0  0  0  0  0  0  0  0  0  0  0  0
   48.9025   -4.7929   -4.9187 N   0  0  0  0  0  0  0  0  0  0  0  0
  1  2  1  0  0  0  0
  2  3  1  0  0  0  0
  3  4  1  0  0  0  0
  4  5  1  0  0  0  0
  5  6  1  0  0  0  0
  6  7  1  0  0  0  0
  7  8  1  0  0  0  0
  8  9  1  0  0  0  0
  9 10  1  0  0  0  0
 10 11  1  0  0  0  0
 11 12  1  0  0  0  0
 12 13  1  0  0  0  0
 13 14  1  0  0  0  0
M  END
>  <CHROM.1>
-175.04983553,-178.80959380,174.82418367,-172.40892653,-60.12948041,-178.15027145
-178.39333008,-167.79559566,-132.10229513,178.15860850,-176.35646978,43.41493821
-8.24471495,-1.18315952,-2.22226694,0.16330132,-0.53310126

>  <Name>
ligand

>  <RI>
0

>  <Rbt.Current_Directory>
/home/itssahil/PROJECTS/Mol_Feturizer/New_Systems/rnas/1EVV

>  <Rbt.Executable>
rbdock ($Id: //depot/dev/client3/rdock/2013.1/src/exe/rbdock.cxx#4 $)

>  <Rbt.Library>
libRbt.so (2013.1, Build901 2013/11/27)

>  <Rbt.Parameter_File>
/export/apps/rDock/src/rDock_2013.1_src/data/scripts/dock_solv.prm

>  <Rbt.Receptor>
prm/blind_docking_80.prm

>  <SCORE>
-14.8967

>  <SCORE.INTER>
-4.89485

>  <SCORE.INTER.CONST>
1

>  <SCORE.INTER.POLAR>
0

>  <SCORE.INTER.ROT>
11

>  <SCORE.INTER.SOLV>
13.0029

>  <SCORE.INTER.VDW>
-18.5309

>  <SCORE.INTER.norm>
-0.349632

>  <SCORE.INTRA>
-10.0019

>  <SCORE.INTRA.DIHEDRAL>
-18.758

>  <SCORE.INTRA.DIHEDRAL.0>
20.2131

>  <SCORE.INTRA.POLAR>
0

>  <SCORE.INTRA.POLAR.0>
0

>  <SCORE.INTRA.REPUL>
0

>  <SCORE.INTRA.REPUL.0>
0

>  <SCORE.INTRA.SOLV>
-1.00317

>  <SCORE.INTRA.SOLV.lig_0>
-48.2851

>  <SCORE.INTRA.VDW>
-0.12133

>  <SCORE.INTRA.VDW.0>
-1.08658

>  <SCORE.INTRA.norm>
-0.714421

>  <SCORE.RESTR>
0

>  <SCORE.RESTR.CAVITY>
0

>  <SCORE.RESTR.norm>
0

>  <SCORE.SYSTEM>
0

>  <SCORE.SYSTEM.CONST>
0

>  <SCORE.SYSTEM.DIHEDRAL>
0

>  <SCORE.SYSTEM.SOLV>
0

>  <SCORE.SYSTEM.norm>
0

>  <SCORE.heavy>
14

>  <SCORE.norm>
-1.06405

>  <RMSD>
47.652

$$$$
ligand
 OpenBabel11021811393D
libRbt.so/2013.1/901 2013/11/27
 14 13  0  0  0  0  0  0  0  0999 V2000
   39.8311  -11.0130    1.9438 N   0  0  0  0  0  0  0  0  0  0  0  0
   40.8765  -11.8888    1.4375 C   0  0  0  0  0  0  0  0  0  0  0  0
   42.0111  -11.0496    0.7880 C   0  0  0  0  0  0  0  0  0  0  0  0
   43.3166  -11.7993    0.3417 C   0  0  0  0  0  0  0  0  0  0  0  0
   44.4459  -10.9136   -0.1238 N   0  0  0  0  0  0  0  0  0  0  0  0
   44.5153  -10.7543   -1.6055 C   0  0  0  0  0  0  0  0  0  0  0  0
   43.8229   -9.5075   -2.1252 C   0  0  0  0  0  0  0  0  0  0  0  0
   44.4857   -8.2293   -1.6447 C   0  0  0  0  0  0  0  0  0  0  0  0
   43.7431   -7.0963   -2.2423 C   0  0  0  0  0  0  0  0  0  0  0  0
   42.3220   -6.9796   -1.8360 N   0  0  0  0  0  0  0  0  0  0  0  0
   41.6094   -5.8475   -2.4797 C   0  0  0  0  0  0  0  0  0  0  0  0
   40.1934   -5.5256   -1.9158 C   0  0  0  0  0  0  0  0  0  0  0  0
   39.6114   -4.3505   -2.7211 C   0  0  0  0  0  0  0  0  0  0  0  0
   40.4253   -3.1507   -2.5436 N   0  0  0  0  0  0  0  0  0  0  0  0
  1  2  1  0  0  0  0
  2  3  1  0  0  0  0
  3  4  1  0  0  0  0
  4  5  1  0  0  0  0
  5  6  1  0  0  0  0
  6  7  1  0  0  0  0
  7  8  1  0  0  0  0
  8  9  1  0  0  0  0
  9 10  1  0  0  0  0
 10 11  1  0  0  0  0
 11 12  1  0  0  0  0
 12 13  1  0  0  0  0
 13 14  1  0  0  0  0
M  END
>  <CHROM.1>
172.50821232,-172.77254731,-96.70321211,95.64385763,64.71173703,178.64376419
62.82315975,-178.82291455,-170.00811449,-178.96292908,-63.04172226,42.22945133
-8.43630109,-1.05207995,1.29314641,-0.41826781,2.61299191

>  <Name>
ligand

>  <RI>
0

>  <Rbt.Current_Directory>
/home/itssahil/PROJECTS/Mol_Feturizer/New_Systems/rnas/1EVV

>  <Rbt.Executable>
rbdock ($Id: //depot/dev/client3/rdock/2013.1/src/exe/rbdock.cxx#4 $)

>  <Rbt.Library>
libRbt.so (2013.1, Build901 2013/11/27)

>  <Rbt.Parameter_File>
/export/apps/rDock/src/rDock_2013.1_src/data/scripts/dock_solv.prm

>  <Rbt.Receptor>
prm/blind_docking_100.prm

>  <SCORE>
-11.1012

>  <SCORE.INTER>
-2.28095

>  <SCORE.INTER.CONST>
1

>  <SCORE.INTER.POLAR>
0

>  <SCORE.INTER.ROT>
11

>  <SCORE.INTER.SOLV>
12.8931

>  <SCORE.INTER.VDW>
-16.7517

>  <SCORE.INTER.norm>
-0.162925

>  <SCORE.INTRA>
-8.82028

>  <SCORE.INTRA.DIHEDRAL>
-17.9854

>  <SCORE.INTRA.DIHEDRAL.0>
20.2131

>  <SCORE.INTRA.POLAR>
0

>  <SCORE.INTRA.POLAR.0>
0

>  <SCORE.INTRA.REPUL>
0

>  <SCORE.INTRA.REPUL.0>
0

>  <SCORE.INTRA.SOLV>
0.215583

>  <SCORE.INTRA.SOLV.lig_0>
-48.2851

>  <SCORE.INTRA.VDW>
0.0646371

>  <SCORE.INTRA.VDW.0>
-1.08658

>  <SCORE.INTRA.norm>
-0.63002

>  <SCORE.RESTR>
0

>  <SCORE.RESTR.CAVITY>
0

>  <SCORE.RESTR.norm>
0

>  <SCORE.SYSTEM>
0

>  <SCORE.SYSTEM.CONST>
0

>  <SCORE.SYSTEM.DIHEDRAL>
0

>  <SCORE.SYSTEM.SOLV>
0

>  <SCORE.SYSTEM.norm>
0

>  <SCORE.heavy>
14

>  <SCORE.norm>
-0.792945

>  <RMSD>
47.663

$$$$
ligand
 OpenBabel11021811393D
libRbt.so/2013.1/901 2013/11/27
 14 13  0  0  0  0  0  0  0  0999 V2000
   39.9451  -14.0109    3.0473 N   0  0  0  0  0  0  0  0  0  0  0  0
   39.6708  -12.8612    2.1993 C   0  0  0  0  0  0  0  0  0  0  0  0
   40.9983  -12.2756    1.6439 C   0  0  0  0  0  0  0  0  0  0  0  0
   40.9196  -10.9672    0.7795 C   0  0  0  0  0  0  0  0  0  0  0  0
   42.2315  -10.4870    0.2094 N   0  0  0  0  0  0  0  0  0  0  0  0
   42.1481   -9.1533   -0.4539 C   0  0  0  0  0  0  0  0  0  0  0  0
   43.4797   -8.6340   -0.9650 C   0  0  0  0  0  0  0  0  0  0  0  0
   43.3938   -7.2043   -1.4680 C   0  0  0  0  0  0  0  0  0  0  0  0
   44.7541   -6.8049   -1.8949 C   0  0  0  0  0  0  0  0  0  0  0  0
   44.8956   -5.3977   -2.3400 N   0  0  0  0  0  0  0  0  0  0  0  0
   46.1786   -5.1182   -3.0326 C   0  0  0  0  0  0  0  0  0  0  0  0
   46.1321   -4.0168   -4.1332 C   0  0  0  0  0  0  0  0  0  0  0  0
   47.4173   -4.1224   -4.9729 C   0  0  0  0  0  0  0  0  0  0  0  0
   47.3762   -3.1912   -6.0975 N   0  0  0  0  0  0  0  0  0  0  0  0
  1  2  1  0  0  0  0
  2  3  1  0  0  0  0
  3  4  1  0  0  0  0
  4  5  1  0  0  0  0
  5  6  1  0  0  0  0
  6  7  1  0  0  0  0
  7  8  1  0  0  0  0
  8  9  1  0  0  0  0
  9 10  1  0  0  0  0
 10 11  1  0  0  0  0
 11 12  1  0  0  0  0
 12 13  1  0  0  0  0
 13 14  1  0  0  0  0
M  END
>  <CHROM.1>
-176.04554836,-176.96691354,-172.49653958,176.98735344,-172.47818959,178.24551086
-176.17842749,-167.31753704,148.83236381,-165.43245207,174.92038910,43.53859358
-8.16028793,-1.24846136,-2.21321787,0.56047053,-0.27129856

>  <Name>
ligand

>  <RI>
0

>  <Rbt.Current_Directory>
/home/itssahil/PROJECTS/Mol_Feturizer/New_Systems/rnas/1EVV

>  <Rbt.Executable>
rbdock ($Id: //depot/dev/client3/rdock/2013.1/src/exe/rbdock.cxx#4 $)

>  <Rbt.Library>
libRbt.so (2013.1, Build901 2013/11/27)

>  <Rbt.Parameter_File>
/export/apps/rDock/src/rDock_2013.1_src/data/scripts/dock_solv.prm

>  <Rbt.Receptor>
prm/blind_docking_80.prm

>  <SCORE>
-14.6206

>  <SCORE.INTER>
-4.66801

>  <SCORE.INTER.CONST>
1

>  <SCORE.INTER.POLAR>
0

>  <SCORE.INTER.ROT>
11

>  <SCORE.INTER.SOLV>
11.4061

>  <SCORE.INTER.VDW>
-17.8474

>  <SCORE.INTER.norm>
-0.333429

>  <SCORE.INTRA>
-9.95261

>  <SCORE.INTRA.DIHEDRAL>
-18.1611

>  <SCORE.INTRA.DIHEDRAL.0>
20.2131

>  <SCORE.INTRA.POLAR>
0

>  <SCORE.INTRA.POLAR.0>
0

>  <SCORE.INTRA.REPUL>
0

>  <SCORE.INTRA.REPUL.0>
0

>  <SCORE.INTRA.SOLV>
-1.4269

>  <SCORE.INTRA.SOLV.lig_0>
-48.2851

>  <SCORE.INTRA.VDW>
-0.158599

>  <SCORE.INTRA.VDW.0>
-1.08658

>  <SCORE.INTRA.norm>
-0.710901

>  <SCORE.RESTR>
0

>  <SCORE.RESTR.CAVITY>
0

>  <SCORE.RESTR.norm>
0

>  <SCORE.SYSTEM>
0

>  <SCORE.SYSTEM.CONST>
0

>  <SCORE.SYSTEM.DIHEDRAL>
0

>  <SCORE.SYSTEM.SOLV>
0

>  <SCORE.SYSTEM.norm>
0

>  <SCORE.heavy>
14

>  <SCORE.norm>
-1.04433

>  <RMSD>
47.665

$$$$
ligand
 OpenBabel11021811393D
libRbt.so/2013.1/901 2013/11/27
 14 13  0  0  0  0  0  0  0  0999 V2000
   40.5297   -6.6139   -0.8915 N   0  0  0  0  0  0  0  0  0  0  0  0
   41.2030   -7.8683   -1.1905 C   0  0  0  0  0  0  0  0  0  0  0  0
   41.3615   -8.7135    0.1034 C   0  0  0  0  0  0  0  0  0  0  0  0
   42.2100  -10.0320    0.0208 C   0  0  0  0  0  0  0  0  0  0  0  0
   43.6497   -9.8517   -0.3932 N   0  0  0  0  0  0  0  0  0  0  0  0
   43.8665   -9.9250   -1.8674 C   0  0  0  0  0  0  0  0  0  0  0  0
   45.0879   -9.1639   -2.3501 C   0  0  0  0  0  0  0  0  0  0  0  0
   44.9789   -7.6700   -2.1042 C   0  0  0  0  0  0  0  0  0  0  0  0
   46.2418   -7.0534   -2.5701 C   0  0  0  0  0  0  0  0  0  0  0  0
   46.3207   -5.5792   -2.4328 N   0  0  0  0  0  0  0  0  0  0  0  0
   47.6054   -5.0049   -2.9054 C   0  0  0  0  0  0  0  0  0  0  0  0
   47.6435   -4.5583   -4.3973 C   0  0  0  0  0  0  0  0  0  0  0  0
   46.6227   -3.4222   -4.5848 C   0  0  0  0  0  0  0  0  0  0  0  0
   46.6318   -2.9436   -5.9648 N   0  0  0  0  0  0  0  0  0  0  0  0
  1  2  1  0  0  0  0
  2  3  1  0  0  0  0
  3  4  1  0  0  0  0
  4  5  1  0  0  0  0
  5  6  1  0  0  0  0
  6  7  1  0  0  0  0
  7  8  1  0  0  0  0
  8  9  1  0  0  0  0
  9 10  1  0  0  0  0
 10 11  1  0  0  0  0
 11 12  1  0  0  0  0
 12 13  1  0  0  0  0
 13 14  1  0  0  0  0
M  END
>  <CHROM.1>
-173.17509885,60.13284181,-89.87791766,153.92980882,-63.60245813,177.98747554
179.04942327,179.70983079,91.55148449,63.13972889,178.92927396,44.56820322
-7.02888204,-2.25192568,2.27633504,-0.28873514,2.71867637

>  <Name>
ligand

>  <RI>
0

>  <Rbt.Current_Directory>
/home/itssahil/PROJECTS/Mol_Feturizer/New_Systems/rnas/1EVV

>  <Rbt.Executable>
rbdock ($Id: //depot/dev/client3/rdock/2013.1/src/exe/rbdock.cxx#4 $)

>  <Rbt.Library>
libRbt.so (2013.1, Build901 2013/11/27)

>  <Rbt.Parameter_File>
/export/apps/rDock/src/rDock_2013.1_src/data/scripts/dock_solv.prm

>  <Rbt.Receptor>
prm/blind_docking_60.prm

>  <SCORE>
-14.4576

>  <SCORE.INTER>
-4.73311

>  <SCORE.INTER.CONST>
1

>  <SCORE.INTER.POLAR>
0

>  <SCORE.INTER.ROT>
11

>  <SCORE.INTER.SOLV>
13.2511

>  <SCORE.INTER.VDW>
-18.5058

>  <SCORE.INTER.norm>
-0.338079

>  <SCORE.INTRA>
-9.72453

>  <SCORE.INTRA.DIHEDRAL>
-18.2055

>  <SCORE.INTRA.DIHEDRAL.0>
20.2131

>  <SCORE.INTRA.POLAR>
0

>  <SCORE.INTRA.POLAR.0>
0

>  <SCORE.INTRA.REPUL>
0

>  <SCORE.INTRA.REPUL.0>
0

>  <SCORE.INTRA.SOLV>
-0.368103

>  <SCORE.INTRA.SOLV.lig_0>
-48.2851

>  <SCORE.INTRA.VDW>
-0.437738

>  <SCORE.INTRA.VDW.0>
-1.08658

>  <SCORE.INTRA.norm>
-0.69461

>  <SCORE.RESTR>
0

>  <SCORE.RESTR.CAVITY>
0

>  <SCORE.RESTR.norm>
0

>  <SCORE.SYSTEM>
0

>  <SCORE.SYSTEM.CONST>
0

>  <SCORE.SYSTEM.DIHEDRAL>
0

>  <SCORE.SYSTEM.SOLV>
0

>  <SCORE.SYSTEM.norm>
0

>  <SCORE.heavy>
14

>  <SCORE.norm>
-1.03269

>  <RMSD>
47.683

$$$$
ligand
 OpenBabel11021811393D
libRbt.so/2013.1/901 2013/11/27
 14 13  0  0  0  0  0  0  0  0999 V2000
   39.1755  -12.4166    3.7459 N   0  0  0  0  0  0  0  0  0  0  0  0
   38.8804  -12.8495    2.3888 C   0  0  0  0  0  0  0  0  0  0  0  0
   39.8698  -12.1904    1.3886 C   0  0  0  0  0  0  0  0  0  0  0  0
   41.3972  -12.5209    1.5400 C   0  0  0  0  0  0  0  0  0  0  0  0
   42.2948  -11.9406    0.4750 N   0  0  0  0  0  0  0  0  0  0  0  0
   42.2618  -10.4508    0.4052 C   0  0  0  0  0  0  0  0  0  0  0  0
   43.2867   -9.8545   -0.5424 C   0  0  0  0  0  0  0  0  0  0  0  0
   43.2901   -8.3368   -0.5177 C   0  0  0  0  0  0  0  0  0  0  0  0
   44.3485   -7.8833   -1.4486 C   0  0  0  0  0  0  0  0  0  0  0  0
   44.6613   -6.4347   -1.4021 N   0  0  0  0  0  0  0  0  0  0  0  0
   45.3901   -5.9440   -2.5986 C   0  0  0  0  0  0  0  0  0  0  0  0
   46.9316   -6.1689   -2.5964 C   0  0  0  0  0  0  0  0  0  0  0  0
   47.5200   -5.4755   -3.8377 C   0  0  0  0  0  0  0  0  0  0  0  0
   48.9591   -5.7094   -3.9253 N   0  0  0  0  0  0  0  0  0  0  0  0
  1  2  1  0  0  0  0
  2  3  1  0  0  0  0
  3  4  1  0  0  0  0
  4  5  1  0  0  0  0
  5  6  1  0  0  0  0
  6  7  1  0  0  0  0
  7  8  1  0  0  0  0
  8  9  1  0  0  0  0
  9 10  1  0  0  0  0
 10 11  1  0  0  0  0
 11 12  1  0  0  0  0
 12 13  1  0  0  0  0
 13 14  1  0  0  0  0
M  END
>  <CHROM.1>
62.24552658,175.31398581,60.25402028,172.80261936,-176.07030447,178.49999725
-170.42760016,-161.97894866,-82.49490822,-174.42648586,-177.17272319,43.44750548
-9.15545177,-0.49475350,2.42457894,-0.54785185,3.00243998

>  <Name>
ligand

>  <RI>
0

>  <Rbt.Current_Directory>
/home/itssahil/PROJECTS/Mol_Feturizer/New_Systems/rnas/1EVV

>  <Rbt.Executable>
rbdock ($Id: //depot/dev/client3/rdock/2013.1/src/exe/rbdock.cxx#4 $)

>  <Rbt.Library>
libRbt.so (2013.1, Build901 2013/11/27)

>  <Rbt.Parameter_File>
/export/apps/rDock/src/rDock_2013.1_src/data/scripts/dock_solv.prm

>  <Rbt.Receptor>
prm/blind_docking_80.prm

>  <SCORE>
-11.8735

>  <SCORE.INTER>
-2.50084

>  <SCORE.INTER.CONST>
1

>  <SCORE.INTER.POLAR>
0

>  <SCORE.INTER.ROT>
11

>  <SCORE.INTER.SOLV>
14.4694

>  <SCORE.INTER.VDW>
-17.4237

>  <SCORE.INTER.norm>
-0.178631

>  <SCORE.INTRA>
-9.3727

>  <SCORE.INTRA.DIHEDRAL>
-18.8972

>  <SCORE.INTRA.DIHEDRAL.0>
20.2131

>  <SCORE.INTRA.POLAR>
0

>  <SCORE.INTRA.POLAR.0>
0

>  <SCORE.INTRA.REPUL>
0

>  <SCORE.INTRA.REPUL.0>
0

>  <SCORE.INTRA.SOLV>
-0.753127

>  <SCORE.INTRA.SOLV.lig_0>
-48.2851

>  <SCORE.INTRA.VDW>
0.452436

>  <SCORE.INTRA.VDW.0>
-1.08658

>  <SCORE.INTRA.norm>
-0.669479

>  <SCORE.RESTR>
0

>  <SCORE.RESTR.CAVITY>
0

>  <SCORE.RESTR.norm>
0

>  <SCORE.SYSTEM>
0

>  <SCORE.SYSTEM.CONST>
0

>  <SCORE.SYSTEM.DIHEDRAL>
0

>  <SCORE.SYSTEM.SOLV>
0

>  <SCORE.SYSTEM.norm>
0

>  <SCORE.heavy>
14

>  <SCORE.norm>
-0.84811

>  <RMSD>
47.688

$$$$
ligand
 OpenBabel11021811393D
libRbt.so/2013.1/901 2013/11/27
 14 13  0  0  0  0  0  0  0  0999 V2000
   38.4720  -12.0855    3.2334 N   0  0  0  0  0  0  0  0  0  0  0  0
   39.7497  -11.5980    2.7373 C   0  0  0  0  0  0  0  0  0  0  0  0
   40.3427  -12.5995    1.7082 C   0  0  0  0  0  0  0  0  0  0  0  0
   41.7457  -12.2691    1.0855 C   0  0  0  0  0  0  0  0  0  0  0  0
   41.8187  -10.9851    0.2965 N   0  0  0  0  0  0  0  0  0  0  0  0
   43.2104  -10.5494   -0.0181 C   0  0  0  0  0  0  0  0  0  0  0  0
   43.3370   -9.0708   -0.3369 C   0  0  0  0  0  0  0  0  0  0  0  0
   42.8064   -8.7241   -1.7162 C   0  0  0  0  0  0  0  0  0  0  0  0
   42.8273   -7.2486   -1.8383 C   0  0  0  0  0  0  0  0  0  0  0  0
   44.1250   -6.6012   -1.5300 N   0  0  0  0  0  0  0  0  0  0  0  0
   45.1493   -6.7863   -2.5884 C   0  0  0  0  0  0  0  0  0  0  0  0
   46.5626   -6.2103   -2.2760 C   0  0  0  0  0  0  0  0  0  0  0  0
   47.4640   -6.4603   -3.4979 C   0  0  0  0  0  0  0  0  0  0  0  0
   48.8218   -5.9863   -3.2425 N   0  0  0  0  0  0  0  0  0  0  0  0
  1  2  1  0  0  0  0
  2  3  1  0  0  0  0
  3  4  1  0  0  0  0
  4  5  1  0  0  0  0
  5  6  1  0  0  0  0
  6  7  1  0  0  0  0
  7  8  1  0  0  0  0
  8  9  1  0  0  0  0
  9 10  1  0  0  0  0
 10 11  1  0  0  0  0
 11 12  1  0  0  0  0
 12 13  1  0  0  0  0
 13 14  1  0  0  0  0
M  END
>  <CHROM.1>
-178.30599298,-61.15908377,167.07072416,-158.68840510,-74.60450651,173.01642778
52.61351203,73.97051900,-176.00470001,-178.32233617,-177.78032648,43.31661704
-9.08395639,-0.57034659,2.33957388,-0.29866965,2.70179506

>  <Name>
ligand

>  <RI>
0

>  <Rbt.Current_Directory>
/home/itssahil/PROJECTS/Mol_Feturizer/New_Systems/rnas/1EVV

>  <Rbt.Executable>
rbdock ($Id: //depot/dev/client3/rdock/2013.1/src/exe/rbdock.cxx#4 $)

>  <Rbt.Library>
libRbt.so (2013.1, Build901 2013/11/27)

>  <Rbt.Parameter_File>
/export/apps/rDock/src/rDock_2013.1_src/data/scripts/dock_solv.prm

>  <Rbt.Receptor>
prm/blind_docking_100.prm

>  <SCORE>
-13.0846

>  <SCORE.INTER>
-4.13967

>  <SCORE.INTER.CONST>
1

>  <SCORE.INTER.POLAR>
0

>  <SCORE.INTER.ROT>
11

>  <SCORE.INTER.SOLV>
12.2388

>  <SCORE.INTER.VDW>
-17.7727

>  <SCORE.INTER.norm>
-0.295691

>  <SCORE.INTRA>
-8.9449

>  <SCORE.INTRA.DIHEDRAL>
-18.3581

>  <SCORE.INTRA.DIHEDRAL.0>
20.2131

>  <SCORE.INTRA.POLAR>
0

>  <SCORE.INTRA.POLAR.0>
0

>  <SCORE.INTRA.REPUL>
0

>  <SCORE.INTRA.REPUL.0>
0

>  <SCORE.INTRA.SOLV>
-0.287109

>  <SCORE.INTRA.SOLV.lig_0>
-48.2851

>  <SCORE.INTRA.VDW>
0.37772

>  <SCORE.INTRA.VDW.0>
-1.08658

>  <SCORE.INTRA.norm>
-0.638922

>  <SCORE.RESTR>
0

>  <SCORE.RESTR.CAVITY>
0

>  <SCORE.RESTR.norm>
0

>  <SCORE.SYSTEM>
0

>  <SCORE.SYSTEM.CONST>
0

>  <SCORE.SYSTEM.DIHEDRAL>
0

>  <SCORE.SYSTEM.SOLV>
0

>  <SCORE.SYSTEM.norm>
0

>  <SCORE.heavy>
14

>  <SCORE.norm>
-0.934613

>  <RMSD>
47.691

$$$$
ligand
 OpenBabel11021811393D
libRbt.so/2013.1/901 2013/11/27
 14 13  0  0  0  0  0  0  0  0999 V2000
   40.0795  -11.9465    2.3719 N   0  0  0  0  0  0  0  0  0  0  0  0
   40.7632  -10.7096    2.0273 C   0  0  0  0  0  0  0  0  0  0  0  0
   40.8295  -10.5456    0.4838 C   0  0  0  0  0  0  0  0  0  0  0  0
   41.5176   -9.2560   -0.0895 C   0  0  0  0  0  0  0  0  0  0  0  0
   42.9968   -9.1350    0.1824 N   0  0  0  0  0  0  0  0  0  0  0  0
   43.8498   -9.8975   -0.7751 C   0  0  0  0  0  0  0  0  0  0  0  0
   43.8842   -9.3096   -2.1741 C   0  0  0  0  0  0  0  0  0  0  0  0
   44.3355   -7.8603   -2.1867 C   0  0  0  0  0  0  0  0  0  0  0  0
   45.8071   -7.8556   -2.0230 C   0  0  0  0  0  0  0  0  0  0  0  0
   46.4199   -6.5241   -1.7996 N   0  0  0  0  0  0  0  0  0  0  0  0
   46.9122   -5.8789   -3.0426 C   0  0  0  0  0  0  0  0  0  0  0  0
   46.2664   -4.5068   -3.3990 C   0  0  0  0  0  0  0  0  0  0  0  0
   47.1616   -3.8103   -4.4390 C   0  0  0  0  0  0  0  0  0  0  0  0
   47.1586   -4.5489   -5.6991 N   0  0  0  0  0  0  0  0  0  0  0  0
  1  2  1  0  0  0  0
  2  3  1  0  0  0  0
  3  4  1  0  0  0  0
  4  5  1  0  0  0  0
  5  6  1  0  0  0  0
  6  7  1  0  0  0  0
  7  8  1  0  0  0  0
  8  9  1  0  0  0  0
  9 10  1  0  0  0  0
 10 11  1  0  0  0  0
 11 12  1  0  0  0  0
 12 13  1  0  0  0  0
 13 14  1  0  0  0  0
M  END
>  <CHROM.1>
179.23355224,65.58198231,82.45727509,70.64588492,56.23379754,77.39095984
-170.91159133,-94.56415570,119.82735208,163.44969257,66.29795535,44.14155818
-7.98460458,-1.46882051,2.31832141,-0.50073135,2.82837821

>  <Name>
ligand

>  <RI>
0

>  <Rbt.Current_Directory>
/home/itssahil/PROJECTS/Mol_Feturizer/New_Systems/rnas/1EVV

>  <Rbt.Executable>
rbdock ($Id: //depot/dev/client3/rdock/2013.1/src/exe/rbdock.cxx#4 $)

>  <Rbt.Library>
libRbt.so (2013.1, Build901 2013/11/27)

>  <Rbt.Parameter_File>
/export/apps/rDock/src/rDock_2013.1_src/data/scripts/dock_solv.prm

>  <Rbt.Receptor>
prm/blind_docking_80.prm

>  <SCORE>
-10.8862

>  <SCORE.INTER>
-4.51776

>  <SCORE.INTER.CONST>
1

>  <SCORE.INTER.POLAR>
0

>  <SCORE.INTER.ROT>
11

>  <SCORE.INTER.SOLV>
11.7804

>  <SCORE.INTER.VDW>
-17.872

>  <SCORE.INTER.norm>
-0.322697

>  <SCORE.INTRA>
-6.36848

>  <SCORE.INTRA.DIHEDRAL>
-15.0266

>  <SCORE.INTRA.DIHEDRAL.0>
20.2131

>  <SCORE.INTRA.POLAR>
0

>  <SCORE.INTRA.POLAR.0>
0

>  <SCORE.INTRA.REPUL>
0

>  <SCORE.INTRA.REPUL.0>
0

>  <SCORE.INTRA.SOLV>
0.354766

>  <SCORE.INTRA.SOLV.lig_0>
-48.2851

>  <SCORE.INTRA.VDW>
0.967454

>  <SCORE.INTRA.VDW.0>
-1.08658

>  <SCORE.INTRA.norm>
-0.454891

>  <SCORE.RESTR>
0

>  <SCORE.RESTR.CAVITY>
0

>  <SCORE.RESTR.norm>
0

>  <SCORE.SYSTEM>
0

>  <SCORE.SYSTEM.CONST>
0

>  <SCORE.SYSTEM.DIHEDRAL>
0

>  <SCORE.SYSTEM.SOLV>
0

>  <SCORE.SYSTEM.norm>
0

>  <SCORE.heavy>
14

>  <SCORE.norm>
-0.777588

>  <RMSD>
47.696

$$$$
ligand
 OpenBabel11021811393D
libRbt.so/2013.1/901 2013/11/27
 14 13  0  0  0  0  0  0  0  0999 V2000
   40.1631  -11.6806    2.2236 N   0  0  0  0  0  0  0  0  0  0  0  0
   41.2735  -11.7380    1.2856 C   0  0  0  0  0  0  0  0  0  0  0  0
   41.5845  -10.3187    0.7353 C   0  0  0  0  0  0  0  0  0  0  0  0
   42.7835  -10.1653   -0.2668 C   0  0  0  0  0  0  0  0  0  0  0  0
   43.0547   -8.7595   -0.7430 N   0  0  0  0  0  0  0  0  0  0  0  0
   43.9792   -8.6869   -1.9116 C   0  0  0  0  0  0  0  0  0  0  0  0
   45.3008   -8.0033   -1.6114 C   0  0  0  0  0  0  0  0  0  0  0  0
   46.2129   -7.9399   -2.8230 C   0  0  0  0  0  0  0  0  0  0  0  0
   47.5137   -7.3989   -2.3675 C   0  0  0  0  0  0  0  0  0  0  0  0
   47.4883   -5.9966   -1.8865 N   0  0  0  0  0  0  0  0  0  0  0  0
   47.3841   -4.9947   -2.9769 C   0  0  0  0  0  0  0  0  0  0  0  0
   45.9393   -4.5681   -3.3735 C   0  0  0  0  0  0  0  0  0  0  0  0
   46.0374   -3.3429   -4.2995 C   0  0  0  0  0  0  0  0  0  0  0  0
   46.6919   -3.6976   -5.5562 N   0  0  0  0  0  0  0  0  0  0  0  0
  1  2  1  0  0  0  0
  2  3  1  0  0  0  0
  3  4  1  0  0  0  0
  4  5  1  0  0  0  0
  5  6  1  0  0  0  0
  6  7  1  0  0  0  0
  7  8  1  0  0  0  0
  8  9  1  0  0  0  0
  9 10  1  0  0  0  0
 10 11  1  0  0  0  0
 11 12  1  0  0  0  0
 12 13  1  0  0  0  0
 13 14  1  0  0  0  0
M  END
>  <CHROM.1>
178.32774919,-178.73995357,-166.84435189,-114.71835658,-179.67536775,-173.63152852
-65.46425283,-75.02471156,91.18315563,168.87146216,65.17649761,44.67205274
-7.66368981,-1.68374467,2.17272882,-0.10002660,2.55628120

>  <Name>
ligand

>  <RI>
0

>  <Rbt.Current_Directory>
/home/itssahil/PROJECTS/Mol_Feturizer/New_Systems/rnas/1EVV

>  <Rbt.Executable>
rbdock ($Id: //depot/dev/client3/rdock/2013.1/src/exe/rbdock.cxx#4 $)

>  <Rbt.Library>
libRbt.so (2013.1, Build901 2013/11/27)

>  <Rbt.Parameter_File>
/export/apps/rDock/src/rDock_2013.1_src/data/scripts/dock_solv.prm

>  <Rbt.Receptor>
prm/blind_docking_100.prm

>  <SCORE>
-13.9555

>  <SCORE.INTER>
-5.52456

>  <SCORE.INTER.CONST>
1

>  <SCORE.INTER.POLAR>
0

>  <SCORE.INTER.ROT>
11

>  <SCORE.INTER.SOLV>
11.7195

>  <SCORE.INTER.VDW>
-18.5229

>  <SCORE.INTER.norm>
-0.394611

>  <SCORE.INTRA>
-8.43695

>  <SCORE.INTRA.DIHEDRAL>
-17.2318

>  <SCORE.INTRA.DIHEDRAL.0>
20.2131

>  <SCORE.INTRA.POLAR>
0

>  <SCORE.INTRA.POLAR.0>
0

>  <SCORE.INTRA.REPUL>
0

>  <SCORE.INTRA.REPUL.0>
0

>  <SCORE.INTRA.SOLV>
-0.309354

>  <SCORE.INTRA.SOLV.lig_0>
-48.2851

>  <SCORE.INTRA.VDW>
0.333617

>  <SCORE.INTRA.VDW.0>
-1.08658

>  <SCORE.INTRA.norm>
-0.602639

>  <SCORE.RESTR>
0.00605479

>  <SCORE.RESTR.CAVITY>
0.00605479

>  <SCORE.RESTR.norm>
0.000432485

>  <SCORE.SYSTEM>
0

>  <SCORE.SYSTEM.CONST>
0

>  <SCORE.SYSTEM.DIHEDRAL>
0

>  <SCORE.SYSTEM.SOLV>
0

>  <SCORE.SYSTEM.norm>
0

>  <SCORE.heavy>
14

>  <SCORE.norm>
-0.996818

>  <RMSD>
47.706

$$$$
ligand
 OpenBabel11021811393D
libRbt.so/2013.1/901 2013/11/27
 14 13  0  0  0  0  0  0  0  0999 V2000
   40.2304  -13.0342    2.5430 N   0  0  0  0  0  0  0  0  0  0  0  0
   40.4149  -11.6059    2.3376 C   0  0  0  0  0  0  0  0  0  0  0  0
   41.1370  -11.3474    0.9864 C   0  0  0  0  0  0  0  0  0  0  0  0
   41.4944   -9.8640    0.6160 C   0  0  0  0  0  0  0  0  0  0  0  0
   42.2098   -9.6786   -0.6994 N   0  0  0  0  0  0  0  0  0  0  0  0
   43.6325  -10.1270   -0.6800 C   0  0  0  0  0  0  0  0  0  0  0  0
   44.3520   -9.9549   -2.0054 C   0  0  0  0  0  0  0  0  0  0  0  0
   44.4666   -8.4997   -2.4221 C   0  0  0  0  0  0  0  0  0  0  0  0
   45.5302   -7.8867   -1.5943 C   0  0  0  0  0  0  0  0  0  0  0  0
   45.8330   -6.4666   -1.8938 N   0  0  0  0  0  0  0  0  0  0  0  0
   46.9244   -6.2863   -2.8838 C   0  0  0  0  0  0  0  0  0  0  0  0
   47.2890   -4.8129   -3.2343 C   0  0  0  0  0  0  0  0  0  0  0  0
   46.0400   -4.1370   -3.8269 C   0  0  0  0  0  0  0  0  0  0  0  0
   46.3533   -2.7857   -4.2844 N   0  0  0  0  0  0  0  0  0  0  0  0
  1  2  1  0  0  0  0
  2  3  1  0  0  0  0
  3  4  1  0  0  0  0
  4  5  1  0  0  0  0
  5  6  1  0  0  0  0
  6  7  1  0  0  0  0
  7  8  1  0  0  0  0
  8  9  1  0  0  0  0
  9 10  1  0  0  0  0
 10 11  1  0  0  0  0
 11 12  1  0  0  0  0
 12 13  1  0  0  0  0
 13 14  1  0  0  0  0
M  END
>  <CHROM.1>
-176.95290420,179.25742778,-72.85694726,179.42670001,63.54033716,75.87208944
177.59072758,-92.27936507,-179.82188493,-60.33546981,-175.01242200,43.99353079
-8.32062325,-1.21729809,2.27040950,-0.55173341,2.94024834

>  <Name>
ligand

>  <RI>
0

>  <Rbt.Current_Directory>
/home/itssahil/PROJECTS/Mol_Feturizer/New_Systems/rnas/1EVV

>  <Rbt.Executable>
rbdock ($Id: //depot/dev/client3/rdock/2013.1/src/exe/rbdock.cxx#4 $)

>  <Rbt.Library>
libRbt.so (2013.1, Build901 2013/11/27)

>  <Rbt.Parameter_File>
/export/apps/rDock/src/rDock_2013.1_src/data/scripts/dock_solv.prm

>  <Rbt.Receptor>
prm/blind_docking_100.prm

>  <SCORE>
-13.2899

>  <SCORE.INTER>
-4.78934

>  <SCORE.INTER.CONST>
1

>  <SCORE.INTER.POLAR>
0

>  <SCORE.INTER.ROT>
11

>  <SCORE.INTER.SOLV>
15.9601

>  <SCORE.INTER.VDW>
-19.4463

>  <SCORE.INTER.norm>
-0.342096

>  <SCORE.INTRA>
-8.5006

>  <SCORE.INTRA.DIHEDRAL>
-18.2129

>  <SCORE.INTRA.DIHEDRAL.0>
20.2131

>  <SCORE.INTRA.POLAR>
0

>  <SCORE.INTRA.POLAR.0>
0

>  <SCORE.INTRA.REPUL>
0

>  <SCORE.INTRA.REPUL.0>
0

>  <SCORE.INTRA.SOLV>
-0.385419

>  <SCORE.INTRA.SOLV.lig_0>
-48.2851

>  <SCORE.INTRA.VDW>
0.798545

>  <SCORE.INTRA.VDW.0>
-1.08658

>  <SCORE.INTRA.norm>
-0.607186

>  <SCORE.RESTR>
0

>  <SCORE.RESTR.CAVITY>
0

>  <SCORE.RESTR.norm>
0

>  <SCORE.SYSTEM>
0

>  <SCORE.SYSTEM.CONST>
0

>  <SCORE.SYSTEM.DIHEDRAL>
0

>  <SCORE.SYSTEM.SOLV>
0

>  <SCORE.SYSTEM.norm>
0

>  <SCORE.heavy>
14

>  <SCORE.norm>
-0.949281

>  <RMSD>
47.711

$$$$
ligand
 OpenBabel11021811393D
libRbt.so/2013.1/901 2013/11/27
 14 13  0  0  0  0  0  0  0  0999 V2000
   41.3869   -4.6694   -1.9333 N   0  0  0  0  0  0  0  0  0  0  0  0
   42.4984   -5.5296   -2.3084 C   0  0  0  0  0  0  0  0  0  0  0  0
   43.8365   -4.7449   -2.2219 C   0  0  0  0  0  0  0  0  0  0  0  0
   45.1581   -5.5008   -2.6060 C   0  0  0  0  0  0  0  0  0  0  0  0
   45.4571   -6.7371   -1.7943 N   0  0  0  0  0  0  0  0  0  0  0  0
   45.6086   -7.9742   -2.6143 C   0  0  0  0  0  0  0  0  0  0  0  0
   45.2141   -9.2476   -1.8885 C   0  0  0  0  0  0  0  0  0  0  0  0
   43.7520   -9.2573   -1.4806 C   0  0  0  0  0  0  0  0  0  0  0  0
   43.5314  -10.4698   -0.6599 C   0  0  0  0  0  0  0  0  0  0  0  0
   42.1556  -10.6436   -0.1353 N   0  0  0  0  0  0  0  0  0  0  0  0
   42.0262  -11.7548    0.8405 C   0  0  0  0  0  0  0  0  0  0  0  0
   40.6074  -11.9649    1.4486 C   0  0  0  0  0  0  0  0  0  0  0  0
   40.6714  -13.1603    2.4154 C   0  0  0  0  0  0  0  0  0  0  0  0
   39.3683  -13.3949    3.0321 N   0  0  0  0  0  0  0  0  0  0  0  0
  1  2  1  0  0  0  0
  2  3  1  0  0  0  0
  3  4  1  0  0  0  0
  4  5  1  0  0  0  0
  5  6  1  0  0  0  0
  6  7  1  0  0  0  0
  7  8  1  0  0  0  0
  8  9  1  0  0  0  0
  9 10  1  0  0  0  0
 10 11  1  0  0  0  0
 11 12  1  0  0  0  0
 12 13  1  0  0  0  0
 13 14  1  0  0  0  0
M  END
>  <CHROM.1>
-179.32757735,-58.71966812,122.64042005,-150.70211120,61.97239029,-173.88178382
178.67493187,-171.45293588,178.74854405,179.37839109,179.24511159,42.94835614
-8.93211289,-0.70777353,1.11876395,0.41035873,-0.36808110

>  <Name>
ligand

>  <RI>
0

>  <Rbt.Current_Directory>
/home/itssahil/PROJECTS/Mol_Feturizer/New_Systems/rnas/1EVV

>  <Rbt.Executable>
rbdock ($Id: //depot/dev/client3/rdock/2013.1/src/exe/rbdock.cxx#4 $)

>  <Rbt.Library>
libRbt.so (2013.1, Build901 2013/11/27)

>  <Rbt.Parameter_File>
/export/apps/rDock/src/rDock_2013.1_src/data/scripts/dock_solv.prm

>  <Rbt.Receptor>
prm/blind_docking_80.prm

>  <SCORE>
-14.6472

>  <SCORE.INTER>
-4.69384

>  <SCORE.INTER.CONST>
1

>  <SCORE.INTER.POLAR>
0

>  <SCORE.INTER.ROT>
11

>  <SCORE.INTER.SOLV>
10.1263

>  <SCORE.INTER.VDW>
-17.438

>  <SCORE.INTER.norm>
-0.335274

>  <SCORE.INTRA>
-9.95332

>  <SCORE.INTRA.DIHEDRAL>
-18.192

>  <SCORE.INTRA.DIHEDRAL.0>
20.2131

>  <SCORE.INTRA.POLAR>
0

>  <SCORE.INTRA.POLAR.0>
0

>  <SCORE.INTRA.REPUL>
0

>  <SCORE.INTRA.REPUL.0>
0

>  <SCORE.INTRA.SOLV>
-0.686251

>  <SCORE.INTRA.SOLV.lig_0>
-48.2851

>  <SCORE.INTRA.VDW>
-0.514196

>  <SCORE.INTRA.VDW.0>
-1.08658

>  <SCORE.INTRA.norm>
-0.710951

>  <SCORE.RESTR>
0

>  <SCORE.RESTR.CAVITY>
0

>  <SCORE.RESTR.norm>
0

>  <SCORE.SYSTEM>
0

>  <SCORE.SYSTEM.CONST>
0

>  <SCORE.SYSTEM.DIHEDRAL>
0

>  <SCORE.SYSTEM.SOLV>
0

>  <SCORE.SYSTEM.norm>
0

>  <SCORE.heavy>
14

>  <SCORE.norm>
-1.04623

>  <RMSD>
47.711

$$$$
ligand
 OpenBabel11021811393D
libRbt.so/2013.1/901 2013/11/27
 14 13  0  0  0  0  0  0  0  0999 V2000
   39.8803  -11.4474    2.0139 N   0  0  0  0  0  0  0  0  0  0  0  0
   41.1721  -11.0731    1.4597 C   0  0  0  0  0  0  0  0  0  0  0  0
   41.3121   -9.5262    1.4231 C   0  0  0  0  0  0  0  0  0  0  0  0
   40.8438   -8.7763    0.1255 C   0  0  0  0  0  0  0  0  0  0  0  0
   41.6565   -9.0568   -1.1144 N   0  0  0  0  0  0  0  0  0  0  0  0
   43.1309   -9.0164   -0.8904 C   0  0  0  0  0  0  0  0  0  0  0  0
   43.8244   -7.8421   -1.5568 C   0  0  0  0  0  0  0  0  0  0  0  0
   45.1906   -7.5566   -0.9601 C   0  0  0  0  0  0  0  0  0  0  0  0
   45.8338   -6.5248   -1.8052 C   0  0  0  0  0  0  0  0  0  0  0  0
   46.3134   -6.9918   -3.1281 N   0  0  0  0  0  0  0  0  0  0  0  0
   47.3782   -6.1374   -3.7112 C   0  0  0  0  0  0  0  0  0  0  0  0
   46.9324   -4.7216   -4.1837 C   0  0  0  0  0  0  0  0  0  0  0  0
   48.0249   -4.1581   -5.1094 C   0  0  0  0  0  0  0  0  0  0  0  0
   48.1034   -4.9327   -6.3452 N   0  0  0  0  0  0  0  0  0  0  0  0
  1  2  1  0  0  0  0
  2  3  1  0  0  0  0
  3  4  1  0  0  0  0
  4  5  1  0  0  0  0
  5  6  1  0  0  0  0
  6  7  1  0  0  0  0
  7  8  1  0  0  0  0
  8  9  1  0  0  0  0
  9 10  1  0  0  0  0
 10 11  1  0  0  0  0
 11 12  1  0  0  0  0
 12 13  1  0  0  0  0
 13 14  1  0  0  0  0
M  END
>  <CHROM.1>
-90.77848608,-66.49006882,-45.44926092,-110.95365044,160.97913820,172.44751538
-73.35297748,-157.54020703,-69.87201794,-163.62388125,66.74972384,44.25702891
-7.69705961,-1.69854849,-2.31561536,-0.26968741,-1.08236136

>  <Name>
ligand

>  <RI>
0

>  <Rbt.Current_Directory>
/home/itssahil/PROJECTS/Mol_Feturizer/New_Systems/rnas/1EVV

>  <Rbt.Executable>
rbdock ($Id: //depot/dev/client3/rdock/2013.1/src/exe/rbdock.cxx#4 $)

>  <Rbt.Library>
libRbt.so (2013.1, Build901 2013/11/27)

>  <Rbt.Parameter_File>
/export/apps/rDock/src/rDock_2013.1_src/data/scripts/dock_solv.prm

>  <Rbt.Receptor>
prm/blind_docking_100.prm

>  <SCORE>
-5.06701

>  <SCORE.INTER>
-0.516619

>  <SCORE.INTER.CONST>
1

>  <SCORE.INTER.POLAR>
0

>  <SCORE.INTER.ROT>
11

>  <SCORE.INTER.SOLV>
12.1411

>  <SCORE.INTER.VDW>
-15.3248

>  <SCORE.INTER.norm>
-0.0369014

>  <SCORE.INTRA>
-4.55039

>  <SCORE.INTRA.DIHEDRAL>
-12.1679

>  <SCORE.INTRA.DIHEDRAL.0>
20.2131

>  <SCORE.INTRA.POLAR>
0

>  <SCORE.INTRA.POLAR.0>
0

>  <SCORE.INTRA.REPUL>
0

>  <SCORE.INTRA.REPUL.0>
0

>  <SCORE.INTRA.SOLV>
0.684353

>  <SCORE.INTRA.SOLV.lig_0>
-48.2851

>  <SCORE.INTRA.VDW>
1.19137

>  <SCORE.INTRA.VDW.0>
-1.08658

>  <SCORE.INTRA.norm>
-0.325028

>  <SCORE.RESTR>
0

>  <SCORE.RESTR.CAVITY>
0

>  <SCORE.RESTR.norm>
0

>  <SCORE.SYSTEM>
0

>  <SCORE.SYSTEM.CONST>
0

>  <SCORE.SYSTEM.DIHEDRAL>
0

>  <SCORE.SYSTEM.SOLV>
0

>  <SCORE.SYSTEM.norm>
0

>  <SCORE.heavy>
14

>  <SCORE.norm>
-0.361929

>  <RMSD>
47.716

$$$$
ligand
 OpenBabel11021811393D
libRbt.so/2013.1/901 2013/11/27
 14 13  0  0  0  0  0  0  0  0999 V2000
   46.3430   -7.9240   -1.9198 N   0  0  0  0  0  0  0  0  0  0  0  0
   44.9663   -8.0489   -2.3728 C   0  0  0  0  0  0  0  0  0  0  0  0
   44.1170   -6.8617   -1.8410 C   0  0  0  0  0  0  0  0  0  0  0  0
   42.5983   -6.8093   -2.2362 C   0  0  0  0  0  0  0  0  0  0  0  0
   41.7594   -7.9618   -1.7415 N   0  0  0  0  0  0  0  0  0  0  0  0
   41.2336   -7.7741   -0.3581 C   0  0  0  0  0  0  0  0  0  0  0  0
   40.5799   -9.0129    0.2269 C   0  0  0  0  0  0  0  0  0  0  0  0
   41.5572  -10.1614    0.4000 C   0  0  0  0  0  0  0  0  0  0  0  0
   40.8034  -11.2986    0.9751 C   0  0  0  0  0  0  0  0  0  0  0  0
   41.6073  -12.5048    1.2864 N   0  0  0  0  0  0  0  0  0  0  0  0
   40.8897  -13.4995    2.1227 C   0  0  0  0  0  0  0  0  0  0  0  0
   40.7255  -13.1316    3.6275 C   0  0  0  0  0  0  0  0  0  0  0  0
   40.0331  -14.3086    4.3369 C   0  0  0  0  0  0  0  0  0  0  0  0
   38.6635  -14.4674    3.8548 N   0  0  0  0  0  0  0  0  0  0  0  0
  1  2  1  0  0  0  0
  2  3  1  0  0  0  0
  3  4  1  0  0  0  0
  4  5  1  0  0  0  0
  5  6  1  0  0  0  0
  6  7  1  0  0  0  0
  7  8  1  0  0  0  0
  8  9  1  0  0  0  0
  9 10  1  0  0  0  0
 10 11  1  0  0  0  0
 11 12  1  0  0  0  0
 12 13  1  0  0  0  0
 13 14  1  0  0  0  0
M  END
>  <CHROM.1>
179.40534119,62.47945550,85.70601784,-170.75171027,63.79363873,179.92056332
-176.94758332,167.39168532,-74.38457455,-176.92712705,-66.39926227,41.84827270
-10.26871950,0.45439263,-1.11797495,-0.22248467,2.55200074

>  <Name>
ligand

>  <RI>
0

>  <Rbt.Current_Directory>
/home/itssahil/PROJECTS/Mol_Feturizer/New_Systems/rnas/1EVV

>  <Rbt.Executable>
rbdock ($Id: //depot/dev/client3/rdock/2013.1/src/exe/rbdock.cxx#4 $)

>  <Rbt.Library>
libRbt.so (2013.1, Build901 2013/11/27)

>  <Rbt.Parameter_File>
/export/apps/rDock/src/rDock_2013.1_src/data/scripts/dock_solv.prm

>  <Rbt.Receptor>
prm/blind_docking_80.prm

>  <SCORE>
-12.1167

>  <SCORE.INTER>
-2.68328

>  <SCORE.INTER.CONST>
1

>  <SCORE.INTER.POLAR>
0

>  <SCORE.INTER.ROT>
11

>  <SCORE.INTER.SOLV>
11.5742

>  <SCORE.INTER.VDW>
-16.5802

>  <SCORE.INTER.norm>
-0.191663

>  <SCORE.INTRA>
-9.43341

>  <SCORE.INTRA.DIHEDRAL>
-19.0864

>  <SCORE.INTRA.DIHEDRAL.0>
20.2131

>  <SCORE.INTRA.POLAR>
0

>  <SCORE.INTRA.POLAR.0>
0

>  <SCORE.INTRA.REPUL>
0

>  <SCORE.INTRA.REPUL.0>
0

>  <SCORE.INTRA.SOLV>
0.0154752

>  <SCORE.INTRA.SOLV.lig_0>
-48.2851

>  <SCORE.INTRA.VDW>
0.10205

>  <SCORE.INTRA.VDW.0>
-1.08658

>  <SCORE.INTRA.norm>
-0.673815

>  <SCORE.RESTR>
0

>  <SCORE.RESTR.CAVITY>
0

>  <SCORE.RESTR.norm>
0

>  <SCORE.SYSTEM>
0

>  <SCORE.SYSTEM.CONST>
0

>  <SCORE.SYSTEM.DIHEDRAL>
0

>  <SCORE.SYSTEM.SOLV>
0

>  <SCORE.SYSTEM.norm>
0

>  <SCORE.heavy>
14

>  <SCORE.norm>
-0.865478

>  <RMSD>
47.716

$$$$
ligand
 OpenBabel11021811393D
libRbt.so/2013.1/901 2013/11/27
 14 13  0  0  0  0  0  0  0  0999 V2000
   40.0987  -11.1216    1.9549 N   0  0  0  0  0  0  0  0  0  0  0  0
   40.6930  -10.7902    0.6692 C   0  0  0  0  0  0  0  0  0  0  0  0
   42.2411  -10.8901    0.7523 C   0  0  0  0  0  0  0  0  0  0  0  0
   43.0641  -10.6647   -0.5658 C   0  0  0  0  0  0  0  0  0  0  0  0
   42.8681   -9.3249   -1.2314 N   0  0  0  0  0  0  0  0  0  0  0  0
   43.4207   -8.1787   -0.4527 C   0  0  0  0  0  0  0  0  0  0  0  0
   43.2574   -6.8329   -1.1356 C   0  0  0  0  0  0  0  0  0  0  0  0
   44.0742   -6.7228   -2.4103 C   0  0  0  0  0  0  0  0  0  0  0  0
   45.4840   -6.5063   -2.0129 C   0  0  0  0  0  0  0  0  0  0  0  0
   46.4335   -6.2784   -3.1286 N   0  0  0  0  0  0  0  0  0  0  0  0
   47.2530   -5.0505   -2.9719 C   0  0  0  0  0  0  0  0  0  0  0  0
   47.0752   -3.9678   -4.0777 C   0  0  0  0  0  0  0  0  0  0  0  0
   47.5713   -4.5563   -5.4103 C   0  0  0  0  0  0  0  0  0  0  0  0
   47.2966   -3.6387   -6.5130 N   0  0  0  0  0  0  0  0  0  0  0  0
  1  2  1  0  0  0  0
  2  3  1  0  0  0  0
  3  4  1  0  0  0  0
  4  5  1  0  0  0  0
  5  6  1  0  0  0  0
  6  7  1  0  0  0  0
  7  8  1  0  0  0  0
  8  9  1  0  0  0  0
  9 10  1  0  0  0  0
 10 11  1  0  0  0  0
 11 12  1  0  0  0  0
 12 13  1  0  0  0  0
 13 14  1  0  0  0  0
M  END
>  <CHROM.1>
175.87302948,58.97294957,68.15898811,178.50858741,-66.27020809,-76.35966933
-175.92311749,127.40270327,-118.45830239,-64.63121536,173.89069694,44.34514070
-7.46592774,-1.89515207,2.65796227,-0.86793172,-2.89562097

>  <Name>
ligand

>  <RI>
0

>  <Rbt.Current_Directory>
/home/itssahil/PROJECTS/Mol_Feturizer/New_Systems/rnas/1EVV

>  <Rbt.Executable>
rbdock ($Id: //depot/dev/client3/rdock/2013.1/src/exe/rbdock.cxx#4 $)

>  <Rbt.Library>
libRbt.so (2013.1, Build901 2013/11/27)

>  <Rbt.Parameter_File>
/export/apps/rDock/src/rDock_2013.1_src/data/scripts/dock_solv.prm

>  <Rbt.Receptor>
prm/blind_docking_60.prm

>  <SCORE>
-10.7208

>  <SCORE.INTER>
-3.06867

>  <SCORE.INTER.CONST>
1

>  <SCORE.INTER.POLAR>
0

>  <SCORE.INTER.ROT>
11

>  <SCORE.INTER.SOLV>
10.464

>  <SCORE.INTER.VDW>
-16.4671

>  <SCORE.INTER.norm>
-0.219191

>  <SCORE.INTRA>
-7.65214

>  <SCORE.INTRA.DIHEDRAL>
-16.2492

>  <SCORE.INTRA.DIHEDRAL.0>
20.2131

>  <SCORE.INTRA.POLAR>
0

>  <SCORE.INTRA.POLAR.0>
0

>  <SCORE.INTRA.REPUL>
0

>  <SCORE.INTRA.REPUL.0>
0

>  <SCORE.INTRA.SOLV>
-0.117364

>  <SCORE.INTRA.SOLV.lig_0>
-48.2851

>  <SCORE.INTRA.VDW>
0.53115

>  <SCORE.INTRA.VDW.0>
-1.08658

>  <SCORE.INTRA.norm>
-0.546581

>  <SCORE.RESTR>
0

>  <SCORE.RESTR.CAVITY>
0

>  <SCORE.RESTR.norm>
0

>  <SCORE.SYSTEM>
0

>  <SCORE.SYSTEM.CONST>
0

>  <SCORE.SYSTEM.DIHEDRAL>
0

>  <SCORE.SYSTEM.SOLV>
0

>  <SCORE.SYSTEM.norm>
0

>  <SCORE.heavy>
14

>  <SCORE.norm>
-0.765772

>  <RMSD>
47.732

$$$$
ligand
 OpenBabel11021811393D
libRbt.so/2013.1/901 2013/11/27
 14 13  0  0  0  0  0  0  0  0999 V2000
   39.5164  -11.6184    2.2743 N   0  0  0  0  0  0  0  0  0  0  0  0
   40.7828  -11.2111    1.6858 C   0  0  0  0  0  0  0  0  0  0  0  0
   41.6034  -12.4602    1.2615 C   0  0  0  0  0  0  0  0  0  0  0  0
   43.0590  -12.2337    0.7181 C   0  0  0  0  0  0  0  0  0  0  0  0
   43.1658  -11.3514   -0.5013 N   0  0  0  0  0  0  0  0  0  0  0  0
   43.3255   -9.9024   -0.1845 C   0  0  0  0  0  0  0  0  0  0  0  0
   43.6225   -9.0353   -1.3945 C   0  0  0  0  0  0  0  0  0  0  0  0
   43.8122   -7.5736   -1.0319 C   0  0  0  0  0  0  0  0  0  0  0  0
   44.2037   -6.8600   -2.2688 C   0  0  0  0  0  0  0  0  0  0  0  0
   44.4254   -5.4015   -2.1209 N   0  0  0  0  0  0  0  0  0  0  0  0
   45.4538   -4.8587   -3.0436 C   0  0  0  0  0  0  0  0  0  0  0  0
   46.8988   -5.4078   -2.8512 C   0  0  0  0  0  0  0  0  0  0  0  0
   47.8236   -4.6858   -3.8469 C   0  0  0  0  0  0  0  0  0  0  0  0
   47.4609   -5.0189   -5.2220 N   0  0  0  0  0  0  0  0  0  0  0  0
  1  2  1  0  0  0  0
  2  3  1  0  0  0  0
  3  4  1  0  0  0  0
  4  5  1  0  0  0  0
  5  6  1  0  0  0  0
  6  7  1  0  0  0  0
  7  8  1  0  0  0  0
  8  9  1  0  0  0  0
  9 10  1  0  0  0  0
 10 11  1  0  0  0  0
 11 12  1  0  0  0  0
 12 13  1  0  0  0  0
 13 14  1  0  0  0  0
M  END
>  <CHROM.1>
-174.77459807,-58.81624677,89.46775068,172.09606016,-178.60242511,175.39414067
179.46617863,148.63309444,-63.22778307,-177.46822898,-64.94899369,43.93967282
-8.40135872,-1.18034596,2.25612087,-0.56642604,2.92271711

>  <Name>
ligand

>  <RI>
0

>  <Rbt.Current_Directory>
/home/itssahil/PROJECTS/Mol_Feturizer/New_Systems/rnas/1EVV

>  <Rbt.Executable>
rbdock ($Id: //depot/dev/client3/rdock/2013.1/src/exe/rbdock.cxx#4 $)

>  <Rbt.Library>
libRbt.so (2013.1, Build901 2013/11/27)

>  <Rbt.Parameter_File>
/export/apps/rDock/src/rDock_2013.1_src/data/scripts/dock_solv.prm

>  <Rbt.Receptor>
prm/blind_docking_100.prm

>  <SCORE>
-12.6871

>  <SCORE.INTER>
-3.60643

>  <SCORE.INTER.CONST>
1

>  <SCORE.INTER.POLAR>
0

>  <SCORE.INTER.ROT>
11

>  <SCORE.INTER.SOLV>
15.0052

>  <SCORE.INTER.VDW>
-18.3393

>  <SCORE.INTER.norm>
-0.257602

>  <SCORE.INTRA>
-9.0807

>  <SCORE.INTRA.DIHEDRAL>
-18.6064

>  <SCORE.INTRA.DIHEDRAL.0>
20.2131

>  <SCORE.INTRA.POLAR>
0

>  <SCORE.INTRA.POLAR.0>
0

>  <SCORE.INTRA.REPUL>
0

>  <SCORE.INTRA.REPUL.0>
0

>  <SCORE.INTRA.SOLV>
-0.32156

>  <SCORE.INTRA.SOLV.lig_0>
-48.2851

>  <SCORE.INTRA.VDW>
0.383283

>  <SCORE.INTRA.VDW.0>
-1.08658

>  <SCORE.INTRA.norm>
-0.648622

>  <SCORE.RESTR>
0

>  <SCORE.RESTR.CAVITY>
0

>  <SCORE.RESTR.norm>
0

>  <SCORE.SYSTEM>
0

>  <SCORE.SYSTEM.CONST>
0

>  <SCORE.SYSTEM.DIHEDRAL>
0

>  <SCORE.SYSTEM.SOLV>
0

>  <SCORE.SYSTEM.norm>
0

>  <SCORE.heavy>
14

>  <SCORE.norm>
-0.906224

>  <RMSD>
47.742

$$$$
ligand
 OpenBabel11021811393D
libRbt.so/2013.1/901 2013/11/27
 14 13  0  0  0  0  0  0  0  0999 V2000
   47.3899   -3.5579   -6.5849 N   0  0  0  0  0  0  0  0  0  0  0  0
   46.1963   -3.3129   -5.7902 C   0  0  0  0  0  0  0  0  0  0  0  0
   46.5707   -3.1754   -4.2887 C   0  0  0  0  0  0  0  0  0  0  0  0
   47.2263   -4.4128   -3.5783 C   0  0  0  0  0  0  0  0  0  0  0  0
   46.3536   -5.6394   -3.4765 N   0  0  0  0  0  0  0  0  0  0  0  0
   46.9466   -6.7343   -2.6548 C   0  0  0  0  0  0  0  0  0  0  0  0
   46.1273   -8.0121   -2.6458 C   0  0  0  0  0  0  0  0  0  0  0  0
   44.7154   -7.7960   -2.1323 C   0  0  0  0  0  0  0  0  0  0  0  0
   44.0482   -9.1176   -2.1077 C   0  0  0  0  0  0  0  0  0  0  0  0
   42.5998   -9.0953   -1.7918 N   0  0  0  0  0  0  0  0  0  0  0  0
   42.3057   -9.1784   -0.3391 C   0  0  0  0  0  0  0  0  0  0  0  0
   40.8070   -9.0354    0.0612 C   0  0  0  0  0  0  0  0  0  0  0  0
   40.7120   -9.0946    1.5960 C   0  0  0  0  0  0  0  0  0  0  0  0
   41.0351  -10.4338    2.0812 N   0  0  0  0  0  0  0  0  0  0  0  0
  1  2  1  0  0  0  0
  2  3  1  0  0  0  0
  3  4  1  0  0  0  0
  4  5  1  0  0  0  0
  5  6  1  0  0  0  0
  6  7  1  0  0  0  0
  7  8  1  0  0  0  0
  8  9  1  0  0  0  0
  9 10  1  0  0  0  0
 10 11  1  0  0  0  0
 11 12  1  0  0  0  0
 12 13  1  0  0  0  0
 13 14  1  0  0  0  0
M  END
>  <CHROM.1>
-61.97161403,-64.20154393,-173.03077347,-175.09728838,-58.23394148,-177.15874821
-172.74732427,-88.81105659,174.90720560,-177.90917070,-68.77698563,44.50248281
-7.04251019,-2.26074921,0.88792778,0.42607590,-0.46440785

>  <Name>
ligand

>  <RI>
0

>  <Rbt.Current_Directory>
/home/itssahil/PROJECTS/Mol_Feturizer/New_Systems/rnas/1EVV

>  <Rbt.Executable>
rbdock ($Id: //depot/dev/client3/rdock/2013.1/src/exe/rbdock.cxx#4 $)

>  <Rbt.Library>
libRbt.so (2013.1, Build901 2013/11/27)

>  <Rbt.Parameter_File>
/export/apps/rDock/src/rDock_2013.1_src/data/scripts/dock_solv.prm

>  <Rbt.Receptor>
prm/blind_docking_60.prm

>  <SCORE>
-12.7262

>  <SCORE.INTER>
-3.90581

>  <SCORE.INTER.CONST>
1

>  <SCORE.INTER.POLAR>
0

>  <SCORE.INTER.ROT>
11

>  <SCORE.INTER.SOLV>
10.657

>  <SCORE.INTER.VDW>
-17.0895

>  <SCORE.INTER.norm>
-0.278986

>  <SCORE.INTRA>
-8.82044

>  <SCORE.INTRA.DIHEDRAL>
-18.9438

>  <SCORE.INTRA.DIHEDRAL.0>
20.2131

>  <SCORE.INTRA.POLAR>
0

>  <SCORE.INTRA.POLAR.0>
0

>  <SCORE.INTRA.REPUL>
0

>  <SCORE.INTRA.REPUL.0>
0

>  <SCORE.INTRA.SOLV>
1.18365

>  <SCORE.INTRA.SOLV.lig_0>
-48.2851

>  <SCORE.INTRA.VDW>
0.0596265

>  <SCORE.INTRA.VDW.0>
-1.08658

>  <SCORE.INTRA.norm>
-0.630031

>  <SCORE.RESTR>
0

>  <SCORE.RESTR.CAVITY>
0

>  <SCORE.RESTR.norm>
0

>  <SCORE.SYSTEM>
0

>  <SCORE.SYSTEM.CONST>
0

>  <SCORE.SYSTEM.DIHEDRAL>
0

>  <SCORE.SYSTEM.SOLV>
0

>  <SCORE.SYSTEM.norm>
0

>  <SCORE.heavy>
14

>  <SCORE.norm>
-0.909018

>  <RMSD>
47.762

$$$$
ligand
 OpenBabel11021811393D
libRbt.so/2013.1/901 2013/11/27
 14 13  0  0  0  0  0  0  0  0999 V2000
   45.3045   -3.5881   -3.5871 N   0  0  0  0  0  0  0  0  0  0  0  0
   45.1756   -4.8300   -2.8407 C   0  0  0  0  0  0  0  0  0  0  0  0
   46.5311   -5.5890   -2.8245 C   0  0  0  0  0  0  0  0  0  0  0  0
   46.5740   -7.0024   -2.1419 C   0  0  0  0  0  0  0  0  0  0  0  0
   45.6627   -8.0421   -2.7461 N   0  0  0  0  0  0  0  0  0  0  0  0
   45.8201   -9.4007   -2.1504 C   0  0  0  0  0  0  0  0  0  0  0  0
   44.5127  -10.0421   -1.7223 C   0  0  0  0  0  0  0  0  0  0  0  0
   43.7475   -9.1947   -0.7220 C   0  0  0  0  0  0  0  0  0  0  0  0
   42.5829   -9.9898   -0.2705 C   0  0  0  0  0  0  0  0  0  0  0  0
   42.9037  -11.1805    0.5526 N   0  0  0  0  0  0  0  0  0  0  0  0
   41.7195  -12.0118    0.8847 C   0  0  0  0  0  0  0  0  0  0  0  0
   40.7172  -11.3924    1.9037 C   0  0  0  0  0  0  0  0  0  0  0  0
   39.5549  -12.3824    2.0965 C   0  0  0  0  0  0  0  0  0  0  0  0
   38.5930  -11.8654    3.0664 N   0  0  0  0  0  0  0  0  0  0  0  0
  1  2  1  0  0  0  0
  2  3  1  0  0  0  0
  3  4  1  0  0  0  0
  4  5  1  0  0  0  0
  5  6  1  0  0  0  0
  6  7  1  0  0  0  0
  7  8  1  0  0  0  0
  8  9  1  0  0  0  0
  9 10  1  0  0  0  0
 10 11  1  0  0  0  0
 11 12  1  0  0  0  0
 12 13  1  0  0  0  0
 13 14  1  0  0  0  0
M  END
>  <CHROM.1>
-176.22680670,60.27980741,174.85049452,129.73530079,-57.39177258,-173.66899821
68.23102294,-175.02426858,-70.82251887,178.93611562,178.84185011,43.52870786
-9.03668170,-0.75014770,0.82699824,0.52637343,-0.23536381

>  <Name>
ligand

>  <RI>
0

>  <Rbt.Current_Directory>
/home/itssahil/PROJECTS/Mol_Feturizer/New_Systems/rnas/1EVV

>  <Rbt.Executable>
rbdock ($Id: //depot/dev/client3/rdock/2013.1/src/exe/rbdock.cxx#4 $)

>  <Rbt.Library>
libRbt.so (2013.1, Build901 2013/11/27)

>  <Rbt.Parameter_File>
/export/apps/rDock/src/rDock_2013.1_src/data/scripts/dock_solv.prm

>  <Rbt.Receptor>
prm/blind_docking_60.prm

>  <SCORE>
-12.5276

>  <SCORE.INTER>
-3.25586

>  <SCORE.INTER.CONST>
1

>  <SCORE.INTER.POLAR>
0

>  <SCORE.INTER.ROT>
11

>  <SCORE.INTER.SOLV>
16.2306

>  <SCORE.INTER.VDW>
-18.5141

>  <SCORE.INTER.norm>
-0.232562

>  <SCORE.INTRA>
-9.27172

>  <SCORE.INTRA.DIHEDRAL>
-18.4457

>  <SCORE.INTRA.DIHEDRAL.0>
20.2131

>  <SCORE.INTRA.POLAR>
0

>  <SCORE.INTRA.POLAR.0>
0

>  <SCORE.INTRA.REPUL>
0

>  <SCORE.INTRA.REPUL.0>
0

>  <SCORE.INTRA.SOLV>
-0.277825

>  <SCORE.INTRA.SOLV.lig_0>
-48.2851

>  <SCORE.INTRA.VDW>
0.0900445

>  <SCORE.INTRA.VDW.0>
-1.08658

>  <SCORE.INTRA.norm>
-0.662266

>  <SCORE.RESTR>
0

>  <SCORE.RESTR.CAVITY>
0

>  <SCORE.RESTR.norm>
0

>  <SCORE.SYSTEM>
0

>  <SCORE.SYSTEM.CONST>
0

>  <SCORE.SYSTEM.DIHEDRAL>
0

>  <SCORE.SYSTEM.SOLV>
0

>  <SCORE.SYSTEM.norm>
0

>  <SCORE.heavy>
14

>  <SCORE.norm>
-0.894827

>  <RMSD>
47.790

$$$$
ligand
 OpenBabel11021811393D
libRbt.so/2013.1/901 2013/11/27
 14 13  0  0  0  0  0  0  0  0999 V2000
   37.6621  -12.8234    2.8764 N   0  0  0  0  0  0  0  0  0  0  0  0
   38.7762  -12.9909    1.9561 C   0  0  0  0  0  0  0  0  0  0  0  0
   40.0975  -12.5171    2.6219 C   0  0  0  0  0  0  0  0  0  0  0  0
   41.4230  -12.6317    1.7881 C   0  0  0  0  0  0  0  0  0  0  0  0
   41.4788  -11.7861    0.5397 N   0  0  0  0  0  0  0  0  0  0  0  0
   41.7116  -10.3365    0.8037 C   0  0  0  0  0  0  0  0  0  0  0  0
   42.2445   -9.5691   -0.3927 C   0  0  0  0  0  0  0  0  0  0  0  0
   43.6044  -10.0679   -0.8467 C   0  0  0  0  0  0  0  0  0  0  0  0
   43.9792   -9.2914   -2.0504 C   0  0  0  0  0  0  0  0  0  0  0  0
   44.1553   -7.8343   -1.8404 N   0  0  0  0  0  0  0  0  0  0  0  0
   45.5437   -7.4471   -1.4854 C   0  0  0  0  0  0  0  0  0  0  0  0
   46.3210   -6.6357   -2.5643 C   0  0  0  0  0  0  0  0  0  0  0  0
   45.6232   -5.2752   -2.7374 C   0  0  0  0  0  0  0  0  0  0  0  0
   46.2828   -4.4857   -3.7742 N   0  0  0  0  0  0  0  0  0  0  0  0
  1  2  1  0  0  0  0
  2  3  1  0  0  0  0
  3  4  1  0  0  0  0
  4  5  1  0  0  0  0
  5  6  1  0  0  0  0
  6  7  1  0  0  0  0
  7  8  1  0  0  0  0
  8  9  1  0  0  0  0
  9 10  1  0  0  0  0
 10 11  1  0  0  0  0
 11 12  1  0  0  0  0
 12 13  1  0  0  0  0
 13 14  1  0  0  0  0
M  END
>  <CHROM.1>
179.42334373,63.70845361,75.51105234,159.75751599,-62.56704694,177.21243318
63.31401978,90.45095657,111.18538294,65.31829028,-178.02325615,42.77896086
-9.54957697,-0.36461236,2.28244732,-0.36867099,2.79793903

>  <Name>
ligand

>  <RI>
0

>  <Rbt.Current_Directory>
/home/itssahil/PROJECTS/Mol_Feturizer/New_Systems/rnas/1EVV

>  <Rbt.Executable>
rbdock ($Id: //depot/dev/client3/rdock/2013.1/src/exe/rbdock.cxx#4 $)

>  <Rbt.Library>
libRbt.so (2013.1, Build901 2013/11/27)

>  <Rbt.Parameter_File>
/export/apps/rDock/src/rDock_2013.1_src/data/scripts/dock_solv.prm

>  <Rbt.Receptor>
prm/blind_docking_80.prm

>  <SCORE>
-11.2395

>  <SCORE.INTER>
-2.56496

>  <SCORE.INTER.CONST>
1

>  <SCORE.INTER.POLAR>
0

>  <SCORE.INTER.ROT>
11

>  <SCORE.INTER.SOLV>
15.5794

>  <SCORE.INTER.VDW>
-17.8365

>  <SCORE.INTER.norm>
-0.183212

>  <SCORE.INTRA>
-8.67458

>  <SCORE.INTRA.DIHEDRAL>
-17.6948

>  <SCORE.INTRA.DIHEDRAL.0>
20.2131

>  <SCORE.INTRA.POLAR>
0

>  <SCORE.INTRA.POLAR.0>
0

>  <SCORE.INTRA.REPUL>
0

>  <SCORE.INTRA.REPUL.0>
0

>  <SCORE.INTRA.SOLV>
0.0150289

>  <SCORE.INTRA.SOLV.lig_0>
-48.2851

>  <SCORE.INTRA.VDW>
0.165308

>  <SCORE.INTRA.VDW.0>
-1.08658

>  <SCORE.INTRA.norm>
-0.619613

>  <SCORE.RESTR>
0

>  <SCORE.RESTR.CAVITY>
0

>  <SCORE.RESTR.norm>
0

>  <SCORE.SYSTEM>
0

>  <SCORE.SYSTEM.CONST>
0

>  <SCORE.SYSTEM.DIHEDRAL>
0

>  <SCORE.SYSTEM.SOLV>
0

>  <SCORE.SYSTEM.norm>
0

>  <SCORE.heavy>
14

>  <SCORE.norm>
-0.802824

>  <RMSD>
47.804

$$$$
ligand
 OpenBabel11021811393D
libRbt.so/2013.1/901 2013/11/27
 14 13  0  0  0  0  0  0  0  0999 V2000
   39.6868  -13.5560    3.1275 N   0  0  0  0  0  0  0  0  0  0  0  0
   38.9842  -12.7192    2.1672 C   0  0  0  0  0  0  0  0  0  0  0  0
   39.9931  -12.0809    1.1730 C   0  0  0  0  0  0  0  0  0  0  0  0
   41.0029  -11.0166    1.7324 C   0  0  0  0  0  0  0  0  0  0  0  0
   41.9006  -10.3720    0.7052 N   0  0  0  0  0  0  0  0  0  0  0  0
   43.0041  -11.2560    0.2297 C   0  0  0  0  0  0  0  0  0  0  0  0
   44.1183  -10.5190   -0.4910 C   0  0  0  0  0  0  0  0  0  0  0  0
   43.6656   -9.9268   -1.8133 C   0  0  0  0  0  0  0  0  0  0  0  0
   44.8240   -9.2116   -2.3955 C   0  0  0  0  0  0  0  0  0  0  0  0
   45.2477   -7.9884   -1.6726 N   0  0  0  0  0  0  0  0  0  0  0  0
   45.1344   -6.7490   -2.4816 C   0  0  0  0  0  0  0  0  0  0  0  0
   44.0362   -5.7401   -2.0312 C   0  0  0  0  0  0  0  0  0  0  0  0
   42.6745   -6.4544   -2.0902 C   0  0  0  0  0  0  0  0  0  0  0  0
   41.6066   -5.5665   -1.6375 N   0  0  0  0  0  0  0  0  0  0  0  0
  1  2  1  0  0  0  0
  2  3  1  0  0  0  0
  3  4  1  0  0  0  0
  4  5  1  0  0  0  0
  5  6  1  0  0  0  0
  6  7  1  0  0  0  0
  7  8  1  0  0  0  0
  8  9  1  0  0  0  0
  9 10  1  0  0  0  0
 10 11  1  0  0  0  0
 11 12  1  0  0  0  0
 12 13  1  0  0  0  0
 13 14  1  0  0  0  0
M  END
>  <CHROM.1>
-67.49532388,-176.45540113,-75.05051082,-163.94960260,-66.94516247,178.59020551
-68.47412456,-117.76630469,111.24165944,-59.36205612,178.25183843,42.56296407
-9.51124816,-0.39149326,2.15231373,-0.43257985,2.76799433

>  <Name>
ligand

>  <RI>
0

>  <Rbt.Current_Directory>
/home/itssahil/PROJECTS/Mol_Feturizer/New_Systems/rnas/1EVV

>  <Rbt.Executable>
rbdock ($Id: //depot/dev/client3/rdock/2013.1/src/exe/rbdock.cxx#4 $)

>  <Rbt.Library>
libRbt.so (2013.1, Build901 2013/11/27)

>  <Rbt.Parameter_File>
/export/apps/rDock/src/rDock_2013.1_src/data/scripts/dock_solv.prm

>  <Rbt.Receptor>
prm/blind_docking_80.prm

>  <SCORE>
-12.0467

>  <SCORE.INTER>
-3.68986

>  <SCORE.INTER.CONST>
1

>  <SCORE.INTER.POLAR>
0

>  <SCORE.INTER.ROT>
11

>  <SCORE.INTER.SOLV>
9.62852

>  <SCORE.INTER.VDW>
-16.6027

>  <SCORE.INTER.norm>
-0.263561

>  <SCORE.INTRA>
-8.35688

>  <SCORE.INTRA.DIHEDRAL>
-16.7763

>  <SCORE.INTRA.DIHEDRAL.0>
20.2131

>  <SCORE.INTRA.POLAR>
0

>  <SCORE.INTRA.POLAR.0>
0

>  <SCORE.INTRA.REPUL>
0

>  <SCORE.INTRA.REPUL.0>
0

>  <SCORE.INTRA.SOLV>
0.367566

>  <SCORE.INTRA.SOLV.lig_0>
-48.2851

>  <SCORE.INTRA.VDW>
-0.152529

>  <SCORE.INTRA.VDW.0>
-1.08658

>  <SCORE.INTRA.norm>
-0.59692

>  <SCORE.RESTR>
0

>  <SCORE.RESTR.CAVITY>
0

>  <SCORE.RESTR.norm>
0

>  <SCORE.SYSTEM>
0

>  <SCORE.SYSTEM.CONST>
0

>  <SCORE.SYSTEM.DIHEDRAL>
0

>  <SCORE.SYSTEM.SOLV>
0

>  <SCORE.SYSTEM.norm>
0

>  <SCORE.heavy>
14

>  <SCORE.norm>
-0.860481

>  <RMSD>
47.808

$$$$
ligand
 OpenBabel11021811393D
libRbt.so/2013.1/901 2013/11/27
 14 13  0  0  0  0  0  0  0  0999 V2000
   40.6070  -12.8568    2.3940 N   0  0  0  0  0  0  0  0  0  0  0  0
   40.7595  -11.5955    1.6855 C   0  0  0  0  0  0  0  0  0  0  0  0
   42.0605  -11.6113    0.8365 C   0  0  0  0  0  0  0  0  0  0  0  0
   42.4253  -10.3167    0.0263 C   0  0  0  0  0  0  0  0  0  0  0  0
   43.6683  -10.4125   -0.8236 N   0  0  0  0  0  0  0  0  0  0  0  0
   43.5858   -9.6454   -2.1004 C   0  0  0  0  0  0  0  0  0  0  0  0
   44.7751   -8.7365   -2.3522 C   0  0  0  0  0  0  0  0  0  0  0  0
   45.0024   -7.7474   -1.2235 C   0  0  0  0  0  0  0  0  0  0  0  0
   45.9166   -6.6999   -1.7328 C   0  0  0  0  0  0  0  0  0  0  0  0
   45.3226   -5.7535   -2.7074 N   0  0  0  0  0  0  0  0  0  0  0  0
   46.3120   -4.8349   -3.3245 C   0  0  0  0  0  0  0  0  0  0  0  0
   45.7224   -3.6012   -4.0708 C   0  0  0  0  0  0  0  0  0  0  0  0
   46.8723   -2.8889   -4.8045 C   0  0  0  0  0  0  0  0  0  0  0  0
   47.4087   -3.7357   -5.8670 N   0  0  0  0  0  0  0  0  0  0  0  0
  1  2  1  0  0  0  0
  2  3  1  0  0  0  0
  3  4  1  0  0  0  0
  4  5  1  0  0  0  0
  5  6  1  0  0  0  0
  6  7  1  0  0  0  0
  7  8  1  0  0  0  0
  8  9  1  0  0  0  0
  9 10  1  0  0  0  0
 10 11  1  0  0  0  0
 11 12  1  0  0  0  0
 12 13  1  0  0  0  0
 13 14  1  0  0  0  0
M  END
>  <CHROM.1>
-178.26837219,-177.54395576,145.30701410,129.95110515,-56.47890275,-164.68004038
72.37734812,-172.43703018,-165.24445269,-172.04638147,66.11965762,44.31705534
-7.88817639,-1.71886913,2.44946020,-0.92029758,-2.99554993

>  <Name>
ligand

>  <RI>
0

>  <Rbt.Current_Directory>
/home/itssahil/PROJECTS/Mol_Feturizer/New_Systems/rnas/1EVV

>  <Rbt.Executable>
rbdock ($Id: //depot/dev/client3/rdock/2013.1/src/exe/rbdock.cxx#4 $)

>  <Rbt.Library>
libRbt.so (2013.1, Build901 2013/11/27)

>  <Rbt.Parameter_File>
/export/apps/rDock/src/rDock_2013.1_src/data/scripts/dock_solv.prm

>  <Rbt.Receptor>
prm/blind_docking_80.prm

>  <SCORE>
-13.9003

>  <SCORE.INTER>
-5.9323

>  <SCORE.INTER.CONST>
1

>  <SCORE.INTER.POLAR>
0

>  <SCORE.INTER.ROT>
11

>  <SCORE.INTER.SOLV>
13.8385

>  <SCORE.INTER.VDW>
-19.501

>  <SCORE.INTER.norm>
-0.423736

>  <SCORE.INTRA>
-7.96805

>  <SCORE.INTRA.DIHEDRAL>
-16.1804

>  <SCORE.INTRA.DIHEDRAL.0>
20.2131

>  <SCORE.INTRA.POLAR>
0

>  <SCORE.INTRA.POLAR.0>
0

>  <SCORE.INTRA.REPUL>
0

>  <SCORE.INTRA.REPUL.0>
0

>  <SCORE.INTRA.SOLV>
0.248353

>  <SCORE.INTRA.SOLV.lig_0>
-48.2851

>  <SCORE.INTRA.VDW>
-0.00204652

>  <SCORE.INTRA.VDW.0>
-1.08658

>  <SCORE.INTRA.norm>
-0.569146

>  <SCORE.RESTR>
0

>  <SCORE.RESTR.CAVITY>
0

>  <SCORE.RESTR.norm>
0

>  <SCORE.SYSTEM>
0

>  <SCORE.SYSTEM.CONST>
0

>  <SCORE.SYSTEM.DIHEDRAL>
0

>  <SCORE.SYSTEM.SOLV>
0

>  <SCORE.SYSTEM.norm>
0

>  <SCORE.heavy>
14

>  <SCORE.norm>
-0.992882

>  <RMSD>
47.866

$$$$
ligand
 OpenBabel11021811393D
libRbt.so/2013.1/901 2013/11/27
 14 13  0  0  0  0  0  0  0  0999 V2000
   46.8458   -2.8616   -5.8615 N   0  0  0  0  0  0  0  0  0  0  0  0
   46.4493   -3.2563   -4.5187 C   0  0  0  0  0  0  0  0  0  0  0  0
   47.0331   -4.6548   -4.1765 C   0  0  0  0  0  0  0  0  0  0  0  0
   46.6345   -5.3014   -2.8023 C   0  0  0  0  0  0  0  0  0  0  0  0
   47.2376   -6.6563   -2.5242 N   0  0  0  0  0  0  0  0  0  0  0  0
   46.2983   -7.7924   -2.7531 C   0  0  0  0  0  0  0  0  0  0  0  0
   45.3147   -8.0180   -1.6193 C   0  0  0  0  0  0  0  0  0  0  0  0
   44.4594   -9.2548   -1.8267 C   0  0  0  0  0  0  0  0  0  0  0  0
   43.6347   -9.4296   -0.6095 C   0  0  0  0  0  0  0  0  0  0  0  0
   42.8185  -10.6665   -0.5640 N   0  0  0  0  0  0  0  0  0  0  0  0
   41.9918  -10.7898    0.6628 C   0  0  0  0  0  0  0  0  0  0  0  0
   41.5120  -12.2285    1.0186 C   0  0  0  0  0  0  0  0  0  0  0  0
   40.7792  -12.1699    2.3705 C   0  0  0  0  0  0  0  0  0  0  0  0
   39.5541  -11.3824    2.2590 N   0  0  0  0  0  0  0  0  0  0  0  0
  1  2  1  0  0  0  0
  2  3  1  0  0  0  0
  3  4  1  0  0  0  0
  4  5  1  0  0  0  0
  5  6  1  0  0  0  0
  6  7  1  0  0  0  0
  7  8  1  0  0  0  0
  8  9  1  0  0  0  0
  9 10  1  0  0  0  0
 10 11  1  0  0  0  0
 11 12  1  0  0  0  0
 12 13  1  0  0  0  0
 13 14  1  0  0  0  0
M  END
>  <CHROM.1>
-175.89523894,-179.72725986,-101.56151632,-79.51837825,-174.81583845,175.11589689
-174.39430301,-179.06507685,-159.50281774,175.29299912,65.60085828,44.32600967
-8.17599089,-1.49598860,0.97458530,0.34169148,-0.44092149

>  <Name>
ligand

>  <RI>
0

>  <Rbt.Current_Directory>
/home/itssahil/PROJECTS/Mol_Feturizer/New_Systems/rnas/1EVV

>  <Rbt.Executable>
rbdock ($Id: //depot/dev/client3/rdock/2013.1/src/exe/rbdock.cxx#4 $)

>  <Rbt.Library>
libRbt.so (2013.1, Build901 2013/11/27)

>  <Rbt.Parameter_File>
/export/apps/rDock/src/rDock_2013.1_src/data/scripts/dock_solv.prm

>  <Rbt.Receptor>
prm/blind_docking_100.prm

>  <SCORE>
-13.6133

>  <SCORE.INTER>
-4.44599

>  <SCORE.INTER.CONST>
1

>  <SCORE.INTER.POLAR>
0

>  <SCORE.INTER.ROT>
11

>  <SCORE.INTER.SOLV>
13.5943

>  <SCORE.INTER.VDW>
-18.4287

>  <SCORE.INTER.norm>
-0.31757

>  <SCORE.INTRA>
-9.16735

>  <SCORE.INTRA.DIHEDRAL>
-18.0867

>  <SCORE.INTRA.DIHEDRAL.0>
20.2131

>  <SCORE.INTRA.POLAR>
0

>  <SCORE.INTRA.POLAR.0>
0

>  <SCORE.INTRA.REPUL>
0

>  <SCORE.INTRA.REPUL.0>
0

>  <SCORE.INTRA.SOLV>
-0.681971

>  <SCORE.INTRA.SOLV.lig_0>
-48.2851

>  <SCORE.INTRA.VDW>
0.217004

>  <SCORE.INTRA.VDW.0>
-1.08658

>  <SCORE.INTRA.norm>
-0.654811

>  <SCORE.RESTR>
0

>  <SCORE.RESTR.CAVITY>
0

>  <SCORE.RESTR.norm>
0

>  <SCORE.SYSTEM>
0

>  <SCORE.SYSTEM.CONST>
0

>  <SCORE.SYSTEM.DIHEDRAL>
0

>  <SCORE.SYSTEM.SOLV>
0

>  <SCORE.SYSTEM.norm>
0

>  <SCORE.heavy>
14

>  <SCORE.norm>
-0.972381

>  <RMSD>
47.868

$$$$
ligand
 OpenBabel11021811393D
libRbt.so/2013.1/901 2013/11/27
 14 13  0  0  0  0  0  0  0  0999 V2000
   38.4776  -12.1588    2.6216 N   0  0  0  0  0  0  0  0  0  0  0  0
   39.4876  -13.0057    2.0060 C   0  0  0  0  0  0  0  0  0  0  0  0
   40.7931  -12.1975    1.7691 C   0  0  0  0  0  0  0  0  0  0  0  0
   40.7294  -10.9667    0.7963 C   0  0  0  0  0  0  0  0  0  0  0  0
   42.0336  -10.2372    0.5875 N   0  0  0  0  0  0  0  0  0  0  0  0
   43.0897  -11.0654   -0.0639 C   0  0  0  0  0  0  0  0  0  0  0  0
   44.2109  -10.2554   -0.6891 C   0  0  0  0  0  0  0  0  0  0  0  0
   43.7331   -9.3904   -1.8413 C   0  0  0  0  0  0  0  0  0  0  0  0
   44.9260   -8.7363   -2.4255 C   0  0  0  0  0  0  0  0  0  0  0  0
   45.6333   -7.7859   -1.5341 N   0  0  0  0  0  0  0  0  0  0  0  0
   45.5995   -6.3815   -2.0139 C   0  0  0  0  0  0  0  0  0  0  0  0
   46.6504   -6.0082   -3.1015 C   0  0  0  0  0  0  0  0  0  0  0  0
   46.4279   -4.5387   -3.5002 C   0  0  0  0  0  0  0  0  0  0  0  0
   47.3070   -4.1656   -4.6054 N   0  0  0  0  0  0  0  0  0  0  0  0
  1  2  1  0  0  0  0
  2  3  1  0  0  0  0
  3  4  1  0  0  0  0
  4  5  1  0  0  0  0
  5  6  1  0  0  0  0
  6  7  1  0  0  0  0
  7  8  1  0  0  0  0
  8  9  1  0  0  0  0
  9 10  1  0  0  0  0
 10 11  1  0  0  0  0
 11 12  1  0  0  0  0
 12 13  1  0  0  0  0
 13 14  1  0  0  0  0
M  END
>  <CHROM.1>
-62.42260090,-178.95039538,63.62514492,160.78832891,-64.43711452,-175.79772687
-64.62321024,-115.38484574,-81.64822308,178.14650922,-174.88232723,43.50713649
-9.06398810,-0.85679437,2.34490124,-0.50239980,2.92217713

>  <Name>
ligand

>  <RI>
0

>  <Rbt.Current_Directory>
/home/itssahil/PROJECTS/Mol_Feturizer/New_Systems/rnas/1EVV

>  <Rbt.Executable>
rbdock ($Id: //depot/dev/client3/rdock/2013.1/src/exe/rbdock.cxx#4 $)

>  <Rbt.Library>
libRbt.so (2013.1, Build901 2013/11/27)

>  <Rbt.Parameter_File>
/export/apps/rDock/src/rDock_2013.1_src/data/scripts/dock_solv.prm

>  <Rbt.Receptor>
prm/blind_docking_100.prm

>  <SCORE>
-14.1127

>  <SCORE.INTER>
-5.66885

>  <SCORE.INTER.CONST>
1

>  <SCORE.INTER.POLAR>
0

>  <SCORE.INTER.ROT>
11

>  <SCORE.INTER.SOLV>
12.664

>  <SCORE.INTER.VDW>
-18.9339

>  <SCORE.INTER.norm>
-0.404918

>  <SCORE.INTRA>
-8.4439

>  <SCORE.INTRA.DIHEDRAL>
-18.0289

>  <SCORE.INTRA.DIHEDRAL.0>
20.2131

>  <SCORE.INTRA.POLAR>
0

>  <SCORE.INTRA.POLAR.0>
0

>  <SCORE.INTRA.REPUL>
0

>  <SCORE.INTRA.REPUL.0>
0

>  <SCORE.INTRA.SOLV>
0.0635817

>  <SCORE.INTRA.SOLV.lig_0>
-48.2851

>  <SCORE.INTRA.VDW>
0.538738

>  <SCORE.INTRA.VDW.0>
-1.08658

>  <SCORE.INTRA.norm>
-0.603136

>  <SCORE.RESTR>
0

>  <SCORE.RESTR.CAVITY>
0

>  <SCORE.RESTR.norm>
0

>  <SCORE.SYSTEM>
0

>  <SCORE.SYSTEM.CONST>
0

>  <SCORE.SYSTEM.DIHEDRAL>
0

>  <SCORE.SYSTEM.SOLV>
0

>  <SCORE.SYSTEM.norm>
0

>  <SCORE.heavy>
14

>  <SCORE.norm>
-1.00805

>  <RMSD>
47.879

$$$$
ligand
 OpenBabel11021811393D
libRbt.so/2013.1/901 2013/11/27
 14 13  0  0  0  0  0  0  0  0999 V2000
   47.6229   -3.1116   -6.5526 N   0  0  0  0  0  0  0  0  0  0  0  0
   47.1579   -3.2235   -5.1788 C   0  0  0  0  0  0  0  0  0  0  0  0
   47.5944   -4.5865   -4.5743 C   0  0  0  0  0  0  0  0  0  0  0  0
   47.0877   -4.9472   -3.1326 C   0  0  0  0  0  0  0  0  0  0  0  0
   47.6031   -6.2495   -2.5712 N   0  0  0  0  0  0  0  0  0  0  0  0
   46.7181   -7.4178   -2.8495 C   0  0  0  0  0  0  0  0  0  0  0  0
   45.5297   -7.5289   -1.9117 C   0  0  0  0  0  0  0  0  0  0  0  0
   44.7550   -8.8202   -2.1026 C   0  0  0  0  0  0  0  0  0  0  0  0
   43.6542   -8.8243   -1.1124 C   0  0  0  0  0  0  0  0  0  0  0  0
   42.8465  -10.0666   -1.0614 N   0  0  0  0  0  0  0  0  0  0  0  0
   42.9634  -10.8007    0.2236 C   0  0  0  0  0  0  0  0  0  0  0  0
   41.6652  -11.4967    0.7305 C   0  0  0  0  0  0  0  0  0  0  0  0
   40.5775  -10.4210    0.8979 C   0  0  0  0  0  0  0  0  0  0  0  0
   40.9466   -9.4735    1.9464 N   0  0  0  0  0  0  0  0  0  0  0  0
  1  2  1  0  0  0  0
  2  3  1  0  0  0  0
  3  4  1  0  0  0  0
  4  5  1  0  0  0  0
  5  6  1  0  0  0  0
  6  7  1  0  0  0  0
  7  8  1  0  0  0  0
  8  9  1  0  0  0  0
  9 10  1  0  0  0  0
 10 11  1  0  0  0  0
 11 12  1  0  0  0  0
 12 13  1  0  0  0  0
 13 14  1  0  0  0  0
M  END
>  <CHROM.1>
-175.16436830,-176.91403394,-91.83930604,-80.45638377,-172.47365679,178.43916967
-174.94768626,114.96783641,143.72408304,-58.72780421,-64.90925574,44.76587612
-7.64073901,-1.94628313,0.91157828,0.36770741,-0.44410504

>  <Name>
ligand

>  <RI>
0

>  <Rbt.Current_Directory>
/home/itssahil/PROJECTS/Mol_Feturizer/New_Systems/rnas/1EVV

>  <Rbt.Executable>
rbdock ($Id: //depot/dev/client3/rdock/2013.1/src/exe/rbdock.cxx#4 $)

>  <Rbt.Library>
libRbt.so (2013.1, Build901 2013/11/27)

>  <Rbt.Parameter_File>
/export/apps/rDock/src/rDock_2013.1_src/data/scripts/dock_solv.prm

>  <Rbt.Receptor>
prm/blind_docking_60.prm

>  <SCORE>
-12.6574

>  <SCORE.INTER>
-4.91385

>  <SCORE.INTER.CONST>
1

>  <SCORE.INTER.POLAR>
0

>  <SCORE.INTER.ROT>
11

>  <SCORE.INTER.SOLV>
10.5568

>  <SCORE.INTER.VDW>
-17.7282

>  <SCORE.INTER.norm>
-0.350989

>  <SCORE.INTRA>
-7.74354

>  <SCORE.INTRA.DIHEDRAL>
-16.7315

>  <SCORE.INTRA.DIHEDRAL.0>
20.2131

>  <SCORE.INTRA.POLAR>
0

>  <SCORE.INTRA.POLAR.0>
0

>  <SCORE.INTRA.REPUL>
0

>  <SCORE.INTRA.REPUL.0>
0

>  <SCORE.INTRA.SOLV>
0.865791

>  <SCORE.INTRA.SOLV.lig_0>
-48.2851

>  <SCORE.INTRA.VDW>
0.189315

>  <SCORE.INTRA.VDW.0>
-1.08658

>  <SCORE.INTRA.norm>
-0.55311

>  <SCORE.RESTR>
0

>  <SCORE.RESTR.CAVITY>
0

>  <SCORE.RESTR.norm>
0

>  <SCORE.SYSTEM>
0

>  <SCORE.SYSTEM.CONST>
0

>  <SCORE.SYSTEM.DIHEDRAL>
0

>  <SCORE.SYSTEM.SOLV>
0

>  <SCORE.SYSTEM.norm>
0

>  <SCORE.heavy>
14

>  <SCORE.norm>
-0.904099

>  <RMSD>
47.890

$$$$
ligand
 OpenBabel11021811393D
libRbt.so/2013.1/901 2013/11/27
 14 13  0  0  0  0  0  0  0  0999 V2000
   39.8749  -12.2028    2.4309 N   0  0  0  0  0  0  0  0  0  0  0  0
   41.1032  -12.0934    1.6593 C   0  0  0  0  0  0  0  0  0  0  0  0
   41.0643  -10.8223    0.7668 C   0  0  0  0  0  0  0  0  0  0  0  0
   42.3892  -10.3922    0.0421 C   0  0  0  0  0  0  0  0  0  0  0  0
   42.2847   -9.1597   -0.8220 N   0  0  0  0  0  0  0  0  0  0  0  0
   43.2272   -9.1529   -1.9783 C   0  0  0  0  0  0  0  0  0  0  0  0
   44.2864   -8.0681   -1.9049 C   0  0  0  0  0  0  0  0  0  0  0  0
   43.7398   -6.6950   -2.2513 C   0  0  0  0  0  0  0  0  0  0  0  0
   44.8724   -5.7429   -2.1959 C   0  0  0  0  0  0  0  0  0  0  0  0
   45.9711   -6.0017   -3.1572 N   0  0  0  0  0  0  0  0  0  0  0  0
   47.2434   -5.3232   -2.8045 C   0  0  0  0  0  0  0  0  0  0  0  0
   48.3136   -5.2534   -3.9343 C   0  0  0  0  0  0  0  0  0  0  0  0
   47.7432   -4.4049   -5.0844 C   0  0  0  0  0  0  0  0  0  0  0  0
   48.7057   -4.3061   -6.1786 N   0  0  0  0  0  0  0  0  0  0  0  0
  1  2  1  0  0  0  0
  2  3  1  0  0  0  0
  3  4  1  0  0  0  0
  4  5  1  0  0  0  0
  5  6  1  0  0  0  0
  6  7  1  0  0  0  0
  7  8  1  0  0  0  0
  8  9  1  0  0  0  0
  9 10  1  0  0  0  0
 10 11  1  0  0  0  0
 11 12  1  0  0  0  0
 12 13  1  0  0  0  0
 13 14  1  0  0  0  0
M  END
>  <CHROM.1>
169.82858510,179.34587910,-150.43751049,-114.27025572,-76.10070023,-177.80135259
61.98106301,-161.86924561,-165.09954225,63.62162114,-179.88572740,44.34426594
-7.82985751,-1.81510925,-2.27389393,0.32101292,-0.45548244

>  <Name>
ligand

>  <RI>
0

>  <Rbt.Current_Directory>
/home/itssahil/PROJECTS/Mol_Feturizer/New_Systems/rnas/1EVV

>  <Rbt.Executable>
rbdock ($Id: //depot/dev/client3/rdock/2013.1/src/exe/rbdock.cxx#4 $)

>  <Rbt.Library>
libRbt.so (2013.1, Build901 2013/11/27)

>  <Rbt.Parameter_File>
/export/apps/rDock/src/rDock_2013.1_src/data/scripts/dock_solv.prm

>  <Rbt.Receptor>
prm/blind_docking_60.prm

>  <SCORE>
-14.0822

>  <SCORE.INTER>
-5.53686

>  <SCORE.INTER.CONST>
1

>  <SCORE.INTER.POLAR>
0

>  <SCORE.INTER.ROT>
11

>  <SCORE.INTER.SOLV>
10.9657

>  <SCORE.INTER.VDW>
-18.2798

>  <SCORE.INTER.norm>
-0.39549

>  <SCORE.INTRA>
-8.5453

>  <SCORE.INTRA.DIHEDRAL>
-16.637

>  <SCORE.INTRA.DIHEDRAL.0>
20.2131

>  <SCORE.INTRA.POLAR>
0

>  <SCORE.INTRA.POLAR.0>
0

>  <SCORE.INTRA.REPUL>
0

>  <SCORE.INTRA.REPUL.0>
0

>  <SCORE.INTRA.SOLV>
-0.338461

>  <SCORE.INTRA.SOLV.lig_0>
-48.2851

>  <SCORE.INTRA.VDW>
-0.0575897

>  <SCORE.INTRA.VDW.0>
-1.08658

>  <SCORE.INTRA.norm>
-0.610379

>  <SCORE.RESTR>
0

>  <SCORE.RESTR.CAVITY>
0

>  <SCORE.RESTR.norm>
0

>  <SCORE.SYSTEM>
0

>  <SCORE.SYSTEM.CONST>
0

>  <SCORE.SYSTEM.DIHEDRAL>
0

>  <SCORE.SYSTEM.SOLV>
0

>  <SCORE.SYSTEM.norm>
0

>  <SCORE.heavy>
14

>  <SCORE.norm>
-1.00587

>  <RMSD>
47.915

$$$$
ligand
 OpenBabel11021811393D
libRbt.so/2013.1/901 2013/11/27
 14 13  0  0  0  0  0  0  0  0999 V2000
   46.4205   -3.4339   -4.2737 N   0  0  0  0  0  0  0  0  0  0  0  0
   47.1181   -4.4987   -3.5695 C   0  0  0  0  0  0  0  0  0  0  0  0
   46.0956   -5.4667   -2.9128 C   0  0  0  0  0  0  0  0  0  0  0  0
   46.6566   -6.6789   -2.0873 C   0  0  0  0  0  0  0  0  0  0  0  0
   45.6160   -7.6001   -1.4998 N   0  0  0  0  0  0  0  0  0  0  0  0
   45.0736   -8.5939   -2.4712 C   0  0  0  0  0  0  0  0  0  0  0  0
   44.7143   -9.9314   -1.8499 C   0  0  0  0  0  0  0  0  0  0  0  0
   43.5869   -9.8210   -0.8395 C   0  0  0  0  0  0  0  0  0  0  0  0
   43.4112  -11.1577   -0.2274 C   0  0  0  0  0  0  0  0  0  0  0  0
   42.3003  -11.2718    0.7479 N   0  0  0  0  0  0  0  0  0  0  0  0
   42.0425  -12.6630    1.1970 C   0  0  0  0  0  0  0  0  0  0  0  0
   40.9665  -12.8303    2.3110 C   0  0  0  0  0  0  0  0  0  0  0  0
   39.6184  -12.3396    1.7542 C   0  0  0  0  0  0  0  0  0  0  0  0
   38.5644  -12.4828    2.7552 N   0  0  0  0  0  0  0  0  0  0  0  0
  1  2  1  0  0  0  0
  2  3  1  0  0  0  0
  3  4  1  0  0  0  0
  4  5  1  0  0  0  0
  5  6  1  0  0  0  0
  6  7  1  0  0  0  0
  7  8  1  0  0  0  0
  8  9  1  0  0  0  0
  9 10  1  0  0  0  0
 10 11  1  0  0  0  0
 11 12  1  0  0  0  0
 12 13  1  0  0  0  0
 13 14  1  0  0  0  0
M  END
>  <CHROM.1>
-179.26331924,-178.70418225,80.84295338,146.43212048,64.13229233,-175.29107596
-177.10004091,172.15298261,175.07122764,62.65167756,179.54841347,43.72769810
-9.19804383,-0.78335554,0.89314373,0.45359639,-0.27592645

>  <Name>
ligand

>  <RI>
0

>  <Rbt.Current_Directory>
/home/itssahil/PROJECTS/Mol_Feturizer/New_Systems/rnas/1EVV

>  <Rbt.Executable>
rbdock ($Id: //depot/dev/client3/rdock/2013.1/src/exe/rbdock.cxx#4 $)

>  <Rbt.Library>
libRbt.so (2013.1, Build901 2013/11/27)

>  <Rbt.Parameter_File>
/export/apps/rDock/src/rDock_2013.1_src/data/scripts/dock_solv.prm

>  <Rbt.Receptor>
prm/blind_docking_80.prm

>  <SCORE>
-14.7498

>  <SCORE.INTER>
-4.96612

>  <SCORE.INTER.CONST>
1

>  <SCORE.INTER.POLAR>
0

>  <SCORE.INTER.ROT>
11

>  <SCORE.INTER.SOLV>
15.3191

>  <SCORE.INTER.VDW>
-19.3504

>  <SCORE.INTER.norm>
-0.354723

>  <SCORE.INTRA>
-9.78372

>  <SCORE.INTRA.DIHEDRAL>
-18.8843

>  <SCORE.INTRA.DIHEDRAL.0>
20.2131

>  <SCORE.INTRA.POLAR>
0

>  <SCORE.INTRA.POLAR.0>
0

>  <SCORE.INTRA.REPUL>
0

>  <SCORE.INTRA.REPUL.0>
0

>  <SCORE.INTRA.SOLV>
-0.679307

>  <SCORE.INTRA.SOLV.lig_0>
-48.2851

>  <SCORE.INTRA.VDW>
-0.00192152

>  <SCORE.INTRA.VDW.0>
-1.08658

>  <SCORE.INTRA.norm>
-0.698837

>  <SCORE.RESTR>
0

>  <SCORE.RESTR.CAVITY>
0

>  <SCORE.RESTR.norm>
0

>  <SCORE.SYSTEM>
0

>  <SCORE.SYSTEM.CONST>
0

>  <SCORE.SYSTEM.DIHEDRAL>
0

>  <SCORE.SYSTEM.SOLV>
0

>  <SCORE.SYSTEM.norm>
0

>  <SCORE.heavy>
14

>  <SCORE.norm>
-1.05356

>  <RMSD>
47.932

$$$$
ligand
 OpenBabel11021811393D
libRbt.so/2013.1/901 2013/11/27
 14 13  0  0  0  0  0  0  0  0999 V2000
   47.3689   -6.2687   -3.1203 N   0  0  0  0  0  0  0  0  0  0  0  0
   47.1804   -7.7109   -3.0959 C   0  0  0  0  0  0  0  0  0  0  0  0
   45.9083   -8.0717   -2.2803 C   0  0  0  0  0  0  0  0  0  0  0  0
   45.5413   -9.5904   -2.1245 C   0  0  0  0  0  0  0  0  0  0  0  0
   44.3554   -9.8832   -1.2386 N   0  0  0  0  0  0  0  0  0  0  0  0
   44.4406  -11.1941   -0.5316 C   0  0  0  0  0  0  0  0  0  0  0  0
   43.1706  -11.5823    0.2035 C   0  0  0  0  0  0  0  0  0  0  0  0
   43.2995  -12.9093    0.9293 C   0  0  0  0  0  0  0  0  0  0  0  0
   41.9441  -13.2977    1.3815 C   0  0  0  0  0  0  0  0  0  0  0  0
   41.3262  -12.4017    2.3883 N   0  0  0  0  0  0  0  0  0  0  0  0
   40.0737  -11.7558    1.9218 C   0  0  0  0  0  0  0  0  0  0  0  0
   40.2455  -10.4059    1.1635 C   0  0  0  0  0  0  0  0  0  0  0  0
   40.9640   -9.4176    2.0989 C   0  0  0  0  0  0  0  0  0  0  0  0
   41.0482   -8.0950    1.4848 N   0  0  0  0  0  0  0  0  0  0  0  0
  1  2  1  0  0  0  0
  2  3  1  0  0  0  0
  3  4  1  0  0  0  0
  4  5  1  0  0  0  0
  5  6  1  0  0  0  0
  6  7  1  0  0  0  0
  7  8  1  0  0  0  0
  8  9  1  0  0  0  0
  9 10  1  0  0  0  0
 10 11  1  0  0  0  0
 11 12  1  0  0  0  0
 12 13  1  0  0  0  0
 13 14  1  0  0  0  0
M  END
>  <CHROM.1>
-179.35780464,175.67633880,-149.26660479,-171.83654607,-179.08069443,-169.45193321
-64.78799267,118.10979362,-88.03897520,-58.86389313,-174.97736360,43.34755478
-10.18500392,-0.05851978,0.59007465,0.60059238,-0.16223954

>  <Name>
ligand

>  <RI>
0

>  <Rbt.Current_Directory>
/home/itssahil/PROJECTS/Mol_Feturizer/New_Systems/rnas/1EVV

>  <Rbt.Executable>
rbdock ($Id: //depot/dev/client3/rdock/2013.1/src/exe/rbdock.cxx#4 $)

>  <Rbt.Library>
libRbt.so (2013.1, Build901 2013/11/27)

>  <Rbt.Parameter_File>
/export/apps/rDock/src/rDock_2013.1_src/data/scripts/dock_solv.prm

>  <Rbt.Receptor>
prm/blind_docking_60.prm

>  <SCORE>
-12.27

>  <SCORE.INTER>
-3.28589

>  <SCORE.INTER.CONST>
1

>  <SCORE.INTER.POLAR>
0

>  <SCORE.INTER.ROT>
11

>  <SCORE.INTER.SOLV>
10.134

>  <SCORE.INTER.VDW>
-16.5019

>  <SCORE.INTER.norm>
-0.234707

>  <SCORE.INTRA>
-8.98408

>  <SCORE.INTRA.DIHEDRAL>
-17.0844

>  <SCORE.INTRA.DIHEDRAL.0>
20.2131

>  <SCORE.INTRA.POLAR>
0

>  <SCORE.INTRA.POLAR.0>
0

>  <SCORE.INTRA.REPUL>
0

>  <SCORE.INTRA.REPUL.0>
0

>  <SCORE.INTRA.SOLV>
-0.373192

>  <SCORE.INTRA.SOLV.lig_0>
-48.2851

>  <SCORE.INTRA.VDW>
-0.255303

>  <SCORE.INTRA.VDW.0>
-1.08658

>  <SCORE.INTRA.norm>
-0.64172

>  <SCORE.RESTR>
0

>  <SCORE.RESTR.CAVITY>
0

>  <SCORE.RESTR.norm>
0

>  <SCORE.SYSTEM>
0

>  <SCORE.SYSTEM.CONST>
0

>  <SCORE.SYSTEM.DIHEDRAL>
0

>  <SCORE.SYSTEM.SOLV>
0

>  <SCORE.SYSTEM.norm>
0

>  <SCORE.heavy>
14

>  <SCORE.norm>
-0.876427

>  <RMSD>
47.969

$$$$
ligand
 OpenBabel11021811393D
libRbt.so/2013.1/901 2013/11/27
 14 13  0  0  0  0  0  0  0  0999 V2000
   47.3918   -4.8360   -4.9415 N   0  0  0  0  0  0  0  0  0  0  0  0
   46.8230   -4.5670   -3.6298 C   0  0  0  0  0  0  0  0  0  0  0  0
   47.4271   -5.5343   -2.5748 C   0  0  0  0  0  0  0  0  0  0  0  0
   47.0354   -7.0524   -2.6599 C   0  0  0  0  0  0  0  0  0  0  0  0
   45.5878   -7.3656   -2.3718 N   0  0  0  0  0  0  0  0  0  0  0  0
   45.3058   -8.8222   -2.2161 C   0  0  0  0  0  0  0  0  0  0  0  0
   44.2081   -9.1348   -1.2155 C   0  0  0  0  0  0  0  0  0  0  0  0
   42.8427   -8.6624   -1.6812 C   0  0  0  0  0  0  0  0  0  0  0  0
   41.8937   -8.8917   -0.5681 C   0  0  0  0  0  0  0  0  0  0  0  0
   41.7251  -10.3055   -0.1544 N   0  0  0  0  0  0  0  0  0  0  0  0
   40.8055  -10.4835    0.9973 C   0  0  0  0  0  0  0  0  0  0  0  0
   40.3973  -11.9514    1.3219 C   0  0  0  0  0  0  0  0  0  0  0  0
   41.6795  -12.7573    1.5950 C   0  0  0  0  0  0  0  0  0  0  0  0
   41.3544  -14.1281    1.9805 N   0  0  0  0  0  0  0  0  0  0  0  0
  1  2  1  0  0  0  0
  2  3  1  0  0  0  0
  3  4  1  0  0  0  0
  4  5  1  0  0  0  0
  5  6  1  0  0  0  0
  6  7  1  0  0  0  0
  7  8  1  0  0  0  0
  8  9  1  0  0  0  0
  9 10  1  0  0  0  0
 10 11  1  0  0  0  0
 11 12  1  0  0  0  0
 12 13  1  0  0  0  0
 13 14  1  0  0  0  0
M  END
>  <CHROM.1>
-69.41158875,-66.72281899,-169.41978210,146.66537533,67.55822505,-174.05657240
-61.73326407,177.78491928,169.89306457,58.06246896,176.78951731,43.89117849
-8.89218451,-1.15121904,0.92559759,0.21221343,-0.47205271

>  <Name>
ligand

>  <RI>
0

>  <Rbt.Current_Directory>
/home/itssahil/PROJECTS/Mol_Feturizer/New_Systems/rnas/1EVV

>  <Rbt.Executable>
rbdock ($Id: //depot/dev/client3/rdock/2013.1/src/exe/rbdock.cxx#4 $)

>  <Rbt.Library>
libRbt.so (2013.1, Build901 2013/11/27)

>  <Rbt.Parameter_File>
/export/apps/rDock/src/rDock_2013.1_src/data/scripts/dock_solv.prm

>  <Rbt.Receptor>
prm/blind_docking_100.prm

>  <SCORE>
-13.8056

>  <SCORE.INTER>
-5.03423

>  <SCORE.INTER.CONST>
1

>  <SCORE.INTER.POLAR>
0

>  <SCORE.INTER.ROT>
11

>  <SCORE.INTER.SOLV>
13.3461

>  <SCORE.INTER.VDW>
-18.7382

>  <SCORE.INTER.norm>
-0.359588

>  <SCORE.INTRA>
-8.77137

>  <SCORE.INTRA.DIHEDRAL>
-18.4107

>  <SCORE.INTRA.DIHEDRAL.0>
20.2131

>  <SCORE.INTRA.POLAR>
0

>  <SCORE.INTRA.POLAR.0>
0

>  <SCORE.INTRA.REPUL>
0

>  <SCORE.INTRA.REPUL.0>
0

>  <SCORE.INTRA.SOLV>
0.992212

>  <SCORE.INTRA.SOLV.lig_0>
-48.2851

>  <SCORE.INTRA.VDW>
-0.0621305

>  <SCORE.INTRA.VDW.0>
-1.08658

>  <SCORE.INTRA.norm>
-0.626526

>  <SCORE.RESTR>
0

>  <SCORE.RESTR.CAVITY>
0

>  <SCORE.RESTR.norm>
0

>  <SCORE.SYSTEM>
0

>  <SCORE.SYSTEM.CONST>
0

>  <SCORE.SYSTEM.DIHEDRAL>
0

>  <SCORE.SYSTEM.SOLV>
0

>  <SCORE.SYSTEM.norm>
0

>  <SCORE.heavy>
14

>  <SCORE.norm>
-0.986114

>  <RMSD>
48.025

$$$$
ligand
 OpenBabel11021811393D
libRbt.so/2013.1/901 2013/11/27
 14 13  0  0  0  0  0  0  0  0999 V2000
   41.8372  -14.7190    1.9046 N   0  0  0  0  0  0  0  0  0  0  0  0
   42.1493  -13.3301    1.6052 C   0  0  0  0  0  0  0  0  0  0  0  0
   40.8455  -12.4869    1.5520 C   0  0  0  0  0  0  0  0  0  0  0  0
   40.9778  -10.9444    1.2905 C   0  0  0  0  0  0  0  0  0  0  0  0
   41.6668  -10.5616    0.0039 N   0  0  0  0  0  0  0  0  0  0  0  0
   43.0844  -10.1334    0.1838 C   0  0  0  0  0  0  0  0  0  0  0  0
   44.0303  -10.6703   -0.8750 C   0  0  0  0  0  0  0  0  0  0  0  0
   43.7971  -10.0430   -2.2375 C   0  0  0  0  0  0  0  0  0  0  0  0
   44.6629   -8.8451   -2.3251 C   0  0  0  0  0  0  0  0  0  0  0  0
   44.3989   -7.7918   -1.3156 N   0  0  0  0  0  0  0  0  0  0  0  0
   43.3793   -6.8005   -1.7417 C   0  0  0  0  0  0  0  0  0  0  0  0
   41.9110   -7.3173   -1.8022 C   0  0  0  0  0  0  0  0  0  0  0  0
   40.9781   -6.0999   -1.9272 C   0  0  0  0  0  0  0  0  0  0  0  0
   41.2431   -5.3723   -3.1656 N   0  0  0  0  0  0  0  0  0  0  0  0
  1  2  1  0  0  0  0
  2  3  1  0  0  0  0
  3  4  1  0  0  0  0
  4  5  1  0  0  0  0
  5  6  1  0  0  0  0
  6  7  1  0  0  0  0
  7  8  1  0  0  0  0
  8  9  1  0  0  0  0
  9 10  1  0  0  0  0
 10 11  1  0  0  0  0
 11 12  1  0  0  0  0
 12 13  1  0  0  0  0
 13 14  1  0  0  0  0
M  END
>  <CHROM.1>
177.87705312,58.45284674,-101.76689501,138.44421018,69.76171060,90.33640235
-60.96299480,-88.82169922,70.89616435,166.68682931,62.27637161,42.49735334
-9.65114062,-0.63213709,-1.67438220,0.36390502,-0.49242275

>  <Name>
ligand

>  <RI>
0

>  <Rbt.Current_Directory>
/home/itssahil/PROJECTS/Mol_Feturizer/New_Systems/rnas/1EVV

>  <Rbt.Executable>
rbdock ($Id: //depot/dev/client3/rdock/2013.1/src/exe/rbdock.cxx#4 $)

>  <Rbt.Library>
libRbt.so (2013.1, Build901 2013/11/27)

>  <Rbt.Parameter_File>
/export/apps/rDock/src/rDock_2013.1_src/data/scripts/dock_solv.prm

>  <Rbt.Receptor>
prm/blind_docking_80.prm

>  <SCORE>
-8.64932

>  <SCORE.INTER>
-2.90749

>  <SCORE.INTER.CONST>
1

>  <SCORE.INTER.POLAR>
0

>  <SCORE.INTER.ROT>
11

>  <SCORE.INTER.SOLV>
16.8849

>  <SCORE.INTER.VDW>
-18.5

>  <SCORE.INTER.norm>
-0.207678

>  <SCORE.INTRA>
-5.74183

>  <SCORE.INTRA.DIHEDRAL>
-13.5074

>  <SCORE.INTRA.DIHEDRAL.0>
20.2131

>  <SCORE.INTRA.POLAR>
0

>  <SCORE.INTRA.POLAR.0>
0

>  <SCORE.INTRA.REPUL>
0

>  <SCORE.INTRA.REPUL.0>
0

>  <SCORE.INTRA.SOLV>
1.60528

>  <SCORE.INTRA.SOLV.lig_0>
-48.2851

>  <SCORE.INTRA.VDW>
0.209252

>  <SCORE.INTRA.VDW.0>
-1.08658

>  <SCORE.INTRA.norm>
-0.410131

>  <SCORE.RESTR>
0

>  <SCORE.RESTR.CAVITY>
0

>  <SCORE.RESTR.norm>
0

>  <SCORE.SYSTEM>
0

>  <SCORE.SYSTEM.CONST>
0

>  <SCORE.SYSTEM.DIHEDRAL>
0

>  <SCORE.SYSTEM.SOLV>
0

>  <SCORE.SYSTEM.norm>
0

>  <SCORE.heavy>
14

>  <SCORE.norm>
-0.617808

>  <RMSD>
48.100

$$$$
