@<TRIPOS>MOLECULE
1EVV_rdock.pdb
 1328 1475 0 0 0
SMALL
GASTEIGER

@<TRIPOS>ATOM
      1  P         22.4000    4.8650   49.7780 P.3     1  G1          0.1280
      2  C5'       23.9060    4.5290   51.9200 C.3     1  G1          0.1795
      3  O5'       22.6210    4.8530   51.3880 O.3     1  G1         -0.3259
      4  C4'       23.8390    4.3930   53.4150 C.3     1  G1          0.1772
      5  O4'       22.8980    3.3520   53.7940 O.3     1  G1         -0.3307
      6  C3'       25.1860    4.0170   54.0090 C.3     1  G1          0.1860
      7  O3'       25.7610    5.1990   54.5440 O.3     1  G1         -0.3112
      8  C2'       24.8400    2.9860   55.0800 C.3     1  G1          0.2309
      9  O2'       24.5880    3.5630   56.3450 O.3     1  G1         -0.2156
     10  C1'       23.5730    2.3430   54.5110 C.3     1  G1          0.2408
     11  N1        25.9400   -2.0880   53.6960 N.ar    1  G1         -0.1709
     12  C2        25.9940   -1.2690   54.7960 C.ar    1  G1          0.2606
     13  N2        26.7680   -1.6830   55.8050 N.pl3   1  G1         -0.0859
     14  N3        25.3350   -0.1270   54.8980 N.ar    1  G1         -0.1918
     15  C4        24.6010    0.1320   53.7930 C.ar    1  G1          0.1723
     16  C5        24.4790   -0.6220   52.6440 C.ar    1  G1          0.1748
     17  C6        25.1930   -1.8420   52.5480 C.ar    1  G1          0.3023
     18  O6        25.2140   -2.6510   51.6120 O.2     1  G1         -0.2633
     19  N7        23.6240   -0.0100   51.7400 N.ar    1  G1         -0.2173
     20  C8        23.2510    1.0860   52.3400 C.ar    1  G1          0.1817
     21  N9        23.8030    1.2340   53.5890 N.ar    1  G1         -0.2693
     22  OP1       23.7960    5.1000   49.2230 O.3     1  G1         -0.1955
     23  OP2       21.8400    3.4910   49.4390 O.co2   1  G1         -0.7863
     24  P         27.3100    5.2190   54.9430 P.3     2  C2          0.2141
     25  C5'       28.2530    3.8010   56.9250 C.3     2  C2          0.1812
     26  O5'       27.5300    3.8390   55.7020 O.3     2  C2         -0.3114
     27  C4'       29.4550    2.9000   56.7930 C.3     2  C2          0.1773
     28  O4'       28.9880    1.5510   56.5290 O.3     2  C2         -0.3307
     29  C3'       30.4000    3.1680   55.6280 C.3     2  C2          0.1860
     30  O3'       31.3360    4.2080   55.9000 O.3     2  C2         -0.3112
     31  C2'       31.1170    1.8300   55.5240 C.3     2  C2          0.2309
     32  O2'       32.1170    1.6670   56.5080 O.3     2  C2         -0.2156
     33  C1'       29.9660    0.8540   55.7750 C.3     2  C2          0.2420
     34  N1        29.3610    0.4090   54.5140 N.ar    2  C2         -0.2535
     35  C2        29.8990   -0.7120   53.8750 C.ar    2  C2          0.3532
     36  O2        30.8410   -1.3190   54.4150 O.2     2  C2         -0.2443
     37  N3        29.3820   -1.1070   52.6910 N.ar    2  C2         -0.1739
     38  C4        28.3650   -0.4340   52.1520 C.ar    2  C2          0.1759
     39  N4        27.8940   -0.8580   50.9790 N.pl3   2  C2         -0.1070
     40  C5        27.7880    0.7000   52.7880 C.ar    2  C2          0.0566
     41  C6        28.3090    1.0820   53.9600 C.ar    2  C2          0.0850
     42  OP1       27.4940    6.3230   55.9180 O.3     2  C2         -0.4373
     43  OP2       28.1200    5.1980   53.6990 O.co2   2  C2         -0.5172
     44  P         32.3390    4.7090   54.7380 P.3     3  G3          0.2141
     45  C5'       34.4840    3.2300   54.8490 C.3     3  G3          0.1812
     46  O5'       33.1760    3.4160   54.3330 O.3     3  G3         -0.3114
     47  C4'       35.0150    1.8730   54.4650 C.3     3  G3          0.1773
     48  O4'       33.9330    0.9050   54.4080 O.3     3  G3         -0.3307
     49  C3'       35.6210    1.7840   53.0820 C.3     3  G3          0.1860
     50  O3'       36.9320    2.3200   53.0410 O.3     3  G3         -0.3112
     51  C2'       35.5930    0.2810   52.8380 C.3     3  G3          0.2309
     52  O2'       36.6260   -0.4320   53.4890 O.3     3  G3         -0.2156
     53  C1'       34.2220   -0.0740   53.4160 C.3     3  G3          0.2408
     54  N1        32.2670   -2.2030   49.2410 N.ar    3  G3         -0.1709
     55  C2        33.2750   -2.6570   50.0610 C.ar    3  G3          0.2606
     56  N2        33.8550   -3.8100   49.7010 N.pl3   3  G3         -0.0859
     57  N3        33.6820   -2.0230   51.1530 N.ar    3  G3         -0.1918
     58  C4        32.9930   -0.8780   51.3560 C.ar    3  G3          0.1723
     59  C5        31.9750   -0.3390   50.6010 C.ar    3  G3          0.1748
     60  C6        31.5460   -1.0290   49.4350 C.ar    3  G3          0.3023
     61  O6        30.6610   -0.7110   48.6350 O.2     3  G3         -0.2633
     62  N7        31.5380    0.8610   51.1460 N.ar    3  G3         -0.2173
     63  C8        32.2870    1.0300   52.2020 C.ar    3  G3          0.1817
     64  N9        33.2010    0.0200   52.3780 N.ar    3  G3         -0.2693
     65  OP1       33.3040    5.6580   55.3490 O.3     3  G3         -0.4373
     66  OP2       31.5270    5.1380   53.5680 O.co2   3  G3         -0.5172
     67  P         37.4110    3.1000   51.7300 P.3     4  G4          0.2141
     68  C5'       39.0790    1.2160   51.0220 C.3     4  G4          0.1812
     69  O5'       37.8980    1.9460   50.7440 O.3     4  G4         -0.3114
     70  C4'       39.0900   -0.0690   50.2390 C.3     4  G4          0.1773
     71  O4'       37.8290   -0.7670   50.3950 O.3     4  G4         -0.3307
     72  C3'       39.1900    0.1020   48.7430 C.3     4  G4          0.1860
     73  O3'       40.5330    0.3170   48.3970 O.3     4  G4         -0.3112
     74  C2'       38.7100   -1.2530   48.2520 C.3     4  G4          0.2309
     75  O2'       39.6770   -2.2620   48.3920 O.3     4  G4         -0.2156
     76  C1'       37.5530   -1.5060   49.2120 C.3     4  G4          0.2408
     77  N1        34.0680   -2.1070   45.5970 N.ar    4  G4         -0.1709
     78  C2        35.2270   -2.8200   45.8200 C.ar    4  G4          0.2606
     79  N2        35.4930   -3.8200   44.9730 N.pl3   4  G4         -0.0859
     80  N3        36.0660   -2.5630   46.8060 N.ar    4  G4         -0.1918
     81  C4        35.6530   -1.5170   47.5550 C.ar    4  G4          0.1723
     82  C5        34.5220   -0.7380   47.4090 C.ar    4  G4          0.1748
     83  C6        33.6270   -1.0270   46.3610 C.ar    4  G4          0.3023
     84  O6        32.5570   -0.4520   46.0790 O.2     4  G4         -0.2633
     85  N7        34.4740    0.2500   48.3760 N.ar    4  G4         -0.2173
     86  C8        35.5510    0.0550   49.0880 C.ar    4  G4          0.1817
     87  N9        36.3050   -1.0060   48.6460 N.ar    4  G4         -0.2693
     88  OP1       38.5800    3.9480   52.0710 O.3     4  G4         -0.4373
     89  OP2       36.1840    3.7270   51.1830 O.co2   4  G4         -0.5172
     90  P         40.8800    1.1270   47.0650 P.3     5  A5          0.2141
     91  C5'       41.0080   -1.0080   45.6020 C.3     5  A5          0.1812
     92  O5'       40.3170    0.1810   45.9210 O.3     5  A5         -0.3114
     93  C4'       40.3660   -1.6670   44.4250 C.3     5  A5          0.1773
     94  O4'       39.0180   -2.0690   44.7940 O.3     5  A5         -0.3307
     95  C3'       40.1510   -0.7570   43.2300 C.3     5  A5          0.1860
     96  O3'       41.3410   -0.6920   42.4540 O.3     5  A5         -0.3112
     97  C2'       39.0400   -1.5130   42.5150 C.3     5  A5          0.2309
     98  O2'       39.4820   -2.7280   41.9310 O.3     5  A5         -0.2156
     99  C1'       38.1520   -1.8790   43.7010 C.3     5  A5          0.2408
    100  N1        33.6260    0.2610   42.6100 N.ar    5  A5         -0.2040
    101  C2        34.2950   -0.7750   42.0700 C.ar    5  A5          0.2016
    102  N3        35.4900   -1.2730   42.4000 N.ar    5  A5         -0.2048
    103  C4        36.0230   -0.5760   43.4200 C.ar    5  A5          0.1692
    104  C5        35.4700    0.5140   44.0630 C.ar    5  A5          0.1518
    105  C6        34.1990    0.9420   43.6220 C.ar    5  A5          0.1919
    106  N6        33.5390    1.9810   44.1450 N.pl3   5  A5         -0.1054
    107  N7        36.3180    0.9740   45.0590 N.ar    5  A5         -0.2193
    108  C8        37.3430    0.1580   45.0040 C.ar    5  A5          0.1816
    109  N9        37.2250   -0.8060   44.0390 N.ar    5  A5         -0.2693
    110  OP1       42.3600    1.1240   46.9330 O.2     5  A5         -0.5172
    111  OP2       40.1420    2.4260   47.0870 O.co2   5  A5         -0.4373
    112  P         41.6680    0.6300   41.6030 P.3     6  U6          0.2141
    113  C5'       40.5230   -0.3020   39.4680 C.3     6  U6          0.1812
    114  O5'       40.5290    0.6680   40.4930 O.3     6  U6         -0.3114
    115  C4'       39.1970   -0.3090   38.7720 C.3     6  U6          0.1773
    116  O4'       38.1120   -0.3970   39.7340 O.3     6  U6         -0.3307
    117  C3'       38.8900    0.9760   38.0490 C.3     6  U6          0.1860
    118  O3'       39.5790    0.9840   36.8190 O.3     6  U6         -0.3112
    119  C2'       37.3930    0.8330   37.8500 C.3     6  U6          0.2309
    120  O2'       37.1110   -0.1180   36.8480 O.3     6  U6         -0.2156
    121  C1'       36.9770    0.2640   39.2050 C.3     6  U6          0.2420
    122  N1        36.5460    1.2990   40.1490 N.ar    6  U6         -0.2534
    123  C2        35.3500    1.9260   39.8690 C.ar    6  U6          0.3546
    124  O2        34.6940    1.6640   38.8880 O.2     6  U6         -0.2443
    125  N3        34.9680    2.8800   40.7640 N.ar    6  U6         -0.1530
    126  C4        35.6430    3.2890   41.8860 C.ar    6  U6          0.2846
    127  O4        35.1700    4.1920   42.5730 O.2     6  U6         -0.2650
    128  C5        36.8850    2.6010   42.1240 C.ar    6  U6          0.0814
    129  C6        37.2830    1.6450   41.2600 C.ar    6  U6          0.0870
    130  OP1       42.9470    0.3490   40.9090 O.2     6  U6         -0.5172
    131  OP2       41.5420    1.8330   42.4640 O.co2   6  U6         -0.4373
    132  P         40.0150    2.3850   36.1770 P.3     7  U7          0.2141
    133  C5'       37.8430    2.2190   34.6770 C.3     7  U7          0.1812
    134  O5'       38.6530    2.9790   35.5790 O.3     7  U7         -0.3114
    135  C4'       36.6280    3.0310   34.2810 C.3     7  U7          0.1773
    136  O4'       35.8860    3.3190   35.4960 O.3     7  U7         -0.3307
    137  C3'       36.9370    4.3760   33.6260 C.3     7  U7          0.1860
    138  O3'       36.0730    4.6340   32.5210 O.3     7  U7         -0.3112
    139  C2'       36.7470    5.3730   34.7610 C.3     7  U7          0.2309
    140  O2'       36.2400    6.6090   34.3070 O.3     7  U7         -0.2156
    141  C1'       35.6640    4.7030   35.5980 C.3     7  U7          0.2420
    142  N1        35.7000    5.0820   37.0180 N.ar    7  U7         -0.2534
    143  C2        34.6310    5.8020   37.5090 C.ar    7  U7          0.3546
    144  O2        33.6590    6.0910   36.8260 O.2     7  U7         -0.2443
    145  N3        34.7340    6.1670   38.8260 N.ar    7  U7         -0.1530
    146  C4        35.7790    5.8860   39.6920 C.ar    7  U7          0.2846
    147  O4        35.7360    6.2990   40.8710 O.2     7  U7         -0.2650
    148  C5        36.8320    5.1150   39.1090 C.ar    7  U7          0.0814
    149  C6        36.7590    4.7480   37.8310 C.ar    7  U7          0.0870
    150  OP1       40.9330    2.0530   35.0780 O.2     7  U7         -0.5172
    151  OP2       40.4300    3.3140   37.2780 O.co2   7  U7         -0.4373
    152  P         36.5770    4.3740   31.0060 P.3     8  U8          0.2141
    153  C5'       37.6970    6.6960   30.5910 C.3     8  U8          0.1812
    154  O5'       37.8630    5.3080   30.8410 O.3     8  U8         -0.3114
    155  C4'       38.7180    7.1960   29.6030 C.3     8  U8          0.1773
    156  O4'       40.0440    7.1650   30.2150 O.3     8  U8         -0.3307
    157  C3'       38.9050    6.4390   28.2900 C.3     8  U8          0.1860
    158  O3'       37.9190    6.7860   27.3160 O.3     8  U8         -0.3112
    159  C2'       40.2700    6.9760   27.8880 C.3     8  U8          0.2309
    160  O2'       40.2690    8.3590   27.5430 O.3     8  U8         -0.2156
    161  C1'       41.0090    6.8600   29.2270 C.3     8  U8          0.2420
    162  N1        41.4950    5.5050   29.4900 N.ar    8  U8         -0.2534
    163  C2        42.7150    5.1400   28.9530 C.ar    8  U8          0.3546
    164  O2        43.3990    5.8980   28.2990 O.2     8  U8         -0.2443
    165  N3        43.0970    3.8580   29.2170 N.ar    8  U8         -0.1530
    166  C4        42.4010    2.9230   29.9560 C.ar    8  U8          0.2846
    167  O4        42.8430    1.7810   30.0630 O.2     8  U8         -0.2650
    168  C5        41.1590    3.3820   30.4710 C.ar    8  U8          0.0814
    169  C6        40.7620    4.6260   30.2320 C.ar    8  U8          0.0870
    170  OP1       35.5440    4.9500   30.0980 O.2     8  U8         -0.5172
    171  OP2       37.0170    2.9680   30.8520 O.co2   8  U8         -0.4373
    172  P         37.4130    5.6880   26.2540 P.3     9  A9          0.2141
    173  C5'       37.4150    7.4270   24.3100 C.3     9  A9          0.1813
    174  O5'       37.9590    6.2410   24.8770 O.3     9  A9         -0.3114
    175  C4'       37.2130    7.2330   22.8340 C.3     9  A9          0.1801
    176  O4'       38.5420    7.1580   22.2420 O.3     9  A9         -0.3306
    177  C3'       36.4930    5.9380   22.4310 C.3     9  A9          0.2161
    178  O3'       35.7840    6.1270   21.2090 O.3     9  A9         -0.2175
    179  C2'       37.6550    4.9840   22.1550 C.3     9  A9          0.2337
    180  O2'       37.3480    4.0450   21.1580 O.3     9  A9         -0.2155
    181  C1'       38.6840    5.9290   21.5630 C.3     9  A9          0.2409
    182  N1        43.5780    6.6110   20.1430 N.ar    9  A9         -0.2040
    183  C2        42.4810    7.3600   19.9700 C.ar    9  A9          0.2016
    184  N3        41.2460    7.1530   20.4120 N.ar    9  A9         -0.2048
    185  C4        41.1800    6.0090   21.1110 C.ar    9  A9          0.1692
    186  C5        42.2340    5.1380   21.3830 C.ar    9  A9          0.1518
    187  C6        43.4830    5.4750   20.8660 C.ar    9  A9          0.1919
    188  N6        44.5870    4.7300   21.0470 N.pl3   9  A9         -0.1054
    189  N7        41.8020    4.0740   22.1500 N.ar    9  A9         -0.2193
    190  C8        40.5070    4.3100   22.3130 C.ar    9  A9          0.1816
    191  N9        40.0680    5.4440   21.6830 N.ar    9  A9         -0.2693
    192  OP1       35.9280    5.7530   26.2170 O.2     9  A9         -0.5172
    193  OP2       38.0870    4.3650   26.5100 O.co2   9  A9         -0.4373
    194  P         32.0550    1.4620   23.9060 P.3    11  C11         0.1280
    195  C5'       31.9320   -1.1230   23.5350 C.3    11  C11         0.1795
    196  O5'       32.7450    0.0440   23.6750 O.3    11  C11        -0.3259
    197  C4'       32.7800   -2.3500   23.3010 C.3    11  C11         0.1772
    198  O4'       33.5570   -2.1910   22.0860 O.3    11  C11        -0.3307
    199  C3'       33.7840   -2.6260   24.3970 C.3    11  C11         0.1860
    200  O3'       33.1940   -3.4490   25.3930 O.3    11  C11        -0.3112
    201  C2'       34.9320   -3.3250   23.6710 C.3    11  C11         0.2309
    202  O2'       34.7670   -4.7230   23.6190 O.3    11  C11        -0.2156
    203  C1'       34.8580   -2.7180   22.2690 C.3    11  C11         0.2420
    204  N1        35.8120   -1.6260   22.0490 N.ar   11  C11        -0.2535
    205  C2        37.1470   -1.9280   21.7800 C.ar   11  C11         0.3532
    206  O2        37.4890   -3.1200   21.7230 O.2    11  C11        -0.2443
    207  N3        38.0380   -0.9070   21.5970 N.ar   11  C11        -0.1739
    208  C4        37.6200    0.3610   21.6760 C.ar   11  C11         0.1759
    209  N4        38.5130    1.3410   21.4770 N.pl3  11  C11        -0.1070
    210  C5        36.2670    0.6870   21.9470 C.ar   11  C11         0.0566
    211  C6        35.4010   -0.3280   22.1180 C.ar   11  C11         0.0850
    212  OP1       30.9460    1.2090   24.8390 O.3    11  C11        -0.1955
    213  OP2       33.0860    2.4940   24.2570 O.co2  11  C11        -0.7863
    214  P         33.6210   -3.2370   26.9130 P.3    12  U12         0.2141
    215  C5'       35.3700   -5.1950   26.7910 C.3    12  U12         0.1812
    216  O5'       35.1120   -3.8010   26.9410 O.3    12  U12        -0.3114
    217  C4'       36.8560   -5.4460   26.6820 C.3    12  U12         0.1773
    218  O4'       37.3650   -4.8510   25.4610 O.3    12  U12        -0.3307
    219  C3'       37.7030   -4.7750   27.7510 C.3    12  U12         0.1860
    220  O3'       37.7250   -5.5450   28.9320 O.3    12  U12        -0.3112
    221  C2'       39.0850   -4.7850   27.1120 C.3    12  U12         0.2309
    222  O2'       39.7830   -6.0010   27.3200 O.3    12  U12        -0.2156
    223  C1'       38.7470   -4.5390   25.6410 C.3    12  U12         0.2420
    224  N1        38.9520   -3.1260   25.3070 N.ar   12  U12        -0.2534
    225  C2        40.2350   -2.7130   25.0050 C.ar   12  U12         0.3546
    226  O2        41.1880   -3.4510   25.0340 O.2    12  U12        -0.2443
    227  N3        40.3570   -1.3960   24.6840 N.ar   12  U12        -0.1530
    228  C4        39.3390   -0.4580   24.6470 C.ar   12  U12         0.2846
    229  O4        39.5820    0.6870   24.2850 O.2    12  U12        -0.2650
    230  C5        38.0520   -0.9630   24.9910 C.ar   12  U12         0.0814
    231  C6        37.9130   -2.2550   25.3010 C.ar   12  U12         0.0870
    232  OP1       32.7820   -4.0390   27.8380 O.3    12  U12        -0.4373
    233  OP2       33.6780   -1.7650   27.0840 O.co2  12  U12        -0.5172
    234  P         38.1710   -4.8650   30.3110 P.3    13  C13         0.2141
    235  C5'       40.4170   -3.5490   30.5120 C.3    13  C13         0.1812
    236  O5'       39.7370   -4.7160   30.1150 O.3    13  C13        -0.3114
    237  C4'       41.6830   -3.4100   29.7200 C.3    13  C13         0.1773
    238  O4'       41.4010   -2.8510   28.4100 O.3    13  C13        -0.3307
    239  C3'       42.6450   -2.4230   30.3370 C.3    13  C13         0.1860
    240  O3'       43.2910   -3.1030   31.4000 O.3    13  C13        -0.3112
    241  C2'       43.5140   -2.0400   29.1410 C.3    13  C13         0.2309
    242  O2'       44.5300   -2.9630   28.8360 O.3    13  C13        -0.2156
    243  C1'       42.4940   -2.0500   27.9970 C.3    13  C13         0.2420
    244  N1        41.9740   -0.7240   27.6430 N.ar   13  C13        -0.2535
    245  C2        42.8020    0.1790   26.9710 C.ar   13  C13         0.3532
    246  O2        43.9840   -0.1430   26.7510 O.2    13  C13        -0.2443
    247  N3        42.3090    1.3900   26.6000 N.ar   13  C13        -0.1739
    248  C4        41.0540    1.7280   26.9320 C.ar   13  C13         0.1759
    249  N4        40.6120    2.9350   26.5820 N.pl3  13  C13        -0.1070
    250  C5        40.1920    0.8330   27.6410 C.ar   13  C13         0.0566
    251  C6        40.6870   -0.3770   27.9610 C.ar   13  C13         0.0850
    252  OP1       37.9870   -5.8080   31.4450 O.3    13  C13        -0.4373
    253  OP2       37.5290   -3.5310   30.3540 O.co2  13  C13        -0.5172
    254  P         44.2020   -2.2860   32.4280 P.3    14  A14         0.2141
    255  C5'       46.1470   -0.8770   31.4590 C.3    14  A14         0.1812
    256  O5'       45.5280   -2.1230   31.5800 O.3    14  A14        -0.3114
    257  C4'       47.4140   -1.0100   30.6690 C.3    14  A14         0.1773
    258  O4'       47.0880   -0.7530   29.2770 O.3    14  A14        -0.3307
    259  C3'       48.4200    0.0710   31.0400 C.3    14  A14         0.1860
    260  O3'       49.2760   -0.3640   32.0760 O.3    14  A14        -0.3112
    261  C2'       49.1510    0.3030   29.7340 C.3    14  A14         0.2309
    262  O2'       50.1060   -0.7000   29.4440 O.3    14  A14        -0.2156
    263  C1'       47.9930    0.2180   28.7490 C.3    14  A14         0.2408
    264  N1        48.3530    4.9770   26.9630 N.ar   14  A14        -0.2040
    265  C2        49.2370    3.9860   27.0880 C.ar   14  A14         0.2016
    266  N3        49.0810    2.7920   27.5980 N.ar   14  A14        -0.2048
    267  C4        47.8210    2.6160   28.0090 C.ar   14  A14         0.1692
    268  C5        46.7910    3.5350   27.9450 C.ar   14  A14         0.1518
    269  C6        47.0920    4.7800   27.3930 C.ar   14  A14         0.1919
    270  N6        46.2030    5.7890   27.2660 N.pl3  14  A14        -0.1054
    271  N7        45.6350    3.0200   28.5130 N.ar   14  A14        -0.2193
    272  C8        45.9780    1.8010   28.8880 C.ar   14  A14         0.1816
    273  N9        47.2870    1.4840   28.5800 N.ar   14  A14        -0.2693
    274  OP1       44.5310   -3.1740   33.5730 O.3    14  A14        -0.4373
    275  OP2       43.6100   -0.9520   32.6880 O.co2  14  A14        -0.5172
    276  P         49.2650    0.4020   33.4750 P.3    15  G15         0.2141
    277  C5'       51.0020    2.0370   32.4000 C.3    15  G15         0.1813
    278  O5'       49.8170    1.8560   33.1330 O.3    15  G15        -0.3114
    279  C4'       51.0320    3.4360   31.8110 C.3    15  G15         0.1801
    280  O4'       50.1140    3.5140   30.6860 O.3    15  G15        -0.3306
    281  C3'       50.5490    4.5570   32.7140 C.3    15  G15         0.2161
    282  O3'       51.5540    4.9620   33.6330 O.3    15  G15        -0.2175
    283  C2'       50.2630    5.6550   31.6950 C.3    15  G15         0.2337
    284  O2'       51.4000    6.2440   31.1340 O.3    15  G15        -0.2155
    285  C1'       49.5840    4.8410   30.5970 C.3    15  G15         0.2409
    286  N1        45.3380    7.6250   30.5480 N.ar   15  G15        -0.1709
    287  C2        46.5840    7.9180   30.0620 C.ar   15  G15         0.2606
    288  N2        46.7070    9.1300   29.5250 N.pl3  15  G15        -0.0859
    289  N3        47.6290    7.0820   30.1090 N.ar   15  G15        -0.1918
    290  C4        47.3030    5.9010   30.6930 C.ar   15  G15         0.1723
    291  C5        46.0820    5.5070   31.2210 C.ar   15  G15         0.1748
    292  C6        44.9740    6.4340   31.1590 C.ar   15  G15         0.3023
    293  O6        43.8100    6.2870   31.5610 O.2    15  G15        -0.2633
    294  N7        46.1720    4.2370   31.7680 N.ar   15  G15        -0.2173
    295  C8        47.4260    3.8730   31.5670 C.ar   15  G15         0.1817
    296  N9        48.1660    4.8460   30.9290 N.ar   15  G15        -0.2693
    297  OP1       50.2170   -0.2800   34.3820 O.3    15  G15        -0.4373
    298  OP2       47.8970    0.6580   33.9240 O.co2  15  G15        -0.5172
    299  P         54.8330   12.2510   38.3280 P.3    18  G18         0.1280
    300  C5'       53.0040   13.7410   37.3360 C.3    18  G18         0.1795
    301  O5'       53.7590   12.6010   37.2190 O.3    18  G18        -0.3259
    302  C4'       52.8950   14.4440   36.0100 C.3    18  G18         0.1772
    303  O4'       52.1030   15.5730   36.4180 O.3    18  G18        -0.3307
    304  C3'       54.2040   15.0560   35.4760 C.3    18  G18         0.1860
    305  O3'       54.0650   15.6710   34.1820 O.3    18  G18        -0.3112
    306  C2'       54.3720   16.2120   36.4350 C.3    18  G18         0.2309
    307  O2'       55.1860   17.2450   35.8950 O.3    18  G18        -0.2156
    308  C1'       52.9290   16.7110   36.4760 C.3    18  G18         0.2408
    309  N1        50.4310   20.6160   38.3390 N.ar   18  G18        -0.1709
    310  C2        50.3580   20.0580   37.1070 C.ar   18  G18         0.2606
    311  N2        49.5440   20.6600   36.2260 N.pl3  18  G18        -0.0859
    312  N3        51.0360   18.9770   36.7530 N.ar   18  G18        -0.1918
    313  C4        51.7770   18.5060   37.7610 C.ar   18  G18         0.1723
    314  C5        51.9050   18.9860   39.0430 C.ar   18  G18         0.1748
    315  C6        51.2110   20.1330   39.3960 C.ar   18  G18         0.3023
    316  O6        51.2340   20.7200   40.4650 O.2    18  G18        -0.2633
    317  N7        52.7880   18.2170   39.7780 N.ar   18  G18        -0.2173
    318  C8        53.1810   17.2990   38.9330 C.ar   18  G18         0.1817
    319  N9        52.6260   17.4550   37.6870 N.ar   18  G18        -0.2693
    320  OP1       54.6740   13.1840   39.4500 O.3    18  G18        -0.1955
    321  OP2       54.7450   10.7990   38.5690 O.co2  18  G18        -0.7863
    322  P         54.4070   14.8540   32.8290 P.3    19  G19         0.2141
    323  C5'       52.7580   16.2380   31.3560 C.3    19  G19         0.1812
    324  O5'       54.1160   15.9400   31.7150 O.3    19  G19        -0.3114
    325  C4'       52.7190   17.3450   30.3490 C.3    19  G19         0.1773
    326  O4'       53.4130   18.4780   30.9540 O.3    19  G19        -0.3307
    327  C3'       53.4620   17.0510   29.0440 C.3    19  G19         0.1860
    328  O3'       52.9650   17.8700   27.9850 O.3    19  G19        -0.3112
    329  C2'       54.8830   17.5260   29.4050 C.3    19  G19         0.2309
    330  O2'       55.6450   17.8520   28.2720 O.3    19  G19        -0.2156
    331  C1'       54.5870   18.7910   30.2100 C.3    19  G19         0.2408
    332  N1        55.9860   22.5220   33.3380 N.ar   19  G19        -0.1709
    333  C2        55.1130   22.5660   32.2920 C.ar   19  G19         0.2606
    334  N2        54.4820   23.7640   32.1140 N.pl3  19  G19        -0.0859
    335  N3        54.8760   21.5360   31.4820 N.ar   19  G19        -0.1918
    336  C4        55.6150   20.4400   31.8190 C.ar   19  G19         0.1723
    337  C5        56.5150   20.3000   32.8530 C.ar   19  G19         0.1748
    338  C6        56.7460   21.4270   33.7070 C.ar   19  G19         0.3023
    339  O6        57.4880   21.5250   34.6600 O.2    19  G19        -0.2633
    340  N7        57.0450   19.0090   32.8770 N.ar   19  G19        -0.2173
    341  C8        56.4700   18.3980   31.8670 C.ar   19  G19         0.1817
    342  N9        55.5570   19.1930   31.2130 N.ar   19  G19        -0.2693
    343  OP1       53.4390   13.7330   32.6350 O.2    19  G19        -0.5172
    344  OP2       55.8660   14.5610   32.7350 O.co2  19  G19        -0.4373
    345  P         51.7050   17.3840   27.0530 P.3    20  G20         0.2141
    346  C5'       53.2130   16.9270   24.9300 C.3    20  G20         0.1812
    347  O5'       52.3540   16.4430   25.9480 O.3    20  G20        -0.3114
    348  C4'       53.2560   15.9420   23.7740 C.3    20  G20         0.1773
    349  O4'       54.1880   14.8510   24.0630 O.3    20  G20        -0.3307
    350  C3'       51.9200   15.2660   23.4770 C.3    20  G20         0.1860
    351  O3'       51.2040   16.0050   22.4870 O.3    20  G20        -0.3112
    352  C2'       52.3260   13.9050   22.9480 C.3    20  G20         0.2309
    353  O2'       52.6880   13.8790   21.5980 O.3    20  G20        -0.2156
    354  C1'       53.5840   13.6150   23.7570 C.3    20  G20         0.2408
    355  N1        51.4850    9.5100   25.8350 N.ar   20  G20        -0.1709
    356  C2        51.6330    9.8320   24.5050 C.ar   20  G20         0.2606
    357  N2        51.1180    8.9480   23.5980 N.pl3  20  G20        -0.0859
    358  N3        52.2370   10.9360   24.0870 N.ar   20  G20        -0.1918
    359  C4        52.6600   11.7060   25.1130 C.ar   20  G20         0.1723
    360  C5        52.5540   11.4770   26.4580 C.ar   20  G20         0.1748
    361  C6        51.9340   10.2890   26.9000 C.ar   20  G20         0.3023
    362  O6        51.7660    9.9190   28.0450 O.2    20  G20        -0.2633
    363  N7        53.0810   12.5290   27.1850 N.ar   20  G20        -0.2173
    364  C8        53.5050   13.3700   26.2750 C.ar   20  G20         0.1817
    365  N9        53.2690   12.9290   25.0030 N.ar   20  G20        -0.2693
    366  OP1       51.1520   18.5900   26.3960 O.2    20  G20        -0.5172
    367  OP2       50.8210   16.5790   27.8980 O.co2  20  G20        -0.4373
    368  P         49.7070   16.4440   22.8080 P.3    21  A21         0.2141
    369  C5'       48.0830   14.6350   23.7240 C.3    21  A21         0.1812
    370  O5'       49.0480   15.0040   22.8240 O.3    21  A21        -0.3114
    371  C4'       48.1320   13.1500   23.9190 C.3    21  A21         0.1773
    372  O4'       47.2710   12.9340   25.0120 O.3    21  A21        -0.3307
    373  C3'       47.7040   12.1260   22.8500 C.3    21  A21         0.1860
    374  O3'       48.8230   11.7690   22.0000 O.3    21  A21        -0.3112
    375  C2'       47.3550   10.9330   23.7320 C.3    21  A21         0.2309
    376  O2'       48.5240   10.2280   24.1210 O.3    21  A21        -0.2156
    377  C1'       46.8040   11.6130   24.9920 C.3    21  A21         0.2408
    378  N1        42.4140    9.5770   26.6780 N.ar   21  A21        -0.2040
    379  C2        43.6630    9.1040   26.6680 C.ar   21  A21         0.2016
    380  N3        44.7670    9.6660   26.1970 N.ar   21  A21        -0.2048
    381  C4        44.4920   10.8610   25.6780 C.ar   21  A21         0.1692
    382  C5        43.2680   11.4770   25.6250 C.ar   21  A21         0.1518
    383  C6        42.1900   10.7880   26.1550 C.ar   21  A21         0.1919
    384  N6        40.9470   11.2810   26.1640 N.pl3  21  A21        -0.1054
    385  N7        43.3610   12.7000   24.9970 N.ar   21  A21        -0.2193
    386  C8        44.6260   12.7950   24.6860 C.ar   21  A21         0.1816
    387  N9        45.3660   11.7310   25.0940 N.ar   21  A21        -0.2693
    388  OP1       49.1830   17.1290   21.6200 O.2    21  A21        -0.5172
    389  OP2       49.7640   17.1670   24.1170 O.co2  21  A21        -0.4373
    390  P         48.6750   10.6810   20.7870 P.3    22  G22         0.2141
    391  C5'       48.2110    8.1300   20.9600 C.3    22  G22         0.1812
    392  O5'       48.7870    9.2900   21.5170 O.3    22  G22        -0.3114
    393  C4'       48.8430    6.9160   21.5940 C.3    22  G22         0.1773
    394  O4'       48.6220    6.9690   23.0290 O.3    22  G22        -0.3307
    395  C3'       48.3020    5.5770   21.1350 C.3    22  G22         0.1860
    396  O3'       49.0070    5.1400   19.9660 O.3    22  G22        -0.3112
    397  C2'       48.5170    4.7150   22.3690 C.3    22  G22         0.2309
    398  O2'       49.8200    4.2130   22.5630 O.3    22  G22        -0.2156
    399  C1'       48.2050    5.7040   23.4900 C.3    22  G22         0.2408
    400  N1        44.2170    3.1930   25.3420 N.ar   22  G22        -0.1709
    401  C2        45.5090    2.7600   25.1530 C.ar   22  G22         0.2606
    402  N2        45.7810    1.5060   25.5390 N.pl3  22  G22        -0.0859
    403  N3        46.4590    3.5050   24.6290 N.ar   22  G22        -0.1918
    404  C4        46.0130    4.7420   24.3010 C.ar   22  G22         0.1723
    405  C5        44.7640    5.2640   24.4460 C.ar   22  G22         0.1748
    406  C6        43.7510    4.4590   25.0120 C.ar   22  G22         0.3023
    407  O6        42.5840    4.7620   25.2290 O.2    22  G22        -0.2633
    408  N7        44.7160    6.5810   24.0000 N.ar   22  G22        -0.2173
    409  C8        45.9320    6.8300   23.5970 C.ar   22  G22         0.1817
    410  N9        46.7760    5.7620   23.7720 N.ar   22  G22        -0.2693
    411  OP1       49.8410   10.7800   19.9110 O.2    22  G22        -0.5172
    412  OP2       47.3230   10.6950   20.1910 O.co2  22  G22        -0.4373
    413  P         48.2500    4.2450   18.8570 P.3    23  A23         0.2141
    414  C5'       49.4570    2.1620   19.8080 C.3    23  A23         0.1812
    415  O5'       48.2420    2.8000   19.4940 O.3    23  A23        -0.3114
    416  C4'       49.2010    0.8060   20.4020 C.3    23  A23         0.1773
    417  O4'       48.6760    0.9130   21.7500 O.3    23  A23        -0.3307
    418  C3'       48.2000   -0.0650   19.6640 C.3    23  A23         0.1860
    419  O3'       48.8890   -0.7340   18.6140 O.3    23  A23        -0.3112
    420  C2'       47.8330   -1.0500   20.7540 C.3    23  A23         0.2309
    421  O2'       48.8810   -1.9920   20.9150 O.3    23  A23        -0.2156
    422  C1'       47.7410   -0.1240   21.9710 C.3    23  A23         0.2408
    423  N1        42.8790   -0.5950   23.5740 N.ar   23  A23        -0.2040
    424  C2        43.9120   -1.4550   23.5830 C.ar   23  A23         0.2016
    425  N3        45.1490   -1.2790   23.1450 N.ar   23  A23        -0.2048
    426  C4        45.2950   -0.0400   22.6420 C.ar   23  A23         0.1692
    427  C5        44.3310    0.9470   22.5720 C.ar   23  A23         0.1518
    428  C6        43.0710    0.6370   23.0640 C.ar   23  A23         0.1919
    429  N6        42.0530    1.5050   23.0560 N.pl3  23  A23        -0.1054
    430  N7        44.8350    2.0940   21.9750 N.ar   23  A23        -0.2193
    431  C8        46.0740    1.7740   21.6880 C.ar   23  A23         0.1816
    432  N9        46.4240    0.5040   22.0880 N.ar   23  A23        -0.2693
    433  OP1       49.0360    4.1910   17.6030 O.2    23  A23        -0.5172
    434  OP2       46.8600    4.7440   18.8140 O.co2  23  A23        -0.4373
    435  P         48.0930   -1.1720   17.2770 P.3    24  G24         0.2141
    436  C5'       47.8430   -3.4720   18.4520 C.3    24  G24         0.1812
    437  O5'       47.2240   -2.4050   17.7710 O.3    24  G24        -0.3114
    438  C4'       46.8100   -4.4500   18.9190 C.3    24  G24         0.1773
    439  O4'       46.2950   -3.9750   20.1860 O.3    24  G24        -0.3307
    440  C3'       45.5810   -4.5860   18.0310 C.3    24  G24         0.1860
    441  O3'       45.8180   -5.5730   17.0350 O.3    24  G24        -0.3112
    442  C2'       44.5620   -5.0810   19.0410 C.3    24  G24         0.2309
    443  O2'       44.8070   -6.4190   19.4180 O.3    24  G24        -0.2156
    444  C1'       44.9050   -4.1980   20.2450 C.3    24  G24         0.2408
    445  N1        40.6250   -1.7020   21.0900 N.ar   24  G24        -0.1709
    446  C2        40.9620   -2.9930   21.4090 C.ar   24  G24         0.2606
    447  N2        40.0060   -3.7380   21.9830 N.pl3  24  G24        -0.0859
    448  N3        42.1540   -3.5200   21.1770 N.ar   24  G24        -0.1918
    449  C4        42.9810   -2.6400   20.5780 C.ar   24  G24         0.1723
    450  C5        42.7400   -1.3370   20.2130 C.ar   24  G24         0.1748
    451  C6        41.4690   -0.7790   20.4770 C.ar   24  G24         0.3023
    452  O6        41.0600    0.3700   20.2260 O.2    24  G24        -0.2633
    453  N7        43.8520   -0.7880   19.5830 N.ar   24  G24        -0.2173
    454  C8        44.7250   -1.7580   19.5860 C.ar   24  G24         0.1817
    455  N9        44.2430   -2.9090   20.1520 N.ar   24  G24        -0.2693
    456  OP1       49.1730   -1.6060   16.3720 O.2    24  G24        -0.5172
    457  OP2       47.1830   -0.0790   16.8650 O.co2  24  G24        -0.4373
    458  P         45.1450   -5.4190   15.5800 P.3    25  C25         0.2141
    459  C5'       43.0920   -6.7570   16.4750 C.3    25  C25         0.1813
    460  O5'       43.5890   -5.5850   15.8600 O.3    25  C25        -0.3114
    461  C4'       41.6480   -6.5730   16.8750 C.3    25  C25         0.1801
    462  O4'       41.5440   -5.6400   17.9910 O.3    25  C25        -0.3306
    463  C3'       40.6870   -5.9890   15.8470 C.3    25  C25         0.2161
    464  O3'       40.3010   -6.9660   14.8780 O.3    25  C25        -0.2175
    465  C2'       39.5230   -5.6080   16.7580 C.3    25  C25         0.2338
    466  O2'       38.8250   -6.7460   17.2230 O.3    25  C25        -0.2155
    467  C1'       40.2740   -5.0070   17.9520 C.3    25  C25         0.2421
    468  N1        40.4850   -3.5760   17.7780 N.ar   25  C25        -0.2535
    469  C2        39.4480   -2.7180   18.0910 C.ar   25  C25         0.3532
    470  O2        38.3990   -3.2010   18.5280 O.2    25  C25        -0.2443
    471  N3        39.6060   -1.3870   17.9110 N.ar   25  C25        -0.1739
    472  C4        40.7550   -0.9110   17.4310 C.ar   25  C25         0.1759
    473  N4        40.8650    0.4110   17.2660 N.pl3  25  C25        -0.1070
    474  C5        41.8440   -1.7690   17.1030 C.ar   25  C25         0.0566
    475  C6        41.6690   -3.0900   17.2980 C.ar   25  C25         0.0850
    476  OP1       45.6240   -6.5820   14.7710 O.2    25  C25        -0.5172
    477  OP2       45.3630   -4.0560   15.0840 O.co2  25  C25        -0.4373
    478  P         35.3850   -4.3430   10.7610 P.3    27  C27         0.1280
    479  C5'       34.0320   -2.1120   10.5780 C.3    27  C27         0.1795
    480  O5'       35.2470   -2.8080   10.3560 O.3    27  C27        -0.3259
    481  C4'       34.2080   -0.6360   10.3100 C.3    27  C27         0.1772
    482  O4'       35.0800   -0.0620   11.3250 O.3    27  C27        -0.3307
    483  C3'       34.8830   -0.2450    9.0040 C.3    27  C27         0.1860
    484  O3'       33.9790   -0.2550    7.8990 O.3    27  C27        -0.3112
    485  C2'       35.3260    1.1810    9.3230 C.3    27  C27         0.2309
    486  O2'       34.2590    2.1100    9.2700 O.3    27  C27        -0.2156
    487  C1'       35.8100    1.0250   10.7670 C.3    27  C27         0.2420
    488  N1        37.2500    0.7290   10.8750 N.ar   27  C27        -0.2535
    489  C2        38.1720    1.7760   10.7220 C.ar   27  C27         0.3532
    490  O2        37.7560    2.9130   10.4660 O.2    27  C27        -0.2443
    491  N3        39.4960    1.5210   10.8470 N.ar   27  C27        -0.1739
    492  C4        39.9120    0.2830   11.0970 C.ar   27  C27         0.1759
    493  N4        41.2230    0.0870   11.2060 N.pl3  27  C27        -0.1070
    494  C5        38.9980   -0.8100   11.2430 C.ar   27  C27         0.0566
    495  C6        37.6860   -0.5420   11.1250 C.ar   27  C27         0.0850
    496  OP1       34.2690   -5.0970   10.1250 O.3    27  C27        -0.1955
    497  OP2       36.7870   -4.7860   10.5340 O.co2  27  C27        -0.7863
    498  P         34.5130   -0.6380    6.4250 P.3    28  C28         0.2141
    499  C5'       34.7040    1.8170    5.5610 C.3    28  C28         0.1812
    500  O5'       35.3560    0.6170    5.9270 O.3    28  C28        -0.3114
    501  C4'       35.7170    2.8860    5.2460 C.3    28  C28         0.1773
    502  O4'       36.5060    3.1520    6.4350 O.3    28  C28        -0.3307
    503  C3'       36.7710    2.5310    4.2170 C.3    28  C28         0.1860
    504  O3'       36.2870    2.6790    2.8870 O.3    28  C28        -0.3112
    505  C2'       37.8280    3.5720    4.5300 C.3    28  C28         0.2309
    506  O2'       37.4500    4.8630    4.0830 O.3    28  C28        -0.2156
    507  C1'       37.8180    3.5130    6.0560 C.3    28  C28         0.2420
    508  N1        38.7390    2.5070    6.6000 N.ar   28  C28        -0.2535
    509  C2        40.0870    2.8320    6.6810 C.ar   28  C28         0.3532
    510  O2        40.4460    3.9390    6.2730 O.2    28  C28        -0.2443
    511  N3        40.9630    1.9320    7.1950 N.ar   28  C28        -0.1739
    512  C4        40.5280    0.7380    7.6120 C.ar   28  C28         0.1759
    513  N4        41.4410   -0.1320    8.1180 N.pl3  28  C28        -0.1070
    514  C5        39.1470    0.3750    7.5320 C.ar   28  C28         0.0566
    515  C6        38.2950    1.2840    7.0240 C.ar   28  C28         0.0850
    516  OP1       33.3010   -0.7350    5.5820 O.2    28  C28        -0.5172
    517  OP2       35.4420   -1.7920    6.5120 O.co2  28  C28        -0.4373
    518  P         36.8300    1.6940    1.7420 P.3    29  A29         0.2141
    519  C5'       38.4860    3.5980    1.0010 C.3    29  A29         0.1812
    520  O5'       38.2890    2.2430    1.4070 O.3    29  A29        -0.3114
    521  C4'       39.9570    3.9840    1.0920 C.3    29  A29         0.1773
    522  O4'       40.3960    4.0280    2.4770 O.3    29  A29        -0.3307
    523  C3'       40.9750    3.0850    0.4000 C.3    29  A29         0.1860
    524  O3'       41.0610    3.4120   -0.9840 O.3    29  A29        -0.3112
    525  C2'       42.2650    3.4740    1.1170 C.3    29  A29         0.2309
    526  O2'       42.8330    4.6850    0.6420 O.3    29  A29        -0.2156
    527  C1'       41.7670    3.6500    2.5540 C.3    29  A29         0.2408
    528  N1        44.9300    0.5190    5.0910 N.ar   29  A29        -0.2040
    529  C2        45.1290    1.6610    4.4240 C.ar   29  A29         0.2016
    530  N3        44.2560    2.4260    3.7920 N.ar   29  A29        -0.2048
    531  C4        43.0220    1.9080    3.8850 C.ar   29  A29         0.1692
    532  C5        42.6560    0.7440    4.5360 C.ar   29  A29         0.1518
    533  C6        43.6760    0.0260    5.1690 C.ar   29  A29         0.1919
    534  N6        43.4810   -1.1090    5.8420 N.pl3  29  A29        -0.1054
    535  N7        41.2910    0.5170    4.4080 N.ar   29  A29        -0.2193
    536  C8        40.8700    1.5380    3.6960 C.ar   29  A29         0.1816
    537  N9        41.8690    2.4180    3.3440 N.ar   29  A29        -0.2693
    538  OP1       35.9570    1.8940    0.5500 O.2    29  A29        -0.5172
    539  OP2       36.9990    0.3240    2.3140 O.co2  29  A29        -0.4373
    540  P         41.6660    2.3470   -2.0230 P.3    30  G30         0.2141
    541  C5'       44.0090    3.5320   -1.8060 C.3    30  G30         0.1812
    542  O5'       43.2330    2.3380   -1.7090 O.3    30  G30        -0.3114
    543  C4'       45.4640    3.2260   -1.5370 C.3    30  G30         0.1773
    544  O4'       45.6850    3.0640   -0.1100 O.3    30  G30        -0.3307
    545  C3'       45.9490    1.9140   -2.1180 C.3    30  G30         0.1860
    546  O3'       46.2740    2.0750   -3.4900 O.3    30  G30        -0.3112
    547  C2'       47.1620    1.6110   -1.2440 C.3    30  G30         0.2309
    548  O2'       48.3250    2.3680   -1.5210 O.3    30  G30        -0.2156
    549  C1'       46.6330    2.0290    0.1190 C.3    30  G30         0.2408
    550  N1        47.0910   -2.1190    3.0340 N.ar   30  G30        -0.1709
    551  C2        48.0650   -1.2460    2.6050 C.ar   30  G30         0.2606
    552  N2        49.3220   -1.5150    3.0130 N.pl3  30  G30        -0.0859
    553  N3        47.8280   -0.1910    1.8310 N.ar   30  G30        -0.1918
    554  C4        46.5160   -0.0840    1.5070 C.ar   30  G30         0.1723
    555  C5        45.4710   -0.9010    1.8770 C.ar   30  G30         0.1748
    556  C6        45.7360   -2.0220    2.7180 C.ar   30  G30         0.3023
    557  O6        44.9360   -2.8570    3.1640 O.2    30  G30        -0.2633
    558  N7        44.2740   -0.4360    1.3480 N.ar   30  G30        -0.2173
    559  C8        44.6060    0.6380    0.6830 C.ar   30  G30         0.1817
    560  N9        45.9460    0.9110    0.7420 N.ar   30  G30        -0.2693
    561  OP1       41.4500    2.9390   -3.3730 O.2    30  G30        -0.5172
    562  OP2       41.1150    1.0040   -1.7120 O.co2  30  G30        -0.4373
    563  P         46.5010    0.7780   -4.4090 P.3    31  A31         0.2141
    564  C5'       48.9860    0.4590   -3.6780 C.3    31  A31         0.1813
    565  O5'       47.6530   -0.0280   -3.6690 O.3    31  A31        -0.3114
    566  C4'       49.8950   -0.5350   -3.0180 C.3    31  A31         0.1801
    567  O4'       49.5760   -0.5910   -1.6020 O.3    31  A31        -0.3306
    568  C3'       49.7420   -1.9710   -3.5060 C.3    31  A31         0.2161
    569  O3'       50.5760   -2.2150   -4.6430 O.3    31  A31        -0.2175
    570  C2'       50.2410   -2.7530   -2.2990 C.3    31  A31         0.2337
    571  O2'       51.6540   -2.7780   -2.2210 O.3    31  A31        -0.2155
    572  C1'       49.6520   -1.9310   -1.1500 C.3    31  A31         0.2409
    573  N1        46.8650   -5.3240    1.4790 N.ar   31  A31        -0.2040
    574  C2        48.1860   -5.0950    1.4130 C.ar   31  A31         0.2016
    575  N3        48.8500   -4.1780    0.7070 N.ar   31  A31        -0.2048
    576  C4        47.9930   -3.4240   -0.0040 C.ar   31  A31         0.1692
    577  C5        46.6150   -3.5360   -0.0400 C.ar   31  A31         0.1518
    578  C6        46.0360   -4.5410    0.7470 C.ar   31  A31         0.1919
    579  N6        44.7150   -4.7570    0.8110 N.pl3  31  A31        -0.1054
    580  N7        46.0670   -2.5760   -0.8750 N.ar   31  A31        -0.2193
    581  C8        47.1050   -1.9150   -1.3170 C.ar   31  A31         0.1816
    582  N9        48.3030   -2.3840   -0.8390 N.ar   31  A31        -0.2693
    583  OP1       47.0370    1.2670   -5.7030 O.2    31  A31        -0.5172
    584  OP2       45.2600   -0.0430   -4.3930 O.co2  31  A31        -0.4373
    585  P         49.2430   -8.8140   -7.1050 P.3    33  U33         0.1280
    586  C5'       47.9120  -10.8470   -6.0940 C.3    33  U33         0.1797
    587  O5'       47.9820   -9.4500   -6.3700 O.3    33  U33        -0.3259
    588  C4'       46.4700  -11.3010   -6.1150 C.3    33  U33         0.1801
    589  O4'       45.7370  -10.5620   -5.1030 O.3    33  U33        -0.3306
    590  C3'       45.7320  -10.9980   -7.4140 C.3    33  U33         0.2161
    591  O3'       45.9090  -12.0560   -8.3620 O.3    33  U33        -0.2175
    592  C2'       44.2770  -10.8950   -6.9640 C.3    33  U33         0.2338
    593  O2'       43.6190  -12.1420   -6.9220 O.3    33  U33        -0.2155
    594  C1'       44.4170  -10.3190   -5.5530 C.3    33  U33         0.2421
    595  N1        44.1680   -8.8750   -5.5400 N.ar   33  U33        -0.2534
    596  C2        42.8960   -8.4740   -5.2260 C.ar   33  U33         0.3546
    597  O2        42.0290   -9.2670   -4.9140 O.2    33  U33        -0.2443
    598  N3        42.6730   -7.1180   -5.2930 N.ar   33  U33        -0.1530
    599  C4        43.5890   -6.1410   -5.6310 C.ar   33  U33         0.2846
    600  O4        43.2310   -4.9570   -5.6700 O.2    33  U33        -0.2650
    601  C5        44.9070   -6.6380   -5.9200 C.ar   33  U33         0.0814
    602  C6        45.1450   -7.9580   -5.8590 C.ar   33  U33         0.0870
    603  OP1       50.0290   -9.9060   -7.7300 O.3    33  U33        -0.1955
    604  OP2       48.7480   -7.6830   -7.9380 O.co2  33  U33        -0.7863
    605  P         41.4420   -8.0670   -9.1430 P.3    35  A35         0.1280
    606  C5'       39.8480   -9.9300   -8.2520 C.3    35  A35         0.1795
    607  O5'       40.2030   -8.5530   -8.2690 O.3    35  A35        -0.3259
    608  C4'       38.5880  -10.1670   -7.4540 C.3    35  A35         0.1772
    609  O4'       38.2910  -11.5930   -7.5270 O.3    35  A35        -0.3307
    610  C3'       38.7220   -9.8490   -5.9630 C.3    35  A35         0.1860
    611  O3'       38.1410   -8.5750   -5.6780 O.3    35  A35        -0.3112
    612  C2'       37.9360  -10.9780   -5.3000 C.3    35  A35         0.2309
    613  O2'       36.5350  -10.7510   -5.2850 O.3    35  A35        -0.2156
    614  C1'       38.2700  -12.1390   -6.2280 C.3    35  A35         0.2408
    615  N1        40.8190  -16.0230   -4.0380 N.ar   35  A35        -0.2040
    616  C2        39.5120  -15.7230   -4.1130 C.ar   35  A35         0.2016
    617  N3        38.9140  -14.6830   -4.7040 N.ar   35  A35        -0.2048
    618  C4        39.8210  -13.8820   -5.2840 C.ar   35  A35         0.1692
    619  C5        41.1940  -14.0540   -5.3000 C.ar   35  A35         0.1518
    620  C6        41.7050  -15.1900   -4.6340 C.ar   35  A35         0.1919
    621  N6        43.0050  -15.4840   -4.5550 N.pl3  35  A35        -0.1054
    622  N7        41.8070  -13.0210   -5.9910 N.ar   35  A35        -0.2193
    623  C8        40.8090  -12.2600   -6.3720 C.ar   35  A35         0.1816
    624  N9        39.5800  -12.7240   -5.9770 N.ar   35  A35        -0.2693
    625  OP1       41.1890   -6.6710   -9.5920 O.3    35  A35        -0.1955
    626  OP2       42.6770   -8.3920   -8.3810 O.co2  35  A35        -0.7863
    627  P         38.8210   -7.6090   -4.5850 P.3    36  A36         0.2141
    628  C5'       36.9660   -8.2030   -2.8600 C.3    36  A36         0.1813
    629  O5'       38.3360   -8.2240   -3.2070 O.3    36  A36        -0.3114
    630  C4'       36.6520   -9.4020   -2.0100 C.3    36  A36         0.1801
    631  O4'       37.0220  -10.6160   -2.7290 O.3    36  A36        -0.3306
    632  C3'       37.4560   -9.5100   -0.7260 C.3    36  A36         0.2161
    633  O3'       36.9370   -8.6730    0.3010 O.3    36  A36        -0.2175
    634  C2'       37.3080  -10.9930   -0.4170 C.3    36  A36         0.2337
    635  O2'       36.0210  -11.3430    0.0690 O.3    36  A36        -0.2155
    636  C1'       37.5230  -11.5810   -1.8130 C.3    36  A36         0.2409
    637  N1        41.5180  -14.7640   -1.4020 N.ar   36  A36        -0.2040
    638  C2        40.2220  -14.8920   -1.0850 C.ar   36  A36         0.2016
    639  N3        39.2270  -14.0250   -1.2390 N.ar   36  A36        -0.2048
    640  C4        39.6730  -12.8890   -1.7990 C.ar   36  A36         0.1692
    641  C5        40.9700  -12.6040   -2.1800 C.ar   36  A36         0.1518
    642  C6        41.9350  -13.6050   -1.9610 C.ar   36  A36         0.1919
    643  N6        43.2300  -13.4720   -2.2700 N.pl3  36  A36        -0.1054
    644  N7        41.0550  -11.3220   -2.7040 N.ar   36  A36        -0.2193
    645  C8        39.8270  -10.8700   -2.6290 C.ar   36  A36         0.1816
    646  N9        38.9440  -11.7640   -2.0820 N.ar   36  A36        -0.2693
    647  OP1       38.2300   -6.2380   -4.7130 O.2    36  A36        -0.5172
    648  OP2       40.2820   -7.7930   -4.6950 O.co2  36  A36        -0.4373
    649  P         40.0030  -10.6460    6.6980 P.3    38  A38         0.1280
    650  C5'       41.5280  -12.6840    7.2470 C.3    38  A38         0.1797
    651  O5'       41.3190  -11.5120    6.4860 O.3    38  A38        -0.3259
    652  C4'       42.8890  -13.2400    6.9560 C.3    38  A38         0.1801
    653  O4'       43.0380  -13.3990    5.5240 O.3    38  A38        -0.3306
    654  C3'       44.0560  -12.3280    7.2720 C.3    38  A38         0.2161
    655  O3'       44.3180  -12.2440    8.6630 O.3    38  A38        -0.2175
    656  C2'       45.1680  -13.0010    6.4790 C.3    38  A38         0.2337
    657  O2'       45.6720  -14.1980    7.0410 O.3    38  A38        -0.2155
    658  C1'       44.4190  -13.3160    5.1880 C.3    38  A38         0.2409
    659  N1        47.7620  -10.9390    2.1030 N.ar   38  A38        -0.2040
    660  C2        47.8730  -12.0030    2.9220 C.ar   38  A38         0.2016
    661  N3        46.9520  -12.5740    3.7000 N.ar   38  A38        -0.2048
    662  C4        45.7730  -11.9340    3.5840 C.ar   38  A38         0.1692
    663  C5        45.4970  -10.8350    2.7900 C.ar   38  A38         0.1518
    664  C6        46.5650  -10.3200    2.0090 C.ar   38  A38         0.1919
    665  N6        46.4570   -9.2630    1.1930 N.pl3  38  A38        -0.1054
    666  N7        44.1700  -10.4480    2.9390 N.ar   38  A38        -0.2193
    667  C8        43.6850  -11.3080    3.8030 C.ar   38  A38         0.1816
    668  N9        44.6000  -12.2320    4.2330 N.ar   38  A38        -0.2693
    669  OP1       39.4630  -10.9850    8.0380 O.3    38  A38        -0.1955
    670  OP2       40.2950   -9.2340    6.3450 O.co2  38  A38        -0.7863
    671  P         52.9840   -2.7180    9.5380 P.3    41  U41         0.1280
    672  C5'       52.8690   -1.4400    7.2960 C.3    41  U41         0.1795
    673  O5'       53.2290   -1.4240    8.6520 O.3    41  U41        -0.3259
    674  C4'       52.7700   -0.0500    6.7430 C.3    41  U41         0.1772
    675  O4'       52.0230   -0.2120    5.5150 O.3    41  U41        -0.3307
    676  C3'       51.9940    0.9990    7.5370 C.3    41  U41         0.1860
    677  O3'       52.8530    1.8400    8.3000 O.3    41  U41        -0.3112
    678  C2'       51.3290    1.7910    6.4210 C.3    41  U41         0.2309
    679  O2'       52.2170    2.6030    5.6760 O.3    41  U41        -0.2156
    680  C1'       50.9140    0.6490    5.5160 C.3    41  U41         0.2420
    681  N1        49.7630   -0.0930    6.0370 N.ar   41  U41        -0.2534
    682  C2        48.5430    0.3700    5.6500 C.ar   41  U41         0.3546
    683  O2        48.4230    1.3380    4.9050 O.2    41  U41        -0.2443
    684  N3        47.4730   -0.3200    6.1580 N.ar   41  U41        -0.1530
    685  C4        47.5140   -1.4080    7.0030 C.ar   41  U41         0.2846
    686  O4        46.4580   -1.9240    7.3740 O.2    41  U41        -0.2650
    687  C5        48.8390   -1.8390    7.3620 C.ar   41  U41         0.0814
    688  C6        49.8900   -1.1820    6.8700 C.ar   41  U41         0.0870
    689  OP1       53.9130   -2.7200   10.6870 O.3    41  U41        -0.1955
    690  OP2       51.5260   -2.8130    9.7670 O.co2  41  U41        -0.7863
    691  P         52.3020    2.5230    9.6520 P.3    42  G42         0.2141
    692  C5'       51.5640    4.6060    8.2410 C.3    42  G42         0.1812
    693  O5'       51.2220    3.5790    9.1540 O.3    42  G42        -0.3114
    694  C4'       50.3070    5.1750    7.6060 C.3    42  G42         0.1773
    695  O4'       49.5700    4.0980    6.9490 O.3    42  G42        -0.3307
    696  C3'       49.2580    5.7560    8.5530 C.3    42  G42         0.1860
    697  O3'       49.5450    7.1020    8.9290 O.3    42  G42        -0.3112
    698  C2'       48.0230    5.7540    7.6640 C.3    42  G42         0.2309
    699  O2'       48.0720    6.8100    6.7470 O.3    42  G42        -0.2156
    700  C1'       48.1880    4.4300    6.9180 C.3    42  G42         0.2408
    701  N1        43.5350    2.6540    7.6540 N.ar   42  G42        -0.1709
    702  C2        43.9590    3.7860    6.9980 C.ar   42  G42         0.2606
    703  N2        43.0030    4.5580    6.4310 N.pl3  42  G42        -0.0859
    704  N3        45.2120    4.1430    6.8960 N.ar   42  G42        -0.1918
    705  C4        46.0340    3.2720    7.5050 C.ar   42  G42         0.1723
    706  C5        45.7190    2.1180    8.1950 C.ar   42  G42         0.1748
    707  C6        44.3590    1.7400    8.2930 C.ar   42  G42         0.3023
    708  O6        43.8700    0.7550    8.8450 O.2    42  G42        -0.2633
    709  N7        46.8700    1.5010    8.6780 N.ar   42  G42        -0.2173
    710  C8        47.8460    2.2760    8.2630 C.ar   42  G42         0.1817
    711  N9        47.4040    3.3630    7.5400 N.ar   42  G42        -0.2693
    712  OP1       53.3910    3.2950   10.2560 O.2    42  G42        -0.5172
    713  OP2       51.6480    1.4290   10.4300 O.co2  42  G42        -0.4373
    714  P         48.9330    7.6980   10.2980 P.3    43  G43         0.2141
    715  C5'       47.1880    8.9440    8.7980 C.3    43  G43         0.1812
    716  O5'       47.4400    8.1000    9.9130 O.3    43  G43        -0.3114
    717  C4'       45.7240    8.9500    8.4700 C.3    43  G43         0.1773
    718  O4'       45.2990    7.6300    8.0450 O.3    43  G43        -0.3307
    719  C3'       44.8510    9.2470    9.6650 C.3    43  G43         0.1860
    720  O3'       44.7860   10.6480    9.8160 O.3    43  G43        -0.3112
    721  C2'       43.5210    8.6410    9.2390 C.3    43  G43         0.2309
    722  O2'       42.8360    9.4740    8.3350 O.3    43  G43        -0.2156
    723  C1'       43.9840    7.3860    8.5010 C.3    43  G43         0.2408
    724  N1        41.2240    3.6090   10.4440 N.ar   43  G43        -0.1709
    725  C2        40.8180    4.6920    9.7110 C.ar   43  G43         0.2606
    726  N2        39.5040    4.7950    9.4690 N.pl3  43  G43        -0.0859
    727  N3        41.6380    5.6180    9.2530 N.ar   43  G43        -0.1918
    728  C4        42.9180    5.3800    9.6120 C.ar   43  G43         0.1723
    729  C5        43.4260    4.3320   10.3530 C.ar   43  G43         0.1748
    730  C6        42.5420    3.3380   10.8210 C.ar   43  G43         0.3023
    731  O6        42.8060    2.3140   11.4890 O.2    43  G43        -0.2633
    732  N7        44.7910    4.4680   10.5210 N.ar   43  G43        -0.2173
    733  C8        45.0850    5.5760    9.8890 C.ar   43  G43         0.1817
    734  N9        43.9990    6.1700    9.3070 N.ar   43  G43        -0.2693
    735  OP1       49.6470    8.9530   10.6470 O.2    43  G43        -0.5172
    736  OP2       48.9110    6.5800   11.2540 O.co2  43  G43        -0.4373
    737  P         44.5650   11.2780   11.2690 P.3    44  A44         0.2141
    738  C5'       42.0680   11.8490   10.7840 C.3    44  A44         0.1812
    739  O5'       43.0040   11.0670   11.5080 O.3    44  A44        -0.3114
    740  C4'       40.7440   11.1360   10.7150 C.3    44  A44         0.1773
    741  O4'       40.9900    9.7520   10.3950 O.3    44  A44        -0.3307
    742  C3'       40.0060   11.0590   12.0300 C.3    44  A44         0.1860
    743  O3'       39.2590   12.2450   12.2560 O.3    44  A44        -0.3112
    744  C2'       39.0990    9.8660   11.8100 C.3    44  A44         0.2309
    745  O2'       37.9790   10.2130   11.0250 O.3    44  A44        -0.2156
    746  C1'       40.0230    8.9390   11.0250 C.3    44  A44         0.2408
    747  N1        39.8650    4.3700   13.3910 N.ar   44  A44        -0.2040
    748  C2        38.9550    5.0520   12.6830 C.ar   44  A44         0.2016
    749  N3        39.0550    6.2380   12.1040 N.ar   44  A44        -0.2048
    750  C4        40.2710    6.7660   12.3060 C.ar   44  A44         0.1692
    751  C5        41.3200    6.1940   13.0040 C.ar   44  A44         0.1518
    752  C6        41.0910    4.9180   13.5700 C.ar   44  A44         0.1919
    753  N6        42.0080    4.2140   14.2650 N.pl3  44  A44        -0.1054
    754  N7        42.4210    7.0340   12.9950 N.ar   44  A44        -0.2193
    755  C8        42.0200    8.0790   12.3070 C.ar   44  A44         0.1816
    756  N9        40.7380    7.9770   11.8510 N.ar   44  A44        -0.2693
    757  OP1       44.8540   12.7310   11.1170 O.2    44  A44        -0.5172
    758  OP2       45.3090   10.4720   12.2640 O.co2  44  A44        -0.4373
    759  P         39.2100   12.8640   13.7370 P.3    45  G45         0.2141
    760  C5'       37.2770   11.2290   14.3940 C.3    45  G45         0.1813
    761  O5'       38.6190   11.6600   14.5930 O.3    45  G45        -0.3114
    762  C4'       36.9800   10.0570   15.2770 C.3    45  G45         0.1801
    763  O4'       37.7740    8.9310   14.8280 O.3    45  G45        -0.3306
    764  C3'       37.4080   10.2630   16.7170 C.3    45  G45         0.2161
    765  O3'       36.3330   10.8550   17.4220 O.3    45  G45        -0.2175
    766  C2'       37.6270    8.8360   17.1910 C.3    45  G45         0.2337
    767  O2'       36.4070    8.2260   17.5130 O.3    45  G45        -0.2155
    768  C1'       38.2010    8.1630   15.9410 C.3    45  G45         0.2409
    769  N1        42.3830    5.5290   17.2060 N.ar   45  G45        -0.1709
    770  C2        41.0520    5.2130   17.3920 C.ar   45  G45         0.2606
    771  N2        40.8080    4.0560   18.0280 N.pl3  45  G45        -0.0859
    772  N3        40.0380    5.9730   16.9940 N.ar   45  G45        -0.1918
    773  C4        40.4630    7.0870   16.3940 C.ar   45  G45         0.1723
    774  C5        41.7590    7.4980   16.1490 C.ar   45  G45         0.1748
    775  C6        42.8430    6.6760   16.5850 C.ar   45  G45         0.3023
    776  O6        44.0800    6.8840   16.4870 O.2    45  G45        -0.2633
    777  N7        41.7700    8.7360   15.5110 N.ar   45  G45        -0.2173
    778  C8        40.5090    9.0490   15.3910 C.ar   45  G45         0.1817
    779  N9        39.6610    8.1000   15.9100 N.ar   45  G45        -0.2693
    780  OP1       38.2340   13.9680   13.7870 O.2    45  G45        -0.5172
    781  OP2       40.6300   13.1140   14.0950 O.co2  45  G45        -0.4373
    782  P         34.2480   12.6300   23.7770 P.3    47  U47         0.1280
    783  C5'       35.1850   14.7110   25.0790 C.3    47  U47         0.1795
    784  O5'       34.2160   13.6570   24.9950 O.3    47  U47        -0.3259
    785  C4'       35.3160   15.1920   26.5120 C.3    47  U47         0.1772
    786  O4'       34.0800   15.8290   26.9600 O.3    47  U47        -0.3307
    787  C3'       35.5880   14.0970   27.5360 C.3    47  U47         0.1860
    788  O3'       36.3680   14.6800   28.5480 O.3    47  U47        -0.3112
    789  C2'       34.1950   13.7600   28.0450 C.3    47  U47         0.2309
    790  O2'       34.1390   13.1490   29.3230 O.3    47  U47        -0.2156
    791  C1'       33.5800   15.1470   28.0940 C.3    47  U47         0.2420
    792  N1        32.1290   15.0540   27.9880 N.ar   47  U47        -0.2534
    793  C2        31.4000   15.7110   28.9340 C.ar   47  U47         0.3546
    794  O2        31.9190   16.3800   29.8130 O.2    47  U47        -0.2443
    795  N3        30.0450   15.5540   28.8230 N.ar   47  U47        -0.1530
    796  C4        29.3680   14.8160   27.8700 C.ar   47  U47         0.2846
    797  O4        28.1380   14.7410   27.9210 O.2    47  U47        -0.2650
    798  C5        30.2080   14.1740   26.9110 C.ar   47  U47         0.0814
    799  C6        31.5270   14.3160   27.0000 C.ar   47  U47         0.0870
    800  OP1       33.5150   11.4070   24.1580 O.3    47  U47        -0.1955
    801  OP2       33.8490   13.3820   22.5500 O.co2  47  U47        -0.7863
    802  P         37.9570   14.6990   28.3800 P.3    48  C48         0.2141
    803  C5'       38.1910   12.8190   30.1420 C.3    48  C48         0.1813
    804  O5'       38.3770   13.2280   28.8210 O.3    48  C48        -0.3114
    805  C4'       38.7640   11.4470   30.3390 C.3    48  C48         0.1801
    806  O4'       39.9510   11.2690   29.5090 O.3    48  C48        -0.3306
    807  C3'       39.1940   11.1850   31.7680 C.3    48  C48         0.2161
    808  O3'       38.7780    9.8580   32.0660 O.3    48  C48        -0.2175
    809  C2'       40.7190   11.3610   31.6890 C.3    48  C48         0.2338
    810  O2'       41.4690   10.6370   32.6330 O.3    48  C48        -0.2155
    811  C1'       41.0220   10.7960   30.3070 C.3    48  C48         0.2421
    812  N1        42.2770   11.3200   29.7370 N.ar   48  C48        -0.2535
    813  C2        43.4150   10.5330   29.7400 C.ar   48  C48         0.3532
    814  O2        43.3480    9.4040   30.2240 O.2    48  C48        -0.2443
    815  N3        44.5690   11.0400   29.2200 N.ar   48  C48        -0.1739
    816  C4        44.5810   12.2920   28.7340 C.ar   48  C48         0.1759
    817  N4        45.7370   12.8130   28.2570 N.pl3  48  C48        -0.1070
    818  C5        43.4210   13.0890   28.7200 C.ar   48  C48         0.0566
    819  C6        42.3160   12.5720   29.2280 C.ar   48  C48         0.0850
    820  OP1       38.4890   15.7020   29.3260 O.3    48  C48        -0.4373
    821  OP2       38.2310   14.8230   26.9250 O.co2  48  C48        -0.5172
    822  P         35.0680   13.9080   32.7840 P.3    50  U50         0.1280
    823  C5'       32.6400   14.7920   33.3080 C.3    50  U50         0.1795
    824  O5'       34.0160   14.7030   33.6730 O.3    50  U50        -0.3259
    825  C4'       31.8610   15.5520   34.3680 C.3    50  U50         0.1772
    826  O4'       31.5620   14.6700   35.4870 O.3    50  U50        -0.3307
    827  C3'       32.5590   16.7310   35.0400 C.3    50  U50         0.1860
    828  O3'       32.4230   17.9200   34.2890 O.3    50  U50        -0.3112
    829  C2'       31.7220   16.8660   36.2960 C.3    50  U50         0.2309
    830  O2'       30.4480   17.3720   35.9620 O.3    50  U50        -0.2156
    831  C1'       31.5860   15.4050   36.6890 C.3    50  U50         0.2420
    832  N1        32.7210   14.9410   37.4880 N.ar   50  U50        -0.2534
    833  C2        32.7370   15.3050   38.8220 C.ar   50  U50         0.3546
    834  O2        31.8960   16.0550   39.3170 O.2    50  U50        -0.2443
    835  N3        33.7550   14.7620   39.5640 N.ar   50  U50        -0.1530
    836  C4        34.7410   13.9320   39.1200 C.ar   50  U50         0.2846
    837  O4        35.5950   13.5320   39.9210 O.2    50  U50        -0.2650
    838  C5        34.6880   13.6350   37.7040 C.ar   50  U50         0.0814
    839  C6        33.7070   14.1500   36.9560 C.ar   50  U50         0.0870
    840  OP1       35.1940   14.5990   31.4990 O.3    50  U50        -0.1955
    841  OP2       36.2620   13.7320   33.7010 O.co2  50  U50        -0.7863
    842  P         33.5810   19.0330   34.3430 P.3    51  G51         0.2141
    843  C5'       31.9650   20.1110   36.0870 C.3    51  G51         0.1812
    844  O5'       33.2920   19.7900   35.7000 O.3    51  G51        -0.3114
    845  C4'       31.9670   20.7050   37.4780 C.3    51  G51         0.1773
    846  O4'       31.8610   19.6450   38.4690 O.3    51  G51        -0.3307
    847  C3'       33.2160   21.4900   37.8590 C.3    51  G51         0.1860
    848  O3'       33.1230   22.8570   37.4600 O.3    51  G51        -0.3112
    849  C2'       33.2120   21.3700   39.3710 C.3    51  G51         0.2309
    850  O2'       32.2700   22.2070   39.9390 O.3    51  G51        -0.2156
    851  C1'       32.6960   19.9430   39.5720 C.3    51  G51         0.2408
    852  N1        36.2110   17.7990   42.4940 N.ar   51  G51        -0.1709
    853  C2        35.1760   18.6240   42.8400 C.ar   51  G51         0.2606
    854  N2        35.0850   18.9530   44.1330 N.pl3  51  G51        -0.0859
    855  N3        34.2900   19.0890   41.9820 N.ar   51  G51        -0.1918
    856  C4        34.5330   18.6630   40.7310 C.ar   51  G51         0.1723
    857  C5        35.5460   17.8440   40.2810 C.ar   51  G51         0.1748
    858  C6        36.4780   17.3460   41.2090 C.ar   51  G51         0.3023
    859  O6        37.4490   16.5850   41.0040 O.2    51  G51        -0.2633
    860  N7        35.4490   17.6500   38.9060 N.ar   51  G51        -0.2173
    861  C8        34.4030   18.3580   38.5510 C.ar   51  G51         0.1817
    862  N9        33.8150   19.0120   39.6070 N.ar   51  G51        -0.2693
    863  OP1       33.3240   19.8720   33.1730 O.2    51  G51        -0.5172
    864  OP2       34.9190   18.4010   34.5050 O.co2  51  G51        -0.4373
    865  P         34.4750   23.7230   37.1820 P.3    52  U52         0.2141
    866  C5'       34.2770   24.6990   39.5710 C.3    52  U52         0.1812
    867  O5'       35.0330   23.9580   38.6390 O.3    52  U52        -0.3114
    868  C4'       34.8480   24.5230   40.9450 C.3    52  U52         0.1773
    869  O4'       34.7480   23.1380   41.3190 O.3    52  U52        -0.3307
    870  C3'       36.3400   24.7620   41.0430 C.3    52  U52         0.1860
    871  O3'       36.6210   26.1540   41.1350 O.3    52  U52        -0.3112
    872  C2'       36.6270   24.0930   42.3690 C.3    52  U52         0.2309
    873  O2'       36.1700   24.8940   43.4390 O.3    52  U52        -0.2156
    874  C1'       35.7930   22.8160   42.2310 C.3    52  U52         0.2420
    875  N1        36.6440   21.7630   41.6440 N.ar   52  U52        -0.2534
    876  C2        37.5370   21.1470   42.4710 C.ar   52  U52         0.3546
    877  O2        37.6160   21.4060   43.6350 O.2    52  U52        -0.2443
    878  N3        38.3520   20.2240   41.8820 N.ar   52  U52        -0.1530
    879  C4        38.3740   19.8810   40.5610 C.ar   52  U52         0.2846
    880  O4        39.2100   19.0670   40.1580 O.2    52  U52        -0.2650
    881  C5        37.4030   20.5620   39.7570 C.ar   52  U52         0.0814
    882  C6        36.5850   21.4440   40.3210 C.ar   52  U52         0.0870
    883  OP1       34.0630   25.0210   36.6080 O.3    52  U52        -0.4373
    884  OP2       35.4660   22.9050   36.4460 O.co2  52  U52        -0.5172
    885  P         38.0930   26.7000   40.7690 P.3    53  G53         0.2141
    886  C5'       38.8580   26.3950   43.2550 C.3    53  G53         0.1813
    887  O5'       39.0540   26.1070   41.8840 O.3    53  G53        -0.3114
    888  C4'       39.8090   25.5650   44.0820 C.3    53  G53         0.1801
    889  O4'       39.5140   24.1650   43.8320 O.3    53  G53        -0.3306
    890  C3'       41.3000   25.6480   43.7380 C.3    53  G53         0.2161
    891  O3'       41.9220   26.7800   44.3560 O.3    53  G53        -0.2175
    892  C2'       41.8290   24.3510   44.3470 C.3    53  G53         0.2337
    893  O2'       42.0630   24.4010   45.7340 O.3    53  G53        -0.2155
    894  C1'       40.6740   23.3830   44.0930 C.3    53  G53         0.2409
    895  N1        43.5910   19.7600   42.0740 N.ar   53  G53        -0.1709
    896  C2        43.6070   20.2870   43.3590 C.ar   53  G53         0.2606
    897  N2        44.5270   19.7620   44.1970 N.pl3  53  G53        -0.0859
    898  N3        42.7780   21.2400   43.7800 N.ar   53  G53        -0.1918
    899  C4        41.9210   21.6210   42.8000 C.ar   53  G53         0.1723
    900  C5        41.8290   21.1550   41.5000 C.ar   53  G53         0.1748
    901  C6        42.7200   20.1390   41.0630 C.ar   53  G53         0.3023
    902  O6        42.7870   19.5980   39.9480 O.2    53  G53        -0.2633
    903  N7        40.8530   21.8400   40.8030 N.ar   53  G53        -0.2173
    904  C8        40.3630   22.6820   41.6800 C.ar   53  G53         0.1817
    905  N9        40.9660   22.5920   42.9060 N.ar   53  G53        -0.2693
    906  OP1       38.0430   28.1750   40.8960 O.3    53  G53        -0.4373
    907  OP2       38.5010   26.0850   39.4920 O.co2  53  G53        -0.5172
    908  P         52.6420   28.1680   40.4890 P.3    56  C56         0.1280
    909  C5'       52.3820   29.3520   38.1930 C.3    56  C56         0.1795
    910  O5'       52.5860   28.1490   38.9010 O.3    56  C56        -0.3259
    911  C4'       52.4820   29.1180   36.7140 C.3    56  C56         0.1772
    912  O4'       53.8560   28.8290   36.3770 O.3    56  C56        -0.3307
    913  C3'       51.7010   27.9160   36.1990 C.3    56  C56         0.1860
    914  O3'       50.3680   28.3320   35.9440 O.3    56  C56        -0.3112
    915  C2'       52.4360   27.6130   34.9060 C.3    56  C56         0.2309
    916  O2'       52.0520   28.4370   33.8010 O.3    56  C56        -0.2156
    917  C1'       53.8870   27.8810   35.3200 C.3    56  C56         0.2420
    918  N1        54.5300   26.6620   35.8310 N.ar   56  C56        -0.2535
    919  C2        54.9810   25.7250   34.9170 C.ar   56  C56         0.3532
    920  O2        54.7850   25.9140   33.7390 O.2    56  C56        -0.2443
    921  N3        55.6130   24.6330   35.3440 N.ar   56  C56        -0.1739
    922  C4        55.7950   24.4290   36.6390 C.ar   56  C56         0.1759
    923  N4        56.4490   23.3230   36.9870 N.pl3  56  C56        -0.1070
    924  C5        55.3210   25.3510   37.6220 C.ar   56  C56         0.0566
    925  C6        54.6940   26.4550   37.1710 C.ar   56  C56         0.0850
    926  OP1       54.0190   28.5780   40.9080 O.3    56  C56        -0.1955
    927  OP2       51.4600   28.9810   40.9070 O.co2  56  C56        -0.7863
    928  P         49.1330   27.3970   36.3960 P.3    57  G57         0.2141
    929  C5'       49.1160   26.2110   34.0800 C.3    57  G57         0.1813
    930  O5'       49.2850   26.1060   35.4770 O.3    57  G57        -0.3114
    931  C4'       49.5990   24.9550   33.3750 C.3    57  G57         0.1801
    932  O4'       51.0320   24.7420   33.5690 O.3    57  G57        -0.3306
    933  C3'       48.9670   23.6510   33.8300 C.3    57  G57         0.2161
    934  O3'       47.7200   23.5140   33.1830 O.3    57  G57        -0.2175
    935  C2'       49.9470   22.6350   33.2820 C.3    57  G57         0.2337
    936  O2'       49.7590   22.4920   31.8840 O.3    57  G57        -0.2155
    937  C1'       51.2880   23.3440   33.5440 C.3    57  G57         0.2409
    938  N1        54.1530   19.9440   35.9850 N.ar   57  G57        -0.1709
    939  C2        53.6330   19.9300   34.7040 C.ar   57  G57         0.2606
    940  N2        53.9150   18.8700   33.9450 N.pl3  57  G57        -0.0859
    941  N3        52.8610   20.8910   34.1940 N.ar   57  G57        -0.1918
    942  C4        52.6150   21.8620   35.0760 C.ar   57  G57         0.1723
    943  C5        53.0400   21.9760   36.3830 C.ar   57  G57         0.1748
    944  C6        53.8980   20.9360   36.9270 C.ar   57  G57         0.3023
    945  O6        54.3750   20.8410   38.0710 O.2    57  G57        -0.2633
    946  N7        52.5460   23.1490   36.9620 N.ar   57  G57        -0.2173
    947  C8        51.8510   23.7150   36.0010 C.ar   57  G57         0.1817
    948  N9        51.8770   22.9880   34.8250 N.ar   57  G57        -0.2693
    949  OP1       47.9160   28.1500   35.9690 O.2    57  G57        -0.5172
    950  OP2       49.2750   26.9330   37.7930 O.co2  57  G57        -0.4373
    951  P         45.2620   16.6450   31.7640 P.3    59  U59         0.1280
    952  C5'       43.3840   14.9170   32.4290 C.3    59  U59         0.1795
    953  O5'       44.7300   15.1590   31.9830 O.3    59  U59        -0.3259
    954  C4'       43.2990   13.5400   33.0600 C.3    59  U59         0.1772
    955  O4'       43.9390   12.5940   32.1480 O.3    59  U59        -0.3307
    956  C3'       44.0930   13.4110   34.3680 C.3    59  U59         0.1860
    957  O3'       43.2980   13.8400   35.5170 O.3    59  U59        -0.3112
    958  C2'       44.4510   11.9180   34.3930 C.3    59  U59         0.2309
    959  O2'       43.4280   11.1470   34.9900 O.3    59  U59        -0.2156
    960  C1'       44.5620   11.5670   32.8910 C.3    59  U59         0.2420
    961  N1        45.9500   11.3700   32.3950 N.ar   59  U59        -0.2534
    962  C2        46.6020   10.2490   32.8480 C.ar   59  U59         0.3546
    963  O2        46.0570    9.4230   33.5640 O.2    59  U59        -0.2443
    964  N3        47.9100   10.1030   32.4260 N.ar   59  U59        -0.1530
    965  C4        48.6130   10.9470   31.5930 C.ar   59  U59         0.2846
    966  O4        49.7780   10.6560   31.2950 O.2    59  U59        -0.2650
    967  C5        47.8670   12.1010   31.1370 C.ar   59  U59         0.0814
    968  C6        46.5840   12.2610   31.5400 C.ar   59  U59         0.0870
    969  OP1       46.5400   16.5060   31.0390 O.3    59  U59        -0.1955
    970  OP2       44.1270   17.3680   31.1340 O.co2  59  U59        -0.7863
    971  P         44.0310   14.4920   36.8150 P.3    60  C60         0.2141
    972  C5'       44.7500   12.1630   37.8640 C.3    60  C60         0.1812
    973  O5'       45.1140   13.4090   37.2510 O.3    60  C60        -0.3114
    974  C4'       46.0130   11.3660   38.1890 C.3    60  C60         0.1773
    975  O4'       46.8130   11.2570   36.9660 O.3    60  C60        -0.3307
    976  C3'       46.9260   12.0360   39.2000 C.3    60  C60         0.1860
    977  O3'       47.6490   11.0540   39.9310 O.3    60  C60        -0.3112
    978  C2'       47.8710   12.8070   38.3100 C.3    60  C60         0.2309
    979  O2'       49.0930   13.1090   38.9190 O.3    60  C60        -0.2156
    980  C1'       48.1000   11.7830   37.2030 C.3    60  C60         0.2420
    981  N1        48.5880   12.4140   35.9720 N.ar   60  C60        -0.2535
    982  C2        49.7140   11.8660   35.3420 C.ar   60  C60         0.3532
    983  O2        50.2510   10.8340   35.8340 O.2    60  C60        -0.2443
    984  N3        50.1980   12.4620   34.2360 N.ar   60  C60        -0.1739
    985  C4        49.6170   13.5730   33.7500 C.ar   60  C60         0.1759
    986  N4        50.1740   14.1460   32.6910 N.pl3  60  C60        -0.1070
    987  C5        48.4600   14.1430   34.3470 C.ar   60  C60         0.0566
    988  C6        47.9780   13.5330   35.4570 C.ar   60  C60         0.0850
    989  OP1       43.0350   14.7140   37.8760 O.3    60  C60        -0.4373
    990  OP2       44.8780   15.6320   36.3400 O.co2  60  C60        -0.5172
    991  P         47.0720   10.5650   41.3320 P.3    61  C61         0.2141
    992  C5'       48.4960   12.0960   42.9360 C.3    61  C61         0.1812
    993  O5'       47.2430   11.8240   42.3020 O.3    61  C61        -0.3114
    994  C4'       48.3930   13.3530   43.7870 C.3    61  C61         0.1773
    995  O4'       48.5620   14.5180   42.9390 O.3    61  C61        -0.3307
    996  C3'       47.0420   13.5730   44.4410 C.3    61  C61         0.1860
    997  O3'       46.9500   12.8190   45.6600 O.3    61  C61        -0.3112
    998  C2'       47.0580   15.0770   44.6710 C.3    61  C61         0.2309
    999  O2'       47.8820   15.4120   45.7670 O.3    61  C61        -0.2156
   1000  C1'       47.7470   15.5820   43.4040 C.3    61  C61         0.2420
   1001  N1        46.8500   15.9920   42.3020 N.ar   61  C61        -0.2535
   1002  C2        46.1010   17.1510   42.4370 C.ar   61  C61         0.3532
   1003  O2        46.1840   17.7970   43.4890 O.2    61  C61        -0.2443
   1004  N3        45.2960   17.5430   41.4230 N.ar   61  C61        -0.1739
   1005  C4        45.2200   16.7990   40.3130 C.ar   61  C61         0.1759
   1006  N4        44.4160   17.2030   39.3380 N.pl3  61  C61        -0.1070
   1007  C5        45.9690   15.6040   40.1570 C.ar   61  C61         0.0566
   1008  C6        46.7670   15.2440   41.1670 C.ar   61  C61         0.0850
   1009  OP1       47.9680    9.4680   41.7250 O.3    61  C61        -0.4373
   1010  OP2       45.6110   10.3500   41.2440 O.co2  61  C61        -0.5172
   1011  P         45.5030   12.4310   46.2590 P.3    62  A62         0.2141
   1012  C5'       45.4130   14.4590   47.9240 C.3    62  A62         0.1812
   1013  O5'       44.9120   13.8270   46.7580 O.3    62  A62        -0.3114
   1014  C4'       44.5710   15.6590   48.2570 C.3    62  A62         0.1773
   1015  O4'       44.6610   16.6360   47.1720 O.3    62  A62        -0.3307
   1016  C3'       43.0860   15.3690   48.3200 C.3    62  A62         0.1860
   1017  O3'       42.7980   14.8500   49.5930 O.3    62  A62        -0.3112
   1018  C2'       42.5090   16.7620   48.1100 C.3    62  A62         0.2309
   1019  O2'       42.7660   17.6270   49.1930 O.3    62  A62        -0.2156
   1020  C1'       43.3980   17.2580   46.9870 C.3    62  A62         0.2408
   1021  N1        40.3330   18.7000   43.1320 N.ar   62  A62        -0.2040
   1022  C2        40.4270   19.1060   44.4100 C.ar   62  A62         0.2016
   1023  N3        41.1920   18.6410   45.3860 N.ar   62  A62        -0.2048
   1024  C4        41.9470   17.6210   44.9450 C.ar   62  A62         0.1692
   1025  C5        41.9550   17.0820   43.6670 C.ar   62  A62         0.1518
   1026  C6        41.1000   17.6670   42.7220 C.ar   62  A62         0.1919
   1027  N6        41.0000   17.2590   41.4410 N.pl3  62  A62        -0.1054
   1028  N7        42.8870   16.0570   43.5760 N.ar   62  A62        -0.2193
   1029  C8        43.4180   16.0080   44.7760 C.ar   62  A62         0.1816
   1030  N9        42.9280   16.9500   45.6390 N.ar   62  A62        -0.2693
   1031  OP1       45.6830   11.5520   47.4190 O.3    62  A62        -0.4373
   1032  OP2       44.6450   11.9680   45.1320 O.co2  62  A62        -0.5172
   1033  P         41.4830   13.9520   49.8240 P.3    63  C63         0.2141
   1034  C5'       39.8840   15.7880   50.7030 C.3    63  C63         0.1812
   1035  O5'       40.2700   14.9510   49.6310 O.3    63  C63        -0.3114
   1036  C4'       38.7970   16.7210   50.2620 C.3    63  C63         0.1773
   1037  O4'       39.2430   17.3910   49.0510 O.3    63  C63        -0.3307
   1038  C3'       37.5030   16.0560   49.8330 C.3    63  C63         0.1860
   1039  O3'       36.6650   15.7270   50.9450 O.3    63  C63        -0.3112
   1040  C2'       36.8970   17.1570   48.9830 C.3    63  C63         0.2309
   1041  O2'       36.3970   18.2290   49.7720 O.3    63  C63        -0.2156
   1042  C1'       38.1260   17.6340   48.2070 C.3    63  C63         0.2420
   1043  N1        38.3440   16.9550   46.9080 N.ar   63  C63        -0.2535
   1044  C2        37.6610   17.4180   45.7950 C.ar   63  C63         0.3532
   1045  O2        36.8800   18.3830   45.9440 O.2    63  C63        -0.2443
   1046  N3        37.8550   16.8010   44.5810 N.ar   63  C63        -0.1739
   1047  C4        38.6980   15.7560   44.5010 C.ar   63  C63         0.1759
   1048  N4        38.8840   15.1700   43.3290 N.pl3  63  C63        -0.1070
   1049  C5        39.3980   15.2710   45.6340 C.ar   63  C63         0.0566
   1050  C6        39.1990   15.8950   46.8030 C.ar   63  C63         0.0850
   1051  OP1       41.5960   13.6040   51.2450 O.3    63  C63        -0.4373
   1052  OP2       41.3520   12.8820   48.8160 O.co2  63  C63        -0.5172
   1053  P         35.6630   14.4590   50.8510 P.3    64  A64         0.2141
   1054  C5'       33.8100   16.1760   50.3140 C.3    64  A64         0.1812
   1055  O5'       34.5030   15.0050   49.9310 O.3    64  A64        -0.3114
   1056  C4'       32.8210   16.5670   49.2570 C.3    64  A64         0.1773
   1057  O4'       33.5210   17.2290   48.1680 O.3    64  A64        -0.3307
   1058  C3'       32.0880   15.4320   48.5650 C.3    64  A64         0.1860
   1059  O3'       31.0430   14.8920   49.3880 O.3    64  A64        -0.3112
   1060  C2'       31.6000   16.1520   47.3130 C.3    64  A64         0.2309
   1061  O2'       30.5640   17.0820   47.5410 O.3    64  A64        -0.2156
   1062  C1'       32.8530   16.9460   46.9430 C.3    64  A64         0.2408
   1063  N1        33.8040   15.3050   42.2360 N.ar   64  A64        -0.2040
   1064  C2        32.9220   16.1780   42.7250 C.ar   64  A64         0.2016
   1065  N3        32.7420   16.5700   43.9760 N.ar   64  A64        -0.2048
   1066  C4        33.6110   15.9490   44.7860 C.ar   64  A64         0.1692
   1067  C5        34.5730   15.0380   44.4350 C.ar   64  A64         0.1518
   1068  C6        34.6640   14.7090   43.0870 C.ar   64  A64         0.1919
   1069  N6        35.5520   13.8430   42.6080 N.pl3  64  A64        -0.1054
   1070  N7        35.3030   14.6370   45.5420 N.ar   64  A64        -0.2193
   1071  C8        34.7670   15.3110   46.5220 C.ar   64  A64         0.1816
   1072  N9        33.7280   16.1110   46.1330 N.ar   64  A64        -0.2693
   1073  OP1       35.0650   14.2220   52.1840 O.3    64  A64        -0.4373
   1074  OP2       36.3920   13.3570   50.1840 O.co2  64  A64        -0.5172
   1075  P         30.6980   13.3120   49.3160 P.3    65  G65         0.2141
   1076  C5'       28.9380   14.1510   47.5890 C.3    65  G65         0.1812
   1077  O5'       29.8960   13.1780   47.9500 O.3    65  G65        -0.3114
   1078  C4'       28.7100   14.1460   46.0980 C.3    65  G65         0.1773
   1079  O4'       29.8790   14.6610   45.4190 O.3    65  G65        -0.3307
   1080  C3'       28.4710   12.8180   45.3920 C.3    65  G65         0.1860
   1081  O3'       27.1290   12.3830   45.5510 O.3    65  G65        -0.3112
   1082  C2'       28.6790   13.2450   43.9530 C.3    65  G65         0.2309
   1083  O2'       27.6080   14.0170   43.4780 O.3    65  G65        -0.2156
   1084  C1'       29.9010   14.1580   44.0920 C.3    65  G65         0.2408
   1085  N1        32.7810   11.7130   40.7690 N.ar   65  G65        -0.1709
   1086  C2        31.6220   12.4390   40.5740 C.ar   65  G65         0.2606
   1087  N2        31.1750   12.5410   39.3200 N.pl3  65  G65        -0.0859
   1088  N3        30.9550   13.0250   41.5380 N.ar   65  G65        -0.1918
   1089  C4        31.5390   12.8330   42.7380 C.ar   65  G65         0.1723
   1090  C5        32.6780   12.1360   43.0440 C.ar   65  G65         0.1748
   1091  C6        33.3960   11.5090   42.0020 C.ar   65  G65         0.3023
   1092  O6        34.4470   10.8470   42.0760 O.2    65  G65        -0.2633
   1093  N7        32.9560   12.2210   44.4000 N.ar   65  G65        -0.2173
   1094  C8        31.9950   12.9570   44.8750 C.ar   65  G65         0.1817
   1095  N9        31.1060   13.3560   43.9180 N.ar   65  G65        -0.2693
   1096  OP1       29.7560   12.9650   50.4110 O.3    65  G65        -0.4373
   1097  OP2       31.9490   12.5370   49.1680 O.co2  65  G65        -0.5172
   1098  P         26.7750   10.8110   45.4550 P.3    66  A66         0.2141
   1099  C5'       25.9570   11.0810   42.9920 C.3    66  A66         0.1812
   1100  O5'       26.8720   10.4940   43.8990 O.3    66  A66        -0.3114
   1101  C4'       26.3270   10.7180   41.5830 C.3    66  A66         0.1773
   1102  O4'       27.6970   11.1160   41.3350 O.3    66  A66        -0.3307
   1103  C3'       26.3550    9.2370   41.3040 C.3    66  A66         0.1860
   1104  O3'       25.0410    8.7530   41.0830 O.3    66  A66        -0.3112
   1105  C2'       27.2220    9.1920   40.0560 C.3    66  A66         0.2309
   1106  O2'       26.5540    9.6210   38.8860 O.3    66  A66        -0.2156
   1107  C1'       28.2920   10.2240   40.4070 C.3    66  A66         0.2408
   1108  N1        32.7590    7.6540   39.7650 N.ar   66  A66        -0.2040
   1109  C2        31.7760    7.9650   38.9030 C.ar   66  A66         0.2016
   1110  N3        30.6320    8.6180   39.1250 N.ar   66  A66        -0.2048
   1111  C4        30.5290    8.9780   40.4160 C.ar   66  A66         0.1692
   1112  C5        31.4490    8.7150   41.4170 C.ar   66  A66         0.1518
   1113  C6        32.6130    8.0120   41.0530 C.ar   66  A66         0.1919
   1114  N6        33.5550    7.6730   41.9100 N.pl3  66  A66        -0.1054
   1115  N7        31.0030    9.1980   42.6330 N.ar   66  A66        -0.2193
   1116  C8        29.8480    9.7570   42.3480 C.ar   66  A66         0.1816
   1117  N9        29.5020    9.6720   41.0240 N.ar   66  A66        -0.2693
   1118  OP1       25.3690   10.6230   45.8810 O.2    66  A66        -0.5172
   1119  OP2       27.8490   10.0760   46.1520 O.co2  66  A66        -0.4373
   1120  P         24.6610    7.2510   41.5130 P.3    67  A67         0.2141
   1121  C5'       24.9790    6.5120   39.0510 C.3    67  A67         0.1812
   1122  O5'       25.3670    6.3820   40.4070 O.3    67  A67        -0.3114
   1123  C4'       25.9240    5.7360   38.1840 C.3    67  A67         0.1773
   1124  O4'       27.2300    6.3500   38.3010 O.3    67  A67        -0.3307
   1125  C3'       26.1690    4.3250   38.6770 C.3    67  A67         0.1860
   1126  O3'       25.2150    3.4450   38.1220 O.3    67  A67        -0.3112
   1127  C2'       27.5130    4.0220   38.0480 C.3    67  A67         0.2309
   1128  O2'       27.3470    3.7910   36.6590 O.3    67  A67        -0.2156
   1129  C1'       28.2360    5.3450   38.2820 C.3    67  A67         0.2408
   1130  N1        32.6660    4.1210   40.6550 N.ar   67  A67        -0.2040
   1131  C2        32.2330    3.9540   39.3980 C.ar   67  A67         0.2016
   1132  N3        31.0620    4.3050   38.8430 N.ar   67  A67        -0.2048
   1133  C4        30.2640    4.9000   39.7450 C.ar   67  A67         0.1692
   1134  C5        30.5580    5.1310   41.0740 C.ar   67  A67         0.1518
   1135  C6        31.8390    4.7120   41.5380 C.ar   67  A67         0.1919
   1136  N6        32.2690    4.8650   42.7820 N.pl3  67  A67        -0.1054
   1137  N7        29.4840    5.7250   41.7130 N.ar   67  A67        -0.2193
   1138  C8        28.5690    5.8370   40.7670 C.ar   67  A67         0.1816
   1139  N9        28.9790    5.3670   39.5500 N.ar   67  A67        -0.2693
   1140  OP1       23.2060    7.0840   41.2880 O.2    67  A67        -0.5172
   1141  OP2       25.2390    6.9400   42.8490 O.co2  67  A67        -0.4373
   1142  P         24.9090    2.0460   38.8480 P.3    68  U68         0.2141
   1143  C5'       26.4240    0.8010   37.1280 C.3    68  U68         0.1812
   1144  O5'       26.1390    1.1120   38.4670 O.3    68  U68        -0.3114
   1145  C4'       27.7180    0.0460   37.0630 C.3    68  U68         0.1773
   1146  O4'       28.8220    0.9340   37.4160 O.3    68  U68        -0.3307
   1147  C3'       27.8420   -1.0780   38.0790 C.3    68  U68         0.1860
   1148  O3'       27.1830   -2.2340   37.5910 O.3    68  U68        -0.3112
   1149  C2'       29.3510   -1.2750   38.1040 C.3    68  U68         0.2309
   1150  O2'       29.8100   -1.9160   36.9240 O.3    68  U68        -0.2156
   1151  C1'       29.8210    0.1850   38.0900 C.3    68  U68         0.2420
   1152  N1        29.9900    0.7150   39.4500 N.ar   68  U68        -0.2534
   1153  C2        31.1710    0.3640   40.0870 C.ar   68  U68         0.3546
   1154  O2        32.0250   -0.3460   39.5470 O.2    68  U68        -0.2443
   1155  N3        31.3200    0.8560   41.3560 N.ar   68  U68        -0.1530
   1156  C4        30.4310    1.6480   42.0530 C.ar   68  U68         0.2846
   1157  O4        30.7120    2.0000   43.2130 O.2    68  U68        -0.2650
   1158  C5        29.2150    1.9650   41.3310 C.ar   68  U68         0.0814
   1159  C6        29.0520    1.4990   40.0790 C.ar   68  U68         0.0870
   1160  OP1       23.7160    1.5150   38.1490 O.2    68  U68        -0.5172
   1161  OP2       24.9160    2.1790   40.3390 O.co2  68  U68        -0.4373
   1162  P         26.6440   -3.3230   38.6190 P.3    69  U69         0.2141
   1163  C5'       28.9480   -4.5390   38.5710 C.3    69  U69         0.1812
   1164  O5'       27.9390   -3.9170   39.3360 O.3    69  U69        -0.3114
   1165  C4'       30.1550   -4.8260   39.4390 C.3    69  U69         0.1773
   1166  O4'       30.8290   -3.5840   39.8000 O.3    69  U69        -0.3307
   1167  C3'       29.8450   -5.4790   40.7720 C.3    69  U69         0.1860
   1168  O3'       29.6930   -6.8830   40.5650 O.3    69  U69        -0.3112
   1169  C2'       31.0930   -5.1400   41.5780 C.3    69  U69         0.2309
   1170  O2'       32.2250   -5.9490   41.3060 O.3    69  U69        -0.2156
   1171  C1'       31.3760   -3.7220   41.0890 C.3    69  U69         0.2420
   1172  N1        30.7620   -2.7340   41.9750 N.ar   69  U69        -0.2534
   1173  C2        31.4270   -2.4710   43.1550 C.ar   69  U69         0.3546
   1174  O2        32.5090   -3.0020   43.4450 O.2    69  U69        -0.2443
   1175  N3        30.7940   -1.5740   43.9770 N.ar   69  U69        -0.1530
   1176  C4        29.6060   -0.9230   43.7290 C.ar   69  U69         0.2846
   1177  O4        29.1570   -0.1450   44.5650 O.2    69  U69        -0.2650
   1178  C5        28.9970   -1.2410   42.4750 C.ar   69  U69         0.0814
   1179  C6        29.5830   -2.1130   41.6640 C.ar   69  U69         0.0870
   1180  OP1       26.0020   -4.4270   37.8520 O.2    69  U69        -0.5172
   1181  OP2       25.8870   -2.5840   39.6400 O.co2  69  U69        -0.4373
   1182  P         28.7990   -7.7630   41.5800 P.3    70  C70         0.2141
   1183  C5'       30.9180   -8.8070   42.6960 C.3    70  C70         0.1812
   1184  O5'       29.7750   -7.9670   42.8190 O.3    70  C70        -0.3114
   1185  C4'       31.8340   -8.6260   43.8840 C.3    70  C70         0.1773
   1186  O4'       32.3390   -7.2610   43.9430 O.3    70  C70        -0.3307
   1187  C3'       31.2270   -8.8230   45.2560 C.3    70  C70         0.1860
   1188  O3'       31.0860  -10.2090   45.5250 O.3    70  C70        -0.3112
   1189  C2'       32.3060   -8.1780   46.1180 C.3    70  C70         0.2309
   1190  O2'       33.4900   -8.9610   46.2280 O.3    70  C70        -0.2156
   1191  C1'       32.6050   -6.9290   45.2900 C.3    70  C70         0.2420
   1192  N1        31.7400   -5.8020   45.6570 N.ar   70  C70        -0.2535
   1193  C2        32.1080   -5.0370   46.7470 C.ar   70  C70         0.3532
   1194  O2        33.1500   -5.3390   47.3440 O.2    70  C70        -0.2443
   1195  N3        31.3330   -3.9930   47.1310 N.ar   70  C70        -0.1739
   1196  C4        30.2170   -3.7060   46.4480 C.ar   70  C70         0.1759
   1197  N4        29.4750   -2.6540   46.8590 N.pl3  70  C70        -0.1070
   1198  C5        29.8150   -4.4800   45.3110 C.ar   70  C70         0.0566
   1199  C6        30.6020   -5.5100   44.9520 C.ar   70  C70         0.0850
   1200  OP1       28.5440   -9.0700   40.8780 O.2    70  C70        -0.5172
   1201  OP2       27.6430   -6.9440   42.0410 O.co2  70  C70        -0.4373
   1202  P         29.9880  -10.7230   46.5930 P.3    71  G71         0.2141
   1203  C5'       31.5920  -10.9250   48.6840 C.3    71  G71         0.1812
   1204  O5'       30.5400  -10.2300   48.0150 O.3    71  G71        -0.3114
   1205  C4'       32.0980  -10.1360   49.8810 C.3    71  G71         0.1773
   1206  O4'       32.5570   -8.8180   49.4670 O.3    71  G71        -0.3307
   1207  C3'       31.1300   -9.8340   51.0210 C.3    71  G71         0.1860
   1208  O3'       30.9810  -10.9190   51.9350 O.3    71  G71        -0.3112
   1209  C2'       31.8590   -8.6970   51.7140 C.3    71  G71         0.2309
   1210  O2'       32.9830   -9.1470   52.4300 O.3    71  G71        -0.2156
   1211  C1'       32.3140   -7.8790   50.5090 C.3    71  G71         0.2408
   1212  N1        29.9820   -3.4740   51.4080 N.ar   71  G71        -0.1709
   1213  C2        31.0550   -4.0460   52.0410 C.ar   71  G71         0.2606
   1214  N2        31.5830   -3.3500   53.0580 N.pl3  71  G71        -0.0859
   1215  N3        31.5740   -5.2070   51.7100 N.ar   71  G71        -0.1918
   1216  C4        30.9310   -5.7700   50.6730 C.ar   71  G71         0.1723
   1217  C5        29.8480   -5.2940   49.9700 C.ar   71  G71         0.1748
   1218  C6        29.2920   -4.0380   50.3390 C.ar   71  G71         0.3023
   1219  O6        28.3150   -3.4380   49.8440 O.2    71  G71        -0.2633
   1220  N7        29.4760   -6.1880   48.9750 N.ar   71  G71        -0.2173
   1221  C8        30.3340   -7.1670   49.0810 C.ar   71  G71         0.1817
   1222  N9        31.2410   -6.9770   50.0950 N.ar   71  G71        -0.2693
   1223  OP1       30.0190  -12.2070   46.4780 O.3    71  G71        -0.4373
   1224  OP2       28.7110  -10.0060   46.3790 O.co2  71  G71        -0.5172
   1225  P         29.7710  -10.9000   52.9950 P.3    72  C72         0.2141
   1226  C5'       30.6880   -9.4280   54.9320 C.3    72  C72         0.1812
   1227  O5'       29.9270   -9.5100   53.7450 O.3    72  C72        -0.3114
   1228  C4'       30.3160   -8.1910   55.6890 C.3    72  C72         0.1773
   1229  O4'       30.4230   -7.0630   54.7860 O.3    72  C72        -0.3307
   1230  C3'       28.8710   -8.1080   56.1400 C.3    72  C72         0.1860
   1231  O3'       28.6460   -8.8440   57.3290 O.3    72  C72        -0.3112
   1232  C2'       28.7200   -6.6110   56.3640 C.3    72  C72         0.2309
   1233  O2'       29.3300   -6.1210   57.5450 O.3    72  C72        -0.2156
   1234  C1'       29.4800   -6.0750   55.1570 C.3    72  C72         0.2420
   1235  N1        28.5790   -5.8450   54.0280 N.ar   72  C72        -0.2535
   1236  C2        27.8640   -4.6560   54.0020 C.ar   72  C72         0.3532
   1237  O2        28.0060   -3.8580   54.9510 O.2    72  C72        -0.2443
   1238  N3        27.0390   -4.4010   52.9610 N.ar   72  C72        -0.1739
   1239  C4        26.9180   -5.2970   51.9770 C.ar   72  C72         0.1759
   1240  N4        26.1010   -5.0060   50.9620 N.pl3  72  C72        -0.1070
   1241  C5        27.6340   -6.5320   51.9900 C.ar   72  C72         0.0566
   1242  C6        28.4450   -6.7620   53.0240 C.ar   72  C72         0.0850
   1243  OP1       30.0150  -11.9530   54.0060 O.3    72  C72        -0.4373
   1244  OP2       28.4900  -10.8910   52.2390 O.co2  72  C72        -0.5172
   1245  P         27.1590   -9.3410   57.6900 P.3    73  A73         0.2141
   1246  C5'       26.5320   -7.1630   58.9820 C.3    73  A73         0.1812
   1247  O5'       26.3230   -7.9940   57.8490 O.3    73  A73        -0.3114
   1248  C4'       25.6860   -5.9240   58.8930 C.3    73  A73         0.1773
   1249  O4'       26.0670   -5.1690   57.7170 O.3    73  A73        -0.3307
   1250  C3'       24.2010   -6.1520   58.6870 C.3    73  A73         0.1860
   1251  O3'       23.5480   -6.4450   59.9130 O.3    73  A73        -0.3112
   1252  C2'       23.7670   -4.8000   58.1470 C.3    73  A73         0.2309
   1253  O2'       23.6550   -3.8350   59.1700 O.3    73  A73        -0.2156
   1254  C1'       24.9330   -4.4820   57.2070 C.3    73  A73         0.2408
   1255  N1        22.4780   -3.6750   52.7510 N.ar   73  A73        -0.2040
   1256  C2        22.5360   -2.9640   53.8870 C.ar   73  A73         0.2016
   1257  N3        23.2050   -3.2220   55.0110 N.ar   73  A73        -0.2048
   1258  C4        23.8890   -4.3780   54.9000 C.ar   73  A73         0.1692
   1259  C5        23.9310   -5.2140   53.8010 C.ar   73  A73         0.1518
   1260  C6        23.1780   -4.8310   52.6760 C.ar   73  A73         0.1919
   1261  N6        23.1210   -5.5440   51.5510 N.pl3  73  A73        -0.1054
   1262  N7        24.7480   -6.3070   54.0470 N.ar   73  A73        -0.2193
   1263  C8        25.1730   -6.1140   55.2720 C.ar   73  A73         0.1816
   1264  N9        24.6850   -4.9720   55.8510 N.ar   73  A73        -0.2693
   1265  OP1       27.2630   -9.9760   59.0260 O.3    73  A73        -0.4373
   1266  OP2       26.6360  -10.1340   56.5480 O.co2  73  A73        -0.5172
   1267  P         22.2520   -7.3960   59.9080 P.3    74  C74         0.2141
   1268  C5'       20.8150   -5.2050   59.6810 C.3    74  C74         0.1812
   1269  O5'       21.1390   -6.5070   59.1900 O.3    74  C74        -0.3114
   1270  C4'       19.8860   -4.4940   58.7220 C.3    74  C74         0.1773
   1271  O4'       20.5960   -4.1930   57.4910 O.3    74  C74        -0.3307
   1272  C3'       18.6660   -5.2810   58.2600 C.3    74  C74         0.1860
   1273  O3'       17.6100   -5.1990   59.2110 O.3    74  C74        -0.3112
   1274  C2'       18.3130   -4.5690   56.9590 C.3    74  C74         0.2309
   1275  O2'       17.6380   -3.3410   57.1290 O.3    74  C74        -0.2156
   1276  C1'       19.7040   -4.2970   56.3940 C.3    74  C74         0.2420
   1277  N1        20.1540   -5.3910   55.5300 N.ar   74  C74        -0.2535
   1278  C2        19.6200   -5.4790   54.2480 C.ar   74  C74         0.3532
   1279  O2        18.7680   -4.6420   53.8960 O.2    74  C74        -0.2443
   1280  N3        20.0390   -6.4640   53.4250 N.ar   74  C74        -0.1739
   1281  C4        20.9540   -7.3410   53.8460 C.ar   74  C74         0.1759
   1282  N4        21.3490   -8.2910   52.9890 N.pl3  74  C74        -0.1070
   1283  C5        21.5060   -7.2830   55.1580 C.ar   74  C74         0.0566
   1284  C6        21.0810   -6.3010   55.9610 C.ar   74  C74         0.0850
   1285  OP1       21.8470   -7.6010   61.3220 O.3    74  C74        -0.4373
   1286  OP2       22.5550   -8.5790   59.0510 O.co2  74  C74        -0.5172
   1287  P         16.6740   -6.4790   59.4790 P.3    75  C75         0.2141
   1288  C5'       15.1270   -6.2510   57.3890 C.3    75  C75         0.1812
   1289  O5'       16.1910   -6.9260   58.0360 O.3    75  C75        -0.3114
   1290  C4'       14.8060   -6.9560   56.1080 C.3    75  C75         0.1773
   1291  O4'       16.0240   -6.9860   55.3220 O.3    75  C75        -0.3307
   1292  C3'       14.4370   -8.4190   56.2980 C.3    75  C75         0.1860
   1293  O3'       13.0320   -8.5560   56.4480 O.3    75  C75        -0.3112
   1294  C2'       14.8780   -9.0420   54.9840 C.3    75  C75         0.2309
   1295  O2'       13.8890   -8.9090   53.9830 O.3    75  C75        -0.2156
   1296  C1'       16.1300   -8.2240   54.6520 C.3    75  C75         0.2420
   1297  N1        17.3800   -8.8690   55.0750 N.ar   75  C75        -0.2535
   1298  C2        17.9160   -9.8760   54.2740 C.ar   75  C75         0.3532
   1299  O2        17.3290  -10.1840   53.2250 O.2    75  C75        -0.2443
   1300  N3        19.0550  -10.4930   54.6590 N.ar   75  C75        -0.1739
   1301  C4        19.6540  -10.1340   55.7940 C.ar   75  C75         0.1759
   1302  N4        20.7770  -10.7720   56.1380 N.pl3  75  C75        -0.1070
   1303  C5        19.1300   -9.1030   56.6280 C.ar   75  C75         0.0566
   1304  C6        18.0020   -8.5020   56.2330 C.ar   75  C75         0.0850
   1305  OP1       15.4720   -6.0290   60.2220 O.3    75  C75        -0.4373
   1306  OP2       17.5150   -7.5700   60.0220 O.co2  75  C75        -0.5172
   1307  P         12.4380   -9.1190   57.8200 P.3    76  A76         0.2141
   1308  C5'       12.3090   -7.4780   59.8710 C.3    76  A76         0.1813
   1309  O5'       11.8900   -7.8130   58.5510 O.3    76  A76        -0.3114
   1310  C4'       11.1100   -7.1640   60.7440 C.3    76  A76         0.1801
   1311  O4'       11.3630   -5.9250   61.4620 O.3    76  A76        -0.3306
   1312  C3'        9.7960   -6.9180   60.0140 C.3    76  A76         0.2161
   1313  O3'        8.7050   -7.1220   60.9340 O.3    76  A76        -0.2175
   1314  C2'        9.9060   -5.4390   59.6640 C.3    76  A76         0.2337
   1315  O2'        8.6550   -4.8180   59.4380 O.3    76  A76        -0.2155
   1316  C1'       10.5440   -4.8900   60.9380 C.3    76  A76         0.2409
   1317  N1        11.8640   -0.1940   62.5980 N.ar   76  A76        -0.2040
   1318  C2        10.9470   -1.0700   63.0290 C.ar   76  A76         0.2016
   1319  N3        10.6370   -2.2730   62.5420 N.ar   76  A76        -0.2048
   1320  C4        11.4000   -2.5640   61.4700 C.ar   76  A76         0.1692
   1321  C5        12.3770   -1.7640   60.9100 C.ar   76  A76         0.1518
   1322  C6        12.6090   -0.5200   61.5180 C.ar   76  A76         0.1919
   1323  N6        13.5190    0.3450   61.0830 N.pl3  76  A76        -0.1054
   1324  N7        12.9600   -2.3900   59.8140 N.ar   76  A76        -0.2193
   1325  C8        12.3360   -3.5400   59.7400 C.ar   76  A76         0.1816
   1326  N9        11.3870   -3.7170   60.7170 N.ar   76  A76        -0.2693
   1327  OP1       13.5690   -9.6970   58.5940 O.3    76  A76        -0.4373
   1328  OP2       11.2740   -9.9660   57.4810 O.co2  76  A76        -0.5172
@<TRIPOS>BOND
     1   625   605    1
     2   605   626    1
     3   605   607    1
     4   591   590    1
     5   607   606    1
     6   606   608    1
     7   604   585    1
     8   603   585    1
     9   609   608    1
    10   609   614    1
    11   608   610    1
    12   590   592    1
    13   590   588    1
    14   585   587    1
    15   592   593    1
    16   592   594    1
    17   623   622   ar
    18   623   624   ar
    19   587   586    1
    20   614   624    1
    21   614   612    1
    22   588   586    1
    23   588   589    1
    24   622   619   ar
    25   624   618   ar
    26   610   611    1
    27   610   612    1
    28   601   602   ar
    29   601   599   ar
    30   602   595   ar
    31   583   563    2
    32   611   627    1
    33   600   599    2
    34   599   598   ar
    35   594   595    1
    36   594   589    1
    37   595   596   ar
    38   612   613    1
    39   619   618   ar
    40   619   620   ar
    41   598   596   ar
    42   618   617   ar
    43   596   597    2
    44   647   627    2
    45   617   616   ar
    46   648   627    1
    47   569   568    1
    48   620   621    1
    49   620   615   ar
    50   627   629    1
    51   563   584    1
    52   563   565    1
    53   563   546    1
    54   616   615   ar
    55   564   565    1
    56   564   566    1
    57   568   566    1
    58   568   570    1
    59   546   545    1
    60   561   540    2
    61   629   628    1
    62   566   567    1
    63   628   630    1
    64   631   630    1
    65   631   636    1
    66   644   645   ar
    67   644   641   ar
    68   645   646   ar
    69   570   571    1
    70   570   572    1
    71   643   642    1
    72   641   642   ar
    73   641   640   ar
    74   545   543    1
    75   545   547    1
    76   646   636    1
    77   646   640   ar
    78   540   562    1
    79   540   542    1
    80   540   524    1
    81   630   632    1
    82   642   637   ar
    83   636   634    1
    84   541   542    1
    85   541   543    1
    86   640   639   ar
    87   567   572    1
    88   543   544    1
    89   548   547    1
    90   637   638   ar
    91   581   580   ar
    92   581   582   ar
    93   547   549    1
    94   639   638   ar
    95   572   582    1
    96   524   523    1
    97   580   577   ar
    98   582   576   ar
    99   632   634    1
   100   632   633    1
   101   634   635    1
   102   544   549    1
   103   577   576   ar
   104   577   578   ar
   105   576   575   ar
   106   549   560    1
   107   523   521    1
   108   523   525    1
   109   538   518    2
   110   526   525    1
   111   559   560   ar
   112   559   558   ar
   113   575   574   ar
   114   560   554   ar
   115   578   579    1
   116   578   573   ar
   117   519   521    1
   118   519   520    1
   119   521   522    1
   120   525   527    1
   121   665   664    1
   122   558   555   ar
   123   520   518    1
   124   574   573   ar
   125   554   553   ar
   126   554   555   ar
   127   518   539    1
   128   518   504    1
   129   553   551   ar
   130   555   556   ar
   131   664   659   ar
   132   664   663   ar
   133   659   660   ar
   134   522   527    1
   135   527   537    1
   136   551   552    1
   137   551   550   ar
   138   556   550   ar
   139   556   557    2
   140   663   666   ar
   141   663   662   ar
   142   504   503    1
   143   660   661   ar
   144   666   667   ar
   145   537   536   ar
   146   537   531   ar
   147   662   661   ar
   148   662   668   ar
   149   536   535   ar
   150   530   531   ar
   151   530   529   ar
   152   667   668   ar
   153   531   532   ar
   154   506   505    1
   155   503   505    1
   156   503   501    1
   157   668   658    1
   158   535   532   ar
   159   529   528   ar
   160   505   507    1
   161   532   533   ar
   162   683   682    2
   163   528   533   ar
   164   533   534    1
   165   658   653    1
   166   658   656    1
   167   501   499    1
   168   501   502    1
   169   675   680    1
   170   675   674    1
   171   680   681    1
   172   680   678    1
   173   653   652    1
   174   499   500    1
   175   516   498    2
   176   682   681   ar
   177   682   684   ar
   178   679   678    1
   179   500   498    1
   180   681   688   ar
   181   507   502    1
   182   507   508    1
   183   684   685   ar
   184   510   509    2
   185   670   649    1
   186   678   676    1
   187   498   517    1
   188   498   484    1
   189   703   702    1
   190   656   657    1
   191   656   654    1
   192   651   649    1
   193   651   650    1
   194   508   509   ar
   195   508   515   ar
   196   509   511   ar
   197   649   669    1
   198   674   672    1
   199   674   676    1
   200   699   698    1
   201   688   687   ar
   202   704   702   ar
   203   704   705   ar
   204   700   695    1
   205   700   711    1
   206   700   698    1
   207   695   694    1
   208   652   650    1
   209   652   654    1
   210   702   701   ar
   211   685   687   ar
   212   685   686    2
   213   515   514   ar
   214   511   512   ar
   215   654   655    1
   216   672   673    1
   217   705   711   ar
   218   705   706   ar
   219   514   512   ar
   220   676   677    1
   221   711   710   ar
   222   694   692    1
   223   694   696    1
   224   512   513    1
   225   701   707   ar
   226   698   696    1
   227   484   483    1
   228   718   717    1
   229   718   723    1
   230   706   707   ar
   231   706   709   ar
   232   692   693    1
   233   710   709   ar
   234   707   708    2
   235   677   691    1
   236   722   721    1
   237   717   715    1
   238   717   719    1
   239   723   721    1
   240   723   734    1
   241   696   697    1
   242   673   671    1
   243   715   716    1
   244   697   714    1
   245   483   485    1
   246   483   481    1
   247   693   691    1
   248   721   719    1
   249   727   728   ar
   250   727   725   ar
   251   486   485    1
   252   734   728   ar
   253   734   733   ar
   254   485   487    1
   255   726   725    1
   256   671   690    1
   257   671   689    1
   258   728   729   ar
   259   691   712    2
   260   691   713    1
   261   719   720    1
   262   725   724   ar
   263   720   737    1
   264   733   732   ar
   265   716   714    1
   266   496   478    1
   267   714   735    2
   268   714   736    1
   269   481   479    1
   270   481   482    1
   271   729   732   ar
   272   729   730   ar
   273   480   479    1
   274   480   478    1
   275   741   740    1
   276   741   746    1
   277   724   730   ar
   278   490   489    2
   279   497   478    1
   280   740   738    1
   281   740   742    1
   282   489   491   ar
   283   489   488   ar
   284   487   488    1
   285   487   482    1
   286   738   739    1
   287   730   731    2
   288   491   492   ar
   289   488   495   ar
   290   746   744    1
   291   746   756    1
   292   745   744    1
   293   492   493    1
   294   492   494   ar
   295   757   737    2
   296   495   494   ar
   297   737   739    1
   298   737   758    1
   299   744   742    1
   300   756   750   ar
   301   756   755   ar
   302   742   743    1
   303   749   750   ar
   304   749   748   ar
   305   743   759    1
   306   750   751   ar
   307   755   754   ar
   308   748   747   ar
   309   754   751   ar
   310   751   752   ar
   311   747   752   ar
   312   752   753    1
   313   759   780    2
   314   759   781    1
   315   759   761    1
   316   760   761    1
   317   760   762    1
   318   476   458    2
   319   763   762    1
   320   763   768    1
   321   464   463    1
   322   477   458    1
   323   762   764    1
   324   778   777   ar
   325   778   779   ar
   326   777   774   ar
   327   458   460    1
   328   458   441    1
   329   463   465    1
   330   463   461    1
   331   460   459    1
   332   779   768    1
   333   779   773   ar
   334   768   766    1
   335   774   773   ar
   336   774   775   ar
   337   456   435    2
   338   773   772   ar
   339   459   461    1
   340   776   775    2
   341   775   769   ar
   342   764   766    1
   343   764   765    1
   344   465   466    1
   345   465   467    1
   346   457   435    1
   347   461   462    1
   348   772   770   ar
   349   441   440    1
   350   474   475   ar
   351   474   472   ar
   352   766   767    1
   353   769   770   ar
   354   473   472    1
   355   435   437    1
   356   435   419    1
   357   475   468   ar
   358   770   771    1
   359   472   471   ar
   360   433   413    2
   361   437   436    1
   362   468   467    1
   363   468   469   ar
   364   471   469   ar
   365   467   462    1
   366   440   438    1
   367   440   442    1
   368   469   470    2
   369   436   438    1
   370   419   418    1
   371   434   413    1
   372   413   415    1
   373   413   396    1
   374   438   439    1
   375   442   443    1
   376   442   444    1
   377   415   414    1
   378   453   454   ar
   379   453   450   ar
   380   454   455   ar
   381   418   416    1
   382   418   420    1
   383   414   416    1
   384   411   390    2
   385   396   395    1
   386   183   182   ar
   387   183   184   ar
   388   182   187   ar
   389   455   444    1
   390   455   449   ar
   391   439   444    1
   392   412   390    1
   393   450   451   ar
   394   450   449   ar
   395   452   451    2
   396   416   417    1
   397   184   185   ar
   398   451   445   ar
   399   449   448   ar
   400   420   421    1
   401   420   422    1
   402   390   392    1
   403   390   374    1
   404   187   188    1
   405   187   186   ar
   406   391   392    1
   407   391   393    1
   408   445   446   ar
   409   185   186   ar
   410   185   191   ar
   411   395   393    1
   412   395   397    1
   413   180   179    1
   414   448   446   ar
   415   178   177    1
   416   186   189   ar
   417   446   447    1
   418   209   208    1
   419   181   191    1
   420   181   179    1
   421   181   176    1
   422   393   394    1
   423   207   208   ar
   424   207   205   ar
   425   353   352    1
   426   388   368    2
   427   208   210   ar
   428   191   190   ar
   429   431   430   ar
   430   431   432   ar
   431   206   205    2
   432   417   422    1
   433   205   204   ar
   434   210   211   ar
   435   422   432    1
   436   430   427   ar
   437   374   373    1
   438   204   211   ar
   439   204   203    1
   440   198   203    1
   441   198   197    1
   442   432   426   ar
   443   189   190   ar
   444   179   177    1
   445   176   175    1
   446   203   201    1
   447   397   398    1
   448   397   399    1
   449   177   175    1
   450   351   368    1
   451   351   350    1
   452   801   782    1
   453   427   426   ar
   454   427   428   ar
   455   426   425   ar
   456   368   370    1
   457   368   389    1
   458   370   369    1
   459   175   173    1
   460   373   375    1
   461   373   371    1
   462   352   350    1
   463   352   354    1
   464   394   399    1
   465   429   428    1
   466   428   423   ar
   467   425   424   ar
   468   197   195    1
   469   197   199    1
   470   350   348    1
   471   399   410    1
   472   195   196    1
   473   423   424   ar
   474   409   410   ar
   475   409   408   ar
   476   357   356    1
   477   202   201    1
   478   201   199    1
   479   196   194    1
   480   369   371    1
   481   375   376    1
   482   375   377    1
   483   354   349    1
   484   354   365    1
   485   410   404   ar
   486   348   349    1
   487   348   346    1
   488   782   800    1
   489   782   784    1
   490   194   213    1
   491   194   212    1
   492   371   372    1
   493   408   405   ar
   494   358   356   ar
   495   358   359   ar
   496   229   228    2
   497   404   405   ar
   498   404   403   ar
   499   173   174    1
   500   199   200    1
   501   405   406   ar
   502   356   355   ar
   503   403   401   ar
   504   228   227   ar
   505   228   230   ar
   506   227   225   ar
   507   386   385   ar
   508   386   387   ar
   509   174   172    1
   510   346   347    1
   511   230   231   ar
   512   377   372    1
   513   377   387    1
   514   784   783    1
   515   385   382   ar
   516   365   359   ar
   517   365   364   ar
   518   225   226    2
   519   225   224   ar
   520   406   407    2
   521   406   400   ar
   522   783   785    1
   523   387   381   ar
   524   359   360   ar
   525   401   400   ar
   526   401   402    1
   527   231   224   ar
   528   224   223    1
   529   200   214    1
   530   218   223    1
   531   218   217    1
   532   382   381   ar
   533   382   383   ar
   534   223   221    1
   535   381   380   ar
   536   355   361   ar
   537   347   345    1
   538   383   384    1
   539   383   378   ar
   540   380   379   ar
   541   192   172    2
   542   172   193    1
   543   172   158    1
   544   364   363   ar
   545   366   345    2
   546   360   361   ar
   547   360   363   ar
   548   785   786    1
   549   785   787    1
   550   249   248    1
   551   247   248   ar
   552   247   245   ar
   553   379   378   ar
   554   217   215    1
   555   217   219    1
   556   246   245    2
   557   215   216    1
   558   361   362    2
   559   798   799   ar
   560   798   796   ar
   561   214   216    1
   562   214   233    2
   563   214   232    1
   564   821   802    2
   565   248   250   ar
   566   786   791    1
   567   264   265   ar
   568   264   269   ar
   569   245   244   ar
   570   799   792   ar
   571   345   367    1
   572   345   328    1
   573   265   266   ar
   574   221   222    1
   575   221   219    1
   576   270   269    1
   577   158   157    1
   578   269   268   ar
   579   787   789    1
   580   787   788    1
   581   160   159    1
   582   266   267   ar
   583   250   251   ar
   584   244   251   ar
   585   244   243    1
   586   219   220    1
   587   796   797    2
   588   796   795   ar
   589   159   157    1
   590   159   161    1
   591   268   267   ar
   592   268   271   ar
   593   328   327    1
   594   792   791    1
   595   792   793   ar
   596   243   238    1
   597   243   241    1
   598   267   273   ar
   599   789   791    1
   600   789   790    1
   601   817   816    1
   602   330   329    1
   603   157   155    1
   604   164   163    2
   605   802   788    1
   606   802   804    1
   607   802   820    1
   608   238   237    1
   609   271   272   ar
   610   273   263    1
   611   273   272   ar
   612   818   816   ar
   613   818   819   ar
   614   816   815   ar
   615   263   258    1
   616   263   261    1
   617   804   803    1
   618   795   793   ar
   619   242   241    1
   620   220   234    1
   621   793   794    2
   622   163   165   ar
   623   163   162   ar
   624   327   329    1
   625   327   325    1
   626   241   239    1
   627   165   166   ar
   628   815   813   ar
   629   161   162    1
   630   161   156    1
   631   819   812   ar
   632   258   257    1
   633   329   331    1
   634   262   261    1
   635   162   169   ar
   636   806   811    1
   637   806   805    1
   638   288   287    1
   639   155   156    1
   640   155   153    1
   641   237   239    1
   642   237   235    1
   643   261   259    1
   644   812   813   ar
   645   812   811    1
   646   813   814    2
   647   166   167    2
   648   166   168   ar
   649   287   289   ar
   650   287   286   ar
   651   170   152    2
   652   289   290   ar
   653   236   234    1
   654   236   235    1
   655   803   805    1
   656   331   326    1
   657   331   342    1
   658   169   168   ar
   659   811   809    1
   660   234   253    2
   661   234   252    1
   662   239   240    1
   663   805   807    1
   664   325   326    1
   665   325   323    1
   666   286   292   ar
   667   153   154    1
   668   285   280    1
   669   285   296    1
   670   285   283    1
   671   257   259    1
   672   257   255    1
   673   280   279    1
   674   290   296   ar
   675   290   291   ar
   676   154   152    1
   677   171   152    1
   678   296   295   ar
   679   152   138    1
   680   969   951    1
   681   259   260    1
   682   284   283    1
   683   970   951    1
   684   967   968   ar
   685   967   965   ar
   686   292   291   ar
   687   292   293    2
   688   342   336   ar
   689   342   341   ar
   690   291   294   ar
   691   966   965    2
   692   323   324    1
   693   240   254    1
   694   255   256    1
   695   335   336   ar
   696   335   333   ar
   697   840   822    1
   698   968   961   ar
   699   295   294   ar
   700   256   254    1
   701   965   964   ar
   702   809   807    1
   703   809   810    1
   704   283   281    1
   705   324   322    1
   706   951   953    1
   707   807   808    1
   708   279   277    1
   709   279   281    1
   710   336   337   ar
   711   341   340   ar
   712   936   935    1
   713   953   952    1
   714   260   276    1
   715   334   333    1
   716   955   960    1
   717   955   954    1
   718   333   332   ar
   719   961   962   ar
   720   961   960    1
   721   277   278    1
   722   964   962   ar
   723   254   275    2
   724   254   274    1
   725   952   954    1
   726   138   137    1
   727   343   322    2
   728   986   985    1
   729   281   282    1
   730   344   322    1
   731   822   824    1
   732   822   841    1
   733   322   305    1
   734   962   963    2
   735   337   340   ar
   736   337   338   ar
   737   960   958    1
   738   954   956    1
   739   278   276    1
   740   863   842    2
   741   934   933    1
   742   935   937    1
   743   935   933    1
   744   823   824    1
   745   823   825    1
   746   332   338   ar
   747   931   932    1
   748   931   933    1
   749   931   929    1
   750   276   298    2
   751   276   297    1
   752   937   932    1
   753   937   948    1
   754   137   135    1
   755   137   139    1
   756   338   339    2
   757   920   919    2
   758   985   984   ar
   759   985   987   ar
   760   916   915    1
   761   940   939    1
   762   929   930    1
   763   305   304    1
   764   941   939   ar
   765   941   942   ar
   766   984   982   ar
   767   135   133    1
   768   135   136    1
   769   828   842    1
   770   828   827    1
   771   140   139    1
   772   842   864    1
   773   842   844    1
   774   987   988   ar
   775   956   958    1
   776   956   957    1
   777   825   827    1
   778   825   826    1
   779   958   959    1
   780   133   134    1
   781   939   938   ar
   782   139   141    1
   783   948   942   ar
   784   948   947   ar
   785   915   917    1
   786   915   913    1
   787   919   921   ar
   788   919   918   ar
   789   827   829    1
   790   942   943   ar
   791   150   132    2
   792   917   918    1
   793   917   912    1
   794   982   983    2
   795   982   981   ar
   796   921   922   ar
   797   988   981   ar
   798   304   302    1
   799   304   306    1
   800   930   928    1
   801   826   831    1
   802   136   141    1
   803   957   971    1
   804   134   132    1
   805   141   142    1
   806   844   843    1
   807   918   925   ar
   808   307   306    1
   809   914   913    1
   810   914   928    1
   811   830   829    1
   812   949   928    2
   813   981   980    1
   814   938   944   ar
   815   947   946   ar
   816   302   303    1
   817   302   300    1
   818   843   845    1
   819   132   118    1
   820   132   151    1
   821   913   911    1
   822   311   310    1
   823   829   831    1
   824   990   971    2
   825   912   911    1
   826   943   944   ar
   827   943   946   ar
   828   928   950    1
   829   303   308    1
   830   306   308    1
   831   884   865    2
   832   308   319    1
   833   883   865    1
   834   922   923    1
   835   922   924   ar
   836  1128  1127    1
   837   831   832    1
   838   911   909    1
   839   312   310   ar
   840   312   313   ar
   841   971   973    1
   842   971   989    1
   843   118   117    1
   844   144   143    2
   845   120   119    1
   846  1150  1149    1
   847   944   945    2
   848   839   832   ar
   849   839   838   ar
   850   975   980    1
   851   975   974    1
   852   142   143   ar
   853   142   149   ar
   854  1145  1143    1
   855  1145  1146    1
   856  1145  1147    1
   857   310   309   ar
   858  1143  1144    1
   859   925   924   ar
   860   865   848    1
   861   865   867    1
   862   980   978    1
   863   301   300    1
   864   301   299    1
   865   973   972    1
   866  1146  1151    1
   867   848   847    1
   868   845   847    1
   869   845   846    1
   870   832   833   ar
   871   143   145   ar
   872  1148  1147    1
   873  1148  1162    1
   874   319   313   ar
   875   319   318   ar
   876   838   836   ar
   877   313   314   ar
   878   149   148   ar
   879   119   117    1
   880   119   121    1
   881  1180  1162    2
   882   847   849    1
   883   972   974    1
   884  1127  1129    1
   885  1127  1125    1
   886   117   115    1
   887  1147  1149    1
   888  1151  1149    1
   889  1151  1152    1
   890  1126  1125    1
   891  1126  1142    1
   892  1160  1142    2
   893  1123  1124    1
   894  1123  1125    1
   895  1123  1121    1
   896   974   976    1
   897   909   910    1
   898  1129  1124    1
   899  1129  1139    1
   900   978   979    1
   901   978   976    1
   902   299   321    1
   903   299   320    1
   904   309   315   ar
   905  1144  1142    1
   906   846   851    1
   907   861   860   ar
   908   861   862   ar
   909  1163  1164    1
   910  1163  1165    1
   911  1162  1164    1
   912  1162  1181    1
   913   867   866    1
   914   115   113    1
   915   115   116    1
   916   833   834    2
   917   833   835   ar
   918   145   146   ar
   919  1132  1131   ar
   920  1132  1133   ar
   921  1142  1161    1
   922  1106  1105    1
   923   124   123    2
   924   910   908    1
   925  1109  1110   ar
   926  1109  1108   ar
   927   860   857   ar
   928   318   317   ar
   929   314   315   ar
   930   314   317   ar
   931  1121  1122    1
   932   148   146   ar
   933   836   835   ar
   934   836   837    2
   935  1110  1111   ar
   936   976   977    1
   937   121   116    1
   938   121   122    1
   939  1087  1086    1
   940  1006  1005    1
   941   849   851    1
   942   849   850    1
   943   315   316    2
   944  1131  1130   ar
   945  1165  1166    1
   946  1165  1167    1
   947  1152  1159   ar
   948  1152  1153   ar
   949   113   114    1
   950   907   885    2
   951  1154  1153    2
   952  1139  1133   ar
   953  1139  1138   ar
   954   866   868    1
   955   851   862    1
   956   862   856   ar
   957   146   147    2
   958  1133  1134   ar
   959   881   882   ar
   960   881   879   ar
   961  1108  1113   ar
   962  1166  1171    1
   963   123   122   ar
   964   123   125   ar
   965   977   991    1
   966   902   901    2
   967  1105  1107    1
   968  1105  1103    1
   969  1159  1158   ar
   970  1153  1155   ar
   971   122   129   ar
   972  1007  1005   ar
   973  1007  1008   ar
   974   880   879    2
   975   857   856   ar
   976   857   858   ar
   977  1005  1004   ar
   978   882   875   ar
   979  1107  1117    1
   980  1107  1102    1
   981  1122  1120    1
   982  1111  1117   ar
   983  1111  1112   ar
   984   908   927    1
   985   908   926    1
   986   114   112    1
   987   879   878   ar
   988  1168  1167    1
   989  1168  1182    1
   990  1086  1085   ar
   991  1086  1088   ar
   992  1130  1135   ar
   993   856   855   ar
   994   125   126   ar
   995  1138  1137   ar
   996  1085  1091   ar
   997   885   906    1
   998   885   871    1
   999   885   887    1
  1000  1167  1169    1
  1001   903   900   ar
  1002   903   904   ar
  1003  1200  1182    2
  1004   130   112    2
  1005   868   870    1
  1006   868   869    1
  1007   859   858    2
  1008  1117  1116   ar
  1009   870   871    1
  1010   870   872    1
  1011  1113  1112   ar
  1012  1113  1114    1
  1013   901   900   ar
  1014   901   895   ar
  1015  1134  1135   ar
  1016  1134  1137   ar
  1017  1104  1103    1
  1018  1104  1120    1
  1019  1171  1169    1
  1020  1171  1172    1
  1021  1008  1001   ar
  1022   858   852   ar
  1023  1010   991    2
  1024   129   128   ar
  1025  1140  1120    2
  1026  1103  1101    1
  1027  1170  1169    1
  1028   869   874    1
  1029  1158  1156   ar
  1030   991  1009    1
  1031   991   993    1
  1032  1102  1101    1
  1033  1155  1156   ar
  1034  1112  1115   ar
  1035  1004  1002   ar
  1036  1027  1026    1
  1037   900   899   ar
  1038  1120  1141    1
  1039  1135  1136    1
  1040  1088  1089   ar
  1041  1182  1201    1
  1042  1182  1184    1
  1043  1101  1099    1
  1044   112    96    1
  1045   112   131    1
  1046   875   874    1
  1047   875   876   ar
  1048  1179  1172   ar
  1049  1179  1178   ar
  1050   904   905   ar
  1051   878   876   ar
  1052   887   886    1
  1053   126   128   ar
  1054   126   127    2
  1055    98    97    1
  1056  1172  1173   ar
  1057   855   853   ar
  1058  1091  1092    2
  1059  1091  1090   ar
  1060  1156  1157    2
  1061   101   102   ar
  1062   101   100   ar
  1063   895   896   ar
  1064   874   872    1
  1065  1063  1064   ar
  1066  1063  1068   ar
  1067   993   992    1
  1068  1001  1002   ar
  1069  1001  1000    1
  1070  1116  1115   ar
  1071   872   873    1
  1072   102   103   ar
  1073  1002  1003    2
  1074    96    95    1
  1075   876   877    2
  1076  1178  1176   ar
  1077   852   853   ar
  1078    97    95    1
  1079    97    99    1
  1080  1069  1068    1
  1081   100   105   ar
  1082  1183  1184    1
  1083  1183  1185    1
  1084  1026  1021   ar
  1085  1026  1025   ar
  1086  1064  1065   ar
  1087  1089  1090   ar
  1088  1089  1095   ar
  1089   899   905   ar
  1090   899   898   ar
  1091   853   854    1
  1092   905   894    1
  1093   992   994    1
  1094   995  1000    1
  1095   995   994    1
  1096  1099  1100    1
  1097  1090  1093   ar
  1098  1068  1067   ar
  1099  1021  1022   ar
  1100  1173  1174    2
  1101  1173  1175   ar
  1102    95    93    1
  1103   886   888    1
  1104  1048  1047    1
  1105   896   898   ar
  1106   896   897    1
  1107  1000   998    1
  1108   103   109   ar
  1109   103   104   ar
  1110  1083  1082    1
  1111  1028  1025   ar
  1112  1028  1029   ar
  1113   105   104   ar
  1114   105   106    1
  1115  1025  1024   ar
  1116    99   109    1
  1117    99    94    1
  1118  1176  1175   ar
  1119  1176  1177    2
  1120   890   888    1
  1121   890   892    1
  1122   890   891    1
  1123   994   996    1
  1124   889   888    1
  1125   889   894    1
  1126  1185  1186    1
  1127  1185  1187    1
  1128  1100  1098    1
  1129  1095  1084    1
  1130  1095  1094   ar
  1131  1186  1191    1
  1132  1082  1084    1
  1133  1082  1080    1
  1134  1065  1066   ar
  1135   109   108   ar
  1136   104   107   ar
  1137  1084  1079    1
  1138   894   892    1
  1139   892   893    1
  1140  1093  1094   ar
  1141  1022  1023   ar
  1142    93    94    1
  1143    93    91    1
  1144  1067  1066   ar
  1145  1067  1070   ar
  1146   996   998    1
  1147   996   997    1
  1148  1047  1046   ar
  1149  1047  1049   ar
  1150  1046  1044   ar
  1151   998   999    1
  1152  1029  1030   ar
  1153  1066  1072   ar
  1154  1024  1023   ar
  1155  1024  1030   ar
  1156  1199  1198   ar
  1157  1199  1192   ar
  1158    79    78    1
  1159   108   107   ar
  1160  1032  1011    2
  1161  1187  1188    1
  1162  1187  1189    1
  1163  1191  1192    1
  1164  1191  1189    1
  1165  1198  1196   ar
  1166  1080  1081    1
  1167  1080  1078    1
  1168  1079  1078    1
  1169  1098  1081    1
  1170  1098  1118    2
  1171  1098  1119    1
  1172  1188  1202    1
  1173  1070  1071   ar
  1174    77    78   ar
  1175    77    83   ar
  1176    91    92    1
  1177  1049  1050   ar
  1178  1030  1020    1
  1179  1192  1193   ar
  1180   997  1011    1
  1181  1044  1045    2
  1182  1044  1043   ar
  1183    78    80   ar
  1184    92    90    1
  1185    84    83    2
  1186  1078  1076    1
  1187  1189  1190    1
  1188  1072  1071   ar
  1189  1072  1062    1
  1190  1011  1013    1
  1191  1011  1031    1
  1192    83    82   ar
  1193  1224  1202    2
  1194  1196  1197    1
  1195  1196  1195   ar
  1196  1223  1202    1
  1197  1202  1204    1
  1198  1193  1195   ar
  1199  1193  1194    2
  1200  1013  1012    1
  1201  1050  1043   ar
  1202    80    81   ar
  1203  1043  1042    1
  1204   110    90    2
  1205  1062  1060    1
  1206  1062  1057    1
  1207  1020  1015    1
  1208  1020  1018    1
  1209    90   111    1
  1210    90    73    1
  1211  1015  1014    1
  1212  1060  1061    1
  1213  1060  1058    1
  1214    82    81   ar
  1215    82    85   ar
  1216    81    87   ar
  1217  1076  1077    1
  1218  1012  1014    1
  1219  1077  1075    1
  1220  1204  1203    1
  1221  1018  1016    1
  1222  1018  1019    1
  1223  1057  1056    1
  1224  1042  1040    1
  1225  1042  1037    1
  1226    74    75    1
  1227    74    72    1
  1228    74    76    1
  1229  1014  1016    1
  1230  1016  1017    1
  1231    85    86   ar
  1232    73    72    1
  1233  1058  1056    1
  1234  1058  1059    1
  1235    61    60    2
  1236    87    86   ar
  1237    87    76    1
  1238  1203  1205    1
  1239    72    70    1
  1240  1052  1033    2
  1241  1220  1221   ar
  1242  1220  1217   ar
  1243  1040  1041    1
  1244  1040  1038    1
  1245  1037  1036    1
  1246  1221  1222   ar
  1247  1097  1075    2
  1248    76    71    1
  1249    22     1    1
  1250    54    60   ar
  1251    54    55   ar
  1252  1056  1054    1
  1253  1075  1059    1
  1254  1075  1096    1
  1255    60    59   ar
  1256    23     1    1
  1257  1206  1205    1
  1258  1206  1211    1
  1259  1017  1033    1
  1260  1035  1033    1
  1261  1035  1034    1
  1262    56    55    1
  1263     1     3    1
  1264  1033  1051    1
  1265  1038  1036    1
  1266  1038  1039    1
  1267  1219  1218    2
  1268  1205  1207    1
  1269  1055  1054    1
  1270  1055  1053    1
  1271  1217  1218   ar
  1272  1217  1216   ar
  1273    55    57   ar
  1274  1222  1211    1
  1275  1222  1216   ar
  1276  1074  1053    2
  1277    70    71    1
  1278    70    68    1
  1279  1036  1034    1
  1280  1218  1212   ar
  1281  1211  1209    1
  1282    59    62   ar
  1283    59    58   ar
  1284  1216  1215   ar
  1285    69    68    1
  1286    69    67    1
  1287  1053  1039    1
  1288  1053  1073    1
  1289  1240  1239    1
  1290    39    38    1
  1291  1207  1209    1
  1292  1207  1208    1
  1293    62    63   ar
  1294    57    58   ar
  1295    89    67    2
  1296    58    64   ar
  1297     3     2    1
  1298  1212  1213   ar
  1299  1261  1260    1
  1300    18    17    2
  1301  1215  1213   ar
  1302  1209  1210    1
  1303    67    88    1
  1304    67    50    1
  1305    19    20   ar
  1306    19    16   ar
  1307     2     4    1
  1308  1208  1225    1
  1309  1239  1241   ar
  1310  1239  1238   ar
  1311  1241  1242   ar
  1312  1213  1214    1
  1313    38    37   ar
  1314    38    40   ar
  1315    63    64   ar
  1316  1244  1225    2
  1317    20    21   ar
  1318    64    53    1
  1319    17    16   ar
  1320    17    11   ar
  1321    16    15   ar
  1322  1260  1255   ar
  1323  1260  1259   ar
  1324    37    35   ar
  1325  1255  1256   ar
  1326    40    41   ar
  1327    51    49    1
  1328    51    53    1
  1329    51    52    1
  1330  1238  1236   ar
  1331  1282  1281    1
  1332  1225  1227    1
  1333  1225  1243    1
  1334  1242  1235   ar
  1335    50    49    1
  1336    49    47    1
  1337  1299  1298    2
  1338     4     5    1
  1339     4     6    1
  1340    53    48    1
  1341  1280  1281   ar
  1342  1280  1278   ar
  1343    66    44    2
  1344    21    15   ar
  1345    21    10    1
  1346    11    12   ar
  1347    43    24    2
  1348  1227  1226    1
  1349    15    14   ar
  1350     5    10    1
  1351  1259  1262   ar
  1352  1259  1258   ar
  1353  1281  1283   ar
  1354    35    36    2
  1355    35    34   ar
  1356  1256  1257   ar
  1357  1279  1278    2
  1358    41    34   ar
  1359  1295  1294    1
  1360  1236  1235   ar
  1361  1236  1237    2
  1362     6     7    1
  1363     6     8    1
  1364  1235  1234    1
  1365  1262  1263   ar
  1366  1278  1277   ar
  1367  1298  1300   ar
  1368  1298  1297   ar
  1369    46    44    1
  1370    46    45    1
  1371    48    47    1
  1372    47    45    1
  1373    10     8    1
  1374    34    33    1
  1375     7    24    1
  1376  1296  1294    1
  1377  1296  1297    1
  1378  1296  1291    1
  1379  1300  1301   ar
  1380    44    65    1
  1381    44    30    1
  1382  1229  1234    1
  1383  1229  1228    1
  1384    12    14   ar
  1385    12    13    1
  1386  1258  1257   ar
  1387  1258  1264   ar
  1388  1226  1228    1
  1389    24    26    1
  1390    24    42    1
  1391  1294  1292    1
  1392  1297  1304   ar
  1393     8     9    1
  1394  1234  1232    1
  1395  1283  1284   ar
  1396  1263  1264   ar
  1397  1291  1290    1
  1398    31    29    1
  1399    31    33    1
  1400    31    32    1
  1401  1277  1284   ar
  1402  1277  1276    1
  1403    29    30    1
  1404    29    27    1
  1405  1228  1230    1
  1406    26    25    1
  1407    33    28    1
  1408  1301  1302    1
  1409  1301  1303   ar
  1410  1264  1254    1
  1411  1290  1292    1
  1412  1290  1288    1
  1413  1230  1232    1
  1414  1230  1231    1
  1415  1304  1303   ar
  1416  1292  1293    1
  1417  1232  1233    1
  1418  1276  1274    1
  1419  1276  1271    1
  1420  1293  1307    1
  1421    28    27    1
  1422  1266  1245    2
  1423    27    25    1
  1424  1274  1275    1
  1425  1274  1272    1
  1426  1254  1249    1
  1427  1254  1252    1
  1428  1231  1245    1
  1429  1288  1289    1
  1430  1328  1307    2
  1431  1271  1270    1
  1432  1245  1247    1
  1433  1245  1265    1
  1434  1249  1248    1
  1435  1307  1309    1
  1436  1307  1327    1
  1437  1247  1246    1
  1438  1289  1287    1
  1439  1252  1250    1
  1440  1252  1253    1
  1441  1272  1270    1
  1442  1272  1273    1
  1443  1309  1308    1
  1444  1250  1248    1
  1445  1250  1251    1
  1446  1270  1268    1
  1447  1248  1246    1
  1448  1286  1267    2
  1449  1269  1268    1
  1450  1269  1267    1
  1451  1273  1287    1
  1452  1315  1314    1
  1453  1287  1306    2
  1454  1287  1305    1
  1455  1314  1312    1
  1456  1314  1316    1
  1457  1325  1324   ar
  1458  1325  1326   ar
  1459  1324  1321   ar
  1460  1308  1310    1
  1461  1267  1251    1
  1462  1267  1285    1
  1463  1312  1310    1
  1464  1312  1313    1
  1465  1326  1316    1
  1466  1326  1320   ar
  1467  1310  1311    1
  1468  1321  1320   ar
  1469  1321  1322   ar
  1470  1316  1311    1
  1471  1323  1322    1
  1472  1320  1319   ar
  1473  1322  1317   ar
  1474  1319  1318   ar
  1475  1317  1318   ar
