1lc4
 OpenBabel02141814113D
libRbt.so/2013.1/901 2013/11/27
 32 34  0  0  0  0  0  0  0  0999 V2000
  -10.4536    5.6814   19.4065 C   0  0  2  0  0  0  0  0  0  0  0  0
  -11.4626    6.5265   19.9002 O   0  0  0  0  0  0  0  0  0  0  0  0
  -10.6916    4.2672   19.9742 C   0  0  2  0  0  0  0  0  0  0  0  0
  -12.0223    3.7827   19.5944 N   0  3  0  0  0  0  0  0  0  0  0  0
  -10.5106    4.2731   21.5103 C   0  0  0  0  0  0  0  0  0  0  0  0
   -9.0797    4.7556   21.8060 C   0  0  2  0  0  0  0  0  0  0  0  0
   -8.8284    4.7387   23.2152 O   0  0  0  0  0  0  0  0  0  0  0  0
   -8.8869    6.1754   21.2174 C   0  0  2  0  0  0  0  0  0  0  0  0
   -9.1478    6.1702   19.7849 O   0  0  0  0  0  0  0  0  0  0  0  0
   -7.4769    6.7280   21.4099 C   0  0  0  0  0  0  0  0  0  0  0  0
   -7.4755    8.2145   21.4005 N   0  3  0  0  0  0  0  0  0  0  0  0
  -13.8114    9.7844   18.5478 C   0  0  2  0  0  0  0  0  0  0  0  0
  -14.2416   11.0423   17.9103 N   0  3  0  0  0  0  0  0  0  0  0  0
  -12.7608   10.0759   19.6106 C   0  0  0  0  0  0  0  0  0  0  0  0
  -12.3024    8.7748   20.2787 C   0  0  2  0  0  0  0  0  0  0  0  0
  -11.3717    9.1173   21.3828 N   0  3  0  0  0  0  0  0  0  0  0  0
  -11.7147    7.7798   19.2337 C   0  0  2  0  0  0  0  0  0  0  0  0
  -12.7607    7.5257   18.1179 C   0  0  2  0  0  0  0  0  0  0  0  0
  -12.1741    6.7609   17.0927 O   0  0  0  0  0  0  0  0  0  0  0  0
  -13.2257    8.8501   17.4910 C   0  0  1  0  0  0  0  0  0  0  0  0
  -14.2086    8.5695   16.4950 O   0  0  0  0  0  0  0  0  0  0  0  0
  -14.0797    9.2167   15.2761 C   0  0  2  0  0  0  0  0  0  0  0  0
  -15.4820    9.4569   14.6911 C   0  0  2  0  0  0  0  0  0  0  0  0
  -16.2246   10.2547   15.6043 O   0  0  0  0  0  0  0  0  0  0  0  0
  -16.1862    8.1055   14.4778 C   0  0  1  0  0  0  0  0  0  0  0  0
  -17.5629    8.2765   13.9304 N   0  3  0  0  0  0  0  0  0  0  0  0
  -15.3294    7.2267   13.5341 C   0  0  2  0  0  0  0  0  0  0  0  0
  -15.9455    5.9561   13.3376 O   0  0  0  0  0  0  0  0  0  0  0  0
  -13.9101    7.0579   14.1073 C   0  0  2  0  0  0  0  0  0  0  0  0
  -13.3057    8.3735   14.3838 O   0  0  0  0  0  0  0  0  0  0  0  0
  -12.9888    6.3390   13.1470 C   0  0  0  0  0  0  0  0  0  0  0  0
  -12.7100    7.1302   11.9939 O   0  0  0  0  0  0  0  0  0  0  0  0
  1  2  1  1  0  0  0
  1  3  1  0  0  0  0
  1  9  1  0  0  0  0
  3  4  1  1  0  0  0
  3  5  1  0  0  0  0
  5  6  1  0  0  0  0
  6  7  1  1  0  0  0
  6  8  1  0  0  0  0
  8  9  1  0  0  0  0
  8 10  1  6  0  0  0
 10 11  1  0  0  0  0
 12 13  1  6  0  0  0
 12 14  1  0  0  0  0
 12 20  1  0  0  0  0
 14 15  1  0  0  0  0
 15 16  1  1  0  0  0
 15 17  1  0  0  0  0
 17  2  1  1  0  0  0
 17 18  1  0  0  0  0
 18 19  1  6  0  0  0
 18 20  1  0  0  0  0
 20 21  1  6  0  0  0
 22 21  1  1  0  0  0
 22 23  1  0  0  0  0
 22 30  1  0  0  0  0
 23 24  1  1  0  0  0
 23 25  1  0  0  0  0
 25 26  1  6  0  0  0
 25 27  1  0  0  0  0
 27 28  1  1  0  0  0
 27 29  1  0  0  0  0
 29 30  1  0  0  0  0
 29 31  1  6  0  0  0
 31 32  1  0  0  0  0
M  CHG  5   4   1  11   1  13   1  16   1  26   1
M  END
>  <CHROM.1>
-161.78884087,-152.84434610,178.76141269,-64.11741429,-154.99219903,159.33713579
-176.19382856,54.24706268,179.80886767,104.07048737,-148.15194364,179.22172709
178.90783382,179.23270980,68.12800955,65.12369328,-12.46464817,7.41782942
17.78875383,-0.31720125,0.86924261,-2.44628866

>  <Name>
1lc4

>  <RI>
0

>  <Rbt.Current_Directory>
/home/afrankz/demos/rdock_decoys_rna/rnas/1lc4

>  <Rbt.Executable>
rbdock ($Id: //depot/dev/client3/rdock/2013.1/src/exe/rbdock.cxx#4 $)

>  <Rbt.Library>
libRbt.so (2013.1, Build901 2013/11/27)

>  <Rbt.Parameter_File>
/export/apps/rDock/src/rDock_2013.1_src/data/scripts/dock_solv.prm

>  <Rbt.Receptor>
prm/pocket_docking_2.prm

>  <SCORE>
-74.3205

>  <SCORE.INTER>
-54.2982

>  <SCORE.INTER.CONST>
1

>  <SCORE.INTER.POLAR>
-7.54454

>  <SCORE.INTER.ROT>
6

>  <SCORE.INTER.SOLV>
26.153

>  <SCORE.INTER.VDW>
-27.368

>  <SCORE.INTER.norm>
-1.69682

>  <SCORE.INTRA>
-20.4342

>  <SCORE.INTRA.DIHEDRAL>
-26.1221

>  <SCORE.INTRA.DIHEDRAL.0>
44.2576

>  <SCORE.INTRA.POLAR>
-0.78802

>  <SCORE.INTRA.POLAR.0>
-0.381556

>  <SCORE.INTRA.REPUL>
0

>  <SCORE.INTRA.REPUL.0>
0

>  <SCORE.INTRA.SOLV>
-0.599793

>  <SCORE.INTRA.SOLV.lig_0>
-134.592

>  <SCORE.INTRA.VDW>
-4.39399

>  <SCORE.INTRA.VDW.0>
-1.01417

>  <SCORE.INTRA.norm>
-0.638569

>  <SCORE.RESTR>
0.411875

>  <SCORE.RESTR.CAVITY>
0.411875

>  <SCORE.RESTR.norm>
0.0128711

>  <SCORE.SYSTEM>
0

>  <SCORE.SYSTEM.CONST>
0

>  <SCORE.SYSTEM.DIHEDRAL>
0

>  <SCORE.SYSTEM.SOLV>
0

>  <SCORE.SYSTEM.norm>
0

>  <SCORE.heavy>
32

>  <SCORE.norm>
-2.32252

>  <RMSD>
0.499

$$$$
1lc4
 OpenBabel02141814113D
libRbt.so/2013.1/901 2013/11/27
 32 34  0  0  0  0  0  0  0  0999 V2000
   -9.8947    6.0582   19.5178 C   0  0  2  0  0  0  0  0  0  0  0  0
  -11.1661    6.6009   19.7726 O   0  0  0  0  0  0  0  0  0  0  0  0
   -9.8939    4.5921   19.9968 C   0  0  2  0  0  0  0  0  0  0  0  0
  -10.9427    3.8311   19.3109 N   0  3  0  0  0  0  0  0  0  0  0  0
  -10.0676    4.5341   21.5327 C   0  0  0  0  0  0  0  0  0  0  0  0
   -8.9049    5.3230   22.1601 C   0  0  2  0  0  0  0  0  0  0  0  0
   -8.9783    5.2685   23.5887 O   0  0  0  0  0  0  0  0  0  0  0  0
   -8.9451    6.7851   21.6503 C   0  0  2  0  0  0  0  0  0  0  0  0
   -8.8700    6.8175   20.1965 O   0  0  0  0  0  0  0  0  0  0  0  0
   -7.7966    7.6442   22.1735 C   0  0  0  0  0  0  0  0  0  0  0  0
   -6.5649    7.4463   21.3651 N   0  3  0  0  0  0  0  0  0  0  0  0
  -13.7719    9.7250   18.5852 C   0  0  2  0  0  0  0  0  0  0  0  0
  -14.3016   10.9799   18.0208 N   0  3  0  0  0  0  0  0  0  0  0  0
  -12.7652   10.0365   19.6843 C   0  0  0  0  0  0  0  0  0  0  0  0
  -12.2041    8.7391   20.2770 C   0  0  2  0  0  0  0  0  0  0  0  0
  -11.3219    9.0882   21.4182 N   0  3  0  0  0  0  0  0  0  0  0  0
  -11.5176    7.8685   19.1823 C   0  0  2  0  0  0  0  0  0  0  0  0
  -12.5223    7.5981   18.0329 C   0  0  2  0  0  0  0  0  0  0  0  0
  -11.8573    6.9550   16.9725 O   0  0  0  0  0  0  0  0  0  0  0  0
  -13.0925    8.9154   17.4825 C   0  0  1  0  0  0  0  0  0  0  0  0
  -14.0336    8.6163   16.4522 O   0  0  0  0  0  0  0  0  0  0  0  0
  -13.8669    9.2577   15.2348 C   0  0  2  0  0  0  0  0  0  0  0  0
  -15.2502    9.4920   14.6039 C   0  0  2  0  0  0  0  0  0  0  0  0
  -16.0234   10.2927   15.4888 O   0  0  0  0  0  0  0  0  0  0  0  0
  -15.9445    8.1381   14.3748 C   0  0  1  0  0  0  0  0  0  0  0  0
  -17.3032    8.3033   13.7826 N   0  3  0  0  0  0  0  0  0  0  0  0
  -15.0560    7.2565   13.4635 C   0  0  2  0  0  0  0  0  0  0  0  0
  -15.6629    5.9835   13.2537 O   0  0  0  0  0  0  0  0  0  0  0  0
  -13.6555    7.0936   14.0829 C   0  0  2  0  0  0  0  0  0  0  0  0
  -13.0630    8.4119   14.3720 O   0  0  0  0  0  0  0  0  0  0  0  0
  -12.7024    6.3719   13.1562 C   0  0  0  0  0  0  0  0  0  0  0  0
  -12.5604    7.0545   11.9123 O   0  0  0  0  0  0  0  0  0  0  0  0
  1  2  1  1  0  0  0
  1  3  1  0  0  0  0
  1  9  1  0  0  0  0
  3  4  1  6  0  0  0
  3  5  1  0  0  0  0
  5  6  1  0  0  0  0
  6  7  1  1  0  0  0
  6  8  1  0  0  0  0
  8  9  1  0  0  0  0
  8 10  1  1  0  0  0
 10 11  1  0  0  0  0
 12 13  1  6  0  0  0
 12 14  1  0  0  0  0
 12 20  1  0  0  0  0
 14 15  1  0  0  0  0
 15 16  1  1  0  0  0
 15 17  1  0  0  0  0
 17  2  1  1  0  0  0
 17 18  1  0  0  0  0
 18 19  1  6  0  0  0
 18 20  1  0  0  0  0
 20 21  1  6  0  0  0
 22 21  1  1  0  0  0
 22 23  1  0  0  0  0
 22 30  1  0  0  0  0
 23 24  1  1  0  0  0
 23 25  1  0  0  0  0
 25 26  1  6  0  0  0
 25 27  1  0  0  0  0
 27 28  1  1  0  0  0
 27 29  1  0  0  0  0
 29 30  1  0  0  0  0
 29 31  1  6  0  0  0
 31 32  1  0  0  0  0
M  CHG  5   4   1  11   1  13   1  16   1  26   1
M  END
>  <CHROM.1>
-167.75955765,-135.30335689,24.95486267,171.75708463,82.43432516,-54.43259548
-60.27591632,169.26235927,-176.72545450,110.07010280,-147.46675285,179.41019463
-72.94102342,-57.88040509,58.48742477,-61.06408667,-12.21533410,7.53262688
17.82297308,-0.48173628,0.81208940,-2.27451571

>  <Name>
1lc4

>  <RI>
0

>  <Rbt.Current_Directory>
/home/afrankz/demos/rdock_decoys_rna/rnas/1lc4

>  <Rbt.Executable>
rbdock ($Id: //depot/dev/client3/rdock/2013.1/src/exe/rbdock.cxx#4 $)

>  <Rbt.Library>
libRbt.so (2013.1, Build901 2013/11/27)

>  <Rbt.Parameter_File>
/export/apps/rDock/src/rDock_2013.1_src/data/scripts/dock_solv.prm

>  <Rbt.Receptor>
prm/pocket_docking_2.prm

>  <SCORE>
-66.4526

>  <SCORE.INTER>
-50.0623

>  <SCORE.INTER.CONST>
1

>  <SCORE.INTER.POLAR>
-7.31496

>  <SCORE.INTER.ROT>
6

>  <SCORE.INTER.SOLV>
31.3085

>  <SCORE.INTER.VDW>
-27.0279

>  <SCORE.INTER.norm>
-1.56445

>  <SCORE.INTRA>
-16.8695

>  <SCORE.INTRA.DIHEDRAL>
-21.5102

>  <SCORE.INTRA.DIHEDRAL.0>
44.2576

>  <SCORE.INTRA.POLAR>
-0.791748

>  <SCORE.INTRA.POLAR.0>
-0.381556

>  <SCORE.INTRA.REPUL>
0

>  <SCORE.INTRA.REPUL.0>
0

>  <SCORE.INTRA.SOLV>
0.968652

>  <SCORE.INTRA.SOLV.lig_0>
-134.592

>  <SCORE.INTRA.VDW>
-3.90683

>  <SCORE.INTRA.VDW.0>
-1.01417

>  <SCORE.INTRA.norm>
-0.527173

>  <SCORE.RESTR>
0.479239

>  <SCORE.RESTR.CAVITY>
0.479239

>  <SCORE.RESTR.norm>
0.0149762

>  <SCORE.SYSTEM>
0

>  <SCORE.SYSTEM.CONST>
0

>  <SCORE.SYSTEM.DIHEDRAL>
0

>  <SCORE.SYSTEM.SOLV>
0

>  <SCORE.SYSTEM.norm>
0

>  <SCORE.heavy>
32

>  <SCORE.norm>
-2.07664

>  <RMSD>
0.515

$$$$
1lc4
 OpenBabel02141814113D
libRbt.so/2013.1/901 2013/11/27
 32 34  0  0  0  0  0  0  0  0999 V2000
  -10.2253    5.8350   19.4422 C   0  0  2  0  0  0  0  0  0  0  0  0
  -11.2963    6.6091   19.9215 O   0  0  0  0  0  0  0  0  0  0  0  0
  -10.4352    4.3814   19.9132 C   0  0  2  0  0  0  0  0  0  0  0  0
  -11.7198    3.8684   19.4272 N   0  3  0  0  0  0  0  0  0  0  0  0
  -10.3437    4.3034   21.4553 C   0  0  0  0  0  0  0  0  0  0  0  0
   -8.9541    4.8233   21.8635 C   0  0  2  0  0  0  0  0  0  0  0  0
   -8.7841    4.7328   23.2820 O   0  0  0  0  0  0  0  0  0  0  0  0
   -8.7884    6.2819   21.3691 C   0  0  2  0  0  0  0  0  0  0  0  0
   -8.9656    6.3514   19.9256 O   0  0  0  0  0  0  0  0  0  0  0  0
   -7.4167    6.8771   21.6772 C   0  0  0  0  0  0  0  0  0  0  0  0
   -7.4172    8.3525   21.4962 N   0  3  0  0  0  0  0  0  0  0  0  0
  -13.6486    9.9460   18.7849 C   0  0  2  0  0  0  0  0  0  0  0  0
  -14.0828   11.2369   18.2203 N   0  3  0  0  0  0  0  0  0  0  0  0
  -12.5727   10.1772   19.8372 C   0  0  0  0  0  0  0  0  0  0  0  0
  -12.1100    8.8415   20.4295 C   0  0  2  0  0  0  0  0  0  0  0  0
  -11.1527    9.1224   21.5283 N   0  3  0  0  0  0  0  0  0  0  0  0
  -11.5531    7.8957   19.3237 C   0  0  2  0  0  0  0  0  0  0  0  0
  -12.6253    7.7044   18.2203 C   0  0  2  0  0  0  0  0  0  0  0  0
  -12.0673    6.9877   17.1456 O   0  0  0  0  0  0  0  0  0  0  0  0
  -13.0935    9.0615   17.6702 C   0  0  1  0  0  0  0  0  0  0  0  0
  -14.1002    8.8374   16.6838 O   0  0  0  0  0  0  0  0  0  0  0  0
  -14.0011    9.5544   15.5017 C   0  0  2  0  0  0  0  0  0  0  0  0
  -15.4166    9.8114   14.9571 C   0  0  2  0  0  0  0  0  0  0  0  0
  -16.1502   10.5473   15.9279 O   0  0  0  0  0  0  0  0  0  0  0  0
  -16.1106    8.4664   14.6798 C   0  0  1  0  0  0  0  0  0  0  0  0
  -17.4991    8.6525   14.1683 N   0  3  0  0  0  0  0  0  0  0  0  0
  -15.2627    7.6528   13.6718 C   0  0  2  0  0  0  0  0  0  0  0  0
  -15.8691    6.3884   13.4143 O   0  0  0  0  0  0  0  0  0  0  0  0
  -13.8311    7.4679   14.2084 C   0  0  2  0  0  0  0  0  0  0  0  0
  -13.2354    8.7725   14.5486 O   0  0  0  0  0  0  0  0  0  0  0  0
  -12.9207    6.8155   13.1918 C   0  0  0  0  0  0  0  0  0  0  0  0
  -12.7905    7.6109   12.0155 O   0  0  0  0  0  0  0  0  0  0  0  0
  1  2  1  1  0  0  0
  1  3  1  0  0  0  0
  1  9  1  0  0  0  0
  3  4  1  1  0  0  0
  3  5  1  0  0  0  0
  5  6  1  0  0  0  0
  6  7  1  1  0  0  0
  6  8  1  0  0  0  0
  8  9  1  0  0  0  0
  8 10  1  6  0  0  0
 10 11  1  0  0  0  0
 12 13  1  6  0  0  0
 12 14  1  0  0  0  0
 12 20  1  0  0  0  0
 14 15  1  0  0  0  0
 15 16  1  1  0  0  0
 15 17  1  0  0  0  0
 17  2  1  1  0  0  0
 17 18  1  0  0  0  0
 18 19  1  6  0  0  0
 18 20  1  0  0  0  0
 20 21  1  6  0  0  0
 22 21  1  1  0  0  0
 22 23  1  0  0  0  0
 22 30  1  0  0  0  0
 23 24  1  1  0  0  0
 23 25  1  0  0  0  0
 25 26  1  6  0  0  0
 25 27  1  0  0  0  0
 27 28  1  1  0  0  0
 27 29  1  0  0  0  0
 29 30  1  0  0  0  0
 29 31  1  6  0  0  0
 31 32  1  0  0  0  0
M  CHG  5   4   1  11   1  13   1  16   1  26   1
M  END
>  <CHROM.1>
-162.50263450,-147.10287956,-57.13827182,177.57887216,-165.90543438,-67.18352770
64.35763878,175.42802694,58.87672227,103.38001894,-148.80518715,174.59735647
179.81418944,-60.08488070,61.66269809,-62.01978355,-12.34316338,7.63265379
17.91740947,-0.29533910,0.86791931,-2.43153642

>  <Name>
1lc4

>  <RI>
0

>  <Rbt.Current_Directory>
/home/afrankz/demos/rdock_decoys_rna/rnas/1lc4

>  <Rbt.Executable>
rbdock ($Id: //depot/dev/client3/rdock/2013.1/src/exe/rbdock.cxx#4 $)

>  <Rbt.Library>
libRbt.so (2013.1, Build901 2013/11/27)

>  <Rbt.Parameter_File>
/export/apps/rDock/src/rDock_2013.1_src/data/scripts/dock_solv.prm

>  <Rbt.Receptor>
prm/pocket_docking_3.prm

>  <SCORE>
-71.7988

>  <SCORE.INTER>
-50.9933

>  <SCORE.INTER.CONST>
1

>  <SCORE.INTER.POLAR>
-6.65898

>  <SCORE.INTER.ROT>
6

>  <SCORE.INTER.SOLV>
28.2994

>  <SCORE.INTER.VDW>
-28.8321

>  <SCORE.INTER.norm>
-1.59354

>  <SCORE.INTRA>
-20.8055

>  <SCORE.INTRA.DIHEDRAL>
-27.7263

>  <SCORE.INTRA.DIHEDRAL.0>
44.2576

>  <SCORE.INTRA.POLAR>
-0.787084

>  <SCORE.INTRA.POLAR.0>
-0.381556

>  <SCORE.INTRA.REPUL>
0

>  <SCORE.INTRA.REPUL.0>
0

>  <SCORE.INTRA.SOLV>
1.14918

>  <SCORE.INTRA.SOLV.lig_0>
-134.592

>  <SCORE.INTRA.VDW>
-4.84088

>  <SCORE.INTRA.VDW.0>
-1.01417

>  <SCORE.INTRA.norm>
-0.650173

>  <SCORE.RESTR>
0

>  <SCORE.RESTR.CAVITY>
0

>  <SCORE.RESTR.norm>
0

>  <SCORE.SYSTEM>
0

>  <SCORE.SYSTEM.CONST>
0

>  <SCORE.SYSTEM.DIHEDRAL>
0

>  <SCORE.SYSTEM.SOLV>
0

>  <SCORE.SYSTEM.norm>
0

>  <SCORE.heavy>
32

>  <SCORE.norm>
-2.24371

>  <RMSD>
0.526

$$$$
1lc4
 OpenBabel02141814113D
libRbt.so/2013.1/901 2013/11/27
 32 34  0  0  0  0  0  0  0  0999 V2000
   -9.9117    5.7089   19.7053 C   0  0  2  0  0  0  0  0  0  0  0  0
  -11.0251    6.4644   20.1126 O   0  0  0  0  0  0  0  0  0  0  0  0
  -10.0351    4.3011   20.3231 C   0  0  2  0  0  0  0  0  0  0  0  0
  -11.2887    3.6677   19.9023 N   0  3  0  0  0  0  0  0  0  0  0  0
   -9.9355    4.3858   21.8644 C   0  0  0  0  0  0  0  0  0  0  0  0
   -8.5777    5.0241   22.2061 C   0  0  2  0  0  0  0  0  0  0  0  0
   -8.3994    5.0885   23.6250 O   0  0  0  0  0  0  0  0  0  0  0  0
   -8.4988    6.4321   21.5650 C   0  0  2  0  0  0  0  0  0  0  0  0
   -8.6832    6.3439   20.1234 O   0  0  0  0  0  0  0  0  0  0  0  0
   -7.1636    7.1340   21.7997 C   0  0  0  0  0  0  0  0  0  0  0  0
   -7.3026    8.6091   21.6800 N   0  3  0  0  0  0  0  0  0  0  0  0
  -13.4172    9.6908   18.7606 C   0  0  2  0  0  0  0  0  0  0  0  0
  -13.8611   10.9513   18.1378 N   0  3  0  0  0  0  0  0  0  0  0  0
  -12.4067    9.9851   19.8609 C   0  0  0  0  0  0  0  0  0  0  0  0
  -11.9345    8.6814   20.5141 C   0  0  2  0  0  0  0  0  0  0  0  0
  -11.0464    9.0227   21.6531 N   0  3  0  0  0  0  0  0  0  0  0  0
  -11.2900    7.7255   19.4661 C   0  0  2  0  0  0  0  0  0  0  0  0
  -12.2953    7.4699   18.3138 C   0  0  2  0  0  0  0  0  0  0  0  0
  -11.6585    6.7437   17.2905 O   0  0  0  0  0  0  0  0  0  0  0  0
  -12.7759    8.7958   17.7019 C   0  0  1  0  0  0  0  0  0  0  0  0
  -13.7210    8.5126   16.6708 O   0  0  0  0  0  0  0  0  0  0  0  0
  -13.4104    8.9417   15.3899 C   0  0  2  0  0  0  0  0  0  0  0  0
  -14.7039    9.3934   14.6905 C   0  0  2  0  0  0  0  0  0  0  0  0
  -15.2829   10.4506   15.4449 O   0  0  0  0  0  0  0  0  0  0  0  0
  -15.6815    8.2081   14.6070 C   0  0  1  0  0  0  0  0  0  0  0  0
  -16.9667    8.5925   13.9553 N   0  3  0  0  0  0  0  0  0  0  0  0
  -15.0081    7.0439   13.8400 C   0  0  2  0  0  0  0  0  0  0  0  0
  -15.8826    5.9202   13.7685 O   0  0  0  0  0  0  0  0  0  0  0  0
  -13.6817    6.6560   14.5198 C   0  0  2  0  0  0  0  0  0  0  0  0
  -12.8115    7.8369   14.6640 O   0  0  0  0  0  0  0  0  0  0  0  0
  -12.9096    5.6303   13.7201 C   0  0  0  0  0  0  0  0  0  0  0  0
  -12.4958    6.1501   12.4583 O   0  0  0  0  0  0  0  0  0  0  0  0
  1  2  1  1  0  0  0
  1  3  1  0  0  0  0
  1  9  1  0  0  0  0
  3  4  1  1  0  0  0
  3  5  1  0  0  0  0
  5  6  1  0  0  0  0
  6  7  1  1  0  0  0
  6  8  1  0  0  0  0
  8  9  1  0  0  0  0
  8 10  1  6  0  0  0
 10 11  1  0  0  0  0
 12 13  1  6  0  0  0
 12 14  1  0  0  0  0
 12 20  1  0  0  0  0
 14 15  1  0  0  0  0
 15 16  1  1  0  0  0
 15 17  1  0  0  0  0
 17  2  1  1  0  0  0
 17 18  1  0  0  0  0
 18 19  1  6  0  0  0
 18 20  1  0  0  0  0
 20 21  1  6  0  0  0
 22 21  1  1  0  0  0
 22 23  1  0  0  0  0
 22 30  1  0  0  0  0
 23 24  1  1  0  0  0
 23 25  1  0  0  0  0
 25 26  1  6  0  0  0
 25 27  1  0  0  0  0
 27 28  1  1  0  0  0
 27 29  1  0  0  0  0
 29 30  1  0  0  0  0
 29 31  1  6  0  0  0
 31 32  1  0  0  0  0
M  CHG  5   4   1  11   1  13   1  16   1  26   1
M  END
>  <CHROM.1>
-167.88497904,-147.56109070,-51.15393408,70.91524717,-156.87175630,169.45433960
-55.70458568,-178.34760197,-57.79969263,118.41337660,-143.84141232,144.82483601
-64.00472508,-62.98668613,64.43236534,179.95808919,-12.01554989,7.37056441
18.05410346,-0.28957519,0.87908682,-2.53345701

>  <Name>
1lc4

>  <RI>
0

>  <Rbt.Current_Directory>
/home/afrankz/demos/rdock_decoys_rna/rnas/1lc4

>  <Rbt.Executable>
rbdock ($Id: //depot/dev/client3/rdock/2013.1/src/exe/rbdock.cxx#4 $)

>  <Rbt.Library>
libRbt.so (2013.1, Build901 2013/11/27)

>  <Rbt.Parameter_File>
/export/apps/rDock/src/rDock_2013.1_src/data/scripts/dock_solv.prm

>  <Rbt.Receptor>
prm/pocket_docking_5.prm

>  <SCORE>
-74.2156

>  <SCORE.INTER>
-56.3707

>  <SCORE.INTER.CONST>
1

>  <SCORE.INTER.POLAR>
-8.06481

>  <SCORE.INTER.ROT>
6

>  <SCORE.INTER.SOLV>
28.4719

>  <SCORE.INTER.VDW>
-27.7884

>  <SCORE.INTER.norm>
-1.76159

>  <SCORE.INTRA>
-17.8448

>  <SCORE.INTRA.DIHEDRAL>
-19.9467

>  <SCORE.INTRA.DIHEDRAL.0>
44.2576

>  <SCORE.INTRA.POLAR>
-0.80701

>  <SCORE.INTRA.POLAR.0>
-0.381556

>  <SCORE.INTRA.REPUL>
0

>  <SCORE.INTRA.REPUL.0>
0

>  <SCORE.INTRA.SOLV>
0.516735

>  <SCORE.INTRA.SOLV.lig_0>
-134.592

>  <SCORE.INTRA.VDW>
-5.386

>  <SCORE.INTRA.VDW.0>
-1.01417

>  <SCORE.INTRA.norm>
-0.557651

>  <SCORE.RESTR>
0

>  <SCORE.RESTR.CAVITY>
0

>  <SCORE.RESTR.norm>
0

>  <SCORE.SYSTEM>
0

>  <SCORE.SYSTEM.CONST>
0

>  <SCORE.SYSTEM.DIHEDRAL>
0

>  <SCORE.SYSTEM.SOLV>
0

>  <SCORE.SYSTEM.norm>
0

>  <SCORE.heavy>
32

>  <SCORE.norm>
-2.31924

>  <RMSD>
0.534

$$$$
1lc4
 OpenBabel02141814113D
libRbt.so/2013.1/901 2013/11/27
 32 34  0  0  0  0  0  0  0  0999 V2000
  -10.1963    6.0392   19.3601 C   0  0  2  0  0  0  0  0  0  0  0  0
  -11.3965    6.6696   19.7316 O   0  0  0  0  0  0  0  0  0  0  0  0
  -10.2166    4.6015   19.9181 C   0  0  2  0  0  0  0  0  0  0  0  0
  -11.3801    3.8718   19.4048 N   0  3  0  0  0  0  0  0  0  0  0  0
  -10.2064    4.6308   21.4646 C   0  0  0  0  0  0  0  0  0  0  0  0
   -8.9357    5.3785   21.9050 C   0  0  2  0  0  0  0  0  0  0  0  0
   -8.8388    5.4000   23.3331 O   0  0  0  0  0  0  0  0  0  0  0  0
   -8.9583    6.8131   21.3212 C   0  0  2  0  0  0  0  0  0  0  0  0
   -9.0577    6.7682   19.8693 O   0  0  0  0  0  0  0  0  0  0  0  0
   -7.7104    7.6264   21.6560 C   0  0  0  0  0  0  0  0  0  0  0  0
   -6.4729    6.8456   21.3942 N   0  3  0  0  0  0  0  0  0  0  0  0
  -14.0033    9.7844   18.5221 C   0  0  2  0  0  0  0  0  0  0  0  0
  -14.5368   11.0256   17.9316 N   0  3  0  0  0  0  0  0  0  0  0  0
  -12.9562   10.1208   19.5751 C   0  0  0  0  0  0  0  0  0  0  0  0
  -12.3909    8.8377   20.1943 C   0  0  2  0  0  0  0  0  0  0  0  0
  -11.4663    9.2149   21.2922 N   0  3  0  0  0  0  0  0  0  0  0  0
  -11.7526    7.9202   19.1088 C   0  0  2  0  0  0  0  0  0  0  0  0
  -12.7989    7.6230   18.0040 C   0  0  2  0  0  0  0  0  0  0  0  0
  -12.1781    6.9344   16.9455 O   0  0  0  0  0  0  0  0  0  0  0  0
  -13.3716    8.9276   17.4267 C   0  0  1  0  0  0  0  0  0  0  0  0
  -14.3507    8.6051   16.4397 O   0  0  0  0  0  0  0  0  0  0  0  0
  -14.1419    9.0877   15.1572 C   0  0  2  0  0  0  0  0  0  0  0  0
  -15.5047    9.4073   14.5193 C   0  0  2  0  0  0  0  0  0  0  0  0
  -16.1632   10.3817   15.3188 O   0  0  0  0  0  0  0  0  0  0  0  0
  -16.3506    8.1239   14.4486 C   0  0  1  0  0  0  0  0  0  0  0  0
  -17.6958    8.3769   13.8566 N   0  3  0  0  0  0  0  0  0  0  0  0
  -15.5872    7.0538   13.6306 C   0  0  2  0  0  0  0  0  0  0  0  0
  -16.3369    5.8426   13.5692 O   0  0  0  0  0  0  0  0  0  0  0  0
  -14.1996    6.8015   14.2490 C   0  0  2  0  0  0  0  0  0  0  0  0
  -13.4574    8.0677   14.3845 O   0  0  0  0  0  0  0  0  0  0  0  0
  -13.3545    5.8803   13.3973 C   0  0  0  0  0  0  0  0  0  0  0  0
  -13.0178    6.4804   12.1484 O   0  0  0  0  0  0  0  0  0  0  0  0
  1  2  1  1  0  0  0
  1  3  1  0  0  0  0
  1  9  1  0  0  0  0
  3  4  1  1  0  0  0
  3  5  1  0  0  0  0
  5  6  1  0  0  0  0
  6  7  1  1  0  0  0
  6  8  1  0  0  0  0
  8  9  1  0  0  0  0
  8 10  1  6  0  0  0
 10 11  1  0  0  0  0
 12 13  1  6  0  0  0
 12 14  1  0  0  0  0
 12 20  1  0  0  0  0
 14 15  1  0  0  0  0
 15 16  1  1  0  0  0
 15 17  1  0  0  0  0
 17  2  1  1  0  0  0
 17 18  1  0  0  0  0
 18 19  1  6  0  0  0
 18 20  1  0  0  0  0
 20 21  1  6  0  0  0
 22 21  1  1  0  0  0
 22 23  1  0  0  0  0
 22 30  1  0  0  0  0
 23 24  1  1  0  0  0
 23 25  1  0  0  0  0
 25 26  1  6  0  0  0
 25 27  1  0  0  0  0
 27 28  1  1  0  0  0
 27 29  1  0  0  0  0
 29 30  1  0  0  0  0
 29 31  1  6  0  0  0
 31 32  1  0  0  0  0
M  CHG  5   4   1  11   1  13   1  16   1  26   1
M  END
>  <CHROM.1>
-167.32196055,-141.14669502,53.09849467,-62.20817891,47.57690264,47.64556861
179.68336619,165.51247216,-55.60657016,116.66543519,-146.27713867,99.14514546
-179.42709741,173.36380967,66.23657345,-59.92950839,-12.47667367,7.47199668
17.77418829,-0.38247516,0.79462830,-2.38708109

>  <Name>
1lc4

>  <RI>
0

>  <Rbt.Current_Directory>
/home/afrankz/demos/rdock_decoys_rna/rnas/1lc4

>  <Rbt.Executable>
rbdock ($Id: //depot/dev/client3/rdock/2013.1/src/exe/rbdock.cxx#4 $)

>  <Rbt.Library>
libRbt.so (2013.1, Build901 2013/11/27)

>  <Rbt.Parameter_File>
/export/apps/rDock/src/rDock_2013.1_src/data/scripts/dock_solv.prm

>  <Rbt.Receptor>
prm/pocket_docking_2.prm

>  <SCORE>
-67.5866

>  <SCORE.INTER>
-50.808

>  <SCORE.INTER.CONST>
1

>  <SCORE.INTER.POLAR>
-7.54953

>  <SCORE.INTER.ROT>
6

>  <SCORE.INTER.SOLV>
31.5058

>  <SCORE.INTER.VDW>
-26.8088

>  <SCORE.INTER.norm>
-1.58775

>  <SCORE.INTRA>
-17.1299

>  <SCORE.INTRA.DIHEDRAL>
-19.5304

>  <SCORE.INTRA.DIHEDRAL.0>
44.2576

>  <SCORE.INTRA.POLAR>
-0.785111

>  <SCORE.INTRA.POLAR.0>
-0.381556

>  <SCORE.INTRA.REPUL>
0

>  <SCORE.INTRA.REPUL.0>
0

>  <SCORE.INTRA.SOLV>
0.257476

>  <SCORE.INTRA.SOLV.lig_0>
-134.592

>  <SCORE.INTRA.VDW>
-4.82408

>  <SCORE.INTRA.VDW.0>
-1.01417

>  <SCORE.INTRA.norm>
-0.53531

>  <SCORE.RESTR>
0.351308

>  <SCORE.RESTR.CAVITY>
0.351308

>  <SCORE.RESTR.norm>
0.0109784

>  <SCORE.SYSTEM>
0

>  <SCORE.SYSTEM.CONST>
0

>  <SCORE.SYSTEM.DIHEDRAL>
0

>  <SCORE.SYSTEM.SOLV>
0

>  <SCORE.SYSTEM.norm>
0

>  <SCORE.heavy>
32

>  <SCORE.norm>
-2.11208

>  <RMSD>
0.548

$$$$
1lc4
 OpenBabel02141814113D
libRbt.so/2013.1/901 2013/11/27
 32 34  0  0  0  0  0  0  0  0999 V2000
  -10.1690    5.7931   19.5173 C   0  0  2  0  0  0  0  0  0  0  0  0
  -11.2019    6.6177   19.9959 O   0  0  0  0  0  0  0  0  0  0  0  0
  -10.4152    4.3631   20.0402 C   0  0  2  0  0  0  0  0  0  0  0  0
  -11.7274    3.8786   19.6011 N   0  3  0  0  0  0  0  0  0  0  0  0
  -10.2887    4.3311   21.5815 C   0  0  0  0  0  0  0  0  0  0  0  0
   -8.8733    4.8165   21.9400 C   0  0  2  0  0  0  0  0  0  0  0  0
   -8.6719    4.7655   23.3564 O   0  0  0  0  0  0  0  0  0  0  0  0
   -8.6716    6.2523   21.3947 C   0  0  2  0  0  0  0  0  0  0  0  0
   -8.8815    6.2817   19.9541 O   0  0  0  0  0  0  0  0  0  0  0  0
   -7.2739    6.8103   21.6512 C   0  0  0  0  0  0  0  0  0  0  0  0
   -7.2754    8.2966   21.6288 N   0  3  0  0  0  0  0  0  0  0  0  0
  -13.7364    9.6123   18.3930 C   0  0  2  0  0  0  0  0  0  0  0  0
  -14.2330   10.8117   17.6941 N   0  3  0  0  0  0  0  0  0  0  0  0
  -12.8005   10.0218   19.5222 C   0  0  0  0  0  0  0  0  0  0  0  0
  -12.2742    8.7826   20.2547 C   0  0  2  0  0  0  0  0  0  0  0  0
  -11.4654    9.2322   21.4150 N   0  3  0  0  0  0  0  0  0  0  0  0
  -11.5191    7.8290   19.2812 C   0  0  2  0  0  0  0  0  0  0  0  0
  -12.4498    7.4562   18.0986 C   0  0  2  0  0  0  0  0  0  0  0  0
  -11.7188    6.7320   17.1388 O   0  0  0  0  0  0  0  0  0  0  0  0
  -12.9880    8.7187   17.4059 C   0  0  1  0  0  0  0  0  0  0  0  0
  -13.8626    8.3277   16.3481 O   0  0  0  0  0  0  0  0  0  0  0  0
  -13.6321    8.8792   15.0975 C   0  0  2  0  0  0  0  0  0  0  0  0
  -14.9768    9.0292   14.3659 C   0  0  2  0  0  0  0  0  0  0  0  0
  -15.8216    9.8744   15.1366 O   0  0  0  0  0  0  0  0  0  0  0  0
  -15.6265    7.6444   14.1994 C   0  0  1  0  0  0  0  0  0  0  0  0
  -16.9479    7.7292   13.5131 N   0  3  0  0  0  0  0  0  0  0  0  0
  -14.6634    6.7196   13.4157 C   0  0  2  0  0  0  0  0  0  0  0  0
  -15.2288    5.4191   13.2676 O   0  0  0  0  0  0  0  0  0  0  0  0
  -13.3021    6.6402   14.1315 C   0  0  2  0  0  0  0  0  0  0  0  0
  -12.7571    7.9915   14.3541 O   0  0  0  0  0  0  0  0  0  0  0  0
  -12.2769    5.8753   13.3241 C   0  0  0  0  0  0  0  0  0  0  0  0
  -11.9993    6.5185   12.0821 O   0  0  0  0  0  0  0  0  0  0  0  0
  1  2  1  1  0  0  0
  1  3  1  0  0  0  0
  1  9  1  0  0  0  0
  3  4  1  1  0  0  0
  3  5  1  0  0  0  0
  5  6  1  0  0  0  0
  6  7  1  1  0  0  0
  6  8  1  0  0  0  0
  8  9  1  0  0  0  0
  8 10  1  6  0  0  0
 10 11  1  0  0  0  0
 12 13  1  6  0  0  0
 12 14  1  0  0  0  0
 12 20  1  0  0  0  0
 14 15  1  0  0  0  0
 15 16  1  1  0  0  0
 15 17  1  0  0  0  0
 17  2  1  1  0  0  0
 17 18  1  0  0  0  0
 18 19  1  6  0  0  0
 18 20  1  0  0  0  0
 20 21  1  6  0  0  0
 22 21  1  1  0  0  0
 22 23  1  0  0  0  0
 22 30  1  0  0  0  0
 23 24  1  1  0  0  0
 23 25  1  0  0  0  0
 25 26  1  6  0  0  0
 25 27  1  0  0  0  0
 27 28  1  1  0  0  0
 27 29  1  0  0  0  0
 29 30  1  0  0  0  0
 29 31  1  6  0  0  0
 31 32  1  0  0  0  0
M  CHG  5   4   1  11   1  13   1  16   1  26   1
M  END
>  <CHROM.1>
-156.31454155,-159.25116617,61.82879744,171.66068988,-157.12338550,-68.68121576
-177.25925105,167.65027389,-58.80896924,109.31188279,-148.03103216,108.43599626
-72.81872401,175.89728387,62.68812256,-62.70327664,-12.12656732,7.26161930
17.76194991,-0.45247245,0.86488003,-2.36188341

>  <Name>
1lc4

>  <RI>
0

>  <Rbt.Current_Directory>
/home/afrankz/demos/rdock_decoys_rna/rnas/1lc4

>  <Rbt.Executable>
rbdock ($Id: //depot/dev/client3/rdock/2013.1/src/exe/rbdock.cxx#4 $)

>  <Rbt.Library>
libRbt.so (2013.1, Build901 2013/11/27)

>  <Rbt.Parameter_File>
/export/apps/rDock/src/rDock_2013.1_src/data/scripts/dock_solv.prm

>  <Rbt.Receptor>
prm/pocket_docking_2.prm

>  <SCORE>
-74.0496

>  <SCORE.INTER>
-56.5397

>  <SCORE.INTER.CONST>
1

>  <SCORE.INTER.POLAR>
-8.19263

>  <SCORE.INTER.ROT>
6

>  <SCORE.INTER.SOLV>
25.125

>  <SCORE.INTER.VDW>
-26.3594

>  <SCORE.INTER.norm>
-1.76687

>  <SCORE.INTRA>
-17.959

>  <SCORE.INTRA.DIHEDRAL>
-19.5034

>  <SCORE.INTRA.DIHEDRAL.0>
44.2576

>  <SCORE.INTRA.POLAR>
-0.793091

>  <SCORE.INTRA.POLAR.0>
-0.381556

>  <SCORE.INTRA.REPUL>
0

>  <SCORE.INTRA.REPUL.0>
0

>  <SCORE.INTRA.SOLV>
-2.14193

>  <SCORE.INTRA.SOLV.lig_0>
-134.592

>  <SCORE.INTRA.VDW>
-4.43985

>  <SCORE.INTRA.VDW.0>
-1.01417

>  <SCORE.INTRA.norm>
-0.56122

>  <SCORE.RESTR>
0.44919

>  <SCORE.RESTR.CAVITY>
0.44919

>  <SCORE.RESTR.norm>
0.0140372

>  <SCORE.SYSTEM>
0

>  <SCORE.SYSTEM.CONST>
0

>  <SCORE.SYSTEM.DIHEDRAL>
0

>  <SCORE.SYSTEM.SOLV>
0

>  <SCORE.SYSTEM.norm>
0

>  <SCORE.heavy>
32

>  <SCORE.norm>
-2.31405

>  <RMSD>
0.581

$$$$
1lc4
 OpenBabel02141814113D
libRbt.so/2013.1/901 2013/11/27
 32 34  0  0  0  0  0  0  0  0999 V2000
  -10.3497    5.7872   19.4584 C   0  0  2  0  0  0  0  0  0  0  0  0
  -11.4488    6.5632   19.8656 O   0  0  0  0  0  0  0  0  0  0  0  0
  -10.5119    4.3746   20.0562 C   0  0  2  0  0  0  0  0  0  0  0  0
  -11.7759    3.7766   19.6156 N   0  3  0  0  0  0  0  0  0  0  0  0
  -10.4247    4.4367   21.5992 C   0  0  0  0  0  0  0  0  0  0  0  0
   -9.0556    5.0383   21.9617 C   0  0  2  0  0  0  0  0  0  0  0  0
   -8.8891    5.0797   23.3829 O   0  0  0  0  0  0  0  0  0  0  0  0
   -8.9377    6.4523   21.3403 C   0  0  2  0  0  0  0  0  0  0  0  0
   -9.1106    6.3874   19.8960 O   0  0  0  0  0  0  0  0  0  0  0  0
   -7.5886    7.1194   21.5964 C   0  0  0  0  0  0  0  0  0  0  0  0
   -7.6758    8.5933   21.4244 N   0  3  0  0  0  0  0  0  0  0  0  0
  -13.8899    9.7160   18.4301 C   0  0  2  0  0  0  0  0  0  0  0  0
  -14.3559   10.9439   17.7601 N   0  3  0  0  0  0  0  0  0  0  0  0
  -12.8477   10.0653   19.4838 C   0  0  0  0  0  0  0  0  0  0  0  0
  -12.3523    8.7959   20.1855 C   0  0  2  0  0  0  0  0  0  0  0  0
  -11.4315    9.1938   21.2793 N   0  3  0  0  0  0  0  0  0  0  0  0
  -11.7367    7.7909   19.1665 C   0  0  2  0  0  0  0  0  0  0  0  0
  -12.7753    7.4776   18.0589 C   0  0  2  0  0  0  0  0  0  0  0  0
  -12.1673    6.7031   17.0536 O   0  0  0  0  0  0  0  0  0  0  0  0
  -13.2780    8.7713   17.3977 C   0  0  1  0  0  0  0  0  0  0  0  0
  -14.2527    8.4366   16.4104 O   0  0  0  0  0  0  0  0  0  0  0  0
  -14.0503    8.9229   15.1283 C   0  0  2  0  0  0  0  0  0  0  0  0
  -15.4177    9.2118   14.4856 C   0  0  2  0  0  0  0  0  0  0  0  0
  -16.1004   10.1717   15.2821 O   0  0  0  0  0  0  0  0  0  0  0  0
  -16.2346    7.9098   14.4129 C   0  0  1  0  0  0  0  0  0  0  0  0
  -17.5831    8.1324   13.8161 N   0  3  0  0  0  0  0  0  0  0  0  0
  -15.4448    6.8565   13.5982 C   0  0  2  0  0  0  0  0  0  0  0  0
  -16.1671    5.6288   13.5351 O   0  0  0  0  0  0  0  0  0  0  0  0
  -14.0540    6.6354   14.2214 C   0  0  2  0  0  0  0  0  0  0  0  0
  -13.3406    7.9180   14.3586 O   0  0  0  0  0  0  0  0  0  0  0  0
  -13.1858    5.7328   13.3733 C   0  0  0  0  0  0  0  0  0  0  0  0
  -11.9264    5.4808   13.9928 O   0  0  0  0  0  0  0  0  0  0  0  0
  1  2  1  1  0  0  0
  1  3  1  0  0  0  0
  1  9  1  0  0  0  0
  3  4  1  1  0  0  0
  3  5  1  0  0  0  0
  5  6  1  0  0  0  0
  6  7  1  1  0  0  0
  6  8  1  0  0  0  0
  8  9  1  0  0  0  0
  8 10  1  6  0  0  0
 10 11  1  0  0  0  0
 12 13  1  6  0  0  0
 12 14  1  0  0  0  0
 12 20  1  0  0  0  0
 14 15  1  0  0  0  0
 15 16  1  1  0  0  0
 15 17  1  0  0  0  0
 17  2  1  1  0  0  0
 17 18  1  0  0  0  0
 18 19  1  6  0  0  0
 18 20  1  0  0  0  0
 20 21  1  6  0  0  0
 22 21  1  1  0  0  0
 22 23  1  0  0  0  0
 22 30  1  0  0  0  0
 23 24  1  1  0  0  0
 23 25  1  0  0  0  0
 25 26  1  6  0  0  0
 25 27  1  0  0  0  0
 27 28  1  1  0  0  0
 27 29  1  0  0  0  0
 29 30  1  0  0  0  0
 29 31  1  6  0  0  0
 31 32  1  0  0  0  0
M  CHG  5   4   1  11   1  13   1  16   1  26   1
M  END
>  <CHROM.1>
-163.28239289,-147.86268958,-174.96614398,59.03345113,-159.88749626,43.37184891
-178.32540201,171.08455634,-61.71664667,111.86348020,-146.83446955,104.90097526
50.19799756,173.90181163,-177.03605182,65.81550980,-12.45750778,7.31929826
17.85320323,-0.26476233,0.85288110,-2.56762309

>  <Name>
1lc4

>  <RI>
0

>  <Rbt.Current_Directory>
/home/afrankz/demos/rdock_decoys_rna/rnas/1lc4

>  <Rbt.Executable>
rbdock ($Id: //depot/dev/client3/rdock/2013.1/src/exe/rbdock.cxx#4 $)

>  <Rbt.Library>
libRbt.so (2013.1, Build901 2013/11/27)

>  <Rbt.Parameter_File>
/export/apps/rDock/src/rDock_2013.1_src/data/scripts/dock_solv.prm

>  <Rbt.Receptor>
prm/pocket_docking_2.prm

>  <SCORE>
-70.2433

>  <SCORE.INTER>
-53.4119

>  <SCORE.INTER.CONST>
1

>  <SCORE.INTER.POLAR>
-7.79645

>  <SCORE.INTER.ROT>
6

>  <SCORE.INTER.SOLV>
25.4221

>  <SCORE.INTER.VDW>
-25.6938

>  <SCORE.INTER.norm>
-1.66912

>  <SCORE.INTRA>
-17.1789

>  <SCORE.INTRA.DIHEDRAL>
-18.8047

>  <SCORE.INTRA.DIHEDRAL.0>
44.2576

>  <SCORE.INTRA.POLAR>
-0.803501

>  <SCORE.INTRA.POLAR.0>
-0.381556

>  <SCORE.INTRA.REPUL>
0

>  <SCORE.INTRA.REPUL.0>
0

>  <SCORE.INTRA.SOLV>
0.125988

>  <SCORE.INTRA.SOLV.lig_0>
-134.592

>  <SCORE.INTRA.VDW>
-5.10762

>  <SCORE.INTRA.VDW.0>
-1.01417

>  <SCORE.INTRA.norm>
-0.53684

>  <SCORE.RESTR>
0.347443

>  <SCORE.RESTR.CAVITY>
0.347443

>  <SCORE.RESTR.norm>
0.0108576

>  <SCORE.SYSTEM>
0

>  <SCORE.SYSTEM.CONST>
0

>  <SCORE.SYSTEM.DIHEDRAL>
0

>  <SCORE.SYSTEM.SOLV>
0

>  <SCORE.SYSTEM.norm>
0

>  <SCORE.heavy>
32

>  <SCORE.norm>
-2.1951

>  <RMSD>
0.584

$$$$
1lc4
 OpenBabel02141814113D
libRbt.so/2013.1/901 2013/11/27
 32 34  0  0  0  0  0  0  0  0999 V2000
  -10.2210    5.8852   19.4062 C   0  0  2  0  0  0  0  0  0  0  0  0
  -11.3635    6.6008   19.8042 O   0  0  0  0  0  0  0  0  0  0  0  0
  -10.3459    4.4445   19.9427 C   0  0  2  0  0  0  0  0  0  0  0  0
  -11.5692    3.8157   19.4351 N   0  3  0  0  0  0  0  0  0  0  0  0
  -10.3132    4.4480   21.4891 C   0  0  0  0  0  0  0  0  0  0  0  0
   -8.9825    5.0876   21.9226 C   0  0  2  0  0  0  0  0  0  0  0  0
   -8.8656    5.0785   23.3493 O   0  0  0  0  0  0  0  0  0  0  0  0
   -8.9010    6.5289   21.3609 C   0  0  2  0  0  0  0  0  0  0  0  0
   -9.0225    6.5153   19.9100 O   0  0  0  0  0  0  0  0  0  0  0  0
   -7.5893    7.2374   21.6900 C   0  0  0  0  0  0  0  0  0  0  0  0
   -7.7044    8.7052   21.4853 N   0  3  0  0  0  0  0  0  0  0  0  0
  -13.8100    9.8189   18.5321 C   0  0  2  0  0  0  0  0  0  0  0  0
  -14.2772   11.0812   17.9302 N   0  3  0  0  0  0  0  0  0  0  0  0
  -12.7790   10.1119   19.6135 C   0  0  0  0  0  0  0  0  0  0  0  0
  -12.2824    8.8065   20.2448 C   0  0  2  0  0  0  0  0  0  0  0  0
  -11.3733    9.1450   21.3680 N   0  3  0  0  0  0  0  0  0  0  0  0
  -11.6523    7.8654   19.1749 C   0  0  2  0  0  0  0  0  0  0  0  0
  -12.6796    7.6116   18.0417 C   0  0  2  0  0  0  0  0  0  0  0  0
  -12.0586    6.8999   16.9987 O   0  0  0  0  0  0  0  0  0  0  0  0
  -13.1839    8.9388   17.4521 C   0  0  1  0  0  0  0  0  0  0  0  0
  -14.1481    8.6569   16.4385 O   0  0  0  0  0  0  0  0  0  0  0  0
  -14.2342    9.5469   15.3793 C   0  0  2  0  0  0  0  0  0  0  0  0
  -15.7016    9.6399   14.9273 C   0  0  2  0  0  0  0  0  0  0  0  0
  -16.4870   10.0906   16.0237 O   0  0  0  0  0  0  0  0  0  0  0  0
  -16.1845    8.2532   14.4673 C   0  0  1  0  0  0  0  0  0  0  0  0
  -17.6120    8.2767   14.0361 N   0  3  0  0  0  0  0  0  0  0  0  0
  -15.2760    7.7515   13.3185 C   0  0  2  0  0  0  0  0  0  0  0  0
  -15.6845    6.4552   12.8877 O   0  0  0  0  0  0  0  0  0  0  0  0
  -13.8048    7.7327   13.7733 C   0  0  2  0  0  0  0  0  0  0  0  0
  -13.4086    9.0541   14.2923 O   0  0  0  0  0  0  0  0  0  0  0  0
  -12.8613    7.3999   12.6389 C   0  0  0  0  0  0  0  0  0  0  0  0
  -12.9911    6.0404   12.2285 O   0  0  0  0  0  0  0  0  0  0  0  0
  1  2  1  1  0  0  0
  1  3  1  0  0  0  0
  1  9  1  0  0  0  0
  3  4  1  1  0  0  0
  3  5  1  0  0  0  0
  5  6  1  0  0  0  0
  6  7  1  1  0  0  0
  6  8  1  0  0  0  0
  8  9  1  0  0  0  0
  8 10  1  6  0  0  0
 10 11  1  0  0  0  0
 12 13  1  6  0  0  0
 12 14  1  0  0  0  0
 12 20  1  0  0  0  0
 14 15  1  0  0  0  0
 15 16  1  1  0  0  0
 15 17  1  0  0  0  0
 17  2  1  1  0  0  0
 17 18  1  0  0  0  0
 18 19  1  6  0  0  0
 18 20  1  0  0  0  0
 20 21  1  6  0  0  0
 22 21  1  1  0  0  0
 22 23  1  0  0  0  0
 22 30  1  0  0  0  0
 23 24  1  1  0  0  0
 23 25  1  0  0  0  0
 25 26  1  6  0  0  0
 25 27  1  0  0  0  0
 27 28  1  1  0  0  0
 27 29  1  0  0  0  0
 29 30  1  0  0  0  0
 29 31  1  6  0  0  0
 31 32  1  0  0  0  0
M  CHG  5   4   1  11   1  13   1  16   1  26   1
M  END
>  <CHROM.1>
-165.36086246,-144.88810003,-169.33485493,58.35242947,-163.64914227,-73.72218548
-48.84463614,50.91463751,179.94148803,89.28942620,-145.51331734,-74.03401450
70.83169247,61.19312953,-69.64562154,54.95450750,-12.44075987,7.60500663
17.78280922,-0.38834372,0.84785914,-2.37404098

>  <Name>
1lc4

>  <RI>
0

>  <Rbt.Current_Directory>
/home/afrankz/demos/rdock_decoys_rna/rnas/1lc4

>  <Rbt.Executable>
rbdock ($Id: //depot/dev/client3/rdock/2013.1/src/exe/rbdock.cxx#4 $)

>  <Rbt.Library>
libRbt.so (2013.1, Build901 2013/11/27)

>  <Rbt.Parameter_File>
/export/apps/rDock/src/rDock_2013.1_src/data/scripts/dock_solv.prm

>  <Rbt.Receptor>
prm/pocket_docking_2.prm

>  <SCORE>
-70.3785

>  <SCORE.INTER>
-50.8731

>  <SCORE.INTER.CONST>
1

>  <SCORE.INTER.POLAR>
-6.72734

>  <SCORE.INTER.ROT>
6

>  <SCORE.INTER.SOLV>
25.8383

>  <SCORE.INTER.VDW>
-27.7037

>  <SCORE.INTER.norm>
-1.58978

>  <SCORE.INTRA>
-19.9197

>  <SCORE.INTRA.DIHEDRAL>
-26.8914

>  <SCORE.INTRA.DIHEDRAL.0>
44.2576

>  <SCORE.INTRA.POLAR>
-0.877198

>  <SCORE.INTRA.POLAR.0>
-0.381556

>  <SCORE.INTRA.REPUL>
0

>  <SCORE.INTRA.REPUL.0>
0

>  <SCORE.INTRA.SOLV>
1.99256

>  <SCORE.INTRA.SOLV.lig_0>
-134.592

>  <SCORE.INTRA.VDW>
-4.48774

>  <SCORE.INTRA.VDW.0>
-1.01417

>  <SCORE.INTRA.norm>
-0.622489

>  <SCORE.RESTR>
0.414252

>  <SCORE.RESTR.CAVITY>
0.414252

>  <SCORE.RESTR.norm>
0.0129454

>  <SCORE.SYSTEM>
0

>  <SCORE.SYSTEM.CONST>
0

>  <SCORE.SYSTEM.DIHEDRAL>
0

>  <SCORE.SYSTEM.SOLV>
0

>  <SCORE.SYSTEM.norm>
0

>  <SCORE.heavy>
32

>  <SCORE.norm>
-2.19933

>  <RMSD>
0.586

$$$$
1lc4
 OpenBabel02141814113D
libRbt.so/2013.1/901 2013/11/27
 32 34  0  0  0  0  0  0  0  0999 V2000
  -10.1461    5.8911   19.5372 C   0  0  2  0  0  0  0  0  0  0  0  0
  -11.2531    6.6497   19.9556 O   0  0  0  0  0  0  0  0  0  0  0  0
  -10.3020    4.4637   20.1004 C   0  0  2  0  0  0  0  0  0  0  0  0
  -11.5591    3.8676   19.6378 N   0  3  0  0  0  0  0  0  0  0  0  0
  -10.2250    4.4898   21.6451 C   0  0  0  0  0  0  0  0  0  0  0  0
   -8.8624    5.0921   22.0304 C   0  0  2  0  0  0  0  0  0  0  0  0
   -8.7051    5.1010   23.4533 O   0  0  0  0  0  0  0  0  0  0  0  0
   -8.7505    6.5211   21.4433 C   0  0  2  0  0  0  0  0  0  0  0  0
   -8.9140    6.4893   19.9968 O   0  0  0  0  0  0  0  0  0  0  0  0
   -7.4078    7.1912   21.7238 C   0  0  0  0  0  0  0  0  0  0  0  0
   -7.4794    8.6579   21.4923 N   0  3  0  0  0  0  0  0  0  0  0  0
  -13.7737    9.6918   18.4219 C   0  0  2  0  0  0  0  0  0  0  0  0
  -14.2654   10.9060   17.7453 N   0  3  0  0  0  0  0  0  0  0  0  0
  -12.8224   10.0758   19.5471 C   0  0  0  0  0  0  0  0  0  0  0  0
  -12.3011    8.8211   20.2564 C   0  0  2  0  0  0  0  0  0  0  0  0
  -11.4761    9.2459   21.4146 N   0  3  0  0  0  0  0  0  0  0  0  0
  -11.5654    7.8742   19.2616 C   0  0  2  0  0  0  0  0  0  0  0  0
  -12.5118    7.5276   18.0834 C   0  0  2  0  0  0  0  0  0  0  0  0
  -11.7978    6.8103   17.1058 O   0  0  0  0  0  0  0  0  0  0  0  0
  -13.0443    8.8052   17.4144 C   0  0  1  0  0  0  0  0  0  0  0  0
  -13.9335    8.4381   16.3602 O   0  0  0  0  0  0  0  0  0  0  0  0
  -13.7254    9.0243   15.1215 C   0  0  2  0  0  0  0  0  0  0  0  0
  -15.0821    9.1859   14.4148 C   0  0  2  0  0  0  0  0  0  0  0  0
  -15.9195   10.0051   15.2209 O   0  0  0  0  0  0  0  0  0  0  0  0
  -15.7266    7.8022   14.2212 C   0  0  1  0  0  0  0  0  0  0  0  0
  -17.0589    7.8975   13.5577 N   0  3  0  0  0  0  0  0  0  0  0  0
  -14.7707    6.9044   13.3983 C   0  0  2  0  0  0  0  0  0  0  0  0
  -15.3311    5.6051   13.2239 O   0  0  0  0  0  0  0  0  0  0  0  0
  -13.3981    6.8140   14.0907 C   0  0  2  0  0  0  0  0  0  0  0  0
  -12.8571    8.1621   14.3413 O   0  0  0  0  0  0  0  0  0  0  0  0
  -12.3812    6.0772   13.2475 C   0  0  0  0  0  0  0  0  0  0  0  0
  -11.0615    6.2243   13.7671 O   0  0  0  0  0  0  0  0  0  0  0  0
  1  2  1  1  0  0  0
  1  3  1  0  0  0  0
  1  9  1  0  0  0  0
  3  4  1  1  0  0  0
  3  5  1  0  0  0  0
  5  6  1  0  0  0  0
  6  7  1  1  0  0  0
  6  8  1  0  0  0  0
  8  9  1  0  0  0  0
  8 10  1  6  0  0  0
 10 11  1  0  0  0  0
 12 13  1  6  0  0  0
 12 14  1  0  0  0  0
 12 20  1  0  0  0  0
 14 15  1  0  0  0  0
 15 16  1  1  0  0  0
 15 17  1  0  0  0  0
 17  2  1  1  0  0  0
 17 18  1  0  0  0  0
 18 19  1  6  0  0  0
 18 20  1  0  0  0  0
 20 21  1  6  0  0  0
 22 21  1  1  0  0  0
 22 23  1  0  0  0  0
 22 30  1  0  0  0  0
 23 24  1  1  0  0  0
 23 25  1  0  0  0  0
 25 26  1  6  0  0  0
 25 27  1  0  0  0  0
 27 28  1  1  0  0  0
 27 29  1  0  0  0  0
 29 30  1  0  0  0  0
 29 31  1  6  0  0  0
 31 32  1  0  0  0  0
M  CHG  5   4   1  11   1  13   1  16   1  26   1
M  END
>  <CHROM.1>
-161.70398202,-152.78427196,-59.25488487,71.90431093,-163.91595158,-70.62704722
-177.85427881,168.20037089,176.29350093,108.14499935,-148.06631891,108.87947561
-62.97207320,172.96743639,168.50155895,-179.24626136,-12.14531986,7.38748735
17.83484168,-0.42369388,0.85381647,-2.38385198

>  <Name>
1lc4

>  <RI>
0

>  <Rbt.Current_Directory>
/home/afrankz/demos/rdock_decoys_rna/rnas/1lc4

>  <Rbt.Executable>
rbdock ($Id: //depot/dev/client3/rdock/2013.1/src/exe/rbdock.cxx#4 $)

>  <Rbt.Library>
libRbt.so (2013.1, Build901 2013/11/27)

>  <Rbt.Parameter_File>
/export/apps/rDock/src/rDock_2013.1_src/data/scripts/dock_solv.prm

>  <Rbt.Receptor>
prm/pocket_docking_2.prm

>  <SCORE>
-75.0466

>  <SCORE.INTER>
-58.7128

>  <SCORE.INTER.CONST>
1

>  <SCORE.INTER.POLAR>
-8.89896

>  <SCORE.INTER.ROT>
6

>  <SCORE.INTER.SOLV>
26.7988

>  <SCORE.INTER.VDW>
-26.0116

>  <SCORE.INTER.norm>
-1.83478

>  <SCORE.INTRA>
-17.5331

>  <SCORE.INTRA.DIHEDRAL>
-19.498

>  <SCORE.INTRA.DIHEDRAL.0>
44.2576

>  <SCORE.INTRA.POLAR>
-0.738398

>  <SCORE.INTRA.POLAR.0>
-0.381556

>  <SCORE.INTRA.REPUL>
0.0145198

>  <SCORE.INTRA.REPUL.0>
0

>  <SCORE.INTRA.SOLV>
-1.03422

>  <SCORE.INTRA.SOLV.lig_0>
-134.592

>  <SCORE.INTRA.VDW>
-4.829

>  <SCORE.INTRA.VDW.0>
-1.01417

>  <SCORE.INTRA.norm>
-0.547908

>  <SCORE.RESTR>
1.19923

>  <SCORE.RESTR.CAVITY>
1.19923

>  <SCORE.RESTR.norm>
0.0374758

>  <SCORE.SYSTEM>
0

>  <SCORE.SYSTEM.CONST>
0

>  <SCORE.SYSTEM.DIHEDRAL>
0

>  <SCORE.SYSTEM.SOLV>
0

>  <SCORE.SYSTEM.norm>
0

>  <SCORE.heavy>
32

>  <SCORE.norm>
-2.34521

>  <RMSD>
0.591

$$$$
1lc4
 OpenBabel02141814113D
libRbt.so/2013.1/901 2013/11/27
 32 34  0  0  0  0  0  0  0  0999 V2000
   -9.8905    5.7870   19.5527 C   0  0  2  0  0  0  0  0  0  0  0  0
  -11.0465    6.4913   19.9314 O   0  0  0  0  0  0  0  0  0  0  0  0
  -10.0785    4.3080   19.9479 C   0  0  2  0  0  0  0  0  0  0  0  0
  -11.2724    3.7552   19.3009 N   0  3  0  0  0  0  0  0  0  0  0  0
  -10.1580    4.1745   21.4869 C   0  0  0  0  0  0  0  0  0  0  0  0
   -8.8515    4.7421   22.0689 C   0  0  2  0  0  0  0  0  0  0  0  0
   -8.8386    4.6047   23.4937 O   0  0  0  0  0  0  0  0  0  0  0  0
   -8.7049    6.2250   21.6456 C   0  0  2  0  0  0  0  0  0  0  0  0
   -8.7211    6.3421   20.1944 O   0  0  0  0  0  0  0  0  0  0  0  0
   -7.4087    6.8708   22.1287 C   0  0  0  0  0  0  0  0  0  0  0  0
   -6.6975    7.5496   21.0138 N   0  3  0  0  0  0  0  0  0  0  0  0
  -13.4805    9.7108   18.6388 C   0  0  2  0  0  0  0  0  0  0  0  0
  -13.9404   10.9775   18.0408 N   0  3  0  0  0  0  0  0  0  0  0  0
  -12.4775    9.9965   19.7482 C   0  0  0  0  0  0  0  0  0  0  0  0
  -11.9887    8.6864   20.3758 C   0  0  2  0  0  0  0  0  0  0  0  0
  -11.1089    9.0165   21.5246 N   0  3  0  0  0  0  0  0  0  0  0  0
  -11.3275    7.7618   19.3103 C   0  0  2  0  0  0  0  0  0  0  0  0
  -12.3256    7.5158   18.1497 C   0  0  2  0  0  0  0  0  0  0  0  0
  -11.6755    6.8201   17.1137 O   0  0  0  0  0  0  0  0  0  0  0  0
  -12.8233    8.8472   17.5639 C   0  0  1  0  0  0  0  0  0  0  0  0
  -13.7612    8.5720   16.5240 O   0  0  0  0  0  0  0  0  0  0  0  0
  -13.4527    9.0317   15.2532 C   0  0  2  0  0  0  0  0  0  0  0  0
  -14.7546    9.4439   14.5451 C   0  0  2  0  0  0  0  0  0  0  0  0
  -15.3822   10.4670   15.3076 O   0  0  0  0  0  0  0  0  0  0  0  0
  -15.6851    8.2236   14.4329 C   0  0  1  0  0  0  0  0  0  0  0  0
  -16.9765    8.5683   13.7715 N   0  3  0  0  0  0  0  0  0  0  0  0
  -14.9588    7.0975   13.6573 C   0  0  2  0  0  0  0  0  0  0  0  0
  -15.7887    5.9423   13.5592 O   0  0  0  0  0  0  0  0  0  0  0  0
  -13.6264    6.7504   14.3471 C   0  0  2  0  0  0  0  0  0  0  0  0
  -12.8038    7.9614   14.5187 O   0  0  0  0  0  0  0  0  0  0  0  0
  -12.8064    5.7669   13.5420 C   0  0  0  0  0  0  0  0  0  0  0  0
  -12.5495    6.2503   12.2253 O   0  0  0  0  0  0  0  0  0  0  0  0
  1  2  1  1  0  0  0
  1  3  1  0  0  0  0
  1  9  1  0  0  0  0
  3  4  1  6  0  0  0
  3  5  1  0  0  0  0
  5  6  1  0  0  0  0
  6  7  1  1  0  0  0
  6  8  1  0  0  0  0
  8  9  1  0  0  0  0
  8 10  1  6  0  0  0
 10 11  1  0  0  0  0
 12 13  1  6  0  0  0
 12 14  1  0  0  0  0
 12 20  1  0  0  0  0
 14 15  1  0  0  0  0
 15 16  1  1  0  0  0
 15 17  1  0  0  0  0
 17  2  1  1  0  0  0
 17 18  1  0  0  0  0
 18 19  1  6  0  0  0
 18 20  1  0  0  0  0
 20 21  1  6  0  0  0
 22 21  1  1  0  0  0
 22 23  1  0  0  0  0
 22 30  1  0  0  0  0
 23 24  1  1  0  0  0
 23 25  1  0  0  0  0
 25 26  1  6  0  0  0
 25 27  1  0  0  0  0
 27 28  1  1  0  0  0
 27 29  1  0  0  0  0
 29 30  1  0  0  0  0
 29 31  1  6  0  0  0
 31 32  1  0  0  0  0
M  CHG  5   4   1  11   1  13   1  16   1  26   1
M  END
>  <CHROM.1>
-159.96097607,-144.88461078,-61.56622080,-67.26236995,129.43646298,-112.29539986
-59.98298882,-61.74080922,55.30730341,118.43282483,-145.35154228,143.84263791
-58.84327637,61.82156608,56.65782375,179.79369369,-12.05599981,7.32527197
17.87646872,-0.32978209,0.87745164,-2.44166433

>  <Name>
1lc4

>  <RI>
0

>  <Rbt.Current_Directory>
/home/afrankz/demos/rdock_decoys_rna/rnas/1lc4

>  <Rbt.Executable>
rbdock ($Id: //depot/dev/client3/rdock/2013.1/src/exe/rbdock.cxx#4 $)

>  <Rbt.Library>
libRbt.so (2013.1, Build901 2013/11/27)

>  <Rbt.Parameter_File>
/export/apps/rDock/src/rDock_2013.1_src/data/scripts/dock_solv.prm

>  <Rbt.Receptor>
prm/pocket_docking_2.prm

>  <SCORE>
-71.2925

>  <SCORE.INTER>
-57.8926

>  <SCORE.INTER.CONST>
1

>  <SCORE.INTER.POLAR>
-8.68954

>  <SCORE.INTER.ROT>
6

>  <SCORE.INTER.SOLV>
33.5179

>  <SCORE.INTER.VDW>
-28.4026

>  <SCORE.INTER.norm>
-1.80914

>  <SCORE.INTRA>
-13.9885

>  <SCORE.INTRA.DIHEDRAL>
-12.5868

>  <SCORE.INTRA.DIHEDRAL.0>
44.2576

>  <SCORE.INTRA.POLAR>
-1.15112

>  <SCORE.INTRA.POLAR.0>
-0.381556

>  <SCORE.INTRA.REPUL>
0

>  <SCORE.INTRA.REPUL.0>
0

>  <SCORE.INTRA.SOLV>
0.375553

>  <SCORE.INTRA.SOLV.lig_0>
-134.592

>  <SCORE.INTRA.VDW>
-3.96913

>  <SCORE.INTRA.VDW.0>
-1.01417

>  <SCORE.INTRA.norm>
-0.437142

>  <SCORE.RESTR>
0.588639

>  <SCORE.RESTR.CAVITY>
0.588639

>  <SCORE.RESTR.norm>
0.018395

>  <SCORE.SYSTEM>
0

>  <SCORE.SYSTEM.CONST>
0

>  <SCORE.SYSTEM.DIHEDRAL>
0

>  <SCORE.SYSTEM.SOLV>
0

>  <SCORE.SYSTEM.norm>
0

>  <SCORE.heavy>
32

>  <SCORE.norm>
-2.22789

>  <RMSD>
0.604

$$$$
1lc4
 OpenBabel02141814113D
libRbt.so/2013.1/901 2013/11/27
 32 34  0  0  0  0  0  0  0  0999 V2000
  -10.2307    5.8712   19.4039 C   0  0  2  0  0  0  0  0  0  0  0  0
  -11.3742    6.5865   19.7998 O   0  0  0  0  0  0  0  0  0  0  0  0
  -10.3575    4.4298   19.9379 C   0  0  2  0  0  0  0  0  0  0  0  0
  -11.5796    3.8021   19.4260 N   0  3  0  0  0  0  0  0  0  0  0  0
  -10.3291    4.4310   21.4844 C   0  0  0  0  0  0  0  0  0  0  0  0
   -8.9995    5.0696   21.9225 C   0  0  2  0  0  0  0  0  0  0  0  0
   -8.8865    5.0583   23.3495 O   0  0  0  0  0  0  0  0  0  0  0  0
   -8.9160    6.5117   21.3632 C   0  0  2  0  0  0  0  0  0  0  0  0
   -9.0336    6.5003   19.9119 O   0  0  0  0  0  0  0  0  0  0  0  0
   -7.6051    7.2193   21.6970 C   0  0  0  0  0  0  0  0  0  0  0  0
   -7.7047    8.6817   21.4495 N   0  3  0  0  0  0  0  0  0  0  0  0
  -13.7882    9.8472   18.5748 C   0  0  2  0  0  0  0  0  0  0  0  0
  -14.2435   11.1209   17.9881 N   0  3  0  0  0  0  0  0  0  0  0  0
  -12.7464   10.1168   19.6519 C   0  0  0  0  0  0  0  0  0  0  0  0
  -12.2622    8.7993   20.2675 C   0  0  2  0  0  0  0  0  0  0  0  0
  -11.3414    9.1156   21.3876 N   0  3  0  0  0  0  0  0  0  0  0  0
  -11.6512    7.8606   19.1845 C   0  0  2  0  0  0  0  0  0  0  0  0
  -12.6891    7.6306   18.0559 C   0  0  2  0  0  0  0  0  0  0  0  0
  -12.0841    6.9211   17.0020 O   0  0  0  0  0  0  0  0  0  0  0  0
  -13.1805    8.9696   17.4824 C   0  0  1  0  0  0  0  0  0  0  0  0
  -14.1550    8.7095   16.4727 O   0  0  0  0  0  0  0  0  0  0  0  0
  -14.2315    9.6063   15.4185 C   0  0  2  0  0  0  0  0  0  0  0  0
  -15.7019    9.7408   14.9872 C   0  0  2  0  0  0  0  0  0  0  0  0
  -16.4598   10.2074   16.0961 O   0  0  0  0  0  0  0  0  0  0  0  0
  -16.2283    8.3697   14.5281 C   0  0  1  0  0  0  0  0  0  0  0  0
  -17.6603    8.4335   14.1166 N   0  3  0  0  0  0  0  0  0  0  0  0
  -15.3494    7.8489   13.3647 C   0  0  2  0  0  0  0  0  0  0  0  0
  -15.7985    6.5661   12.9343 O   0  0  0  0  0  0  0  0  0  0  0  0
  -13.8731    7.7885   13.7992 C   0  0  2  0  0  0  0  0  0  0  0  0
  -13.4344    9.0965   14.3181 O   0  0  0  0  0  0  0  0  0  0  0  0
  -12.9545    7.4356   12.6505 C   0  0  0  0  0  0  0  0  0  0  0  0
  -13.1996    6.1166   12.1673 O   0  0  0  0  0  0  0  0  0  0  0  0
  1  2  1  1  0  0  0
  1  3  1  0  0  0  0
  1  9  1  0  0  0  0
  3  4  1  1  0  0  0
  3  5  1  0  0  0  0
  5  6  1  0  0  0  0
  6  7  1  1  0  0  0
  6  8  1  0  0  0  0
  8  9  1  0  0  0  0
  8 10  1  6  0  0  0
 10 11  1  0  0  0  0
 12 13  1  6  0  0  0
 12 14  1  0  0  0  0
 12 20  1  0  0  0  0
 14 15  1  0  0  0  0
 15 16  1  1  0  0  0
 15 17  1  0  0  0  0
 17  2  1  1  0  0  0
 17 18  1  0  0  0  0
 18 19  1  6  0  0  0
 18 20  1  0  0  0  0
 20 21  1  6  0  0  0
 22 21  1  1  0  0  0
 22 23  1  0  0  0  0
 22 30  1  0  0  0  0
 23 24  1  1  0  0  0
 23 25  1  0  0  0  0
 25 26  1  6  0  0  0
 25 27  1  0  0  0  0
 27 28  1  1  0  0  0
 27 29  1  0  0  0  0
 29 30  1  0  0  0  0
 29 31  1  6  0  0  0
 31 32  1  0  0  0  0
M  CHG  5   4   1  11   1  13   1  16   1  26   1
M  END
>  <CHROM.1>
-166.18969034,-143.79127328,-170.27464467,68.67771406,-165.60152301,47.60684150
-171.31670476,52.20677263,-176.17604692,89.66031609,-144.78283494,176.71143696
-56.37797661,68.83693663,-65.04917665,-57.15261791,-12.46187458,7.63616725
17.80190480,-0.36325692,0.85173695,-2.38911105

>  <Name>
1lc4

>  <RI>
0

>  <Rbt.Current_Directory>
/home/afrankz/demos/rdock_decoys_rna/rnas/1lc4

>  <Rbt.Executable>
rbdock ($Id: //depot/dev/client3/rdock/2013.1/src/exe/rbdock.cxx#4 $)

>  <Rbt.Library>
libRbt.so (2013.1, Build901 2013/11/27)

>  <Rbt.Parameter_File>
/export/apps/rDock/src/rDock_2013.1_src/data/scripts/dock_solv.prm

>  <Rbt.Receptor>
prm/pocket_docking_2.prm

>  <SCORE>
-70.5391

>  <SCORE.INTER>
-51.0846

>  <SCORE.INTER.CONST>
1

>  <SCORE.INTER.POLAR>
-6.71817

>  <SCORE.INTER.ROT>
6

>  <SCORE.INTER.SOLV>
26.5168

>  <SCORE.INTER.VDW>
-28.1014

>  <SCORE.INTER.norm>
-1.59639

>  <SCORE.INTRA>
-19.9052

>  <SCORE.INTRA.DIHEDRAL>
-27.7342

>  <SCORE.INTRA.DIHEDRAL.0>
44.2576

>  <SCORE.INTRA.POLAR>
-0.827071

>  <SCORE.INTRA.POLAR.0>
-0.381556

>  <SCORE.INTRA.REPUL>
0.0041467

>  <SCORE.INTRA.REPUL.0>
0

>  <SCORE.INTRA.SOLV>
2.44463

>  <SCORE.INTRA.SOLV.lig_0>
-134.592

>  <SCORE.INTRA.VDW>
-4.4691

>  <SCORE.INTRA.VDW.0>
-1.01417

>  <SCORE.INTRA.norm>
-0.622038

>  <SCORE.RESTR>
0.450635

>  <SCORE.RESTR.CAVITY>
0.450635

>  <SCORE.RESTR.norm>
0.0140824

>  <SCORE.SYSTEM>
0

>  <SCORE.SYSTEM.CONST>
0

>  <SCORE.SYSTEM.DIHEDRAL>
0

>  <SCORE.SYSTEM.SOLV>
0

>  <SCORE.SYSTEM.norm>
0

>  <SCORE.heavy>
32

>  <SCORE.norm>
-2.20435

>  <RMSD>
0.606

$$$$
1lc4
 OpenBabel02141814113D
libRbt.so/2013.1/901 2013/11/27
 32 34  0  0  0  0  0  0  0  0999 V2000
  -10.2760    5.9316   19.3807 C   0  0  2  0  0  0  0  0  0  0  0  0
  -11.4236    6.6401   19.7770 O   0  0  0  0  0  0  0  0  0  0  0  0
  -10.4080    4.4813   19.8889 C   0  0  2  0  0  0  0  0  0  0  0  0
  -11.6248    3.8624   19.3540 N   0  3  0  0  0  0  0  0  0  0  0  0
  -10.3955    4.4563   21.4354 C   0  0  0  0  0  0  0  0  0  0  0  0
   -9.0705    5.0874   21.8979 C   0  0  2  0  0  0  0  0  0  0  0  0
   -8.9721    5.0520   23.3256 O   0  0  0  0  0  0  0  0  0  0  0  0
   -8.9815    6.5388   21.3639 C   0  0  2  0  0  0  0  0  0  0  0  0
   -9.0842    6.5519   19.9115 O   0  0  0  0  0  0  0  0  0  0  0  0
   -7.6742    7.2406   21.7230 C   0  0  0  0  0  0  0  0  0  0  0  0
   -7.7674    8.7054   21.4876 N   0  3  0  0  0  0  0  0  0  0  0  0
  -13.8782    9.8556   18.5138 C   0  0  2  0  0  0  0  0  0  0  0  0
  -14.3484   11.1188   17.9162 N   0  3  0  0  0  0  0  0  0  0  0  0
  -12.8498   10.1475   19.5980 C   0  0  0  0  0  0  0  0  0  0  0  0
  -12.3501    8.8411   20.2249 C   0  0  2  0  0  0  0  0  0  0  0  0
  -11.4439    9.1780   21.3509 N   0  3  0  0  0  0  0  0  0  0  0  0
  -11.7154    7.9063   19.1522 C   0  0  2  0  0  0  0  0  0  0  0  0
  -12.7400    7.6538   18.0164 C   0  0  2  0  0  0  0  0  0  0  0  0
  -12.1152    6.9482   16.9716 O   0  0  0  0  0  0  0  0  0  0  0  0
  -13.2476    8.9818   17.4313 C   0  0  1  0  0  0  0  0  0  0  0  0
  -14.2093    8.7009   16.4151 O   0  0  0  0  0  0  0  0  0  0  0  0
  -14.2913    9.5908   15.3555 C   0  0  2  0  0  0  0  0  0  0  0  0
  -15.7526    9.6637   14.8806 C   0  0  2  0  0  0  0  0  0  0  0  0
  -16.5614   10.1020   15.9649 O   0  0  0  0  0  0  0  0  0  0  0  0
  -16.2088    8.2709   14.4118 C   0  0  1  0  0  0  0  0  0  0  0  0
  -17.6295    8.2748   13.9583 N   0  3  0  0  0  0  0  0  0  0  0  0
  -15.2754    7.7832   13.2769 C   0  0  2  0  0  0  0  0  0  0  0  0
  -15.6588    6.4818   12.8386 O   0  0  0  0  0  0  0  0  0  0  0  0
  -13.8114    7.7846   13.7547 C   0  0  2  0  0  0  0  0  0  0  0  0
  -13.4419    9.1109   14.2811 O   0  0  0  0  0  0  0  0  0  0  0  0
  -12.8456    7.4664   12.6350 C   0  0  0  0  0  0  0  0  0  0  0  0
  -13.1169    6.1935   12.0523 O   0  0  0  0  0  0  0  0  0  0  0  0
  1  2  1  1  0  0  0
  1  3  1  0  0  0  0
  1  9  1  0  0  0  0
  3  4  1  1  0  0  0
  3  5  1  0  0  0  0
  5  6  1  0  0  0  0
  6  7  1  1  0  0  0
  6  8  1  0  0  0  0
  8  9  1  0  0  0  0
  8 10  1  6  0  0  0
 10 11  1  0  0  0  0
 12 13  1  6  0  0  0
 12 14  1  0  0  0  0
 12 20  1  0  0  0  0
 14 15  1  0  0  0  0
 15 16  1  1  0  0  0
 15 17  1  0  0  0  0
 17  2  1  1  0  0  0
 17 18  1  0  0  0  0
 18 19  1  6  0  0  0
 18 20  1  0  0  0  0
 20 21  1  6  0  0  0
 22 21  1  1  0  0  0
 22 23  1  0  0  0  0
 22 30  1  0  0  0  0
 23 24  1  1  0  0  0
 23 25  1  0  0  0  0
 25 26  1  6  0  0  0
 25 27  1  0  0  0  0
 27 28  1  1  0  0  0
 27 29  1  0  0  0  0
 29 30  1  0  0  0  0
 29 31  1  6  0  0  0
 31 32  1  0  0  0  0
M  CHG  5   4   1  11   1  13   1  16   1  26   1
M  END
>  <CHROM.1>
-164.39295517,-144.70239055,177.22153969,59.77817666,-166.11586757,-72.79101335
-174.07982930,167.74675832,64.80557013,89.64447149,-146.66214845,176.39543545
-57.75694663,-172.12544293,-58.67428932,172.91984832,-12.49020078,7.63830359
17.74802891,-0.41024986,0.84938350,-2.34651641

>  <Name>
1lc4

>  <RI>
0

>  <Rbt.Current_Directory>
/home/afrankz/demos/rdock_decoys_rna/rnas/1lc4

>  <Rbt.Executable>
rbdock ($Id: //depot/dev/client3/rdock/2013.1/src/exe/rbdock.cxx#4 $)

>  <Rbt.Library>
libRbt.so (2013.1, Build901 2013/11/27)

>  <Rbt.Parameter_File>
/export/apps/rDock/src/rDock_2013.1_src/data/scripts/dock_solv.prm

>  <Rbt.Receptor>
prm/pocket_docking_2.prm

>  <SCORE>
-72.5534

>  <SCORE.INTER>
-51.0172

>  <SCORE.INTER.CONST>
1

>  <SCORE.INTER.POLAR>
-6.75042

>  <SCORE.INTER.ROT>
6

>  <SCORE.INTER.SOLV>
26.0736

>  <SCORE.INTER.VDW>
-27.8012

>  <SCORE.INTER.norm>
-1.59429

>  <SCORE.INTRA>
-21.9389

>  <SCORE.INTRA.DIHEDRAL>
-28.421

>  <SCORE.INTRA.DIHEDRAL.0>
44.2576

>  <SCORE.INTRA.POLAR>
-1.49368

>  <SCORE.INTRA.POLAR.0>
-0.381556

>  <SCORE.INTRA.REPUL>
0.0214442

>  <SCORE.INTRA.REPUL.0>
0

>  <SCORE.INTRA.SOLV>
2.1414

>  <SCORE.INTRA.SOLV.lig_0>
-134.592

>  <SCORE.INTRA.VDW>
-3.82784

>  <SCORE.INTRA.VDW.0>
-1.01417

>  <SCORE.INTRA.norm>
-0.685591

>  <SCORE.RESTR>
0.402706

>  <SCORE.RESTR.CAVITY>
0.402706

>  <SCORE.RESTR.norm>
0.0125846

>  <SCORE.SYSTEM>
0

>  <SCORE.SYSTEM.CONST>
0

>  <SCORE.SYSTEM.DIHEDRAL>
0

>  <SCORE.SYSTEM.SOLV>
0

>  <SCORE.SYSTEM.norm>
0

>  <SCORE.heavy>
32

>  <SCORE.norm>
-2.26729

>  <RMSD>
0.608

$$$$
1lc4
 OpenBabel02141814113D
libRbt.so/2013.1/901 2013/11/27
 32 34  0  0  0  0  0  0  0  0999 V2000
  -10.1122    5.6697   19.5343 C   0  0  2  0  0  0  0  0  0  0  0  0
  -11.1671    6.4775   19.9934 O   0  0  0  0  0  0  0  0  0  0  0  0
  -10.3198    4.2467   20.0916 C   0  0  2  0  0  0  0  0  0  0  0  0
  -11.6184    3.7164   19.6651 N   0  3  0  0  0  0  0  0  0  0  0  0
  -10.1927    4.2553   21.6332 C   0  0  0  0  0  0  0  0  0  0  0  0
   -8.7909    4.7872   21.9792 C   0  0  2  0  0  0  0  0  0  0  0  0
   -8.5884    4.7758   23.3962 O   0  0  0  0  0  0  0  0  0  0  0  0
   -8.6281    6.2143   21.3993 C   0  0  2  0  0  0  0  0  0  0  0  0
   -8.8385    6.2033   19.9586 O   0  0  0  0  0  0  0  0  0  0  0  0
   -7.2460    6.8159   21.6416 C   0  0  0  0  0  0  0  0  0  0  0  0
   -7.2884    8.3008   21.5874 N   0  3  0  0  0  0  0  0  0  0  0  0
  -13.6239    9.5972   18.5132 C   0  0  2  0  0  0  0  0  0  0  0  0
  -14.0921   10.8257   17.8458 N   0  3  0  0  0  0  0  0  0  0  0  0
  -12.6343    9.9519   19.6147 C   0  0  0  0  0  0  0  0  0  0  0  0
  -12.1371    8.6820   20.3142 C   0  0  2  0  0  0  0  0  0  0  0  0
  -11.2715    9.0816   21.4516 N   0  3  0  0  0  0  0  0  0  0  0  0
  -11.4561    7.7105   19.3043 C   0  0  2  0  0  0  0  0  0  0  0  0
  -12.4409    7.3930   18.1496 C   0  0  2  0  0  0  0  0  0  0  0  0
  -11.7738    6.6515   17.1570 O   0  0  0  0  0  0  0  0  0  0  0  0
  -12.9476    8.6862   17.4907 C   0  0  1  0  0  0  0  0  0  0  0  0
  -13.8729    8.3465   16.4586 O   0  0  0  0  0  0  0  0  0  0  0  0
  -13.8281    9.0968   15.2940 C   0  0  2  0  0  0  0  0  0  0  0  0
  -15.2454    9.1789   14.7018 C   0  0  2  0  0  0  0  0  0  0  0  0
  -16.1025    9.7905   15.6575 O   0  0  0  0  0  0  0  0  0  0  0  0
  -15.7466    7.7613   14.3748 C   0  0  1  0  0  0  0  0  0  0  0  0
  -17.1290    7.7758   13.8154 N   0  3  0  0  0  0  0  0  0  0  0  0
  -14.7647    7.0884   13.3848 C   0  0  2  0  0  0  0  0  0  0  0  0
  -15.1904    5.7617   13.0824 O   0  0  0  0  0  0  0  0  0  0  0  0
  -13.3407    7.0801   13.9710 C   0  0  2  0  0  0  0  0  0  0  0  0
  -12.9337    8.4434   14.3563 O   0  0  0  0  0  0  0  0  0  0  0  0
  -12.3178    6.5754   12.9775 C   0  0  0  0  0  0  0  0  0  0  0  0
  -12.3251    7.3461   11.7778 O   0  0  0  0  0  0  0  0  0  0  0  0
  1  2  1  1  0  0  0
  1  3  1  0  0  0  0
  1  9  1  0  0  0  0
  3  4  1  1  0  0  0
  3  5  1  0  0  0  0
  5  6  1  0  0  0  0
  6  7  1  1  0  0  0
  6  8  1  0  0  0  0
  8  9  1  0  0  0  0
  8 10  1  6  0  0  0
 10 11  1  0  0  0  0
 12 13  1  6  0  0  0
 12 14  1  0  0  0  0
 12 20  1  0  0  0  0
 14 15  1  0  0  0  0
 15 16  1  1  0  0  0
 15 17  1  0  0  0  0
 17  2  1  1  0  0  0
 17 18  1  0  0  0  0
 18 19  1  6  0  0  0
 18 20  1  0  0  0  0
 20 21  1  6  0  0  0
 22 21  1  1  0  0  0
 22 23  1  0  0  0  0
 22 30  1  0  0  0  0
 23 24  1  1  0  0  0
 23 25  1  0  0  0  0
 25 26  1  6  0  0  0
 25 27  1  0  0  0  0
 27 28  1  1  0  0  0
 27 29  1  0  0  0  0
 29 30  1  0  0  0  0
 29 31  1  6  0  0  0
 31 32  1  0  0  0  0
M  CHG  5   4   1  11   1  13   1  16   1  26   1
M  END
>  <CHROM.1>
-160.62287204,-154.03832231,179.98816839,176.47178373,-156.95159694,-69.84313334
-48.60258265,-65.88039847,-179.39864835,96.77486022,-148.22847690,171.37251120
-58.28654543,-60.23838219,57.15101178,-64.46053499,-12.14201073,7.32908321
17.81050122,-0.43677342,0.86140126,-2.33746282

>  <Name>
1lc4

>  <RI>
0

>  <Rbt.Current_Directory>
/home/afrankz/demos/rdock_decoys_rna/rnas/1lc4

>  <Rbt.Executable>
rbdock ($Id: //depot/dev/client3/rdock/2013.1/src/exe/rbdock.cxx#4 $)

>  <Rbt.Library>
libRbt.so (2013.1, Build901 2013/11/27)

>  <Rbt.Parameter_File>
/export/apps/rDock/src/rDock_2013.1_src/data/scripts/dock_solv.prm

>  <Rbt.Receptor>
prm/pocket_docking_3.prm

>  <SCORE>
-71.8565

>  <SCORE.INTER>
-50.3665

>  <SCORE.INTER.CONST>
1

>  <SCORE.INTER.POLAR>
-6.75165

>  <SCORE.INTER.ROT>
6

>  <SCORE.INTER.SOLV>
25.3289

>  <SCORE.INTER.VDW>
-27.1152

>  <SCORE.INTER.norm>
-1.57395

>  <SCORE.INTRA>
-21.49

>  <SCORE.INTRA.DIHEDRAL>
-27.9441

>  <SCORE.INTRA.DIHEDRAL.0>
44.2576

>  <SCORE.INTRA.POLAR>
-0.790714

>  <SCORE.INTRA.POLAR.0>
-0.381556

>  <SCORE.INTRA.REPUL>
0

>  <SCORE.INTRA.REPUL.0>
0

>  <SCORE.INTRA.SOLV>
-0.587749

>  <SCORE.INTRA.SOLV.lig_0>
-134.592

>  <SCORE.INTRA.VDW>
-4.53565

>  <SCORE.INTRA.VDW.0>
-1.01417

>  <SCORE.INTRA.norm>
-0.671562

>  <SCORE.RESTR>
0

>  <SCORE.RESTR.CAVITY>
0

>  <SCORE.RESTR.norm>
0

>  <SCORE.SYSTEM>
0

>  <SCORE.SYSTEM.CONST>
0

>  <SCORE.SYSTEM.DIHEDRAL>
0

>  <SCORE.SYSTEM.SOLV>
0

>  <SCORE.SYSTEM.norm>
0

>  <SCORE.heavy>
32

>  <SCORE.norm>
-2.24552

>  <RMSD>
0.613

$$$$
1lc4
 OpenBabel02141814113D
libRbt.so/2013.1/901 2013/11/27
 32 34  0  0  0  0  0  0  0  0999 V2000
   -9.9400    5.9010   19.6168 C   0  0  2  0  0  0  0  0  0  0  0  0
  -11.0570    6.6422   20.0396 O   0  0  0  0  0  0  0  0  0  0  0  0
  -10.1813    4.4211   19.9781 C   0  0  2  0  0  0  0  0  0  0  0  0
  -11.4110    3.9355   19.3444 N   0  3  0  0  0  0  0  0  0  0  0  0
  -10.2330    4.2502   21.5146 C   0  0  0  0  0  0  0  0  0  0  0  0
   -8.8916    4.7476   22.0811 C   0  0  2  0  0  0  0  0  0  0  0  0
   -8.8536    4.5719   23.5013 O   0  0  0  0  0  0  0  0  0  0  0  0
   -8.6921    6.2338   21.6928 C   0  0  2  0  0  0  0  0  0  0  0  0
   -8.7348    6.3900   20.2457 O   0  0  0  0  0  0  0  0  0  0  0  0
   -7.3598    6.8124   22.1627 C   0  0  0  0  0  0  0  0  0  0  0  0
   -6.6913    7.5756   21.0763 N   0  3  0  0  0  0  0  0  0  0  0  0
  -13.5145    9.8259   18.7036 C   0  0  2  0  0  0  0  0  0  0  0  0
  -13.9846   11.0785   18.0842 N   0  3  0  0  0  0  0  0  0  0  0  0
  -12.5029   10.1377   19.7981 C   0  0  0  0  0  0  0  0  0  0  0  0
  -12.0036    8.8424   20.4477 C   0  0  2  0  0  0  0  0  0  0  0  0
  -11.1150    9.1990   21.5817 N   0  3  0  0  0  0  0  0  0  0  0  0
  -11.3483    7.8987   19.3954 C   0  0  2  0  0  0  0  0  0  0  0  0
  -12.3557    7.6257   18.2489 C   0  0  2  0  0  0  0  0  0  0  0  0
  -11.7121    6.9114   17.2215 O   0  0  0  0  0  0  0  0  0  0  0  0
  -12.8636    8.9430   17.6407 C   0  0  1  0  0  0  0  0  0  0  0  0
  -13.8096    8.6434   16.6150 O   0  0  0  0  0  0  0  0  0  0  0  0
  -13.5624    9.1608   15.3530 C   0  0  2  0  0  0  0  0  0  0  0  0
  -14.9067    9.4479   14.6625 C   0  0  2  0  0  0  0  0  0  0  0  0
  -15.6327   10.3816   15.4519 O   0  0  0  0  0  0  0  0  0  0  0  0
  -15.7035    8.1384   14.5285 C   0  0  1  0  0  0  0  0  0  0  0  0
  -17.0299    8.3584   13.8831 N   0  3  0  0  0  0  0  0  0  0  0  0
  -14.8687    7.1130   13.7232 C   0  0  2  0  0  0  0  0  0  0  0  0
  -15.5723    5.8787   13.6042 O   0  0  0  0  0  0  0  0  0  0  0  0
  -13.5011    6.8944   14.3967 C   0  0  2  0  0  0  0  0  0  0  0  0
  -12.8101    8.1818   14.5904 O   0  0  0  0  0  0  0  0  0  0  0  0
  -12.5885    6.0212   13.5644 C   0  0  0  0  0  0  0  0  0  0  0  0
  -11.3947    6.7089   13.1963 O   0  0  0  0  0  0  0  0  0  0  0  0
  1  2  1  1  0  0  0
  1  3  1  0  0  0  0
  1  9  1  0  0  0  0
  3  4  1  6  0  0  0
  3  5  1  0  0  0  0
  5  6  1  0  0  0  0
  6  7  1  1  0  0  0
  6  8  1  0  0  0  0
  8  9  1  0  0  0  0
  8 10  1  6  0  0  0
 10 11  1  0  0  0  0
 12 13  1  6  0  0  0
 12 14  1  0  0  0  0
 12 20  1  0  0  0  0
 14 15  1  0  0  0  0
 15 16  1  1  0  0  0
 15 17  1  0  0  0  0
 17  2  1  1  0  0  0
 17 18  1  0  0  0  0
 18 19  1  6  0  0  0
 18 20  1  0  0  0  0
 20 21  1  6  0  0  0
 22 21  1  1  0  0  0
 22 23  1  0  0  0  0
 22 30  1  0  0  0  0
 23 24  1  1  0  0  0
 23 25  1  0  0  0  0
 25 26  1  6  0  0  0
 25 27  1  0  0  0  0
 27 28  1  1  0  0  0
 27 29  1  0  0  0  0
 29 30  1  0  0  0  0
 29 31  1  6  0  0  0
 31 32  1  0  0  0  0
M  CHG  5   4   1  11   1  13   1  16   1  26   1
M  END
>  <CHROM.1>
-155.87336969,-148.15515873,-54.36094697,-68.84110119,133.58615330,126.13946077
179.72085418,176.10833942,-57.41606121,113.88022839,-148.17591648,135.72163267
-77.38140869,175.71462604,119.43161652,-72.45297841,-12.03216039,7.41105766
17.97378482,-0.34574138,0.86417656,-2.40021893

>  <Name>
1lc4

>  <RI>
0

>  <Rbt.Current_Directory>
/home/afrankz/demos/rdock_decoys_rna/rnas/1lc4

>  <Rbt.Executable>
rbdock ($Id: //depot/dev/client3/rdock/2013.1/src/exe/rbdock.cxx#4 $)

>  <Rbt.Library>
libRbt.so (2013.1, Build901 2013/11/27)

>  <Rbt.Parameter_File>
/export/apps/rDock/src/rDock_2013.1_src/data/scripts/dock_solv.prm

>  <Rbt.Receptor>
prm/pocket_docking_5.prm

>  <SCORE>
-72.8305

>  <SCORE.INTER>
-62.55

>  <SCORE.INTER.CONST>
1

>  <SCORE.INTER.POLAR>
-9.27291

>  <SCORE.INTER.ROT>
6

>  <SCORE.INTER.SOLV>
33.2724

>  <SCORE.INTER.VDW>
-29.4811

>  <SCORE.INTER.norm>
-1.95469

>  <SCORE.INTRA>
-10.2805

>  <SCORE.INTRA.DIHEDRAL>
-5.26958

>  <SCORE.INTRA.DIHEDRAL.0>
44.2576

>  <SCORE.INTRA.POLAR>
-1.0867

>  <SCORE.INTRA.POLAR.0>
-0.381556

>  <SCORE.INTRA.REPUL>
0

>  <SCORE.INTRA.REPUL.0>
0

>  <SCORE.INTRA.SOLV>
-1.22943

>  <SCORE.INTRA.SOLV.lig_0>
-134.592

>  <SCORE.INTRA.VDW>
-3.33619

>  <SCORE.INTRA.VDW.0>
-1.01417

>  <SCORE.INTRA.norm>
-0.321265

>  <SCORE.RESTR>
0

>  <SCORE.RESTR.CAVITY>
0

>  <SCORE.RESTR.norm>
0

>  <SCORE.SYSTEM>
0

>  <SCORE.SYSTEM.CONST>
0

>  <SCORE.SYSTEM.DIHEDRAL>
0

>  <SCORE.SYSTEM.SOLV>
0

>  <SCORE.SYSTEM.norm>
0

>  <SCORE.heavy>
32

>  <SCORE.norm>
-2.27595

>  <RMSD>
0.628

$$$$
1lc4
 OpenBabel02141814113D
libRbt.so/2013.1/901 2013/11/27
 32 34  0  0  0  0  0  0  0  0999 V2000
  -10.1721    5.8856   19.5494 C   0  0  2  0  0  0  0  0  0  0  0  0
  -11.2134    6.6987   20.0297 O   0  0  0  0  0  0  0  0  0  0  0  0
  -10.4225    4.4452   20.0407 C   0  0  2  0  0  0  0  0  0  0  0  0
  -11.7274    3.9669   19.5740 N   0  3  0  0  0  0  0  0  0  0  0  0
  -10.3174    4.3832   21.5827 C   0  0  0  0  0  0  0  0  0  0  0  0
   -8.9082    4.8641   21.9704 C   0  0  2  0  0  0  0  0  0  0  0  0
   -8.7264    4.7857   23.3882 O   0  0  0  0  0  0  0  0  0  0  0  0
   -8.7021    6.3107   21.4562 C   0  0  2  0  0  0  0  0  0  0  0  0
   -8.8920    6.3680   20.0137 O   0  0  0  0  0  0  0  0  0  0  0  0
   -7.3093    6.8663   21.7431 C   0  0  0  0  0  0  0  0  0  0  0  0
   -7.2649    8.3383   21.5409 N   0  3  0  0  0  0  0  0  0  0  0  0
  -13.7762    9.6721   18.4324 C   0  0  2  0  0  0  0  0  0  0  0  0
  -14.2841   10.8686   17.7364 N   0  3  0  0  0  0  0  0  0  0  0  0
  -12.8461   10.0877   19.5641 C   0  0  0  0  0  0  0  0  0  0  0  0
  -12.3081    8.8518   20.2936 C   0  0  2  0  0  0  0  0  0  0  0  0
  -11.5054    9.3060   21.4563 N   0  3  0  0  0  0  0  0  0  0  0  0
  -11.5420    7.9089   19.3182 C   0  0  2  0  0  0  0  0  0  0  0  0
  -12.4673    7.5302   18.1332 C   0  0  2  0  0  0  0  0  0  0  0  0
  -11.7277    6.8164   17.1722 O   0  0  0  0  0  0  0  0  0  0  0  0
  -13.0174    8.7892   17.4436 C   0  0  1  0  0  0  0  0  0  0  0  0
  -13.8865    8.3926   16.3835 O   0  0  0  0  0  0  0  0  0  0  0  0
  -13.6541    8.9429   15.1327 C   0  0  2  0  0  0  0  0  0  0  0  0
  -14.9993    9.1063   14.4047 C   0  0  2  0  0  0  0  0  0  0  0  0
  -15.8339    9.9588   15.1783 O   0  0  0  0  0  0  0  0  0  0  0  0
  -15.6625    7.7277   14.2388 C   0  0  1  0  0  0  0  0  0  0  0  0
  -16.9848    7.8257   13.5561 N   0  3  0  0  0  0  0  0  0  0  0  0
  -14.7103    6.7945   13.4519 C   0  0  2  0  0  0  0  0  0  0  0  0
  -15.2884    5.4996   13.3043 O   0  0  0  0  0  0  0  0  0  0  0  0
  -13.3480    6.7016   14.1640 C   0  0  2  0  0  0  0  0  0  0  0  0
  -12.7895    8.0475   14.3864 O   0  0  0  0  0  0  0  0  0  0  0  0
  -12.3322    5.9277   13.3534 C   0  0  0  0  0  0  0  0  0  0  0  0
  -12.7402    4.5764   13.1510 O   0  0  0  0  0  0  0  0  0  0  0  0
  1  2  1  1  0  0  0
  1  3  1  0  0  0  0
  1  9  1  0  0  0  0
  3  4  1  1  0  0  0
  3  5  1  0  0  0  0
  5  6  1  0  0  0  0
  6  7  1  1  0  0  0
  6  8  1  0  0  0  0
  8  9  1  0  0  0  0
  8 10  1  6  0  0  0
 10 11  1  0  0  0  0
 12 13  1  6  0  0  0
 12 14  1  0  0  0  0
 12 20  1  0  0  0  0
 14 15  1  0  0  0  0
 15 16  1  1  0  0  0
 15 17  1  0  0  0  0
 17  2  1  1  0  0  0
 17 18  1  0  0  0  0
 18 19  1  6  0  0  0
 18 20  1  0  0  0  0
 20 21  1  6  0  0  0
 22 21  1  1  0  0  0
 22 23  1  0  0  0  0
 22 30  1  0  0  0  0
 23 24  1  1  0  0  0
 23 25  1  0  0  0  0
 25 26  1  6  0  0  0
 25 27  1  0  0  0  0
 27 28  1  1  0  0  0
 27 29  1  0  0  0  0
 29 30  1  0  0  0  0
 29 31  1  6  0  0  0
 31 32  1  0  0  0  0
M  CHG  5   4   1  11   1  13   1  16   1  26   1
M  END
>  <CHROM.1>
-155.01142816,-159.29591219,-170.30764188,-60.49658079,-166.02066187,-63.58052129
-177.15800419,-72.59804080,-54.16898793,109.76169350,-147.14984011,109.91160573
54.50434221,-55.15755126,-62.25789230,-58.08452767,-12.18451328,7.25839216
17.83669181,-0.37234366,0.87019629,-2.47092519

>  <Name>
1lc4

>  <RI>
0

>  <Rbt.Current_Directory>
/home/afrankz/demos/rdock_decoys_rna/rnas/1lc4

>  <Rbt.Executable>
rbdock ($Id: //depot/dev/client3/rdock/2013.1/src/exe/rbdock.cxx#4 $)

>  <Rbt.Library>
libRbt.so (2013.1, Build901 2013/11/27)

>  <Rbt.Parameter_File>
/export/apps/rDock/src/rDock_2013.1_src/data/scripts/dock_solv.prm

>  <Rbt.Receptor>
prm/pocket_docking_4.prm

>  <SCORE>
-78.2611

>  <SCORE.INTER>
-60.0683

>  <SCORE.INTER.CONST>
1

>  <SCORE.INTER.POLAR>
-8.95672

>  <SCORE.INTER.ROT>
6

>  <SCORE.INTER.SOLV>
25.3451

>  <SCORE.INTER.VDW>
-26.2382

>  <SCORE.INTER.norm>
-1.87713

>  <SCORE.INTRA>
-18.1929

>  <SCORE.INTRA.DIHEDRAL>
-20.3257

>  <SCORE.INTRA.DIHEDRAL.0>
44.2576

>  <SCORE.INTRA.POLAR>
-0.806871

>  <SCORE.INTRA.POLAR.0>
-0.381556

>  <SCORE.INTRA.REPUL>
0

>  <SCORE.INTRA.REPUL.0>
0

>  <SCORE.INTRA.SOLV>
-1.77401

>  <SCORE.INTRA.SOLV.lig_0>
-134.592

>  <SCORE.INTRA.VDW>
-4.39967

>  <SCORE.INTRA.VDW.0>
-1.01417

>  <SCORE.INTRA.norm>
-0.568527

>  <SCORE.RESTR>
0

>  <SCORE.RESTR.CAVITY>
0

>  <SCORE.RESTR.norm>
0

>  <SCORE.SYSTEM>
0

>  <SCORE.SYSTEM.CONST>
0

>  <SCORE.SYSTEM.DIHEDRAL>
0

>  <SCORE.SYSTEM.SOLV>
0

>  <SCORE.SYSTEM.norm>
0

>  <SCORE.heavy>
32

>  <SCORE.norm>
-2.44566

>  <RMSD>
0.638

$$$$
1lc4
 OpenBabel02141814113D
libRbt.so/2013.1/901 2013/11/27
 32 34  0  0  0  0  0  0  0  0999 V2000
  -10.1902    5.7590   19.4283 C   0  0  2  0  0  0  0  0  0  0  0  0
  -11.1648    6.6243   19.9550 O   0  0  0  0  0  0  0  0  0  0  0  0
  -10.3273    4.3949   20.1351 C   0  0  2  0  0  0  0  0  0  0  0  0
  -11.6765    3.8543   19.9427 N   0  3  0  0  0  0  0  0  0  0  0  0
   -9.9853    4.5371   21.6369 C   0  0  0  0  0  0  0  0  0  0  0  0
   -8.5453    5.0703   21.7353 C   0  0  2  0  0  0  0  0  0  0  0  0
   -8.1462    5.1801   23.1057 O   0  0  0  0  0  0  0  0  0  0  0  0
   -8.4556    6.4372   21.0122 C   0  0  2  0  0  0  0  0  0  0  0  0
   -8.8660    6.3032   19.6216 O   0  0  0  0  0  0  0  0  0  0  0  0
   -7.0492    7.0311   21.0048 C   0  0  0  0  0  0  0  0  0  0  0  0
   -6.7822    7.7979   22.2500 N   0  3  0  0  0  0  0  0  0  0  0  0
  -13.7325    9.5873   18.3463 C   0  0  2  0  0  0  0  0  0  0  0  0
  -14.2428   10.7778   17.6419 N   0  3  0  0  0  0  0  0  0  0  0  0
  -12.7935   10.0121   19.4671 C   0  0  0  0  0  0  0  0  0  0  0  0
  -12.2531    8.7823   20.2051 C   0  0  2  0  0  0  0  0  0  0  0  0
  -11.4412    9.2464   21.3576 N   0  3  0  0  0  0  0  0  0  0  0  0
  -11.4959    7.8280   19.2338 C   0  0  2  0  0  0  0  0  0  0  0  0
  -12.4303    7.4396   18.0592 C   0  0  2  0  0  0  0  0  0  0  0  0
  -11.6990    6.7146   17.1002 O   0  0  0  0  0  0  0  0  0  0  0  0
  -12.9826    8.6929   17.3610 C   0  0  1  0  0  0  0  0  0  0  0  0
  -13.8601    8.2876   16.3110 O   0  0  0  0  0  0  0  0  0  0  0  0
  -13.6420    8.8331   15.0556 C   0  0  2  0  0  0  0  0  0  0  0  0
  -14.9940    8.9805   14.3369 C   0  0  2  0  0  0  0  0  0  0  0  0
  -15.8305    9.8297   15.1122 O   0  0  0  0  0  0  0  0  0  0  0  0
  -15.6460    7.5952   14.1834 C   0  0  1  0  0  0  0  0  0  0  0  0
  -16.9742    7.6776   13.5102 N   0  3  0  0  0  0  0  0  0  0  0  0
  -14.6914    6.6663   13.3944 C   0  0  2  0  0  0  0  0  0  0  0  0
  -15.2589    5.3655   13.2580 O   0  0  0  0  0  0  0  0  0  0  0  0
  -13.3230    6.5895   14.0967 C   0  0  2  0  0  0  0  0  0  0  0  0
  -12.7750    7.9415   14.3075 O   0  0  0  0  0  0  0  0  0  0  0  0
  -12.3064    5.8203   13.2826 C   0  0  0  0  0  0  0  0  0  0  0  0
  -12.0289    6.4660   12.0419 O   0  0  0  0  0  0  0  0  0  0  0  0
  1  2  1  1  0  0  0
  1  3  1  0  0  0  0
  1  9  1  0  0  0  0
  3  4  1  1  0  0  0
  3  5  1  0  0  0  0
  5  6  1  0  0  0  0
  6  7  1  1  0  0  0
  6  8  1  0  0  0  0
  8  9  1  0  0  0  0
  8 10  1  6  0  0  0
 10 11  1  0  0  0  0
 12 13  1  6  0  0  0
 12 14  1  0  0  0  0
 12 20  1  0  0  0  0
 14 15  1  0  0  0  0
 15 16  1  1  0  0  0
 15 17  1  0  0  0  0
 17  2  1  1  0  0  0
 17 18  1  0  0  0  0
 18 19  1  6  0  0  0
 18 20  1  0  0  0  0
 20 21  1  6  0  0  0
 22 21  1  1  0  0  0
 22 23  1  0  0  0  0
 22 30  1  0  0  0  0
 23 24  1  1  0  0  0
 23 25  1  0  0  0  0
 25 26  1  6  0  0  0
 25 27  1  0  0  0  0
 27 28  1  1  0  0  0
 27 29  1  0  0  0  0
 29 30  1  0  0  0  0
 29 31  1  6  0  0  0
 31 32  1  0  0  0  0
M  CHG  5   4   1  11   1  13   1  16   1  26   1
M  END
>  <CHROM.1>
-163.38846491,-163.48444386,-48.78386208,161.34178597,-85.31729178,71.38413630
-56.87107036,167.79190486,179.65251833,109.25528109,-147.44136259,106.27828670
-68.94106016,-56.71397495,63.39733231,-56.54918877,-12.06213872,7.25845011
17.72170233,-0.47940970,0.81508819,-2.32418398

>  <Name>
1lc4

>  <RI>
0

>  <Rbt.Current_Directory>
/home/afrankz/demos/rdock_decoys_rna/rnas/1lc4

>  <Rbt.Executable>
rbdock ($Id: //depot/dev/client3/rdock/2013.1/src/exe/rbdock.cxx#4 $)

>  <Rbt.Library>
libRbt.so (2013.1, Build901 2013/11/27)

>  <Rbt.Parameter_File>
/export/apps/rDock/src/rDock_2013.1_src/data/scripts/dock_solv.prm

>  <Rbt.Receptor>
prm/pocket_docking_2.prm

>  <SCORE>
-67.5634

>  <SCORE.INTER>
-50.4589

>  <SCORE.INTER.CONST>
1

>  <SCORE.INTER.POLAR>
-6.92635

>  <SCORE.INTER.ROT>
6

>  <SCORE.INTER.SOLV>
22.4764

>  <SCORE.INTER.VDW>
-25.6436

>  <SCORE.INTER.norm>
-1.57684

>  <SCORE.INTRA>
-17.5325

>  <SCORE.INTRA.DIHEDRAL>
-19.6922

>  <SCORE.INTRA.DIHEDRAL.0>
44.2576

>  <SCORE.INTRA.POLAR>
-0.783552

>  <SCORE.INTRA.POLAR.0>
-0.381556

>  <SCORE.INTRA.REPUL>
0

>  <SCORE.INTRA.REPUL.0>
0

>  <SCORE.INTRA.SOLV>
-1.88963

>  <SCORE.INTRA.SOLV.lig_0>
-134.592

>  <SCORE.INTRA.VDW>
-4.07751

>  <SCORE.INTRA.VDW.0>
-1.01417

>  <SCORE.INTRA.norm>
-0.547891

>  <SCORE.RESTR>
0.42804

>  <SCORE.RESTR.CAVITY>
0.42804

>  <SCORE.RESTR.norm>
0.0133762

>  <SCORE.SYSTEM>
0

>  <SCORE.SYSTEM.CONST>
0

>  <SCORE.SYSTEM.DIHEDRAL>
0

>  <SCORE.SYSTEM.SOLV>
0

>  <SCORE.SYSTEM.norm>
0

>  <SCORE.heavy>
32

>  <SCORE.norm>
-2.11136

>  <RMSD>
0.639

$$$$
1lc4
 OpenBabel02141814113D
libRbt.so/2013.1/901 2013/11/27
 32 34  0  0  0  0  0  0  0  0999 V2000
  -10.2089    6.1203   19.3434 C   0  0  2  0  0  0  0  0  0  0  0  0
  -11.4073    6.7413   19.7363 O   0  0  0  0  0  0  0  0  0  0  0  0
  -10.2450    4.6569   19.8293 C   0  0  2  0  0  0  0  0  0  0  0  0
  -11.4098    3.9630   19.2714 N   0  3  0  0  0  0  0  0  0  0  0  0
  -10.2473    4.6095   21.3754 C   0  0  0  0  0  0  0  0  0  0  0  0
   -8.9746    5.3242   21.8623 C   0  0  2  0  0  0  0  0  0  0  0  0
   -8.8893    5.2742   23.2904 O   0  0  0  0  0  0  0  0  0  0  0  0
   -8.9812    6.7861   21.3502 C   0  0  2  0  0  0  0  0  0  0  0  0
   -9.0690    6.8139   19.8971 O   0  0  0  0  0  0  0  0  0  0  0  0
   -7.7299    7.5716   21.7346 C   0  0  0  0  0  0  0  0  0  0  0  0
   -6.5652    7.1691   20.9033 N   0  3  0  0  0  0  0  0  0  0  0  0
  -14.0546    9.8255   18.5366 C   0  0  2  0  0  0  0  0  0  0  0  0
  -14.6024   11.0665   17.9590 N   0  3  0  0  0  0  0  0  0  0  0  0
  -13.0329   10.1633   19.6139 C   0  0  0  0  0  0  0  0  0  0  0  0
  -12.4529    8.8805   20.2199 C   0  0  2  0  0  0  0  0  0  0  0  0
  -11.5552    9.2557   21.3407 N   0  3  0  0  0  0  0  0  0  0  0  0
  -11.7774    7.9958   19.1298 C   0  0  2  0  0  0  0  0  0  0  0  0
  -12.7982    7.6982   18.0014 C   0  0  2  0  0  0  0  0  0  0  0  0
  -12.1454    7.0414   16.9419 O   0  0  0  0  0  0  0  0  0  0  0  0
  -13.3869    9.0015   17.4374 C   0  0  1  0  0  0  0  0  0  0  0  0
  -14.3419    8.6778   16.4276 O   0  0  0  0  0  0  0  0  0  0  0  0
  -14.1482    9.2292   15.1708 C   0  0  2  0  0  0  0  0  0  0  0  0
  -15.5205    9.5256   14.5421 C   0  0  2  0  0  0  0  0  0  0  0  0
  -16.2192   10.4340   15.3839 O   0  0  0  0  0  0  0  0  0  0  0  0
  -16.3151    8.2151   14.4058 C   0  0  1  0  0  0  0  0  0  0  0  0
  -17.6674    8.4433   13.8197 N   0  3  0  0  0  0  0  0  0  0  0  0
  -15.5078    7.2161   13.5413 C   0  0  2  0  0  0  0  0  0  0  0  0
  -16.2091    5.9809   13.4183 O   0  0  0  0  0  0  0  0  0  0  0  0
  -14.1132    6.9887   14.1539 C   0  0  2  0  0  0  0  0  0  0  0  0
  -13.4218    8.2750   14.3535 O   0  0  0  0  0  0  0  0  0  0  0  0
  -13.2300    6.1432   13.2634 C   0  0  0  0  0  0  0  0  0  0  0  0
  -13.8762    4.9313   12.8799 O   0  0  0  0  0  0  0  0  0  0  0  0
  1  2  1  1  0  0  0
  1  3  1  0  0  0  0
  1  9  1  0  0  0  0
  3  4  1  6  0  0  0
  3  5  1  0  0  0  0
  5  6  1  0  0  0  0
  6  7  1  1  0  0  0
  6  8  1  0  0  0  0
  8  9  1  0  0  0  0
  8 10  1  6  0  0  0
 10 11  1  0  0  0  0
 12 13  1  6  0  0  0
 12 14  1  0  0  0  0
 12 20  1  0  0  0  0
 14 15  1  0  0  0  0
 15 16  1  1  0  0  0
 15 17  1  0  0  0  0
 17  2  1  1  0  0  0
 17 18  1  0  0  0  0
 18 19  1  6  0  0  0
 18 20  1  0  0  0  0
 20 21  1  6  0  0  0
 22 21  1  1  0  0  0
 22 23  1  0  0  0  0
 22 30  1  0  0  0  0
 23 24  1  1  0  0  0
 23 25  1  0  0  0  0
 25 26  1  6  0  0  0
 25 27  1  0  0  0  0
 27 28  1  1  0  0  0
 27 29  1  0  0  0  0
 29 30  1  0  0  0  0
 29 31  1  6  0  0  0
 31 32  1  0  0  0  0
M  CHG  5   4   1  11   1  13   1  16   1  26   1
M  END
>  <CHROM.1>
-164.61433479,-143.16159060,-55.06197003,-64.68522175,75.19793981,79.68326013
64.23194678,45.83184527,-170.01788395,114.27262230,-145.65634702,102.45923736
59.83946300,-171.97279047,-51.92246428,-174.42498032,-12.51610166,7.48986387
17.76311642,-0.34223971,0.80076409,-2.44445288

>  <Name>
1lc4

>  <RI>
0

>  <Rbt.Current_Directory>
/home/afrankz/demos/rdock_decoys_rna/rnas/1lc4

>  <Rbt.Executable>
rbdock ($Id: //depot/dev/client3/rdock/2013.1/src/exe/rbdock.cxx#4 $)

>  <Rbt.Library>
libRbt.so (2013.1, Build901 2013/11/27)

>  <Rbt.Parameter_File>
/export/apps/rDock/src/rDock_2013.1_src/data/scripts/dock_solv.prm

>  <Rbt.Receptor>
prm/pocket_docking_2.prm

>  <SCORE>
-71.7421

>  <SCORE.INTER>
-54.6118

>  <SCORE.INTER.CONST>
1

>  <SCORE.INTER.POLAR>
-8.51825

>  <SCORE.INTER.ROT>
6

>  <SCORE.INTER.SOLV>
33.0148

>  <SCORE.INTER.VDW>
-26.6186

>  <SCORE.INTER.norm>
-1.70662

>  <SCORE.INTRA>
-17.5076

>  <SCORE.INTRA.DIHEDRAL>
-17.4417

>  <SCORE.INTRA.DIHEDRAL.0>
44.2576

>  <SCORE.INTRA.POLAR>
-1.54033

>  <SCORE.INTRA.POLAR.0>
-0.381556

>  <SCORE.INTRA.REPUL>
0

>  <SCORE.INTRA.REPUL.0>
0

>  <SCORE.INTRA.SOLV>
0.0676319

>  <SCORE.INTRA.SOLV.lig_0>
-134.592

>  <SCORE.INTRA.VDW>
-3.58348

>  <SCORE.INTRA.VDW.0>
-1.01417

>  <SCORE.INTRA.norm>
-0.547113

>  <SCORE.RESTR>
0.377358

>  <SCORE.RESTR.CAVITY>
0.377358

>  <SCORE.RESTR.norm>
0.0117924

>  <SCORE.SYSTEM>
0

>  <SCORE.SYSTEM.CONST>
0

>  <SCORE.SYSTEM.DIHEDRAL>
0

>  <SCORE.SYSTEM.SOLV>
0

>  <SCORE.SYSTEM.norm>
0

>  <SCORE.heavy>
32

>  <SCORE.norm>
-2.24194

>  <RMSD>
0.639

$$$$
1lc4
 OpenBabel02141814113D
libRbt.so/2013.1/901 2013/11/27
 32 34  0  0  0  0  0  0  0  0999 V2000
  -10.3819    5.8192   19.4026 C   0  0  2  0  0  0  0  0  0  0  0  0
  -11.5218    6.5525   19.7754 O   0  0  0  0  0  0  0  0  0  0  0  0
  -10.5361    4.3837   19.9453 C   0  0  2  0  0  0  0  0  0  0  0  0
  -11.7583    3.7682   19.4192 N   0  3  0  0  0  0  0  0  0  0  0  0
  -10.5316    4.3964   21.4921 C   0  0  0  0  0  0  0  0  0  0  0  0
   -9.2005    5.0207   21.9461 C   0  0  2  0  0  0  0  0  0  0  0  0
   -9.1099    5.0189   23.3747 O   0  0  0  0  0  0  0  0  0  0  0  0
   -9.0893    6.4573   21.3774 C   0  0  2  0  0  0  0  0  0  0  0  0
   -9.1845    6.4363   19.9246 O   0  0  0  0  0  0  0  0  0  0  0  0
   -7.7744    7.1502   21.7262 C   0  0  0  0  0  0  0  0  0  0  0  0
   -7.8156    8.5930   21.3709 N   0  3  0  0  0  0  0  0  0  0  0  0
  -13.8626    9.8726   18.5682 C   0  0  2  0  0  0  0  0  0  0  0  0
  -14.2944   11.1486   17.9688 N   0  3  0  0  0  0  0  0  0  0  0  0
  -12.7678   10.1278   19.5952 C   0  0  0  0  0  0  0  0  0  0  0  0
  -12.3075    8.8076   20.2233 C   0  0  2  0  0  0  0  0  0  0  0  0
  -11.3302    9.1150   21.2971 N   0  3  0  0  0  0  0  0  0  0  0  0
  -11.7768    7.8214   19.1402 C   0  0  2  0  0  0  0  0  0  0  0  0
  -12.8683    7.6045   18.0606 C   0  0  2  0  0  0  0  0  0  0  0  0
  -12.3340    6.8481   17.0011 O   0  0  0  0  0  0  0  0  0  0  0  0
  -13.3333    8.9474   17.4742 C   0  0  1  0  0  0  0  0  0  0  0  0
  -14.3576    8.7008   16.5116 O   0  0  0  0  0  0  0  0  0  0  0  0
  -14.3777    9.5085   15.3853 C   0  0  2  0  0  0  0  0  0  0  0  0
  -15.8367    9.6965   14.9354 C   0  0  2  0  0  0  0  0  0  0  0  0
  -16.5650   10.3008   15.9966 O   0  0  0  0  0  0  0  0  0  0  0  0
  -16.4466    8.3266   14.5902 C   0  0  1  0  0  0  0  0  0  0  0  0
  -17.8717    8.4436   14.1664 N   0  3  0  0  0  0  0  0  0  0  0  0
  -15.6008    7.6564   13.4801 C   0  0  2  0  0  0  0  0  0  0  0  0
  -16.1282    6.3719   13.1564 O   0  0  0  0  0  0  0  0  0  0  0  0
  -14.1315    7.5419   13.9268 C   0  0  2  0  0  0  0  0  0  0  0  0
  -13.6129    8.8595   14.3364 O   0  0  0  0  0  0  0  0  0  0  0  0
  -13.2356    7.0374   12.8174 C   0  0  0  0  0  0  0  0  0  0  0  0
  -11.8596    7.2827   13.1000 O   0  0  0  0  0  0  0  0  0  0  0  0
  1  2  1  1  0  0  0
  1  3  1  0  0  0  0
  1  9  1  0  0  0  0
  3  4  1  1  0  0  0
  3  5  1  0  0  0  0
  5  6  1  0  0  0  0
  6  7  1  1  0  0  0
  6  8  1  0  0  0  0
  8  9  1  0  0  0  0
  8 10  1  6  0  0  0
 10 11  1  0  0  0  0
 12 13  1  6  0  0  0
 12 14  1  0  0  0  0
 12 20  1  0  0  0  0
 14 15  1  0  0  0  0
 15 16  1  1  0  0  0
 15 17  1  0  0  0  0
 17  2  1  1  0  0  0
 17 18  1  0  0  0  0
 18 19  1  6  0  0  0
 18 20  1  0  0  0  0
 20 21  1  6  0  0  0
 22 21  1  1  0  0  0
 22 23  1  0  0  0  0
 22 30  1  0  0  0  0
 23 24  1  1  0  0  0
 23 25  1  0  0  0  0
 25 26  1  6  0  0  0
 25 27  1  0  0  0  0
 27 28  1  1  0  0  0
 27 29  1  0  0  0  0
 29 30  1  0  0  0  0
 29 31  1  6  0  0  0
 31 32  1  0  0  0  0
M  CHG  5   4   1  11   1  13   1  16   1  26   1
M  END
>  <CHROM.1>
-165.79947906,-140.35194686,-58.43852492,59.55583197,-169.88014060,-71.34551207
66.53708516,53.21579871,66.64543030,94.71562041,-147.43651340,-74.51578745
-54.41120273,178.25541711,163.70844199,174.24948101,-12.56434151,7.61280558
17.84645777,-0.31477422,0.85419318,-2.42486060

>  <Name>
1lc4

>  <RI>
0

>  <Rbt.Current_Directory>
/home/afrankz/demos/rdock_decoys_rna/rnas/1lc4

>  <Rbt.Executable>
rbdock ($Id: //depot/dev/client3/rdock/2013.1/src/exe/rbdock.cxx#4 $)

>  <Rbt.Library>
libRbt.so (2013.1, Build901 2013/11/27)

>  <Rbt.Parameter_File>
/export/apps/rDock/src/rDock_2013.1_src/data/scripts/dock_solv.prm

>  <Rbt.Receptor>
prm/pocket_docking_2.prm

>  <SCORE>
-70.1134

>  <SCORE.INTER>
-53.6889

>  <SCORE.INTER.CONST>
1

>  <SCORE.INTER.POLAR>
-7.46827

>  <SCORE.INTER.ROT>
6

>  <SCORE.INTER.SOLV>
27.4766

>  <SCORE.INTER.VDW>
-27.6572

>  <SCORE.INTER.norm>
-1.67778

>  <SCORE.INTRA>
-16.8688

>  <SCORE.INTRA.DIHEDRAL>
-26.0603

>  <SCORE.INTRA.DIHEDRAL.0>
44.2576

>  <SCORE.INTRA.POLAR>
-0.196024

>  <SCORE.INTRA.POLAR.0>
-0.381556

>  <SCORE.INTRA.REPUL>
0.0796733

>  <SCORE.INTRA.REPUL.0>
0

>  <SCORE.INTRA.SOLV>
2.24619

>  <SCORE.INTRA.SOLV.lig_0>
-134.592

>  <SCORE.INTRA.VDW>
-4.69365

>  <SCORE.INTRA.VDW.0>
-1.01417

>  <SCORE.INTRA.norm>
-0.52715

>  <SCORE.RESTR>
0.444361

>  <SCORE.RESTR.CAVITY>
0.444361

>  <SCORE.RESTR.norm>
0.0138863

>  <SCORE.SYSTEM>
0

>  <SCORE.SYSTEM.CONST>
0

>  <SCORE.SYSTEM.DIHEDRAL>
0

>  <SCORE.SYSTEM.SOLV>
0

>  <SCORE.SYSTEM.norm>
0

>  <SCORE.heavy>
32

>  <SCORE.norm>
-2.19104

>  <RMSD>
0.639

$$$$
1lc4
 OpenBabel02141814113D
libRbt.so/2013.1/901 2013/11/27
 32 34  0  0  0  0  0  0  0  0999 V2000
   -9.6495    6.1294   19.6718 C   0  0  2  0  0  0  0  0  0  0  0  0
  -10.8867    6.7213   19.9800 O   0  0  0  0  0  0  0  0  0  0  0  0
   -9.6788    4.6696   20.1688 C   0  0  2  0  0  0  0  0  0  0  0  0
  -10.7863    3.9402   19.5433 N   0  3  0  0  0  0  0  0  0  0  0  0
   -9.7805    4.6348   21.7118 C   0  0  0  0  0  0  0  0  0  0  0  0
   -8.5613    5.3872   22.2732 C   0  0  2  0  0  0  0  0  0  0  0  0
   -8.5679    5.3511   23.7042 O   0  0  0  0  0  0  0  0  0  0  0  0
   -8.5728    6.8441   21.7473 C   0  0  2  0  0  0  0  0  0  0  0  0
   -8.5665    6.8578   20.2913 O   0  0  0  0  0  0  0  0  0  0  0  0
   -7.3702    7.6660   22.2043 C   0  0  0  0  0  0  0  0  0  0  0  0
   -7.4422    9.0582   21.6881 N   0  3  0  0  0  0  0  0  0  0  0  0
  -13.4619    9.8147   18.6537 C   0  0  2  0  0  0  0  0  0  0  0  0
  -13.9741   11.0710   18.0765 N   0  3  0  0  0  0  0  0  0  0  0  0
  -12.5565   10.1212   19.8389 C   0  0  0  0  0  0  0  0  0  0  0  0
  -12.0143    8.8225   20.4459 C   0  0  2  0  0  0  0  0  0  0  0  0
  -11.2373    9.1628   21.6637 N   0  3  0  0  0  0  0  0  0  0  0  0
  -11.2195    7.9949   19.3919 C   0  0  2  0  0  0  0  0  0  0  0  0
  -12.1198    7.7307   18.1577 C   0  0  2  0  0  0  0  0  0  0  0  0
  -11.3547    7.1293   17.1413 O   0  0  0  0  0  0  0  0  0  0  0  0
  -12.6750    9.0482   17.5925 C   0  0  1  0  0  0  0  0  0  0  0  0
  -13.5210    8.7538   16.4815 O   0  0  0  0  0  0  0  0  0  0  0  0
  -13.3773    9.5395   15.3487 C   0  0  2  0  0  0  0  0  0  0  0  0
  -14.7734    9.9412   14.8430 C   0  0  2  0  0  0  0  0  0  0  0  0
  -15.4384   10.6640   15.8713 O   0  0  0  0  0  0  0  0  0  0  0  0
  -15.5726    8.6756   14.4864 C   0  0  1  0  0  0  0  0  0  0  0  0
  -16.9470    9.0024   14.0086 N   0  3  0  0  0  0  0  0  0  0  0  0
  -14.7999    7.8691   13.4142 C   0  0  2  0  0  0  0  0  0  0  0  0
  -15.5053    6.6756   13.0815 O   0  0  0  0  0  0  0  0  0  0  0  0
  -13.3822    7.5385   13.9166 C   0  0  2  0  0  0  0  0  0  0  0  0
  -12.6836    8.7672   14.3345 O   0  0  0  0  0  0  0  0  0  0  0  0
  -12.5348    6.8882   12.8456 C   0  0  0  0  0  0  0  0  0  0  0  0
  -12.5416    7.6457   11.6375 O   0  0  0  0  0  0  0  0  0  0  0  0
  1  2  1  1  0  0  0
  1  3  1  0  0  0  0
  1  9  1  0  0  0  0
  3  4  1  6  0  0  0
  3  5  1  0  0  0  0
  5  6  1  0  0  0  0
  6  7  1  1  0  0  0
  6  8  1  0  0  0  0
  8  9  1  0  0  0  0
  8 10  1  1  0  0  0
 10 11  1  0  0  0  0
 12 13  1  6  0  0  0
 12 14  1  0  0  0  0
 12 20  1  0  0  0  0
 14 15  1  0  0  0  0
 15 16  1  1  0  0  0
 15 17  1  0  0  0  0
 17  2  1  1  0  0  0
 17 18  1  0  0  0  0
 18 19  1  6  0  0  0
 18 20  1  0  0  0  0
 20 21  1  6  0  0  0
 22 21  1  1  0  0  0
 22 23  1  0  0  0  0
 22 30  1  0  0  0  0
 23 24  1  1  0  0  0
 23 25  1  0  0  0  0
 25 26  1  6  0  0  0
 25 27  1  0  0  0  0
 27 28  1  1  0  0  0
 27 29  1  0  0  0  0
 29 30  1  0  0  0  0
 29 31  1  6  0  0  0
 31 32  1  0  0  0  0
M  CHG  5   4   1  11   1  13   1  16   1  26   1
M  END
>  <CHROM.1>
-167.81165996,-143.73897661,-98.02392869,-61.58387757,-179.18052496,-52.34796687
-174.79922911,-64.91749739,179.67256593,102.53669612,-134.74288625,175.50202549
56.98712714,178.22995558,51.66805672,-61.37790928,-11.94696796,7.82825985
17.91933372,-0.48058183,0.86468755,-2.28010324

>  <Name>
1lc4

>  <RI>
0

>  <Rbt.Current_Directory>
/home/afrankz/demos/rdock_decoys_rna/rnas/1lc4

>  <Rbt.Executable>
rbdock ($Id: //depot/dev/client3/rdock/2013.1/src/exe/rbdock.cxx#4 $)

>  <Rbt.Library>
libRbt.so (2013.1, Build901 2013/11/27)

>  <Rbt.Parameter_File>
/export/apps/rDock/src/rDock_2013.1_src/data/scripts/dock_solv.prm

>  <Rbt.Receptor>
prm/blind_docking_40.prm

>  <SCORE>
-62.8518

>  <SCORE.INTER>
-52.5953

>  <SCORE.INTER.CONST>
1

>  <SCORE.INTER.POLAR>
-7.86272

>  <SCORE.INTER.ROT>
6

>  <SCORE.INTER.SOLV>
33.5526

>  <SCORE.INTER.VDW>
-27.6387

>  <SCORE.INTER.norm>
-1.6436

>  <SCORE.INTRA>
-16.9601

>  <SCORE.INTRA.DIHEDRAL>
-23.5338

>  <SCORE.INTRA.DIHEDRAL.0>
44.2576

>  <SCORE.INTRA.POLAR>
-0.80424

>  <SCORE.INTRA.POLAR.0>
-0.381556

>  <SCORE.INTRA.REPUL>
0.054265

>  <SCORE.INTRA.REPUL.0>
0

>  <SCORE.INTRA.SOLV>
2.47848

>  <SCORE.INTRA.SOLV.lig_0>
-134.592

>  <SCORE.INTRA.VDW>
-3.96931

>  <SCORE.INTRA.VDW.0>
-1.01417

>  <SCORE.INTRA.norm>
-0.530003

>  <SCORE.RESTR>
6.7036

>  <SCORE.RESTR.CAVITY>
6.7036

>  <SCORE.RESTR.norm>
0.209488

>  <SCORE.SYSTEM>
0

>  <SCORE.SYSTEM.CONST>
0

>  <SCORE.SYSTEM.DIHEDRAL>
0

>  <SCORE.SYSTEM.SOLV>
0

>  <SCORE.SYSTEM.norm>
0

>  <SCORE.heavy>
32

>  <SCORE.norm>
-1.96412

>  <RMSD>
0.646

$$$$
1lc4
 OpenBabel02141814113D
libRbt.so/2013.1/901 2013/11/27
 32 34  0  0  0  0  0  0  0  0999 V2000
  -10.0197    5.7982   19.5582 C   0  0  2  0  0  0  0  0  0  0  0  0
  -11.1415    6.5428   19.9623 O   0  0  0  0  0  0  0  0  0  0  0  0
  -10.1961    4.3519   20.0643 C   0  0  2  0  0  0  0  0  0  0  0  0
  -11.4353    3.7741   19.5349 N   0  3  0  0  0  0  0  0  0  0  0  0
  -10.1759    4.3232   21.6106 C   0  0  0  0  0  0  0  0  0  0  0  0
   -8.8285    4.9097   22.0670 C   0  0  2  0  0  0  0  0  0  0  0  0
   -8.7235    4.8680   23.4940 O   0  0  0  0  0  0  0  0  0  0  0  0
   -8.6953    6.3586   21.5354 C   0  0  2  0  0  0  0  0  0  0  0  0
   -8.8054    6.3783   20.0837 O   0  0  0  0  0  0  0  0  0  0  0  0
   -7.3638    7.0167   21.8887 C   0  0  0  0  0  0  0  0  0  0  0  0
   -7.3706    8.4631   21.5454 N   0  3  0  0  0  0  0  0  0  0  0  0
  -13.6502    9.6109   18.4613 C   0  0  2  0  0  0  0  0  0  0  0  0
  -14.1377   10.8320   17.7940 N   0  3  0  0  0  0  0  0  0  0  0  0
  -12.6879    9.9825   19.5812 C   0  0  0  0  0  0  0  0  0  0  0  0
  -12.1709    8.7205   20.2808 C   0  0  2  0  0  0  0  0  0  0  0  0
  -11.3342    9.1337   21.4349 N   0  3  0  0  0  0  0  0  0  0  0  0
  -11.4496    7.7729   19.2763 C   0  0  2  0  0  0  0  0  0  0  0  0
  -12.4071    7.4390   18.1035 C   0  0  2  0  0  0  0  0  0  0  0  0
  -11.7057    6.7209   17.1174 O   0  0  0  0  0  0  0  0  0  0  0  0
  -12.9349    8.7237   17.4444 C   0  0  1  0  0  0  0  0  0  0  0  0
  -13.8344    8.3682   16.3950 O   0  0  0  0  0  0  0  0  0  0  0  0
  -13.5935    8.9098   15.1420 C   0  0  2  0  0  0  0  0  0  0  0  0
  -14.9398    9.1450   14.4360 C   0  0  2  0  0  0  0  0  0  0  0  0
  -15.7168   10.0372   15.2249 O   0  0  0  0  0  0  0  0  0  0  0  0
  -15.6762    7.8033   14.2774 C   0  0  1  0  0  0  0  0  0  0  0  0
  -17.0022    7.9718   13.6161 N   0  3  0  0  0  0  0  0  0  0  0  0
  -14.7862    6.8245   13.4731 C   0  0  2  0  0  0  0  0  0  0  0  0
  -15.4329    5.5618   13.3316 O   0  0  0  0  0  0  0  0  0  0  0  0
  -13.4194    6.6589   14.1631 C   0  0  2  0  0  0  0  0  0  0  0  0
  -12.7885    7.9733   14.3798 O   0  0  0  0  0  0  0  0  0  0  0  0
  -12.4580    5.8360   13.3346 C   0  0  0  0  0  0  0  0  0  0  0  0
  -12.9535    4.5181   13.1086 O   0  0  0  0  0  0  0  0  0  0  0  0
  1  2  1  1  0  0  0
  1  3  1  0  0  0  0
  1  9  1  0  0  0  0
  3  4  1  1  0  0  0
  3  5  1  0  0  0  0
  5  6  1  0  0  0  0
  6  7  1  1  0  0  0
  6  8  1  0  0  0  0
  8  9  1  0  0  0  0
  8 10  1  6  0  0  0
 10 11  1  0  0  0  0
 12 13  1  6  0  0  0
 12 14  1  0  0  0  0
 12 20  1  0  0  0  0
 14 15  1  0  0  0  0
 15 16  1  1  0  0  0
 15 17  1  0  0  0  0
 17  2  1  1  0  0  0
 17 18  1  0  0  0  0
 18 19  1  6  0  0  0
 18 20  1  0  0  0  0
 20 21  1  6  0  0  0
 22 21  1  1  0  0  0
 22 23  1  0  0  0  0
 22 30  1  0  0  0  0
 23 24  1  1  0  0  0
 23 25  1  0  0  0  0
 25 26  1  6  0  0  0
 25 27  1  0  0  0  0
 27 28  1  1  0  0  0
 27 29  1  0  0  0  0
 29 30  1  0  0  0  0
 29 31  1  6  0  0  0
 31 32  1  0  0  0  0
M  CHG  5   4   1  11   1  13   1  16   1  26   1
M  END
>  <CHROM.1>
-159.98760666,-150.89638781,-166.78308483,-178.61332416,-171.09023934,178.84997397
177.33669539,52.70247759,70.20574312,111.09499390,-146.70304787,121.94389317
175.92571425,-175.86215936,-60.87123050,-67.09827250,-12.13459206,7.22629204
17.85170305,-0.33783440,0.87826817,-2.51768793

>  <Name>
1lc4

>  <RI>
0

>  <Rbt.Current_Directory>
/home/afrankz/demos/rdock_decoys_rna/rnas/1lc4

>  <Rbt.Executable>
rbdock ($Id: //depot/dev/client3/rdock/2013.1/src/exe/rbdock.cxx#4 $)

>  <Rbt.Library>
libRbt.so (2013.1, Build901 2013/11/27)

>  <Rbt.Parameter_File>
/export/apps/rDock/src/rDock_2013.1_src/data/scripts/dock_solv.prm

>  <Rbt.Receptor>
prm/pocket_docking_2.prm

>  <SCORE>
-72.6484

>  <SCORE.INTER>
-54.9347

>  <SCORE.INTER.CONST>
1

>  <SCORE.INTER.POLAR>
-8.15417

>  <SCORE.INTER.ROT>
6

>  <SCORE.INTER.SOLV>
25.8578

>  <SCORE.INTER.VDW>
-25.6618

>  <SCORE.INTER.norm>
-1.71671

>  <SCORE.INTRA>
-18.2282

>  <SCORE.INTRA.DIHEDRAL>
-18.9924

>  <SCORE.INTRA.DIHEDRAL.0>
44.2576

>  <SCORE.INTRA.POLAR>
-1.26178

>  <SCORE.INTRA.POLAR.0>
-0.381556

>  <SCORE.INTRA.REPUL>
0.000538909

>  <SCORE.INTRA.REPUL.0>
0

>  <SCORE.INTRA.SOLV>
0.138688

>  <SCORE.INTRA.SOLV.lig_0>
-134.592

>  <SCORE.INTRA.VDW>
-4.51397

>  <SCORE.INTRA.VDW.0>
-1.01417

>  <SCORE.INTRA.norm>
-0.56963

>  <SCORE.RESTR>
0.514498

>  <SCORE.RESTR.CAVITY>
0.514498

>  <SCORE.RESTR.norm>
0.0160781

>  <SCORE.SYSTEM>
0

>  <SCORE.SYSTEM.CONST>
0

>  <SCORE.SYSTEM.DIHEDRAL>
0

>  <SCORE.SYSTEM.SOLV>
0

>  <SCORE.SYSTEM.norm>
0

>  <SCORE.heavy>
32

>  <SCORE.norm>
-2.27026

>  <RMSD>
0.650

$$$$
1lc4
 OpenBabel02141814113D
libRbt.so/2013.1/901 2013/11/27
 32 34  0  0  0  0  0  0  0  0999 V2000
  -10.1572    5.7154   19.5383 C   0  0  2  0  0  0  0  0  0  0  0  0
  -11.1969    6.5435   19.9956 O   0  0  0  0  0  0  0  0  0  0  0  0
  -10.4210    4.2854   20.0526 C   0  0  2  0  0  0  0  0  0  0  0  0
  -11.7253    3.8075   19.5835 N   0  3  0  0  0  0  0  0  0  0  0  0
  -10.3291    4.2499   21.5963 C   0  0  0  0  0  0  0  0  0  0  0  0
   -8.9198    4.7284   21.9872 C   0  0  2  0  0  0  0  0  0  0  0  0
   -8.7502    4.6737   23.4076 O   0  0  0  0  0  0  0  0  0  0  0  0
   -8.6999    6.1643   21.4495 C   0  0  2  0  0  0  0  0  0  0  0  0
   -8.8776    6.1975   20.0047 O   0  0  0  0  0  0  0  0  0  0  0  0
   -7.3059    6.7158   21.7382 C   0  0  0  0  0  0  0  0  0  0  0  0
   -7.2324    8.1719   21.4479 N   0  3  0  0  0  0  0  0  0  0  0  0
  -13.7053    9.5492   18.3727 C   0  0  2  0  0  0  0  0  0  0  0  0
  -14.1921   10.7454   17.6612 N   0  3  0  0  0  0  0  0  0  0  0  0
  -12.7542    9.9618   19.4878 C   0  0  0  0  0  0  0  0  0  0  0  0
  -12.2380    8.7260   20.2331 C   0  0  2  0  0  0  0  0  0  0  0  0
  -11.4130    9.1808   21.3799 N   0  3  0  0  0  0  0  0  0  0  0  0
  -11.5042    7.7489   19.2666 C   0  0  2  0  0  0  0  0  0  0  0  0
  -12.4502    7.3721   18.0975 C   0  0  2  0  0  0  0  0  0  0  0  0
  -11.7374    6.6249   17.1417 O   0  0  0  0  0  0  0  0  0  0  0  0
  -12.9776    8.6320   17.3918 C   0  0  1  0  0  0  0  0  0  0  0  0
  -13.8666    8.2381   16.3472 O   0  0  0  0  0  0  0  0  0  0  0  0
  -13.6492    8.7808   15.0904 C   0  0  2  0  0  0  0  0  0  0  0  0
  -15.0015    8.9259   14.3718 C   0  0  2  0  0  0  0  0  0  0  0  0
  -15.8382    9.7765   15.1455 O   0  0  0  0  0  0  0  0  0  0  0  0
  -15.6530    7.5399   14.2218 C   0  0  1  0  0  0  0  0  0  0  0  0
  -16.9814    7.6201   13.5488 N   0  3  0  0  0  0  0  0  0  0  0  0
  -14.6981    6.6096   13.4346 C   0  0  2  0  0  0  0  0  0  0  0  0
  -15.2650    5.3082   13.3014 O   0  0  0  0  0  0  0  0  0  0  0  0
  -13.3294    6.5352   14.1366 C   0  0  2  0  0  0  0  0  0  0  0  0
  -12.7821    7.8879   14.3442 O   0  0  0  0  0  0  0  0  0  0  0  0
  -12.3127    5.7646   13.3240 C   0  0  0  0  0  0  0  0  0  0  0  0
  -11.9934    6.4365   12.1074 O   0  0  0  0  0  0  0  0  0  0  0  0
  1  2  1  1  0  0  0
  1  3  1  0  0  0  0
  1  9  1  0  0  0  0
  3  4  1  1  0  0  0
  3  5  1  0  0  0  0
  5  6  1  0  0  0  0
  6  7  1  1  0  0  0
  6  8  1  0  0  0  0
  8  9  1  0  0  0  0
  8 10  1  6  0  0  0
 10 11  1  0  0  0  0
 12 13  1  6  0  0  0
 12 14  1  0  0  0  0
 12 20  1  0  0  0  0
 14 15  1  0  0  0  0
 15 16  1  1  0  0  0
 15 17  1  0  0  0  0
 17  2  1  1  0  0  0
 17 18  1  0  0  0  0
 18 19  1  6  0  0  0
 18 20  1  0  0  0  0
 20 21  1  6  0  0  0
 22 21  1  1  0  0  0
 22 23  1  0  0  0  0
 22 30  1  0  0  0  0
 23 24  1  1  0  0  0
 23 25  1  0  0  0  0
 25 26  1  6  0  0  0
 25 27  1  0  0  0  0
 27 28  1  1  0  0  0
 27 29  1  0  0  0  0
 29 30  1  0  0  0  0
 29 31  1  6  0  0  0
 31 32  1  0  0  0  0
M  CHG  5   4   1  11   1  13   1  16   1  26   1
M  END
>  <CHROM.1>
-155.52634033,-157.68799412,-175.06652585,174.41521752,-168.75754614,-64.69027859
-58.54096630,-70.29773332,-56.38572793,108.58963433,-148.28740117,173.79460660
-70.70204711,178.89023775,65.88026682,49.96958279,-12.13253835,7.17332833
17.76562064,-0.43497192,0.86948977,-2.38397212

>  <Name>
1lc4

>  <RI>
0

>  <Rbt.Current_Directory>
/home/afrankz/demos/rdock_decoys_rna/rnas/1lc4

>  <Rbt.Executable>
rbdock ($Id: //depot/dev/client3/rdock/2013.1/src/exe/rbdock.cxx#4 $)

>  <Rbt.Library>
libRbt.so (2013.1, Build901 2013/11/27)

>  <Rbt.Parameter_File>
/export/apps/rDock/src/rDock_2013.1_src/data/scripts/dock_solv.prm

>  <Rbt.Receptor>
prm/pocket_docking_2.prm

>  <SCORE>
-72.19

>  <SCORE.INTER>
-51.1301

>  <SCORE.INTER.CONST>
1

>  <SCORE.INTER.POLAR>
-7.07077

>  <SCORE.INTER.ROT>
6

>  <SCORE.INTER.SOLV>
25.1422

>  <SCORE.INTER.VDW>
-26.4982

>  <SCORE.INTER.norm>
-1.59782

>  <SCORE.INTRA>
-21.4817

>  <SCORE.INTRA.DIHEDRAL>
-26.791

>  <SCORE.INTRA.DIHEDRAL.0>
44.2576

>  <SCORE.INTRA.POLAR>
-0.858935

>  <SCORE.INTRA.POLAR.0>
-0.381556

>  <SCORE.INTRA.REPUL>
0

>  <SCORE.INTRA.REPUL.0>
0

>  <SCORE.INTRA.SOLV>
-1.56382

>  <SCORE.INTRA.SOLV.lig_0>
-134.592

>  <SCORE.INTRA.VDW>
-4.38388

>  <SCORE.INTRA.VDW.0>
-1.01417

>  <SCORE.INTRA.norm>
-0.671303

>  <SCORE.RESTR>
0.421832

>  <SCORE.RESTR.CAVITY>
0.421832

>  <SCORE.RESTR.norm>
0.0131822

>  <SCORE.SYSTEM>
0

>  <SCORE.SYSTEM.CONST>
0

>  <SCORE.SYSTEM.DIHEDRAL>
0

>  <SCORE.SYSTEM.SOLV>
0

>  <SCORE.SYSTEM.norm>
0

>  <SCORE.heavy>
32

>  <SCORE.norm>
-2.25594

>  <RMSD>
0.651

$$$$
1lc4
 OpenBabel02141814113D
libRbt.so/2013.1/901 2013/11/27
 32 34  0  0  0  0  0  0  0  0999 V2000
  -10.1759    5.9468   19.4264 C   0  0  2  0  0  0  0  0  0  0  0  0
  -11.2568    6.6985   19.9190 O   0  0  0  0  0  0  0  0  0  0  0  0
  -10.4338    4.4624   19.7563 C   0  0  2  0  0  0  0  0  0  0  0  0
  -11.7005    4.0211   19.1644 N   0  3  0  0  0  0  0  0  0  0  0  0
  -10.4221    4.2480   21.2882 C   0  0  0  0  0  0  0  0  0  0  0  0
   -9.0465    4.7007   21.8084 C   0  0  2  0  0  0  0  0  0  0  0  0
   -8.9504    4.4831   23.2200 O   0  0  0  0  0  0  0  0  0  0  0  0
   -8.8315    6.1931   21.4536 C   0  0  2  0  0  0  0  0  0  0  0  0
   -8.9339    6.3921   20.0148 O   0  0  0  0  0  0  0  0  0  0  0  0
   -7.4674    6.7299   21.8801 C   0  0  0  0  0  0  0  0  0  0  0  0
   -7.3148    8.1628   21.5150 N   0  3  0  0  0  0  0  0  0  0  0  0
  -13.7829    9.8518   18.6400 C   0  0  2  0  0  0  0  0  0  0  0  0
  -14.2803   11.1039   18.0412 N   0  3  0  0  0  0  0  0  0  0  0  0
  -12.7735   10.1675   19.7354 C   0  0  0  0  0  0  0  0  0  0  0  0
  -12.2458    8.8729   20.3637 C   0  0  2  0  0  0  0  0  0  0  0  0
  -11.3603    9.2302   21.4998 N   0  3  0  0  0  0  0  0  0  0  0  0
  -11.5757    7.9585   19.2949 C   0  0  2  0  0  0  0  0  0  0  0  0
  -12.5818    7.6825   18.1480 C   0  0  2  0  0  0  0  0  0  0  0  0
  -11.9279    6.9969   17.1076 O   0  0  0  0  0  0  0  0  0  0  0  0
  -13.1184    8.9983   17.5615 C   0  0  1  0  0  0  0  0  0  0  0  0
  -14.0620    8.6952   16.5347 O   0  0  0  0  0  0  0  0  0  0  0  0
  -13.7423    9.0855   15.2437 C   0  0  2  0  0  0  0  0  0  0  0  0
  -15.0312    9.1299   14.4052 C   0  0  2  0  0  0  0  0  0  0  0  0
  -15.9286   10.0588   15.0002 O   0  0  0  0  0  0  0  0  0  0  0  0
  -15.6681    7.7295   14.3705 C   0  0  1  0  0  0  0  0  0  0  0  0
  -16.9369    7.7152   13.5869 N   0  3  0  0  0  0  0  0  0  0  0  0
  -14.6518    6.7211   13.7813 C   0  0  2  0  0  0  0  0  0  0  0  0
  -15.2058    5.4075   13.7600 O   0  0  0  0  0  0  0  0  0  0  0  0
  -13.3453    6.7449   14.5962 C   0  0  2  0  0  0  0  0  0  0  0  0
  -12.8169    8.1182   14.6833 O   0  0  0  0  0  0  0  0  0  0  0  0
  -12.2653    5.8926   13.9676 C   0  0  0  0  0  0  0  0  0  0  0  0
  -11.3270    6.6837   13.2415 O   0  0  0  0  0  0  0  0  0  0  0  0
  1  2  1  1  0  0  0
  1  3  1  0  0  0  0
  1  9  1  0  0  0  0
  3  4  1  1  0  0  0
  3  5  1  0  0  0  0
  5  6  1  0  0  0  0
  6  7  1  1  0  0  0
  6  8  1  0  0  0  0
  8  9  1  0  0  0  0
  8 10  1  6  0  0  0
 10 11  1  0  0  0  0
 12 13  1  6  0  0  0
 12 14  1  0  0  0  0
 12 20  1  0  0  0  0
 14 15  1  0  0  0  0
 15 16  1  1  0  0  0
 15 17  1  0  0  0  0
 17  2  1  1  0  0  0
 17 18  1  0  0  0  0
 18 19  1  6  0  0  0
 18 20  1  0  0  0  0
 20 21  1  6  0  0  0
 22 21  1  1  0  0  0
 22 23  1  0  0  0  0
 22 30  1  0  0  0  0
 23 24  1  1  0  0  0
 23 25  1  0  0  0  0
 25 26  1  6  0  0  0
 25 27  1  0  0  0  0
 27 28  1  1  0  0  0
 27 29  1  0  0  0  0
 29 30  1  0  0  0  0
 29 31  1  6  0  0  0
 31 32  1  0  0  0  0
M  CHG  5   4   1  11   1  13   1  16   1  26   1
M  END
>  <CHROM.1>
-153.82707574,-152.05206748,71.49695228,-179.60568139,179.95436142,-56.04332836
-52.16175898,-70.11439247,68.49962392,122.17778203,-160.32851715,88.79724333
163.13995916,77.26109151,100.59618252,-63.99887657,-12.16975437,7.34792905
17.88564156,-0.34914601,0.86855923,-2.43435783

>  <Name>
1lc4

>  <RI>
0

>  <Rbt.Current_Directory>
/home/afrankz/demos/rdock_decoys_rna/rnas/1lc4

>  <Rbt.Executable>
rbdock ($Id: //depot/dev/client3/rdock/2013.1/src/exe/rbdock.cxx#4 $)

>  <Rbt.Library>
libRbt.so (2013.1, Build901 2013/11/27)

>  <Rbt.Parameter_File>
/export/apps/rDock/src/rDock_2013.1_src/data/scripts/dock_solv.prm

>  <Rbt.Receptor>
prm/pocket_docking_4.prm

>  <SCORE>
-71.7913

>  <SCORE.INTER>
-59.1309

>  <SCORE.INTER.CONST>
1

>  <SCORE.INTER.POLAR>
-8.88815

>  <SCORE.INTER.ROT>
6

>  <SCORE.INTER.SOLV>
26.0392

>  <SCORE.INTER.VDW>
-26.0732

>  <SCORE.INTER.norm>
-1.84784

>  <SCORE.INTRA>
-12.6604

>  <SCORE.INTRA.DIHEDRAL>
-18.5534

>  <SCORE.INTRA.DIHEDRAL.0>
44.2576

>  <SCORE.INTRA.POLAR>
0.347514

>  <SCORE.INTRA.POLAR.0>
-0.381556

>  <SCORE.INTRA.REPUL>
0

>  <SCORE.INTRA.REPUL.0>
0

>  <SCORE.INTRA.SOLV>
-0.933521

>  <SCORE.INTRA.SOLV.lig_0>
-134.592

>  <SCORE.INTRA.VDW>
-4.09846

>  <SCORE.INTRA.VDW.0>
-1.01417

>  <SCORE.INTRA.norm>
-0.395637

>  <SCORE.RESTR>
0

>  <SCORE.RESTR.CAVITY>
0

>  <SCORE.RESTR.norm>
0

>  <SCORE.SYSTEM>
0

>  <SCORE.SYSTEM.CONST>
0

>  <SCORE.SYSTEM.DIHEDRAL>
0

>  <SCORE.SYSTEM.SOLV>
0

>  <SCORE.SYSTEM.norm>
0

>  <SCORE.heavy>
32

>  <SCORE.norm>
-2.24348

>  <RMSD>
0.651

$$$$
1lc4
 OpenBabel02141814113D
libRbt.so/2013.1/901 2013/11/27
 32 34  0  0  0  0  0  0  0  0999 V2000
  -10.1656    5.8406   19.4272 C   0  0  2  0  0  0  0  0  0  0  0  0
  -11.1982    6.6471   19.9364 O   0  0  0  0  0  0  0  0  0  0  0  0
  -10.2726    4.4505   20.0867 C   0  0  2  0  0  0  0  0  0  0  0  0
  -11.5877    3.8596   19.8203 N   0  3  0  0  0  0  0  0  0  0  0  0
  -10.0005    4.5599   21.6055 C   0  0  0  0  0  0  0  0  0  0  0  0
   -8.5905    5.1502   21.7818 C   0  0  2  0  0  0  0  0  0  0  0  0
   -8.2544    5.2338   23.1709 O   0  0  0  0  0  0  0  0  0  0  0  0
   -8.5302    6.5417   21.1039 C   0  0  2  0  0  0  0  0  0  0  0  0
   -8.8756    6.4340   19.6936 O   0  0  0  0  0  0  0  0  0  0  0  0
   -7.1519    7.1944   21.1750 C   0  0  0  0  0  0  0  0  0  0  0  0
   -6.7944    7.5460   22.5743 N   0  3  0  0  0  0  0  0  0  0  0  0
  -13.7388    9.6933   18.4445 C   0  0  2  0  0  0  0  0  0  0  0  0
  -14.2380   10.9159   17.7889 N   0  3  0  0  0  0  0  0  0  0  0  0
  -12.8007   10.0641   19.5851 C   0  0  0  0  0  0  0  0  0  0  0  0
  -12.2717    8.8006   20.2729 C   0  0  2  0  0  0  0  0  0  0  0  0
  -11.4606    9.2103   21.4463 N   0  3  0  0  0  0  0  0  0  0  0  0
  -11.5180    7.8822   19.2650 C   0  0  2  0  0  0  0  0  0  0  0  0
  -12.4511    7.5499   18.0723 C   0  0  2  0  0  0  0  0  0  0  0  0
  -11.7217    6.8603   17.0862 O   0  0  0  0  0  0  0  0  0  0  0  0
  -12.9919    8.8353   17.4252 C   0  0  1  0  0  0  0  0  0  0  0  0
  -13.8686    8.4806   16.3564 O   0  0  0  0  0  0  0  0  0  0  0  0
  -13.6649    9.1038   15.1352 C   0  0  2  0  0  0  0  0  0  0  0  0
  -15.0198    9.2529   14.4221 C   0  0  2  0  0  0  0  0  0  0  0  0
  -15.8818   10.0312   15.2426 O   0  0  0  0  0  0  0  0  0  0  0  0
  -15.6307    7.8603   14.1872 C   0  0  1  0  0  0  0  0  0  0  0  0
  -16.9598    7.9425   13.5158 N   0  3  0  0  0  0  0  0  0  0  0  0
  -14.6482    7.0067   13.3487 C   0  0  2  0  0  0  0  0  0  0  0  0
  -15.1771    5.6999   13.1360 O   0  0  0  0  0  0  0  0  0  0  0  0
  -13.2790    6.9295   14.0495 C   0  0  2  0  0  0  0  0  0  0  0  0
  -12.7713    8.2825   14.3396 O   0  0  0  0  0  0  0  0  0  0  0  0
  -12.2392    6.2386   13.1955 C   0  0  0  0  0  0  0  0  0  0  0  0
  -12.6082    4.8924   12.9039 O   0  0  0  0  0  0  0  0  0  0  0  0
  1  2  1  1  0  0  0
  1  3  1  0  0  0  0
  1  9  1  0  0  0  0
  3  4  1  1  0  0  0
  3  5  1  0  0  0  0
  5  6  1  0  0  0  0
  6  7  1  1  0  0  0
  6  8  1  0  0  0  0
  8  9  1  0  0  0  0
  8 10  1  6  0  0  0
 10 11  1  0  0  0  0
 12 13  1  6  0  0  0
 12 14  1  0  0  0  0
 12 20  1  0  0  0  0
 14 15  1  0  0  0  0
 15 16  1  1  0  0  0
 15 17  1  0  0  0  0
 17  2  1  1  0  0  0
 17 18  1  0  0  0  0
 18 19  1  6  0  0  0
 18 20  1  0  0  0  0
 20 21  1  6  0  0  0
 22 21  1  1  0  0  0
 22 23  1  0  0  0  0
 22 30  1  0  0  0  0
 23 24  1  1  0  0  0
 23 25  1  0  0  0  0
 25 26  1  6  0  0  0
 25 27  1  0  0  0  0
 27 28  1  1  0  0  0
 27 29  1  0  0  0  0
 29 30  1  0  0  0  0
 29 31  1  6  0  0  0
 31 32  1  0  0  0  0
M  CHG  5   4   1  11   1  13   1  16   1  26   1
M  END
>  <CHROM.1>
-165.63425604,-159.24365451,69.83671878,-50.47734801,-66.96011401,-61.39499480
-56.86123901,-74.16766163,-55.29339446,107.54034841,-148.36030499,115.48325438
173.58501435,-51.91014159,-61.18671582,58.94202204,-12.08999407,7.33862982
17.79464613,-0.43447391,0.83354567,-2.36983682

>  <Name>
1lc4

>  <RI>
0

>  <Rbt.Current_Directory>
/home/afrankz/demos/rdock_decoys_rna/rnas/1lc4

>  <Rbt.Executable>
rbdock ($Id: //depot/dev/client3/rdock/2013.1/src/exe/rbdock.cxx#4 $)

>  <Rbt.Library>
libRbt.so (2013.1, Build901 2013/11/27)

>  <Rbt.Parameter_File>
/export/apps/rDock/src/rDock_2013.1_src/data/scripts/dock_solv.prm

>  <Rbt.Receptor>
prm/pocket_docking_2.prm

>  <SCORE>
-74.5807

>  <SCORE.INTER>
-53.9166

>  <SCORE.INTER.CONST>
1

>  <SCORE.INTER.POLAR>
-7.56197

>  <SCORE.INTER.ROT>
6

>  <SCORE.INTER.SOLV>
22.8523

>  <SCORE.INTER.VDW>
-25.9552

>  <SCORE.INTER.norm>
-1.68489

>  <SCORE.INTRA>
-21.1271

>  <SCORE.INTRA.DIHEDRAL>
-21.9327

>  <SCORE.INTRA.DIHEDRAL.0>
44.2576

>  <SCORE.INTRA.POLAR>
-1.66581

>  <SCORE.INTRA.POLAR.0>
-0.381556

>  <SCORE.INTRA.REPUL>
0

>  <SCORE.INTRA.REPUL.0>
0

>  <SCORE.INTRA.SOLV>
-0.743145

>  <SCORE.INTRA.SOLV.lig_0>
-134.592

>  <SCORE.INTRA.VDW>
-4.1254

>  <SCORE.INTRA.VDW.0>
-1.01417

>  <SCORE.INTRA.norm>
-0.660221

>  <SCORE.RESTR>
0.462963

>  <SCORE.RESTR.CAVITY>
0.462963

>  <SCORE.RESTR.norm>
0.0144676

>  <SCORE.SYSTEM>
0

>  <SCORE.SYSTEM.CONST>
0

>  <SCORE.SYSTEM.DIHEDRAL>
0

>  <SCORE.SYSTEM.SOLV>
0

>  <SCORE.SYSTEM.norm>
0

>  <SCORE.heavy>
32

>  <SCORE.norm>
-2.33065

>  <RMSD>
0.652

$$$$
1lc4
 OpenBabel02141814113D
libRbt.so/2013.1/901 2013/11/27
 32 34  0  0  0  0  0  0  0  0999 V2000
  -10.3259    5.7876   19.3616 C   0  0  2  0  0  0  0  0  0  0  0  0
  -11.4001    6.5698   19.8201 O   0  0  0  0  0  0  0  0  0  0  0  0
  -10.5525    4.3369   19.8341 C   0  0  2  0  0  0  0  0  0  0  0  0
  -11.8319    3.8300   19.3282 N   0  3  0  0  0  0  0  0  0  0  0  0
  -10.4875    4.2639   21.3778 C   0  0  0  0  0  0  0  0  0  0  0  0
   -9.1019    4.7768   21.8075 C   0  0  2  0  0  0  0  0  0  0  0  0
   -8.9564    4.6903   23.2290 O   0  0  0  0  0  0  0  0  0  0  0  0
   -8.9190    6.2326   21.3110 C   0  0  2  0  0  0  0  0  0  0  0  0
   -9.0714    6.2980   19.8644 O   0  0  0  0  0  0  0  0  0  0  0  0
   -7.5491    6.8206   21.6402 C   0  0  0  0  0  0  0  0  0  0  0  0
   -7.5350    8.2942   21.4454 N   0  3  0  0  0  0  0  0  0  0  0  0
  -13.8072    9.8075   18.5227 C   0  0  2  0  0  0  0  0  0  0  0  0
  -14.2600   11.0680   17.9063 N   0  3  0  0  0  0  0  0  0  0  0  0
  -12.7614   10.0999   19.5900 C   0  0  0  0  0  0  0  0  0  0  0  0
  -12.2797    8.7962   20.2362 C   0  0  2  0  0  0  0  0  0  0  0  0
  -11.3548    9.1367   21.3458 N   0  3  0  0  0  0  0  0  0  0  0  0
  -11.6747    7.8294   19.1747 C   0  0  2  0  0  0  0  0  0  0  0  0
  -12.7166    7.5754   18.0549 C   0  0  2  0  0  0  0  0  0  0  0  0
  -12.1168    6.8384   17.0170 O   0  0  0  0  0  0  0  0  0  0  0  0
  -13.2053    8.9016   17.4502 C   0  0  1  0  0  0  0  0  0  0  0  0
  -14.1834    8.6202   16.4499 O   0  0  0  0  0  0  0  0  0  0  0  0
  -14.2757    9.5040   15.3861 C   0  0  2  0  0  0  0  0  0  0  0  0
  -15.7402    9.5682   14.9198 C   0  0  2  0  0  0  0  0  0  0  0  0
  -16.5441   10.0089   16.0067 O   0  0  0  0  0  0  0  0  0  0  0  0
  -16.1932    8.1709   14.4613 C   0  0  1  0  0  0  0  0  0  0  0  0
  -17.6167    8.1664   14.0165 N   0  3  0  0  0  0  0  0  0  0  0  0
  -15.2648    7.6811   13.3233 C   0  0  2  0  0  0  0  0  0  0  0  0
  -15.6453    6.3758   12.8944 O   0  0  0  0  0  0  0  0  0  0  0  0
  -13.7979    7.6913   13.7921 C   0  0  2  0  0  0  0  0  0  0  0  0
  -13.4309    9.0219   14.3090 O   0  0  0  0  0  0  0  0  0  0  0  0
  -12.8376    7.3711   12.6682 C   0  0  0  0  0  0  0  0  0  0  0  0
  -13.0205    6.0429   12.1825 O   0  0  0  0  0  0  0  0  0  0  0  0
  1  2  1  1  0  0  0
  1  3  1  0  0  0  0
  1  9  1  0  0  0  0
  3  4  1  1  0  0  0
  3  5  1  0  0  0  0
  5  6  1  0  0  0  0
  6  7  1  1  0  0  0
  6  8  1  0  0  0  0
  8  9  1  0  0  0  0
  8 10  1  6  0  0  0
 10 11  1  0  0  0  0
 12 13  1  6  0  0  0
 12 14  1  0  0  0  0
 12 20  1  0  0  0  0
 14 15  1  0  0  0  0
 15 16  1  1  0  0  0
 15 17  1  0  0  0  0
 17  2  1  1  0  0  0
 17 18  1  0  0  0  0
 18 19  1  6  0  0  0
 18 20  1  0  0  0  0
 20 21  1  6  0  0  0
 22 21  1  1  0  0  0
 22 23  1  0  0  0  0
 22 30  1  0  0  0  0
 23 24  1  1  0  0  0
 23 25  1  0  0  0  0
 25 26  1  6  0  0  0
 25 27  1  0  0  0  0
 27 28  1  1  0  0  0
 27 29  1  0  0  0  0
 29 30  1  0  0  0  0
 29 31  1  6  0  0  0
 31 32  1  0  0  0  0
M  CHG  5   4   1  11   1  13   1  16   1  26   1
M  END
>  <CHROM.1>
-159.81487419,-149.14033481,63.05076354,-64.64661854,-166.28317393,50.44797111
-168.77000814,-67.47914001,-51.82092834,88.57718290,-147.42055937,-70.20898379
62.73782385,-175.62886173,-64.46986705,-174.16713933,-12.46461234,7.50389129
17.75583832,-0.37757693,0.85389303,-2.36455937

>  <Name>
1lc4

>  <RI>
0

>  <Rbt.Current_Directory>
/home/afrankz/demos/rdock_decoys_rna/rnas/1lc4

>  <Rbt.Executable>
rbdock ($Id: //depot/dev/client3/rdock/2013.1/src/exe/rbdock.cxx#4 $)

>  <Rbt.Library>
libRbt.so (2013.1, Build901 2013/11/27)

>  <Rbt.Parameter_File>
/export/apps/rDock/src/rDock_2013.1_src/data/scripts/dock_solv.prm

>  <Rbt.Receptor>
prm/pocket_docking_2.prm

>  <SCORE>
-75.9963

>  <SCORE.INTER>
-55.7249

>  <SCORE.INTER.CONST>
1

>  <SCORE.INTER.POLAR>
-7.55798

>  <SCORE.INTER.ROT>
6

>  <SCORE.INTER.SOLV>
25.2841

>  <SCORE.INTER.VDW>
-27.9847

>  <SCORE.INTER.norm>
-1.7414

>  <SCORE.INTRA>
-20.675

>  <SCORE.INTRA.DIHEDRAL>
-28.5326

>  <SCORE.INTRA.DIHEDRAL.0>
44.2576

>  <SCORE.INTRA.POLAR>
-0.759191

>  <SCORE.INTRA.POLAR.0>
-0.381556

>  <SCORE.INTRA.REPUL>
0

>  <SCORE.INTRA.REPUL.0>
0

>  <SCORE.INTRA.SOLV>
0.317394

>  <SCORE.INTRA.SOLV.lig_0>
-134.592

>  <SCORE.INTRA.VDW>
-3.98617

>  <SCORE.INTRA.VDW.0>
-1.01417

>  <SCORE.INTRA.norm>
-0.646095

>  <SCORE.RESTR>
0.403662

>  <SCORE.RESTR.CAVITY>
0.403662

>  <SCORE.RESTR.norm>
0.0126144

>  <SCORE.SYSTEM>
0

>  <SCORE.SYSTEM.CONST>
0

>  <SCORE.SYSTEM.DIHEDRAL>
0

>  <SCORE.SYSTEM.SOLV>
0

>  <SCORE.SYSTEM.norm>
0

>  <SCORE.heavy>
32

>  <SCORE.norm>
-2.37488

>  <RMSD>
0.654

$$$$
1lc4
 OpenBabel02141814113D
libRbt.so/2013.1/901 2013/11/27
 32 34  0  0  0  0  0  0  0  0999 V2000
  -10.0575    5.9754   19.5705 C   0  0  2  0  0  0  0  0  0  0  0  0
  -11.2368    6.6550   19.9217 O   0  0  0  0  0  0  0  0  0  0  0  0
  -10.1662    4.5266   20.0883 C   0  0  2  0  0  0  0  0  0  0  0  0
  -11.3468    3.8691   19.5195 N   0  3  0  0  0  0  0  0  0  0  0  0
  -10.2044    4.5156   21.6346 C   0  0  0  0  0  0  0  0  0  0  0  0
   -8.9135    5.1876   22.1343 C   0  0  2  0  0  0  0  0  0  0  0  0
   -8.8618    5.1676   23.5647 O   0  0  0  0  0  0  0  0  0  0  0  0
   -8.8470    6.6361   21.5894 C   0  0  2  0  0  0  0  0  0  0  0  0
   -8.9016    6.6335   20.1344 O   0  0  0  0  0  0  0  0  0  0  0  0
   -7.5723    7.3774   21.9846 C   0  0  0  0  0  0  0  0  0  0  0  0
   -6.5235    7.2392   20.9402 N   0  3  0  0  0  0  0  0  0  0  0  0
  -13.7723    9.7169   18.4533 C   0  0  2  0  0  0  0  0  0  0  0  0
  -14.2696   10.9446   17.8057 N   0  3  0  0  0  0  0  0  0  0  0  0
  -12.8303   10.0786   19.5935 C   0  0  0  0  0  0  0  0  0  0  0  0
  -12.3032    8.8098   20.2729 C   0  0  2  0  0  0  0  0  0  0  0  0
  -11.4879    9.2105   21.4465 N   0  3  0  0  0  0  0  0  0  0  0  0
  -11.5547    7.8948   19.2580 C   0  0  2  0  0  0  0  0  0  0  0  0
  -12.4918    7.5719   18.0658 C   0  0  2  0  0  0  0  0  0  0  0  0
  -11.7669    6.8857   17.0740 O   0  0  0  0  0  0  0  0  0  0  0  0
  -13.0305    8.8625   17.4273 C   0  0  1  0  0  0  0  0  0  0  0  0
  -13.9109    8.5163   16.3588 O   0  0  0  0  0  0  0  0  0  0  0  0
  -13.6976    9.1327   15.1357 C   0  0  2  0  0  0  0  0  0  0  0  0
  -15.0492    9.2952   14.4196 C   0  0  2  0  0  0  0  0  0  0  0  0
  -15.9035   10.0866   15.2357 O   0  0  0  0  0  0  0  0  0  0  0  0
  -15.6762    7.9092   14.1884 C   0  0  1  0  0  0  0  0  0  0  0  0
  -17.0030    8.0048   13.5142 N   0  3  0  0  0  0  0  0  0  0  0  0
  -14.7023    7.0410   13.3548 C   0  0  2  0  0  0  0  0  0  0  0  0
  -15.2463    5.7398   13.1456 O   0  0  0  0  0  0  0  0  0  0  0  0
  -13.3354    6.9502   14.0585 C   0  0  2  0  0  0  0  0  0  0  0  0
  -12.8122    8.2981   14.3447 O   0  0  0  0  0  0  0  0  0  0  0  0
  -12.3023    6.2439   13.2089 C   0  0  0  0  0  0  0  0  0  0  0  0
  -12.6482    4.8784   12.9871 O   0  0  0  0  0  0  0  0  0  0  0  0
  1  2  1  1  0  0  0
  1  3  1  0  0  0  0
  1  9  1  0  0  0  0
  3  4  1  6  0  0  0
  3  5  1  0  0  0  0
  5  6  1  0  0  0  0
  6  7  1  1  0  0  0
  6  8  1  0  0  0  0
  8  9  1  0  0  0  0
  8 10  1  6  0  0  0
 10 11  1  0  0  0  0
 12 13  1  6  0  0  0
 12 14  1  0  0  0  0
 12 20  1  0  0  0  0
 14 15  1  0  0  0  0
 15 16  1  1  0  0  0
 15 17  1  0  0  0  0
 17  2  1  1  0  0  0
 17 18  1  0  0  0  0
 18 19  1  6  0  0  0
 18 20  1  0  0  0  0
 20 21  1  6  0  0  0
 22 21  1  1  0  0  0
 22 23  1  0  0  0  0
 22 30  1  0  0  0  0
 23 24  1  1  0  0  0
 23 25  1  0  0  0  0
 25 26  1  6  0  0  0
 25 27  1  0  0  0  0
 27 28  1  1  0  0  0
 27 29  1  0  0  0  0
 29 30  1  0  0  0  0
 29 31  1  6  0  0  0
 31 32  1  0  0  0  0
M  CHG  5   4   1  11   1  13   1  16   1  26   1
M  END
>  <CHROM.1>
-163.28331402,-147.24143814,56.77597287,64.04902179,93.08717157,87.81605724
-179.27579929,168.61607737,68.50204291,108.35893646,-148.47564111,112.99712253
174.22053034,68.63279414,-64.62511449,-55.35494259,-12.15010266,7.35597175
17.80653112,-0.44358393,0.84232844,-2.35110943

>  <Name>
1lc4

>  <RI>
0

>  <Rbt.Current_Directory>
/home/afrankz/demos/rdock_decoys_rna/rnas/1lc4

>  <Rbt.Executable>
rbdock ($Id: //depot/dev/client3/rdock/2013.1/src/exe/rbdock.cxx#4 $)

>  <Rbt.Library>
libRbt.so (2013.1, Build901 2013/11/27)

>  <Rbt.Parameter_File>
/export/apps/rDock/src/rDock_2013.1_src/data/scripts/dock_solv.prm

>  <Rbt.Receptor>
prm/pocket_docking_2.prm

>  <SCORE>
-68.3801

>  <SCORE.INTER>
-54.1383

>  <SCORE.INTER.CONST>
1

>  <SCORE.INTER.POLAR>
-8.26463

>  <SCORE.INTER.ROT>
6

>  <SCORE.INTER.SOLV>
32.4218

>  <SCORE.INTER.VDW>
-26.9507

>  <SCORE.INTER.norm>
-1.69182

>  <SCORE.INTRA>
-14.6937

>  <SCORE.INTRA.DIHEDRAL>
-15.3151

>  <SCORE.INTRA.DIHEDRAL.0>
44.2576

>  <SCORE.INTRA.POLAR>
-0.785111

>  <SCORE.INTRA.POLAR.0>
-0.381556

>  <SCORE.INTRA.REPUL>
0

>  <SCORE.INTRA.REPUL.0>
0

>  <SCORE.INTRA.SOLV>
0.188908

>  <SCORE.INTRA.SOLV.lig_0>
-134.592

>  <SCORE.INTRA.VDW>
-4.46122

>  <SCORE.INTRA.VDW.0>
-1.01417

>  <SCORE.INTRA.norm>
-0.459179

>  <SCORE.RESTR>
0.451895

>  <SCORE.RESTR.CAVITY>
0.451895

>  <SCORE.RESTR.norm>
0.0141217

>  <SCORE.SYSTEM>
0

>  <SCORE.SYSTEM.CONST>
0

>  <SCORE.SYSTEM.DIHEDRAL>
0

>  <SCORE.SYSTEM.SOLV>
0

>  <SCORE.SYSTEM.norm>
0

>  <SCORE.heavy>
32

>  <SCORE.norm>
-2.13688

>  <RMSD>
0.657

$$$$
1lc4
 OpenBabel02141814113D
libRbt.so/2013.1/901 2013/11/27
 32 34  0  0  0  0  0  0  0  0999 V2000
  -10.2255    5.8903   19.5100 C   0  0  2  0  0  0  0  0  0  0  0  0
  -11.3543    6.6273   19.9081 O   0  0  0  0  0  0  0  0  0  0  0  0
  -10.3716    4.4556   20.0568 C   0  0  2  0  0  0  0  0  0  0  0  0
  -11.6075    3.8436   19.5588 N   0  3  0  0  0  0  0  0  0  0  0  0
  -10.3320    4.4689   21.6030 C   0  0  0  0  0  0  0  0  0  0  0  0
   -8.9890    5.0893   22.0263 C   0  0  2  0  0  0  0  0  0  0  0  0
   -8.8659    5.0879   23.4525 O   0  0  0  0  0  0  0  0  0  0  0  0
   -8.8863    6.5253   21.4545 C   0  0  2  0  0  0  0  0  0  0  0  0
   -9.0146    6.5040   20.0042 O   0  0  0  0  0  0  0  0  0  0  0  0
   -7.5617    7.2142   21.7730 C   0  0  0  0  0  0  0  0  0  0  0  0
   -7.6485    8.6802   21.5425 N   0  3  0  0  0  0  0  0  0  0  0  0
  -13.6469   10.0084   18.7802 C   0  0  2  0  0  0  0  0  0  0  0  0
  -14.0562   11.3118   18.2257 N   0  3  0  0  0  0  0  0  0  0  0  0
  -12.5834   10.2125   19.8506 C   0  0  0  0  0  0  0  0  0  0  0  0
  -12.1465    8.8636   20.4326 C   0  0  2  0  0  0  0  0  0  0  0  0
  -11.2017    9.1183   21.5483 N   0  3  0  0  0  0  0  0  0  0  0  0
  -11.5859    7.9245   19.3230 C   0  0  2  0  0  0  0  0  0  0  0  0
  -12.6444    7.7609   18.2020 C   0  0  2  0  0  0  0  0  0  0  0  0
  -12.0801    7.0504   17.1265 O   0  0  0  0  0  0  0  0  0  0  0  0
  -13.0871    9.1307   17.6625 C   0  0  1  0  0  0  0  0  0  0  0  0
  -14.0822    8.9320   16.6590 O   0  0  0  0  0  0  0  0  0  0  0  0
  -14.0596    9.7835   15.5655 C   0  0  2  0  0  0  0  0  0  0  0  0
  -15.5056   10.0464   15.1114 C   0  0  2  0  0  0  0  0  0  0  0  0
  -16.2203   10.6367   16.1898 O   0  0  0  0  0  0  0  0  0  0  0  0
  -16.1652    8.7163   14.7071 C   0  0  1  0  0  0  0  0  0  0  0  0
  -17.5804    8.9059   14.2764 N   0  3  0  0  0  0  0  0  0  0  0  0
  -15.3353    8.0574   13.5782 C   0  0  2  0  0  0  0  0  0  0  0  0
  -15.9093    6.8085   13.1994 O   0  0  0  0  0  0  0  0  0  0  0  0
  -13.8760    7.8677   14.0322 C   0  0  2  0  0  0  0  0  0  0  0  0
  -13.3105    9.1467   14.4981 O   0  0  0  0  0  0  0  0  0  0  0  0
  -12.9897    7.3724   12.9110 C   0  0  0  0  0  0  0  0  0  0  0  0
  -11.6828    7.0461   13.3789 O   0  0  0  0  0  0  0  0  0  0  0  0
  1  2  1  1  0  0  0
  1  3  1  0  0  0  0
  1  9  1  0  0  0  0
  3  4  1  1  0  0  0
  3  5  1  0  0  0  0
  5  6  1  0  0  0  0
  6  7  1  1  0  0  0
  6  8  1  0  0  0  0
  8  9  1  0  0  0  0
  8 10  1  6  0  0  0
 10 11  1  0  0  0  0
 12 13  1  6  0  0  0
 12 14  1  0  0  0  0
 12 20  1  0  0  0  0
 14 15  1  0  0  0  0
 15 16  1  1  0  0  0
 15 17  1  0  0  0  0
 17  2  1  1  0  0  0
 17 18  1  0  0  0  0
 18 19  1  6  0  0  0
 18 20  1  0  0  0  0
 20 21  1  6  0  0  0
 22 21  1  1  0  0  0
 22 23  1  0  0  0  0
 22 30  1  0  0  0  0
 23 24  1  1  0  0  0
 23 25  1  0  0  0  0
 25 26  1  6  0  0  0
 25 27  1  0  0  0  0
 27 28  1  1  0  0  0
 27 29  1  0  0  0  0
 29 30  1  0  0  0  0
 29 31  1  6  0  0  0
 31 32  1  0  0  0  0
M  CHG  5   4   1  11   1  13   1  16   1  26   1
M  END
>  <CHROM.1>
-168.64633739,-142.11151064,-178.99418299,58.36836115,-164.36422220,-72.07053835
-55.64890025,-62.76111921,-58.44457505,95.14246252,-145.26289310,170.28743343
-50.60356208,64.67372637,-172.91381735,179.72949866,-12.34335320,7.78928717
17.99045168,-0.32436349,0.86208256,-2.37786438

>  <Name>
1lc4

>  <RI>
0

>  <Rbt.Current_Directory>
/home/afrankz/demos/rdock_decoys_rna/rnas/1lc4

>  <Rbt.Executable>
rbdock ($Id: //depot/dev/client3/rdock/2013.1/src/exe/rbdock.cxx#4 $)

>  <Rbt.Library>
libRbt.so (2013.1, Build901 2013/11/27)

>  <Rbt.Parameter_File>
/export/apps/rDock/src/rDock_2013.1_src/data/scripts/dock_solv.prm

>  <Rbt.Receptor>
prm/pocket_docking_3.prm

>  <SCORE>
-76.9922

>  <SCORE.INTER>
-57.0292

>  <SCORE.INTER.CONST>
1

>  <SCORE.INTER.POLAR>
-7.46304

>  <SCORE.INTER.ROT>
6

>  <SCORE.INTER.SOLV>
29.5757

>  <SCORE.INTER.VDW>
-30.6012

>  <SCORE.INTER.norm>
-1.78216

>  <SCORE.INTRA>
-19.963

>  <SCORE.INTRA.DIHEDRAL>
-27.2209

>  <SCORE.INTRA.DIHEDRAL.0>
44.2576

>  <SCORE.INTRA.POLAR>
-0.785111

>  <SCORE.INTRA.POLAR.0>
-0.381556

>  <SCORE.INTRA.REPUL>
0

>  <SCORE.INTRA.REPUL.0>
0

>  <SCORE.INTRA.SOLV>
2.33854

>  <SCORE.INTRA.SOLV.lig_0>
-134.592

>  <SCORE.INTRA.VDW>
-4.85241

>  <SCORE.INTRA.VDW.0>
-1.01417

>  <SCORE.INTRA.norm>
-0.623843

>  <SCORE.RESTR>
0

>  <SCORE.RESTR.CAVITY>
0

>  <SCORE.RESTR.norm>
0

>  <SCORE.SYSTEM>
0

>  <SCORE.SYSTEM.CONST>
0

>  <SCORE.SYSTEM.DIHEDRAL>
0

>  <SCORE.SYSTEM.SOLV>
0

>  <SCORE.SYSTEM.norm>
0

>  <SCORE.heavy>
32

>  <SCORE.norm>
-2.40601

>  <RMSD>
0.659

$$$$
1lc4
 OpenBabel02141814113D
libRbt.so/2013.1/901 2013/11/27
 32 34  0  0  0  0  0  0  0  0999 V2000
   -9.9939    5.8010   19.5533 C   0  0  2  0  0  0  0  0  0  0  0  0
  -11.1354    6.5238   19.9415 O   0  0  0  0  0  0  0  0  0  0  0  0
  -10.1749    4.3380   20.0069 C   0  0  2  0  0  0  0  0  0  0  0  0
  -11.3899    3.7679   19.4168 N   0  3  0  0  0  0  0  0  0  0  0  0
  -10.2078    4.2601   21.5514 C   0  0  0  0  0  0  0  0  0  0  0  0
   -8.8821    4.8422   22.0726 C   0  0  2  0  0  0  0  0  0  0  0  0
   -8.8261    4.7557   23.5004 O   0  0  0  0  0  0  0  0  0  0  0  0
   -8.7434    6.3082   21.5921 C   0  0  2  0  0  0  0  0  0  0  0  0
   -8.8036    6.3734   20.1388 O   0  0  0  0  0  0  0  0  0  0  0  0
   -7.4308    6.9650   22.0121 C   0  0  0  0  0  0  0  0  0  0  0  0
   -7.4336    7.2948   23.4615 N   0  3  0  0  0  0  0  0  0  0  0  0
  -13.6479    9.6110   18.4869 C   0  0  2  0  0  0  0  0  0  0  0  0
  -14.1379   10.8374   17.8313 N   0  3  0  0  0  0  0  0  0  0  0  0
  -12.6690    9.9728   19.5956 C   0  0  0  0  0  0  0  0  0  0  0  0
  -12.1493    8.7053   20.2829 C   0  0  2  0  0  0  0  0  0  0  0  0
  -11.2953    9.1092   21.4276 N   0  3  0  0  0  0  0  0  0  0  0  0
  -11.4463    7.7583   19.2649 C   0  0  2  0  0  0  0  0  0  0  0  0
  -12.4209    7.4343   18.1035 C   0  0  2  0  0  0  0  0  0  0  0  0
  -11.7363    6.7169   17.1051 O   0  0  0  0  0  0  0  0  0  0  0  0
  -12.9507    8.7245   17.4569 C   0  0  1  0  0  0  0  0  0  0  0  0
  -13.8659    8.3782   16.4180 O   0  0  0  0  0  0  0  0  0  0  0  0
  -13.6441    8.9312   15.1665 C   0  0  2  0  0  0  0  0  0  0  0  0
  -14.9993    9.1415   14.4697 C   0  0  2  0  0  0  0  0  0  0  0  0
  -15.7903   10.0129   15.2680 O   0  0  0  0  0  0  0  0  0  0  0  0
  -15.7081    7.7853   14.3085 C   0  0  1  0  0  0  0  0  0  0  0  0
  -17.0414    7.9290   13.6559 N   0  3  0  0  0  0  0  0  0  0  0  0
  -14.8025    6.8298   13.4937 C   0  0  2  0  0  0  0  0  0  0  0  0
  -15.4232    5.5544   13.3493 O   0  0  0  0  0  0  0  0  0  0  0  0
  -13.4283    6.6896   14.1747 C   0  0  2  0  0  0  0  0  0  0  0  0
  -12.8241    8.0160   14.3946 O   0  0  0  0  0  0  0  0  0  0  0  0
  -12.4548    5.8916   13.3361 C   0  0  0  0  0  0  0  0  0  0  0  0
  -12.2990    6.4527   12.0345 O   0  0  0  0  0  0  0  0  0  0  0  0
  1  2  1  1  0  0  0
  1  3  1  0  0  0  0
  1  9  1  0  0  0  0
  3  4  1  6  0  0  0
  3  5  1  0  0  0  0
  5  6  1  0  0  0  0
  6  7  1  1  0  0  0
  6  8  1  0  0  0  0
  8  9  1  0  0  0  0
  8 10  1  6  0  0  0
 10 11  1  0  0  0  0
 12 13  1  6  0  0  0
 12 14  1  0  0  0  0
 12 20  1  0  0  0  0
 14 15  1  0  0  0  0
 15 16  1  1  0  0  0
 15 17  1  0  0  0  0
 17  2  1  1  0  0  0
 17 18  1  0  0  0  0
 18 19  1  6  0  0  0
 18 20  1  0  0  0  0
 20 21  1  6  0  0  0
 22 21  1  1  0  0  0
 22 23  1  0  0  0  0
 22 30  1  0  0  0  0
 23 24  1  1  0  0  0
 23 25  1  0  0  0  0
 25 26  1  6  0  0  0
 25 27  1  0  0  0  0
 27 28  1  1  0  0  0
 27 29  1  0  0  0  0
 29 30  1  0  0  0  0
 29 31  1  6  0  0  0
 31 32  1  0  0  0  0
M  CHG  5   4   1  11   1  13   1  16   1  26   1
M  END
>  <CHROM.1>
-158.67185292,-148.48951470,58.79508843,-61.34812720,-73.90027937,-147.27864192
-58.40327540,-67.78233461,-60.64849553,110.66279544,-148.02211521,115.01612959
-62.10917372,70.33105785,56.02832993,-64.11931410,-12.13630359,7.24597660
17.88938406,-0.44961134,0.87776529,-2.36008464

>  <Name>
1lc4

>  <RI>
0

>  <Rbt.Current_Directory>
/home/afrankz/demos/rdock_decoys_rna/rnas/1lc4

>  <Rbt.Executable>
rbdock ($Id: //depot/dev/client3/rdock/2013.1/src/exe/rbdock.cxx#4 $)

>  <Rbt.Library>
libRbt.so (2013.1, Build901 2013/11/27)

>  <Rbt.Parameter_File>
/export/apps/rDock/src/rDock_2013.1_src/data/scripts/dock_solv.prm

>  <Rbt.Receptor>
prm/pocket_docking_5.prm

>  <SCORE>
-75.2011

>  <SCORE.INTER>
-59.5426

>  <SCORE.INTER.CONST>
1

>  <SCORE.INTER.POLAR>
-8.688

>  <SCORE.INTER.ROT>
6

>  <SCORE.INTER.SOLV>
22.5826

>  <SCORE.INTER.VDW>
-25.8626

>  <SCORE.INTER.norm>
-1.86071

>  <SCORE.INTRA>
-15.6584

>  <SCORE.INTRA.DIHEDRAL>
-16.8984

>  <SCORE.INTRA.DIHEDRAL.0>
44.2576

>  <SCORE.INTRA.POLAR>
-0.77831

>  <SCORE.INTRA.POLAR.0>
-0.381556

>  <SCORE.INTRA.REPUL>
0

>  <SCORE.INTRA.REPUL.0>
0

>  <SCORE.INTRA.SOLV>
0.48989

>  <SCORE.INTRA.SOLV.lig_0>
-134.592

>  <SCORE.INTRA.VDW>
-4.80796

>  <SCORE.INTRA.VDW.0>
-1.01417

>  <SCORE.INTRA.norm>
-0.489326

>  <SCORE.RESTR>
0

>  <SCORE.RESTR.CAVITY>
0

>  <SCORE.RESTR.norm>
0

>  <SCORE.SYSTEM>
0

>  <SCORE.SYSTEM.CONST>
0

>  <SCORE.SYSTEM.DIHEDRAL>
0

>  <SCORE.SYSTEM.SOLV>
0

>  <SCORE.SYSTEM.norm>
0

>  <SCORE.heavy>
32

>  <SCORE.norm>
-2.35003

>  <RMSD>
0.665

$$$$
1lc4
 OpenBabel02141814113D
libRbt.so/2013.1/901 2013/11/27
 32 34  0  0  0  0  0  0  0  0999 V2000
  -10.1548    5.6073   19.6370 C   0  0  2  0  0  0  0  0  0  0  0  0
  -11.1827    6.4512   20.0924 O   0  0  0  0  0  0  0  0  0  0  0  0
  -10.2338    4.2852   20.4273 C   0  0  2  0  0  0  0  0  0  0  0  0
  -11.5493    3.6626   20.2494 N   0  3  0  0  0  0  0  0  0  0  0  0
   -9.9278    4.5397   21.9220 C   0  0  0  0  0  0  0  0  0  0  0  0
   -8.5195    5.1537   22.0081 C   0  0  2  0  0  0  0  0  0  0  0  0
   -8.1522    5.3708   23.3746 O   0  0  0  0  0  0  0  0  0  0  0  0
   -8.4876    6.4752   21.2006 C   0  0  2  0  0  0  0  0  0  0  0  0
   -8.8645    6.2322   19.8153 O   0  0  0  0  0  0  0  0  0  0  0  0
   -7.1141    7.1412   21.1767 C   0  0  0  0  0  0  0  0  0  0  0  0
   -6.7101    7.5904   22.5349 N   0  3  0  0  0  0  0  0  0  0  0  0
  -13.5994    9.5567   18.5190 C   0  0  2  0  0  0  0  0  0  0  0  0
  -14.0506   10.7754   17.8225 N   0  3  0  0  0  0  0  0  0  0  0  0
  -12.6243    9.9260   19.6286 C   0  0  0  0  0  0  0  0  0  0  0  0
  -12.1448    8.6664   20.3585 C   0  0  2  0  0  0  0  0  0  0  0  0
  -11.2940    9.0820   21.5013 N   0  3  0  0  0  0  0  0  0  0  0  0
  -11.4544    7.6729   19.3767 C   0  0  2  0  0  0  0  0  0  0  0  0
  -12.4237    7.3398   18.2134 C   0  0  2  0  0  0  0  0  0  0  0  0
  -11.7461    6.5767   17.2445 O   0  0  0  0  0  0  0  0  0  0  0  0
  -12.9131    8.6235   17.5235 C   0  0  1  0  0  0  0  0  0  0  0  0
  -13.8249    8.2701   16.4840 O   0  0  0  0  0  0  0  0  0  0  0  0
  -13.6944    8.9321   15.2732 C   0  0  2  0  0  0  0  0  0  0  0  0
  -15.0820    9.0494   14.6198 C   0  0  2  0  0  0  0  0  0  0  0  0
  -15.9369    9.7735   15.4955 O   0  0  0  0  0  0  0  0  0  0  0  0
  -15.6516    7.6418   14.3712 C   0  0  1  0  0  0  0  0  0  0  0  0
  -17.0095    7.6922   13.7565 N   0  3  0  0  0  0  0  0  0  0  0  0
  -14.6745    6.8474   13.4706 C   0  0  2  0  0  0  0  0  0  0  0  0
  -15.1644    5.5279   13.2433 O   0  0  0  0  0  0  0  0  0  0  0  0
  -13.2757    6.8028   14.1132 C   0  0  2  0  0  0  0  0  0  0  0  0
  -12.8054    8.1656   14.4199 O   0  0  0  0  0  0  0  0  0  0  0  0
  -12.2478    6.1734   13.1992 C   0  0  0  0  0  0  0  0  0  0  0  0
  -12.1814    6.8435   11.9423 O   0  0  0  0  0  0  0  0  0  0  0  0
  1  2  1  1  0  0  0
  1  3  1  0  0  0  0
  1  9  1  0  0  0  0
  3  4  1  1  0  0  0
  3  5  1  0  0  0  0
  5  6  1  0  0  0  0
  6  7  1  1  0  0  0
  6  8  1  0  0  0  0
  8  9  1  0  0  0  0
  8 10  1  6  0  0  0
 10 11  1  0  0  0  0
 12 13  1  6  0  0  0
 12 14  1  0  0  0  0
 12 20  1  0  0  0  0
 14 15  1  0  0  0  0
 15 16  1  1  0  0  0
 15 17  1  0  0  0  0
 17  2  1  1  0  0  0
 17 18  1  0  0  0  0
 18 19  1  6  0  0  0
 18 20  1  0  0  0  0
 20 21  1  6  0  0  0
 22 21  1  1  0  0  0
 22 23  1  0  0  0  0
 22 30  1  0  0  0  0
 23 24  1  1  0  0  0
 23 25  1  0  0  0  0
 25 26  1  6  0  0  0
 25 27  1  0  0  0  0
 27 28  1  1  0  0  0
 27 29  1  0  0  0  0
 29 30  1  0  0  0  0
 29 31  1  6  0  0  0
 31 32  1  0  0  0  0
M  CHG  5   4   1  11   1  13   1  16   1  26   1
M  END
>  <CHROM.1>
-170.77016514,-156.15109783,64.98881155,-47.20469890,-65.28748297,175.92045219
-58.67915027,57.26624908,176.94880073,101.34835681,-148.71395297,-71.91257570
53.89926024,-58.60156755,56.25840578,58.35421832,-12.03600543,7.26644528
17.89992244,-0.49393099,0.82389919,-2.29815235

>  <Name>
1lc4

>  <RI>
0

>  <Rbt.Current_Directory>
/home/afrankz/demos/rdock_decoys_rna/rnas/1lc4

>  <Rbt.Executable>
rbdock ($Id: //depot/dev/client3/rdock/2013.1/src/exe/rbdock.cxx#4 $)

>  <Rbt.Library>
libRbt.so (2013.1, Build901 2013/11/27)

>  <Rbt.Parameter_File>
/export/apps/rDock/src/rDock_2013.1_src/data/scripts/dock_solv.prm

>  <Rbt.Receptor>
prm/pocket_docking_3.prm

>  <SCORE>
-70.7189

>  <SCORE.INTER>
-48.9885

>  <SCORE.INTER.CONST>
1

>  <SCORE.INTER.POLAR>
-6.44537

>  <SCORE.INTER.ROT>
6

>  <SCORE.INTER.SOLV>
22.0581

>  <SCORE.INTER.VDW>
-26.1271

>  <SCORE.INTER.norm>
-1.53089

>  <SCORE.INTRA>
-21.7304

>  <SCORE.INTRA.DIHEDRAL>
-29.9477

>  <SCORE.INTRA.DIHEDRAL.0>
44.2576

>  <SCORE.INTRA.POLAR>
-0.635661

>  <SCORE.INTRA.POLAR.0>
-0.381556

>  <SCORE.INTRA.REPUL>
0

>  <SCORE.INTRA.REPUL.0>
0

>  <SCORE.INTRA.SOLV>
-0.592676

>  <SCORE.INTRA.SOLV.lig_0>
-134.592

>  <SCORE.INTRA.VDW>
-4.29898

>  <SCORE.INTRA.VDW.0>
-1.01417

>  <SCORE.INTRA.norm>
-0.679076

>  <SCORE.RESTR>
0

>  <SCORE.RESTR.CAVITY>
0

>  <SCORE.RESTR.norm>
0

>  <SCORE.SYSTEM>
0

>  <SCORE.SYSTEM.CONST>
0

>  <SCORE.SYSTEM.DIHEDRAL>
0

>  <SCORE.SYSTEM.SOLV>
0

>  <SCORE.SYSTEM.norm>
0

>  <SCORE.heavy>
32

>  <SCORE.norm>
-2.20997

>  <RMSD>
0.672

$$$$
1lc4
 OpenBabel02141814113D
libRbt.so/2013.1/901 2013/11/27
 32 34  0  0  0  0  0  0  0  0999 V2000
  -10.2103    5.9636   19.4733 C   0  0  2  0  0  0  0  0  0  0  0  0
  -11.3528    6.6801   19.8698 O   0  0  0  0  0  0  0  0  0  0  0  0
  -10.3523    4.5143   19.9816 C   0  0  2  0  0  0  0  0  0  0  0  0
  -11.5734    3.9039   19.4469 N   0  3  0  0  0  0  0  0  0  0  0  0
  -10.3396    4.4893   21.5281 C   0  0  0  0  0  0  0  0  0  0  0  0
   -9.0101    5.1111   21.9903 C   0  0  2  0  0  0  0  0  0  0  0  0
   -8.9118    5.0750   23.4179 O   0  0  0  0  0  0  0  0  0  0  0  0
   -8.9112    6.5618   21.4562 C   0  0  2  0  0  0  0  0  0  0  0  0
   -9.0140    6.5756   20.0039 O   0  0  0  0  0  0  0  0  0  0  0  0
   -7.5989    7.2545   21.8151 C   0  0  0  0  0  0  0  0  0  0  0  0
   -7.6549    8.7072   21.5051 N   0  3  0  0  0  0  0  0  0  0  0  0
  -13.6552   10.0814   18.8257 C   0  0  2  0  0  0  0  0  0  0  0  0
  -14.0701   11.3936   18.2966 N   0  3  0  0  0  0  0  0  0  0  0  0
  -12.5759   10.2678   19.8834 C   0  0  0  0  0  0  0  0  0  0  0  0
  -12.1332    8.9096   20.4389 C   0  0  2  0  0  0  0  0  0  0  0  0
  -11.1717    9.1462   21.5445 N   0  3  0  0  0  0  0  0  0  0  0  0
  -11.5904    7.9863   19.3074 C   0  0  2  0  0  0  0  0  0  0  0  0
  -12.6654    7.8411   18.1996 C   0  0  2  0  0  0  0  0  0  0  0  0
  -12.1181    7.1458   17.1055 O   0  0  0  0  0  0  0  0  0  0  0  0
  -13.1133    9.2195   17.6870 C   0  0  1  0  0  0  0  0  0  0  0  0
  -14.1232    9.0374   16.6952 O   0  0  0  0  0  0  0  0  0  0  0  0
  -14.1274    9.9180   15.6247 C   0  0  2  0  0  0  0  0  0  0  0  0
  -15.5782   10.1222   15.1560 C   0  0  2  0  0  0  0  0  0  0  0  0
  -16.3357   10.6481   16.2385 O   0  0  0  0  0  0  0  0  0  0  0  0
  -16.1662    8.7728   14.7073 C   0  0  1  0  0  0  0  0  0  0  0  0
  -17.5829    8.9049   14.2606 N   0  3  0  0  0  0  0  0  0  0  0  0
  -15.2896    8.1855   13.5743 C   0  0  2  0  0  0  0  0  0  0  0  0
  -15.7964    6.9207   13.1546 O   0  0  0  0  0  0  0  0  0  0  0  0
  -13.8292    8.0550   14.0450 C   0  0  2  0  0  0  0  0  0  0  0  0
  -13.3335    9.3470   14.5525 O   0  0  0  0  0  0  0  0  0  0  0  0
  -12.9043    7.6335   12.9248 C   0  0  0  0  0  0  0  0  0  0  0  0
  -13.2512    6.3491   12.4116 O   0  0  0  0  0  0  0  0  0  0  0  0
  1  2  1  1  0  0  0
  1  3  1  0  0  0  0
  1  9  1  0  0  0  0
  3  4  1  1  0  0  0
  3  5  1  0  0  0  0
  5  6  1  0  0  0  0
  6  7  1  1  0  0  0
  6  8  1  0  0  0  0
  8  9  1  0  0  0  0
  8 10  1  6  0  0  0
 10 11  1  0  0  0  0
 12 13  1  6  0  0  0
 12 14  1  0  0  0  0
 12 20  1  0  0  0  0
 14 15  1  0  0  0  0
 15 16  1  1  0  0  0
 15 17  1  0  0  0  0
 17  2  1  1  0  0  0
 17 18  1  0  0  0  0
 18 19  1  6  0  0  0
 18 20  1  0  0  0  0
 20 21  1  6  0  0  0
 22 21  1  1  0  0  0
 22 23  1  0  0  0  0
 22 30  1  0  0  0  0
 23 24  1  1  0  0  0
 23 25  1  0  0  0  0
 25 26  1  6  0  0  0
 25 27  1  0  0  0  0
 27 28  1  1  0  0  0
 27 29  1  0  0  0  0
 29 30  1  0  0  0  0
 29 31  1  6  0  0  0
 31 32  1  0  0  0  0
M  CHG  5   4   1  11   1  13   1  16   1  26   1
M  END
>  <CHROM.1>
-168.30188501,-140.27904372,-51.16160805,58.74900230,-169.43800721,171.90118010
70.48947927,57.33223939,-52.98037231,94.17951203,-148.11587881,177.38475002
-56.88911859,178.70802667,-62.05357878,-66.77239132,-12.40257611,7.83287981
17.95549802,-0.30887316,0.86911889,-2.41586898

>  <Name>
1lc4

>  <RI>
0

>  <Rbt.Current_Directory>
/home/afrankz/demos/rdock_decoys_rna/rnas/1lc4

>  <Rbt.Executable>
rbdock ($Id: //depot/dev/client3/rdock/2013.1/src/exe/rbdock.cxx#4 $)

>  <Rbt.Library>
libRbt.so (2013.1, Build901 2013/11/27)

>  <Rbt.Parameter_File>
/export/apps/rDock/src/rDock_2013.1_src/data/scripts/dock_solv.prm

>  <Rbt.Receptor>
prm/pocket_docking_3.prm

>  <SCORE>
-73.4479

>  <SCORE.INTER>
-52.2894

>  <SCORE.INTER.CONST>
1

>  <SCORE.INTER.POLAR>
-6.65641

>  <SCORE.INTER.ROT>
6

>  <SCORE.INTER.SOLV>
28.8176

>  <SCORE.INTER.VDW>
-29.8774

>  <SCORE.INTER.norm>
-1.63404

>  <SCORE.INTRA>
-21.1585

>  <SCORE.INTRA.DIHEDRAL>
-28.2407

>  <SCORE.INTRA.DIHEDRAL.0>
44.2576

>  <SCORE.INTRA.POLAR>
-1.18419

>  <SCORE.INTRA.POLAR.0>
-0.381556

>  <SCORE.INTRA.REPUL>
0

>  <SCORE.INTRA.REPUL.0>
0

>  <SCORE.INTRA.SOLV>
2.55467

>  <SCORE.INTRA.SOLV.lig_0>
-134.592

>  <SCORE.INTRA.VDW>
-4.28922

>  <SCORE.INTRA.VDW.0>
-1.01417

>  <SCORE.INTRA.norm>
-0.661203

>  <SCORE.RESTR>
0

>  <SCORE.RESTR.CAVITY>
0

>  <SCORE.RESTR.norm>
0

>  <SCORE.SYSTEM>
0

>  <SCORE.SYSTEM.CONST>
0

>  <SCORE.SYSTEM.DIHEDRAL>
0

>  <SCORE.SYSTEM.SOLV>
0

>  <SCORE.SYSTEM.norm>
0

>  <SCORE.heavy>
32

>  <SCORE.norm>
-2.29525

>  <RMSD>
0.675

$$$$
1lc4
 OpenBabel02141814113D
libRbt.so/2013.1/901 2013/11/27
 32 34  0  0  0  0  0  0  0  0999 V2000
  -10.1620    6.1244   19.4105 C   0  0  2  0  0  0  0  0  0  0  0  0
  -11.3506    6.7622   19.8061 O   0  0  0  0  0  0  0  0  0  0  0  0
  -10.2047    4.6699   19.9217 C   0  0  2  0  0  0  0  0  0  0  0  0
  -11.3815    3.9765   19.3888 N   0  3  0  0  0  0  0  0  0  0  0  0
  -10.1899    4.6489   21.4683 C   0  0  0  0  0  0  0  0  0  0  0  0
   -8.9058    5.3608   21.9286 C   0  0  2  0  0  0  0  0  0  0  0  0
   -8.8048    5.3344   23.3563 O   0  0  0  0  0  0  0  0  0  0  0  0
   -8.9061    6.8138   21.3917 C   0  0  2  0  0  0  0  0  0  0  0  0
   -9.0101    6.8177   19.9394 O   0  0  0  0  0  0  0  0  0  0  0  0
   -7.6440    7.5951   21.7486 C   0  0  0  0  0  0  0  0  0  0  0  0
   -6.5021    7.1970   20.8842 N   0  3  0  0  0  0  0  0  0  0  0  0
  -13.8019   10.0996   18.9043 C   0  0  2  0  0  0  0  0  0  0  0  0
  -14.2779   11.4080   18.4192 N   0  3  0  0  0  0  0  0  0  0  0  0
  -12.7047   10.3000   19.9408 C   0  0  0  0  0  0  0  0  0  0  0  0
  -12.1987    8.9460   20.4506 C   0  0  2  0  0  0  0  0  0  0  0  0
  -11.2199    9.1909   21.5390 N   0  3  0  0  0  0  0  0  0  0  0  0
  -11.6500    8.0721   19.2833 C   0  0  2  0  0  0  0  0  0  0  0  0
  -12.7456    7.9143   18.1977 C   0  0  2  0  0  0  0  0  0  0  0  0
  -12.2000    7.2673   17.0735 O   0  0  0  0  0  0  0  0  0  0  0  0
  -13.2566    9.2872   17.7315 C   0  0  1  0  0  0  0  0  0  0  0  0
  -14.2830    9.0920   16.7593 O   0  0  0  0  0  0  0  0  0  0  0  0
  -14.1697    9.7909   15.5677 C   0  0  2  0  0  0  0  0  0  0  0  0
  -15.5787   10.0429   15.0042 C   0  0  2  0  0  0  0  0  0  0  0  0
  -16.3207   10.7950   15.9559 O   0  0  0  0  0  0  0  0  0  0  0  0
  -16.2729    8.6954   14.7398 C   0  0  1  0  0  0  0  0  0  0  0  0
  -17.6554    8.8768   14.2108 N   0  3  0  0  0  0  0  0  0  0  0  0
  -15.4163    7.8647   13.7533 C   0  0  2  0  0  0  0  0  0  0  0  0
  -16.0230    6.5979   13.5084 O   0  0  0  0  0  0  0  0  0  0  0  0
  -13.9909    7.6847   14.3079 C   0  0  2  0  0  0  0  0  0  0  0  0
  -13.3957    8.9929   14.6347 O   0  0  0  0  0  0  0  0  0  0  0  0
  -13.0713    7.0150   13.3110 C   0  0  0  0  0  0  0  0  0  0  0  0
  -13.0002    7.7451   12.0882 O   0  0  0  0  0  0  0  0  0  0  0  0
  1  2  1  1  0  0  0
  1  3  1  0  0  0  0
  1  9  1  0  0  0  0
  3  4  1  1  0  0  0
  3  5  1  0  0  0  0
  5  6  1  0  0  0  0
  6  7  1  1  0  0  0
  6  8  1  0  0  0  0
  8  9  1  0  0  0  0
  8 10  1  6  0  0  0
 10 11  1  0  0  0  0
 12 13  1  6  0  0  0
 12 14  1  0  0  0  0
 12 20  1  0  0  0  0
 14 15  1  0  0  0  0
 15 16  1  1  0  0  0
 15 17  1  0  0  0  0
 17  2  1  1  0  0  0
 17 18  1  0  0  0  0
 18 19  1  6  0  0  0
 18 20  1  0  0  0  0
 20 21  1  6  0  0  0
 22 21  1  1  0  0  0
 22 23  1  0  0  0  0
 22 30  1  0  0  0  0
 23 24  1  1  0  0  0
 23 25  1  0  0  0  0
 25 26  1  6  0  0  0
 25 27  1  0  0  0  0
 27 28  1  1  0  0  0
 27 29  1  0  0  0  0
 29 30  1  0  0  0  0
 29 31  1  6  0  0  0
 31 32  1  0  0  0  0
M  CHG  5   4   1  11   1  13   1  16   1  26   1
M  END
>  <CHROM.1>
-170.82233904,-137.44909614,61.55469619,-61.23730706,76.86558728,-36.75866608
-173.99295623,-69.71288590,63.76412709,108.54103022,-151.31099427,72.90858638
-176.51124930,-59.01796416,57.57784033,-179.82421124,-12.39259906,7.84071122
17.93626563,-0.38585102,0.80038279,-2.28574753

>  <Name>
1lc4

>  <RI>
0

>  <Rbt.Current_Directory>
/home/afrankz/demos/rdock_decoys_rna/rnas/1lc4

>  <Rbt.Executable>
rbdock ($Id: //depot/dev/client3/rdock/2013.1/src/exe/rbdock.cxx#4 $)

>  <Rbt.Library>
libRbt.so (2013.1, Build901 2013/11/27)

>  <Rbt.Parameter_File>
/export/apps/rDock/src/rDock_2013.1_src/data/scripts/dock_solv.prm

>  <Rbt.Receptor>
prm/pocket_docking_3.prm

>  <SCORE>
-70.6887

>  <SCORE.INTER>
-53.8086

>  <SCORE.INTER.CONST>
1

>  <SCORE.INTER.POLAR>
-7.75351

>  <SCORE.INTER.ROT>
6

>  <SCORE.INTER.SOLV>
36.1078

>  <SCORE.INTER.VDW>
-29.6633

>  <SCORE.INTER.norm>
-1.68152

>  <SCORE.INTRA>
-16.8801

>  <SCORE.INTRA.DIHEDRAL>
-24.655

>  <SCORE.INTRA.DIHEDRAL.0>
44.2576

>  <SCORE.INTRA.POLAR>
0.0910241

>  <SCORE.INTRA.POLAR.0>
-0.381556

>  <SCORE.INTRA.REPUL>
0

>  <SCORE.INTRA.REPUL.0>
0

>  <SCORE.INTRA.SOLV>
0.463212

>  <SCORE.INTRA.SOLV.lig_0>
-134.592

>  <SCORE.INTRA.VDW>
-5.09365

>  <SCORE.INTRA.VDW.0>
-1.01417

>  <SCORE.INTRA.norm>
-0.527502

>  <SCORE.RESTR>
0

>  <SCORE.RESTR.CAVITY>
0

>  <SCORE.RESTR.norm>
0

>  <SCORE.SYSTEM>
0

>  <SCORE.SYSTEM.CONST>
0

>  <SCORE.SYSTEM.DIHEDRAL>
0

>  <SCORE.SYSTEM.SOLV>
0

>  <SCORE.SYSTEM.norm>
0

>  <SCORE.heavy>
32

>  <SCORE.norm>
-2.20902

>  <RMSD>
0.677

$$$$
1lc4
 OpenBabel02141814113D
libRbt.so/2013.1/901 2013/11/27
 32 34  0  0  0  0  0  0  0  0999 V2000
  -10.1243    5.9561   19.4455 C   0  0  2  0  0  0  0  0  0  0  0  0
  -11.2784    6.6637   19.8243 O   0  0  0  0  0  0  0  0  0  0  0  0
  -10.2755    4.4985   19.9264 C   0  0  2  0  0  0  0  0  0  0  0  0
  -11.4811    3.8942   19.3511 N   0  3  0  0  0  0  0  0  0  0  0  0
  -10.3020    4.4483   21.4722 C   0  0  0  0  0  0  0  0  0  0  0  0
   -8.9863    5.0654   21.9780 C   0  0  2  0  0  0  0  0  0  0  0  0
   -8.9241    5.0063   23.4069 O   0  0  0  0  0  0  0  0  0  0  0  0
   -8.8775    6.5248   21.4702 C   0  0  2  0  0  0  0  0  0  0  0  0
   -8.9435    6.5620   20.0161 O   0  0  0  0  0  0  0  0  0  0  0  0
   -7.5765    7.2143   21.8735 C   0  0  0  0  0  0  0  0  0  0  0  0
   -7.6816    7.8101   23.2313 N   0  3  0  0  0  0  0  0  0  0  0  0
  -13.8646    9.6118   18.2182 C   0  0  2  0  0  0  0  0  0  0  0  0
  -14.3810   10.8096   17.5309 N   0  3  0  0  0  0  0  0  0  0  0  0
  -12.9697   10.0264   19.3782 C   0  0  0  0  0  0  0  0  0  0  0  0
  -12.4232    8.7891   20.0990 C   0  0  2  0  0  0  0  0  0  0  0  0
  -11.6571    9.2392   21.2878 N   0  3  0  0  0  0  0  0  0  0  0  0
  -11.6154    7.8791   19.1260 C   0  0  2  0  0  0  0  0  0  0  0  0
  -12.5051    7.5024   17.9134 C   0  0  2  0  0  0  0  0  0  0  0  0
  -11.7289    6.8207   16.9580 O   0  0  0  0  0  0  0  0  0  0  0  0
  -13.0651    8.7619   17.2326 C   0  0  1  0  0  0  0  0  0  0  0  0
  -13.9012    8.3662   16.1458 O   0  0  0  0  0  0  0  0  0  0  0  0
  -13.6332    8.9211   14.9042 C   0  0  2  0  0  0  0  0  0  0  0  0
  -14.9536    9.0601   14.1274 C   0  0  2  0  0  0  0  0  0  0  0  0
  -15.8316    9.8970   14.8697 O   0  0  0  0  0  0  0  0  0  0  0  0
  -15.5850    7.6698   13.9378 C   0  0  1  0  0  0  0  0  0  0  0  0
  -16.8830    7.7438   13.2070 N   0  3  0  0  0  0  0  0  0  0  0  0
  -14.5877    6.7544   13.1865 C   0  0  2  0  0  0  0  0  0  0  0  0
  -15.1362    5.4492   13.0181 O   0  0  0  0  0  0  0  0  0  0  0  0
  -13.2509    6.6863   13.9480 C   0  0  2  0  0  0  0  0  0  0  0  0
  -12.7257    8.0420   14.1903 O   0  0  0  0  0  0  0  0  0  0  0  0
  -12.1921    5.9313   13.1754 C   0  0  0  0  0  0  0  0  0  0  0  0
  -11.9836    6.4940   11.8819 O   0  0  0  0  0  0  0  0  0  0  0  0
  1  2  1  1  0  0  0
  1  3  1  0  0  0  0
  1  9  1  0  0  0  0
  3  4  1  6  0  0  0
  3  5  1  0  0  0  0
  5  6  1  0  0  0  0
  6  7  1  1  0  0  0
  6  8  1  0  0  0  0
  8  9  1  0  0  0  0
  8 10  1  6  0  0  0
 10 11  1  0  0  0  0
 12 13  1  6  0  0  0
 12 14  1  0  0  0  0
 12 20  1  0  0  0  0
 14 15  1  0  0  0  0
 15 16  1  1  0  0  0
 15 17  1  0  0  0  0
 17  2  1  1  0  0  0
 17 18  1  0  0  0  0
 18 19  1  6  0  0  0
 18 20  1  0  0  0  0
 20 21  1  6  0  0  0
 22 21  1  1  0  0  0
 22 23  1  0  0  0  0
 22 30  1  0  0  0  0
 23 24  1  1  0  0  0
 23 25  1  0  0  0  0
 25 26  1  6  0  0  0
 25 27  1  0  0  0  0
 27 28  1  1  0  0  0
 27 29  1  0  0  0  0
 29 30  1  0  0  0  0
 29 31  1  6  0  0  0
 31 32  1  0  0  0  0
M  CHG  5   4   1  11   1  13   1  16   1  26   1
M  END
>  <CHROM.1>
-158.65090713,-152.49876716,56.08210710,169.21812679,-85.22273436,28.25157385
61.51194834,42.97828266,62.02365514,111.10759996,-148.13566177,105.99751822
-114.64783117,61.17770873,56.25783961,59.25689383,-12.17903238,7.32003803
17.68669337,-0.54902958,0.86917358,-2.28392462

>  <Name>
1lc4

>  <RI>
0

>  <Rbt.Current_Directory>
/home/afrankz/demos/rdock_decoys_rna/rnas/1lc4

>  <Rbt.Executable>
rbdock ($Id: //depot/dev/client3/rdock/2013.1/src/exe/rbdock.cxx#4 $)

>  <Rbt.Library>
libRbt.so (2013.1, Build901 2013/11/27)

>  <Rbt.Parameter_File>
/export/apps/rDock/src/rDock_2013.1_src/data/scripts/dock_solv.prm

>  <Rbt.Receptor>
prm/pocket_docking_4.prm

>  <SCORE>
-66.9118

>  <SCORE.INTER>
-54.5762

>  <SCORE.INTER.CONST>
1

>  <SCORE.INTER.POLAR>
-7.81008

>  <SCORE.INTER.ROT>
6

>  <SCORE.INTER.SOLV>
21.8322

>  <SCORE.INTER.VDW>
-25.228

>  <SCORE.INTER.norm>
-1.70551

>  <SCORE.INTRA>
-12.3356

>  <SCORE.INTRA.DIHEDRAL>
-13.1897

>  <SCORE.INTRA.DIHEDRAL.0>
44.2576

>  <SCORE.INTRA.POLAR>
-0.736021

>  <SCORE.INTRA.POLAR.0>
-0.381556

>  <SCORE.INTRA.REPUL>
0

>  <SCORE.INTRA.REPUL.0>
0

>  <SCORE.INTRA.SOLV>
0.0540438

>  <SCORE.INTRA.SOLV.lig_0>
-134.592

>  <SCORE.INTRA.VDW>
-3.26531

>  <SCORE.INTRA.VDW.0>
-1.01417

>  <SCORE.INTRA.norm>
-0.385487

>  <SCORE.RESTR>
0

>  <SCORE.RESTR.CAVITY>
0

>  <SCORE.RESTR.norm>
0

>  <SCORE.SYSTEM>
0

>  <SCORE.SYSTEM.CONST>
0

>  <SCORE.SYSTEM.DIHEDRAL>
0

>  <SCORE.SYSTEM.SOLV>
0

>  <SCORE.SYSTEM.norm>
0

>  <SCORE.heavy>
32

>  <SCORE.norm>
-2.09099

>  <RMSD>
0.679

$$$$
1lc4
 OpenBabel02141814113D
libRbt.so/2013.1/901 2013/11/27
 32 34  0  0  0  0  0  0  0  0999 V2000
  -10.2354    5.8474   19.3920 C   0  0  2  0  0  0  0  0  0  0  0  0
  -11.2357    6.6902   19.9070 O   0  0  0  0  0  0  0  0  0  0  0  0
  -10.3760    4.4676   20.0669 C   0  0  2  0  0  0  0  0  0  0  0  0
  -11.7122    3.9151   19.8239 N   0  3  0  0  0  0  0  0  0  0  0  0
  -10.0801    4.5831   21.5807 C   0  0  0  0  0  0  0  0  0  0  0  0
   -8.6503    5.1313   21.7323 C   0  0  2  0  0  0  0  0  0  0  0  0
   -8.2929    5.2178   23.1158 O   0  0  0  0  0  0  0  0  0  0  0  0
   -8.5565    6.5137   21.0398 C   0  0  2  0  0  0  0  0  0  0  0  0
   -8.9243    6.4033   19.6353 O   0  0  0  0  0  0  0  0  0  0  0  0
   -7.1580    7.1242   21.0859 C   0  0  0  0  0  0  0  0  0  0  0  0
   -6.7817    7.5032   22.4732 N   0  3  0  0  0  0  0  0  0  0  0  0
  -13.8353    9.6044   18.2610 C   0  0  2  0  0  0  0  0  0  0  0  0
  -14.3573   10.7880   17.5536 N   0  3  0  0  0  0  0  0  0  0  0  0
  -12.9322   10.0426   19.4059 C   0  0  0  0  0  0  0  0  0  0  0  0
  -12.3798    8.8201   20.1474 C   0  0  2  0  0  0  0  0  0  0  0  0
  -11.6054    9.2943   21.3213 N   0  3  0  0  0  0  0  0  0  0  0  0
  -11.5785    7.8913   19.1869 C   0  0  2  0  0  0  0  0  0  0  0  0
  -12.4768    7.4900   17.9886 C   0  0  2  0  0  0  0  0  0  0  0  0
  -11.7070    6.7897   17.0414 O   0  0  0  0  0  0  0  0  0  0  0  0
  -13.0424    8.7353   17.2868 C   0  0  1  0  0  0  0  0  0  0  0  0
  -13.8861    8.3176   16.2142 O   0  0  0  0  0  0  0  0  0  0  0  0
  -13.6659    8.8930   14.9725 C   0  0  2  0  0  0  0  0  0  0  0  0
  -15.0057    8.9815   14.2220 C   0  0  2  0  0  0  0  0  0  0  0  0
  -15.9040    9.7743   14.9878 O   0  0  0  0  0  0  0  0  0  0  0  0
  -15.5809    7.5669   14.0325 C   0  0  1  0  0  0  0  0  0  0  0  0
  -16.8946    7.5910   13.3271 N   0  3  0  0  0  0  0  0  0  0  0  0
  -14.5602    6.7008   13.2548 C   0  0  2  0  0  0  0  0  0  0  0  0
  -15.0558    5.3747   13.0858 O   0  0  0  0  0  0  0  0  0  0  0  0
  -13.2073    6.6839   13.9904 C   0  0  2  0  0  0  0  0  0  0  0  0
  -12.7357    8.0590   14.2341 O   0  0  0  0  0  0  0  0  0  0  0  0
  -12.1324    5.9808   13.1915 C   0  0  0  0  0  0  0  0  0  0  0  0
  -12.0112    6.5257   11.8793 O   0  0  0  0  0  0  0  0  0  0  0  0
  1  2  1  1  0  0  0
  1  3  1  0  0  0  0
  1  9  1  0  0  0  0
  3  4  1  1  0  0  0
  3  5  1  0  0  0  0
  5  6  1  0  0  0  0
  6  7  1  1  0  0  0
  6  8  1  0  0  0  0
  8  9  1  0  0  0  0
  8 10  1  6  0  0  0
 10 11  1  0  0  0  0
 12 13  1  6  0  0  0
 12 14  1  0  0  0  0
 12 20  1  0  0  0  0
 14 15  1  0  0  0  0
 15 16  1  1  0  0  0
 15 17  1  0  0  0  0
 17  2  1  1  0  0  0
 17 18  1  0  0  0  0
 18 19  1  6  0  0  0
 18 20  1  0  0  0  0
 20 21  1  6  0  0  0
 22 21  1  1  0  0  0
 22 23  1  0  0  0  0
 22 30  1  0  0  0  0
 23 24  1  1  0  0  0
 23 25  1  0  0  0  0
 25 26  1  6  0  0  0
 25 27  1  0  0  0  0
 27 28  1  1  0  0  0
 27 29  1  0  0  0  0
 29 30  1  0  0  0  0
 29 31  1  6  0  0  0
 31 32  1  0  0  0  0
M  CHG  5   4   1  11   1  13   1  16   1  26   1
M  END
>  <CHROM.1>
-162.19709361,-163.89313018,-171.45399964,-47.70087368,-68.10547699,172.57890331
-60.49681666,163.03671246,76.61239860,108.28341771,-148.44398929,108.67766843
48.61280629,179.35645536,53.82894015,64.28422319,-12.08963899,7.29255492
17.65917190,-0.54484537,0.81032058,-2.25178021

>  <Name>
1lc4

>  <RI>
0

>  <Rbt.Current_Directory>
/home/afrankz/demos/rdock_decoys_rna/rnas/1lc4

>  <Rbt.Executable>
rbdock ($Id: //depot/dev/client3/rdock/2013.1/src/exe/rbdock.cxx#4 $)

>  <Rbt.Library>
libRbt.so (2013.1, Build901 2013/11/27)

>  <Rbt.Parameter_File>
/export/apps/rDock/src/rDock_2013.1_src/data/scripts/dock_solv.prm

>  <Rbt.Receptor>
prm/pocket_docking_6.prm

>  <SCORE>
-73.1985

>  <SCORE.INTER>
-54.4999

>  <SCORE.INTER.CONST>
1

>  <SCORE.INTER.POLAR>
-7.70438

>  <SCORE.INTER.ROT>
6

>  <SCORE.INTER.SOLV>
21.8977

>  <SCORE.INTER.VDW>
-25.5512

>  <SCORE.INTER.norm>
-1.70312

>  <SCORE.INTRA>
-18.8921

>  <SCORE.INTRA.DIHEDRAL>
-20.7574

>  <SCORE.INTRA.DIHEDRAL.0>
44.2576

>  <SCORE.INTRA.POLAR>
-1.27895

>  <SCORE.INTRA.POLAR.0>
-0.381556

>  <SCORE.INTRA.REPUL>
0

>  <SCORE.INTRA.REPUL.0>
0

>  <SCORE.INTRA.SOLV>
-1.00578

>  <SCORE.INTRA.SOLV.lig_0>
-134.592

>  <SCORE.INTRA.VDW>
-3.66201

>  <SCORE.INTRA.VDW.0>
-1.01417

>  <SCORE.INTRA.norm>
-0.590377

>  <SCORE.RESTR>
0.193427

>  <SCORE.RESTR.CAVITY>
0.193427

>  <SCORE.RESTR.norm>
0.00604458

>  <SCORE.SYSTEM>
0

>  <SCORE.SYSTEM.CONST>
0

>  <SCORE.SYSTEM.DIHEDRAL>
0

>  <SCORE.SYSTEM.SOLV>
0

>  <SCORE.SYSTEM.norm>
0

>  <SCORE.heavy>
32

>  <SCORE.norm>
-2.28745

>  <RMSD>
0.682

$$$$
1lc4
 OpenBabel02141814113D
libRbt.so/2013.1/901 2013/11/27
 32 34  0  0  0  0  0  0  0  0999 V2000
  -10.0486    5.8449   19.5080 C   0  0  2  0  0  0  0  0  0  0  0  0
  -11.1906    6.5629   19.9037 O   0  0  0  0  0  0  0  0  0  0  0  0
  -10.2473    4.3687   19.9081 C   0  0  2  0  0  0  0  0  0  0  0  0
  -11.4574    3.8287   19.2804 N   0  3  0  0  0  0  0  0  0  0  0  0
  -10.3043    4.2379   21.4483 C   0  0  0  0  0  0  0  0  0  0  0  0
   -8.9825    4.7912   22.0090 C   0  0  2  0  0  0  0  0  0  0  0  0
   -8.9489    4.6553   23.4337 O   0  0  0  0  0  0  0  0  0  0  0  0
   -8.8257    6.2718   21.5816 C   0  0  2  0  0  0  0  0  0  0  0  0
   -8.8632    6.3874   20.1306 O   0  0  0  0  0  0  0  0  0  0  0  0
   -7.5148    6.9033   22.0436 C   0  0  0  0  0  0  0  0  0  0  0  0
   -7.4448    6.9742   23.5267 N   0  3  0  0  0  0  0  0  0  0  0  0
  -13.7092    9.6518   18.4633 C   0  0  2  0  0  0  0  0  0  0  0  0
  -14.2009   10.8829   17.8179 N   0  3  0  0  0  0  0  0  0  0  0  0
  -12.7424   10.0064   19.5849 C   0  0  0  0  0  0  0  0  0  0  0  0
  -12.2210    8.7339   20.2618 C   0  0  2  0  0  0  0  0  0  0  0  0
  -11.3798    9.1294   21.4188 N   0  3  0  0  0  0  0  0  0  0  0  0
  -11.5030    7.8035   19.2390 C   0  0  2  0  0  0  0  0  0  0  0  0
  -12.4653    7.4874   18.0651 C   0  0  2  0  0  0  0  0  0  0  0  0
  -11.7674    6.7861   17.0646 O   0  0  0  0  0  0  0  0  0  0  0  0
  -12.9973    8.7819   17.4291 C   0  0  1  0  0  0  0  0  0  0  0  0
  -13.9010    8.4424   16.3781 O   0  0  0  0  0  0  0  0  0  0  0  0
  -13.6704    9.0101   15.1347 C   0  0  2  0  0  0  0  0  0  0  0  0
  -15.0206    9.2290   14.4310 C   0  0  2  0  0  0  0  0  0  0  0  0
  -15.8170   10.0911   15.2340 O   0  0  0  0  0  0  0  0  0  0  0  0
  -15.7285    7.8749   14.2488 C   0  0  1  0  0  0  0  0  0  0  0  0
  -17.0572    8.0267   13.5887 N   0  3  0  0  0  0  0  0  0  0  0  0
  -14.8174    6.9288   13.4292 C   0  0  2  0  0  0  0  0  0  0  0  0
  -15.4373    5.6554   13.2655 O   0  0  0  0  0  0  0  0  0  0  0  0
  -13.4481    6.7803   14.1181 C   0  0  2  0  0  0  0  0  0  0  0  0
  -12.8451    8.1037   14.3578 O   0  0  0  0  0  0  0  0  0  0  0  0
  -12.4689    5.9919   13.2769 C   0  0  0  0  0  0  0  0  0  0  0  0
  -12.2295    6.6214   12.0201 O   0  0  0  0  0  0  0  0  0  0  0  0
  1  2  1  1  0  0  0
  1  3  1  0  0  0  0
  1  9  1  0  0  0  0
  3  4  1  6  0  0  0
  3  5  1  0  0  0  0
  5  6  1  0  0  0  0
  6  7  1  1  0  0  0
  6  8  1  0  0  0  0
  8  9  1  0  0  0  0
  8 10  1  6  0  0  0
 10 11  1  0  0  0  0
 12 13  1  6  0  0  0
 12 14  1  0  0  0  0
 12 20  1  0  0  0  0
 14 15  1  0  0  0  0
 15 16  1  1  0  0  0
 15 17  1  0  0  0  0
 17  2  1  1  0  0  0
 17 18  1  0  0  0  0
 18 19  1  6  0  0  0
 18 20  1  0  0  0  0
 20 21  1  6  0  0  0
 22 21  1  1  0  0  0
 22 23  1  0  0  0  0
 22 30  1  0  0  0  0
 23 24  1  1  0  0  0
 23 25  1  0  0  0  0
 25 26  1  6  0  0  0
 25 27  1  0  0  0  0
 27 28  1  1  0  0  0
 27 29  1  0  0  0  0
 29 30  1  0  0  0  0
 29 31  1  6  0  0  0
 31 32  1  0  0  0  0
M  CHG  5   4   1  11   1  13   1  16   1  26   1
M  END
>  <CHROM.1>
-156.90732794,-149.13153744,-51.22250793,-65.07371105,-64.39378663,72.90012652
176.21592146,49.80324329,-58.59119570,110.75515243,-147.68992710,116.39805260
57.64000756,71.68349359,60.28927081,-166.32044905,-12.17920789,7.27889560
17.84973784,-0.46561455,0.88044829,-2.32231932

>  <Name>
1lc4

>  <RI>
0

>  <Rbt.Current_Directory>
/home/afrankz/demos/rdock_decoys_rna/rnas/1lc4

>  <Rbt.Executable>
rbdock ($Id: //depot/dev/client3/rdock/2013.1/src/exe/rbdock.cxx#4 $)

>  <Rbt.Library>
libRbt.so (2013.1, Build901 2013/11/27)

>  <Rbt.Parameter_File>
/export/apps/rDock/src/rDock_2013.1_src/data/scripts/dock_solv.prm

>  <Rbt.Receptor>
prm/pocket_docking_2.prm

>  <SCORE>
-75.0902

>  <SCORE.INTER>
-59.0711

>  <SCORE.INTER.CONST>
1

>  <SCORE.INTER.POLAR>
-8.62739

>  <SCORE.INTER.ROT>
6

>  <SCORE.INTER.SOLV>
23.1295

>  <SCORE.INTER.VDW>
-25.9326

>  <SCORE.INTER.norm>
-1.84597

>  <SCORE.INTRA>
-16.4615

>  <SCORE.INTRA.DIHEDRAL>
-17.5135

>  <SCORE.INTRA.DIHEDRAL.0>
44.2576

>  <SCORE.INTRA.POLAR>
-0.944445

>  <SCORE.INTRA.POLAR.0>
-0.381556

>  <SCORE.INTRA.REPUL>
0

>  <SCORE.INTRA.REPUL.0>
0

>  <SCORE.INTRA.SOLV>
0.755222

>  <SCORE.INTRA.SOLV.lig_0>
-134.592

>  <SCORE.INTRA.VDW>
-4.87125

>  <SCORE.INTRA.VDW.0>
-1.01417

>  <SCORE.INTRA.norm>
-0.514422

>  <SCORE.RESTR>
0.442418

>  <SCORE.RESTR.CAVITY>
0.442418

>  <SCORE.RESTR.norm>
0.0138256

>  <SCORE.SYSTEM>
0

>  <SCORE.SYSTEM.CONST>
0

>  <SCORE.SYSTEM.DIHEDRAL>
0

>  <SCORE.SYSTEM.SOLV>
0

>  <SCORE.SYSTEM.norm>
0

>  <SCORE.heavy>
32

>  <SCORE.norm>
-2.34657

>  <RMSD>
0.683

$$$$
1lc4
 OpenBabel02141814113D
libRbt.so/2013.1/901 2013/11/27
 32 34  0  0  0  0  0  0  0  0999 V2000
   -9.8289    6.0935   19.5767 C   0  0  2  0  0  0  0  0  0  0  0  0
  -11.0946    6.6506   19.8289 O   0  0  0  0  0  0  0  0  0  0  0  0
   -9.8367    4.6362   20.0815 C   0  0  2  0  0  0  0  0  0  0  0  0
  -10.8953    3.8714   19.4151 N   0  3  0  0  0  0  0  0  0  0  0  0
  -10.0022    4.6066   21.6192 C   0  0  0  0  0  0  0  0  0  0  0  0
   -8.8299    5.3973   22.2261 C   0  0  2  0  0  0  0  0  0  0  0  0
   -8.8956    5.3687   23.6558 O   0  0  0  0  0  0  0  0  0  0  0  0
   -8.8616    6.8505   21.6907 C   0  0  2  0  0  0  0  0  0  0  0  0
   -8.7945    6.8566   20.2362 O   0  0  0  0  0  0  0  0  0  0  0  0
   -7.7035    7.7096   22.1922 C   0  0  0  0  0  0  0  0  0  0  0  0
   -6.4503    7.4091   21.4514 N   0  3  0  0  0  0  0  0  0  0  0  0
  -13.7322    9.6595   18.4325 C   0  0  2  0  0  0  0  0  0  0  0  0
  -14.2714   10.8813   17.8078 N   0  3  0  0  0  0  0  0  0  0  0  0
  -12.7868   10.0322   19.5664 C   0  0  0  0  0  0  0  0  0  0  0  0
  -12.2163    8.7698   20.2221 C   0  0  2  0  0  0  0  0  0  0  0  0
  -11.3983    9.1775   21.3914 N   0  3  0  0  0  0  0  0  0  0  0  0
  -11.4550    7.8898   19.1860 C   0  0  2  0  0  0  0  0  0  0  0  0
  -12.3972    7.5567   18.0007 C   0  0  2  0  0  0  0  0  0  0  0  0
  -11.6656    6.9043   16.9911 O   0  0  0  0  0  0  0  0  0  0  0  0
  -12.9794    8.8400   17.3863 C   0  0  1  0  0  0  0  0  0  0  0  0
  -13.8628    8.4835   16.3236 O   0  0  0  0  0  0  0  0  0  0  0  0
  -13.6576    9.0938   15.0961 C   0  0  2  0  0  0  0  0  0  0  0  0
  -15.0149    9.2600   14.3915 C   0  0  2  0  0  0  0  0  0  0  0  0
  -15.8578   10.0590   15.2119 O   0  0  0  0  0  0  0  0  0  0  0  0
  -15.6507    7.8761   14.1719 C   0  0  1  0  0  0  0  0  0  0  0  0
  -16.9831    7.9754   13.5093 N   0  3  0  0  0  0  0  0  0  0  0  0
  -14.6887    6.9996   13.3332 C   0  0  2  0  0  0  0  0  0  0  0  0
  -15.2410    5.7003   13.1345 O   0  0  0  0  0  0  0  0  0  0  0  0
  -13.3160    6.9049   14.0248 C   0  0  2  0  0  0  0  0  0  0  0  0
  -12.7836    8.2514   14.3006 O   0  0  0  0  0  0  0  0  0  0  0  0
  -12.2941    6.1900   13.1689 C   0  0  0  0  0  0  0  0  0  0  0  0
  -12.6268    4.8149   12.9909 O   0  0  0  0  0  0  0  0  0  0  0  0
  1  2  1  1  0  0  0
  1  3  1  0  0  0  0
  1  9  1  0  0  0  0
  3  4  1  6  0  0  0
  3  5  1  0  0  0  0
  5  6  1  0  0  0  0
  6  7  1  1  0  0  0
  6  8  1  0  0  0  0
  8  9  1  0  0  0  0
  8 10  1  1  0  0  0
 10 11  1  0  0  0  0
 12 13  1  6  0  0  0
 12 14  1  0  0  0  0
 12 20  1  0  0  0  0
 14 15  1  0  0  0  0
 15 16  1  1  0  0  0
 15 17  1  0  0  0  0
 17  2  1  1  0  0  0
 17 18  1  0  0  0  0
 18 19  1  6  0  0  0
 18 20  1  0  0  0  0
 20 21  1  6  0  0  0
 22 21  1  1  0  0  0
 22 23  1  0  0  0  0
 22 30  1  0  0  0  0
 23 24  1  1  0  0  0
 23 25  1  0  0  0  0
 25 26  1  6  0  0  0
 25 27  1  0  0  0  0
 27 28  1  1  0  0  0
 27 29  1  0  0  0  0
 29 30  1  0  0  0  0
 29 31  1  6  0  0  0
 31 32  1  0  0  0  0
M  CHG  5   4   1  11   1  13   1  16   1  26   1
M  END
>  <CHROM.1>
-165.88652024,-139.53392156,-95.92828859,-178.17732694,77.91047835,-169.49016896
61.33120334,-74.81345553,36.62606146,110.15418340,-147.85845943,113.59339341
-64.16685770,68.88872984,-66.46022327,54.84916746,-12.07523703,7.38829880
17.81210022,-0.46983303,0.82950938,-2.35232524

>  <Name>
1lc4

>  <RI>
0

>  <Rbt.Current_Directory>
/home/afrankz/demos/rdock_decoys_rna/rnas/1lc4

>  <Rbt.Executable>
rbdock ($Id: //depot/dev/client3/rdock/2013.1/src/exe/rbdock.cxx#4 $)

>  <Rbt.Library>
libRbt.so (2013.1, Build901 2013/11/27)

>  <Rbt.Parameter_File>
/export/apps/rDock/src/rDock_2013.1_src/data/scripts/dock_solv.prm

>  <Rbt.Receptor>
prm/pocket_docking_2.prm

>  <SCORE>
-66.634

>  <SCORE.INTER>
-53.8639

>  <SCORE.INTER.CONST>
1

>  <SCORE.INTER.POLAR>
-8.61486

>  <SCORE.INTER.ROT>
6

>  <SCORE.INTER.SOLV>
30.311

>  <SCORE.INTER.VDW>
-24.8967

>  <SCORE.INTER.norm>
-1.68325

>  <SCORE.INTRA>
-13.2444

>  <SCORE.INTRA.DIHEDRAL>
-12.7393

>  <SCORE.INTRA.DIHEDRAL.0>
44.2576

>  <SCORE.INTRA.POLAR>
-1.38041

>  <SCORE.INTRA.POLAR.0>
-0.381556

>  <SCORE.INTRA.REPUL>
0.186386

>  <SCORE.INTRA.REPUL.0>
0

>  <SCORE.INTRA.SOLV>
1.02902

>  <SCORE.INTRA.SOLV.lig_0>
-134.592

>  <SCORE.INTRA.VDW>
-3.62776

>  <SCORE.INTRA.VDW.0>
-1.01417

>  <SCORE.INTRA.norm>
-0.413886

>  <SCORE.RESTR>
0.474236

>  <SCORE.RESTR.CAVITY>
0.474236

>  <SCORE.RESTR.norm>
0.0148199

>  <SCORE.SYSTEM>
0

>  <SCORE.SYSTEM.CONST>
0

>  <SCORE.SYSTEM.DIHEDRAL>
0

>  <SCORE.SYSTEM.SOLV>
0

>  <SCORE.SYSTEM.norm>
0

>  <SCORE.heavy>
32

>  <SCORE.norm>
-2.08231

>  <RMSD>
0.688

$$$$
1lc4
 OpenBabel02141814113D
libRbt.so/2013.1/901 2013/11/27
 32 34  0  0  0  0  0  0  0  0999 V2000
  -10.5781    5.8222   19.3924 C   0  0  2  0  0  0  0  0  0  0  0  0
  -11.6488    6.6188   19.8341 O   0  0  0  0  0  0  0  0  0  0  0  0
  -10.7607    4.4062   19.9759 C   0  0  2  0  0  0  0  0  0  0  0  0
  -12.0483    3.8442   19.5566 N   0  3  0  0  0  0  0  0  0  0  0  0
  -10.6377    4.4460   21.5172 C   0  0  0  0  0  0  0  0  0  0  0  0
   -9.2468    5.0101   21.8562 C   0  0  2  0  0  0  0  0  0  0  0  0
   -9.0476    5.0290   23.2737 O   0  0  0  0  0  0  0  0  0  0  0  0
   -9.1088    6.4289   21.2500 C   0  0  2  0  0  0  0  0  0  0  0  0
   -9.3154    6.3871   19.8093 O   0  0  0  0  0  0  0  0  0  0  0  0
   -7.7387    7.0604   21.4839 C   0  0  0  0  0  0  0  0  0  0  0  0
   -7.8100    8.5434   21.4108 N   0  3  0  0  0  0  0  0  0  0  0  0
  -13.9827    9.9155   18.5518 C   0  0  2  0  0  0  0  0  0  0  0  0
  -14.4093   11.1840   17.9330 N   0  3  0  0  0  0  0  0  0  0  0  0
  -12.9102   10.1854   19.5983 C   0  0  0  0  0  0  0  0  0  0  0  0
  -12.4554    8.8732   20.2468 C   0  0  2  0  0  0  0  0  0  0  0  0
  -11.5015    9.1951   21.3372 N   0  3  0  0  0  0  0  0  0  0  0  0
  -11.8979    7.8808   19.1830 C   0  0  2  0  0  0  0  0  0  0  0  0
  -12.9663    7.6487   18.0838 C   0  0  2  0  0  0  0  0  0  0  0  0
  -12.4068    6.8864   17.0417 O   0  0  0  0  0  0  0  0  0  0  0  0
  -13.4266    8.9840   17.4767 C   0  0  1  0  0  0  0  0  0  0  0  0
  -14.4301    8.7236   16.4959 O   0  0  0  0  0  0  0  0  0  0  0  0
  -14.4774    9.5670   15.3970 C   0  0  2  0  0  0  0  0  0  0  0  0
  -15.9399    9.7065   14.9410 C   0  0  2  0  0  0  0  0  0  0  0  0
  -16.7016   10.2426   16.0154 O   0  0  0  0  0  0  0  0  0  0  0  0
  -16.4870    8.3238   14.5452 C   0  0  1  0  0  0  0  0  0  0  0  0
  -17.9127    8.3930   14.1132 N   0  3  0  0  0  0  0  0  0  0  0  0
  -15.6047    7.7285   13.4207 C   0  0  2  0  0  0  0  0  0  0  0  0
  -16.0732    6.4340   13.0500 O   0  0  0  0  0  0  0  0  0  0  0  0
  -14.1350    7.6631   13.8761 C   0  0  2  0  0  0  0  0  0  0  0  0
  -13.6775    8.9874   14.3338 O   0  0  0  0  0  0  0  0  0  0  0  0
  -13.2100    7.2355   12.7583 C   0  0  0  0  0  0  0  0  0  0  0  0
  -11.8794    7.0281   13.2271 O   0  0  0  0  0  0  0  0  0  0  0  0
  1  2  1  1  0  0  0
  1  3  1  0  0  0  0
  1  9  1  0  0  0  0
  3  4  1  1  0  0  0
  3  5  1  0  0  0  0
  5  6  1  0  0  0  0
  6  7  1  1  0  0  0
  6  8  1  0  0  0  0
  8  9  1  0  0  0  0
  8 10  1  6  0  0  0
 10 11  1  0  0  0  0
 12 13  1  6  0  0  0
 12 14  1  0  0  0  0
 12 20  1  0  0  0  0
 14 15  1  0  0  0  0
 15 16  1  1  0  0  0
 15 17  1  0  0  0  0
 17  2  1  1  0  0  0
 17 18  1  0  0  0  0
 18 19  1  6  0  0  0
 18 20  1  0  0  0  0
 20 21  1  6  0  0  0
 22 21  1  1  0  0  0
 22 23  1  0  0  0  0
 22 30  1  0  0  0  0
 23 24  1  1  0  0  0
 23 25  1  0  0  0  0
 25 26  1  6  0  0  0
 25 27  1  0  0  0  0
 27 28  1  1  0  0  0
 27 29  1  0  0  0  0
 29 30  1  0  0  0  0
 29 31  1  6  0  0  0
 31 32  1  0  0  0  0
M  CHG  5   4   1  11   1  13   1  16   1  26   1
M  END
>  <CHROM.1>
-165.12412803,-147.03137170,-52.59574391,61.90664349,-156.56929898,36.91400536
-170.03717595,-68.73025058,-177.72045013,91.32638613,-147.28227192,-72.88921869
-172.27949925,69.28422758,-173.21118323,-176.07325017,-12.65066662,7.63784975
17.83127398,-0.33600780,0.84695634,-2.39081859

>  <Name>
1lc4

>  <RI>
0

>  <Rbt.Current_Directory>
/home/afrankz/demos/rdock_decoys_rna/rnas/1lc4

>  <Rbt.Executable>
rbdock ($Id: //depot/dev/client3/rdock/2013.1/src/exe/rbdock.cxx#4 $)

>  <Rbt.Library>
libRbt.so (2013.1, Build901 2013/11/27)

>  <Rbt.Parameter_File>
/export/apps/rDock/src/rDock_2013.1_src/data/scripts/dock_solv.prm

>  <Rbt.Receptor>
prm/pocket_docking_2.prm

>  <SCORE>
-72.0266

>  <SCORE.INTER>
-54.541

>  <SCORE.INTER.CONST>
1

>  <SCORE.INTER.POLAR>
-7.63303

>  <SCORE.INTER.ROT>
6

>  <SCORE.INTER.SOLV>
26.566

>  <SCORE.INTER.VDW>
-27.3726

>  <SCORE.INTER.norm>
-1.70441

>  <SCORE.INTRA>
-17.9419

>  <SCORE.INTRA.DIHEDRAL>
-25.8991

>  <SCORE.INTRA.DIHEDRAL.0>
44.2576

>  <SCORE.INTRA.POLAR>
-0.21812

>  <SCORE.INTRA.POLAR.0>
-0.381556

>  <SCORE.INTRA.REPUL>
0

>  <SCORE.INTRA.REPUL.0>
0

>  <SCORE.INTRA.SOLV>
0.999938

>  <SCORE.INTRA.SOLV.lig_0>
-134.592

>  <SCORE.INTRA.VDW>
-4.75067

>  <SCORE.INTRA.VDW.0>
-1.01417

>  <SCORE.INTRA.norm>
-0.560684

>  <SCORE.RESTR>
0.456341

>  <SCORE.RESTR.CAVITY>
0.456341

>  <SCORE.RESTR.norm>
0.0142607

>  <SCORE.SYSTEM>
0

>  <SCORE.SYSTEM.CONST>
0

>  <SCORE.SYSTEM.DIHEDRAL>
0

>  <SCORE.SYSTEM.SOLV>
0

>  <SCORE.SYSTEM.norm>
0

>  <SCORE.heavy>
32

>  <SCORE.norm>
-2.25083

>  <RMSD>
0.691

$$$$
1lc4
 OpenBabel02141814113D
libRbt.so/2013.1/901 2013/11/27
 32 34  0  0  0  0  0  0  0  0999 V2000
  -10.1955    5.9775   19.3691 C   0  0  2  0  0  0  0  0  0  0  0  0
  -11.3733    6.6524   19.7341 O   0  0  0  0  0  0  0  0  0  0  0  0
  -10.2981    4.5246   19.8763 C   0  0  2  0  0  0  0  0  0  0  0  0
  -11.4817    3.8696   19.3110 N   0  3  0  0  0  0  0  0  0  0  0  0
  -10.3251    4.5015   21.4227 C   0  0  0  0  0  0  0  0  0  0  0  0
   -9.0317    5.1717   21.9183 C   0  0  2  0  0  0  0  0  0  0  0  0
   -8.9697    5.1406   23.3482 O   0  0  0  0  0  0  0  0  0  0  0  0
   -8.9715    6.6245   21.3843 C   0  0  2  0  0  0  0  0  0  0  0  0
   -9.0366    6.6332   19.9297 O   0  0  0  0  0  0  0  0  0  0  0  0
   -7.6952    7.3649   21.7760 C   0  0  0  0  0  0  0  0  0  0  0  0
   -7.7301    7.7797   23.2031 N   0  3  0  0  0  0  0  0  0  0  0  0
  -13.7847    9.9532   18.6158 C   0  0  2  0  0  0  0  0  0  0  0  0
  -14.2404   11.2421   18.0638 N   0  3  0  0  0  0  0  0  0  0  0  0
  -12.7261   10.1930   19.6836 C   0  0  0  0  0  0  0  0  0  0  0  0
  -12.2412    8.8594   20.2630 C   0  0  2  0  0  0  0  0  0  0  0  0
  -11.3028    9.1456   21.3766 N   0  3  0  0  0  0  0  0  0  0  0  0
  -11.6513    7.9414   19.1510 C   0  0  2  0  0  0  0  0  0  0  0  0
  -12.7064    7.7423   18.0326 C   0  0  2  0  0  0  0  0  0  0  0  0
  -12.1207    7.0528   16.9548 O   0  0  0  0  0  0  0  0  0  0  0  0
  -13.1978    9.0965   17.4957 C   0  0  1  0  0  0  0  0  0  0  0  0
  -14.1880    8.8644   16.4946 O   0  0  0  0  0  0  0  0  0  0  0  0
  -14.1838    9.7034   15.3913 C   0  0  2  0  0  0  0  0  0  0  0  0
  -15.6324    9.9013   14.9129 C   0  0  2  0  0  0  0  0  0  0  0  0
  -16.3868   10.4742   15.9734 O   0  0  0  0  0  0  0  0  0  0  0  0
  -16.2307    8.5406   14.5151 C   0  0  1  0  0  0  0  0  0  0  0  0
  -17.6457    8.6669   14.0615 N   0  3  0  0  0  0  0  0  0  0  0  0
  -15.3575    7.9035   13.4066 C   0  0  2  0  0  0  0  0  0  0  0  0
  -15.8740    6.6277   13.0347 O   0  0  0  0  0  0  0  0  0  0  0  0
  -13.8987    7.7792   13.8842 C   0  0  2  0  0  0  0  0  0  0  0  0
  -13.3932    9.0857   14.3428 O   0  0  0  0  0  0  0  0  0  0  0  0
  -12.9760    7.3079   12.7822 C   0  0  0  0  0  0  0  0  0  0  0  0
  -11.6714    7.0153   13.2780 O   0  0  0  0  0  0  0  0  0  0  0  0
  1  2  1  1  0  0  0
  1  3  1  0  0  0  0
  1  9  1  0  0  0  0
  3  4  1  6  0  0  0
  3  5  1  0  0  0  0
  5  6  1  0  0  0  0
  6  7  1  1  0  0  0
  6  8  1  0  0  0  0
  8  9  1  0  0  0  0
  8 10  1  6  0  0  0
 10 11  1  0  0  0  0
 12 13  1  6  0  0  0
 12 14  1  0  0  0  0
 12 20  1  0  0  0  0
 14 15  1  0  0  0  0
 15 16  1  1  0  0  0
 15 17  1  0  0  0  0
 17  2  1  1  0  0  0
 17 18  1  0  0  0  0
 18 19  1  6  0  0  0
 18 20  1  0  0  0  0
 20 21  1  6  0  0  0
 22 21  1  1  0  0  0
 22 23  1  0  0  0  0
 22 30  1  0  0  0  0
 23 24  1  1  0  0  0
 23 25  1  0  0  0  0
 25 26  1  6  0  0  0
 25 27  1  0  0  0  0
 27 28  1  1  0  0  0
 27 29  1  0  0  0  0
 29 30  1  0  0  0  0
 29 31  1  6  0  0  0
 31 32  1  0  0  0  0
M  CHG  5   4   1  11   1  13   1  16   1  26   1
M  END
>  <CHROM.1>
-167.56549943,-139.78646624,64.19522465,56.27905922,-75.46283484,142.91150738
-57.57561942,172.59486899,-179.19023299,96.18505958,-146.65006288,177.42769223
-58.17317167,179.60311250,-171.73477635,-177.91944750,-12.40281807,7.72446439
17.90045604,-0.41454541,0.84454876,-2.29661315

>  <Name>
1lc4

>  <RI>
0

>  <Rbt.Current_Directory>
/home/afrankz/demos/rdock_decoys_rna/rnas/1lc4

>  <Rbt.Executable>
rbdock ($Id: //depot/dev/client3/rdock/2013.1/src/exe/rbdock.cxx#4 $)

>  <Rbt.Library>
libRbt.so (2013.1, Build901 2013/11/27)

>  <Rbt.Parameter_File>
/export/apps/rDock/src/rDock_2013.1_src/data/scripts/dock_solv.prm

>  <Rbt.Receptor>
prm/pocket_docking_3.prm

>  <SCORE>
-75.8484

>  <SCORE.INTER>
-54.3751

>  <SCORE.INTER.CONST>
1

>  <SCORE.INTER.POLAR>
-7.20079

>  <SCORE.INTER.ROT>
6

>  <SCORE.INTER.SOLV>
25.5066

>  <SCORE.INTER.VDW>
-28.3496

>  <SCORE.INTER.norm>
-1.69922

>  <SCORE.INTRA>
-21.4733

>  <SCORE.INTRA.DIHEDRAL>
-25.1928

>  <SCORE.INTRA.DIHEDRAL.0>
44.2576

>  <SCORE.INTRA.POLAR>
-1.48405

>  <SCORE.INTRA.POLAR.0>
-0.381556

>  <SCORE.INTRA.REPUL>
0

>  <SCORE.INTRA.REPUL.0>
0

>  <SCORE.INTRA.SOLV>
0.845156

>  <SCORE.INTRA.SOLV.lig_0>
-134.592

>  <SCORE.INTRA.VDW>
-4.25373

>  <SCORE.INTRA.VDW.0>
-1.01417

>  <SCORE.INTRA.norm>
-0.671042

>  <SCORE.RESTR>
0

>  <SCORE.RESTR.CAVITY>
0

>  <SCORE.RESTR.norm>
0

>  <SCORE.SYSTEM>
0

>  <SCORE.SYSTEM.CONST>
0

>  <SCORE.SYSTEM.DIHEDRAL>
0

>  <SCORE.SYSTEM.SOLV>
0

>  <SCORE.SYSTEM.norm>
0

>  <SCORE.heavy>
32

>  <SCORE.norm>
-2.37026

>  <RMSD>
0.693

$$$$
1lc4
 OpenBabel02141814113D
libRbt.so/2013.1/901 2013/11/27
 32 34  0  0  0  0  0  0  0  0999 V2000
  -10.3017    5.8731   19.4014 C   0  0  2  0  0  0  0  0  0  0  0  0
  -11.4261    6.6071   19.8173 O   0  0  0  0  0  0  0  0  0  0  0  0
  -10.4628    4.4233   19.9024 C   0  0  2  0  0  0  0  0  0  0  0  0
  -11.7014    3.8380   19.3799 N   0  3  0  0  0  0  0  0  0  0  0  0
  -10.4305    4.3880   21.4484 C   0  0  0  0  0  0  0  0  0  0  0  0
   -9.0843    4.9831   21.8970 C   0  0  2  0  0  0  0  0  0  0  0  0
   -8.9681    4.9360   23.3230 O   0  0  0  0  0  0  0  0  0  0  0  0
   -8.9665    6.4353   21.3708 C   0  0  2  0  0  0  0  0  0  0  0  0
   -9.0880    6.4604   19.9201 O   0  0  0  0  0  0  0  0  0  0  0  0
   -7.6376    7.1024   21.7168 C   0  0  0  0  0  0  0  0  0  0  0  0
   -7.6587    7.6620   23.0938 N   0  3  0  0  0  0  0  0  0  0  0  0
  -13.8456    9.8466   18.5476 C   0  0  2  0  0  0  0  0  0  0  0  0
  -14.3015   11.1149   17.9500 N   0  3  0  0  0  0  0  0  0  0  0  0
  -12.8200   10.1274   19.6374 C   0  0  0  0  0  0  0  0  0  0  0  0
  -12.3351    8.8156   20.2645 C   0  0  2  0  0  0  0  0  0  0  0  0
  -11.4315    9.1424   21.3955 N   0  3  0  0  0  0  0  0  0  0  0  0
  -11.7035    7.8769   19.1933 C   0  0  2  0  0  0  0  0  0  0  0  0
  -12.7247    7.6356   18.0520 C   0  0  2  0  0  0  0  0  0  0  0  0
  -12.1010    6.9262   17.0091 O   0  0  0  0  0  0  0  0  0  0  0  0
  -13.2174    8.9690   17.4668 C   0  0  1  0  0  0  0  0  0  0  0  0
  -14.1767    8.6984   16.4453 O   0  0  0  0  0  0  0  0  0  0  0  0
  -14.2675    9.6078   15.4031 C   0  0  2  0  0  0  0  0  0  0  0  0
  -15.7315    9.6838   14.9371 C   0  0  2  0  0  0  0  0  0  0  0  0
  -16.5364   10.0985   16.0336 O   0  0  0  0  0  0  0  0  0  0  0  0
  -16.1847    8.2983   14.4445 C   0  0  1  0  0  0  0  0  0  0  0  0
  -17.6077    8.3052   13.9983 N   0  3  0  0  0  0  0  0  0  0  0  0
  -15.2553    7.8358   13.2959 C   0  0  2  0  0  0  0  0  0  0  0  0
  -15.6359    6.5414   12.8351 O   0  0  0  0  0  0  0  0  0  0  0  0
  -13.7888    7.8339   13.7662 C   0  0  2  0  0  0  0  0  0  0  0  0
  -13.4218    9.1516   14.3155 O   0  0  0  0  0  0  0  0  0  0  0  0
  -12.8276    7.5407   12.6358 C   0  0  0  0  0  0  0  0  0  0  0  0
  -13.0062    6.2224   12.1223 O   0  0  0  0  0  0  0  0  0  0  0  0
  1  2  1  1  0  0  0
  1  3  1  0  0  0  0
  1  9  1  0  0  0  0
  3  4  1  1  0  0  0
  3  5  1  0  0  0  0
  5  6  1  0  0  0  0
  6  7  1  1  0  0  0
  6  8  1  0  0  0  0
  8  9  1  0  0  0  0
  8 10  1  6  0  0  0
 10 11  1  0  0  0  0
 12 13  1  6  0  0  0
 12 14  1  0  0  0  0
 12 20  1  0  0  0  0
 14 15  1  0  0  0  0
 15 16  1  1  0  0  0
 15 17  1  0  0  0  0
 17  2  1  1  0  0  0
 17 18  1  0  0  0  0
 18 19  1  6  0  0  0
 18 20  1  0  0  0  0
 20 21  1  6  0  0  0
 22 21  1  1  0  0  0
 22 23  1  0  0  0  0
 22 30  1  0  0  0  0
 23 24  1  1  0  0  0
 23 25  1  0  0  0  0
 25 26  1  6  0  0  0
 25 27  1  0  0  0  0
 27 28  1  1  0  0  0
 27 29  1  0  0  0  0
 29 30  1  0  0  0  0
 29 31  1  6  0  0  0
 31 32  1  0  0  0  0
M  CHG  5   4   1  11   1  13   1  16   1  26   1
M  END
>  <CHROM.1>
-163.67338425,-146.30779954,-56.20747260,-61.07313226,-82.79748672,14.85373984
71.97158829,170.26922160,-56.17785114,88.14725475,-146.22177335,-70.88014551
-53.47303136,-170.63498751,-64.75095511,177.36941106,-12.47112151,7.58637517
17.83680745,-0.44610411,0.85244520,-2.29158628

>  <Name>
1lc4

>  <RI>
0

>  <Rbt.Current_Directory>
/home/afrankz/demos/rdock_decoys_rna/rnas/1lc4

>  <Rbt.Executable>
rbdock ($Id: //depot/dev/client3/rdock/2013.1/src/exe/rbdock.cxx#4 $)

>  <Rbt.Library>
libRbt.so (2013.1, Build901 2013/11/27)

>  <Rbt.Parameter_File>
/export/apps/rDock/src/rDock_2013.1_src/data/scripts/dock_solv.prm

>  <Rbt.Receptor>
prm/pocket_docking_2.prm

>  <SCORE>
-72.7201

>  <SCORE.INTER>
-54.4266

>  <SCORE.INTER.CONST>
1

>  <SCORE.INTER.POLAR>
-7.23376

>  <SCORE.INTER.ROT>
6

>  <SCORE.INTER.SOLV>
22.4565

>  <SCORE.INTER.VDW>
-27.2574

>  <SCORE.INTER.norm>
-1.70083

>  <SCORE.INTRA>
-18.7132

>  <SCORE.INTRA.DIHEDRAL>
-24.4529

>  <SCORE.INTRA.DIHEDRAL.0>
44.2576

>  <SCORE.INTRA.POLAR>
-0.878264

>  <SCORE.INTRA.POLAR.0>
-0.381556

>  <SCORE.INTRA.REPUL>
0

>  <SCORE.INTRA.REPUL.0>
0

>  <SCORE.INTRA.SOLV>
0.129047

>  <SCORE.INTRA.SOLV.lig_0>
-134.592

>  <SCORE.INTRA.VDW>
-3.56524

>  <SCORE.INTRA.VDW.0>
-1.01417

>  <SCORE.INTRA.norm>
-0.584789

>  <SCORE.RESTR>
0.419785

>  <SCORE.RESTR.CAVITY>
0.419785

>  <SCORE.RESTR.norm>
0.0131183

>  <SCORE.SYSTEM>
0

>  <SCORE.SYSTEM.CONST>
0

>  <SCORE.SYSTEM.DIHEDRAL>
0

>  <SCORE.SYSTEM.SOLV>
0

>  <SCORE.SYSTEM.norm>
0

>  <SCORE.heavy>
32

>  <SCORE.norm>
-2.2725

>  <RMSD>
0.703

$$$$
1lc4
 OpenBabel02141814113D
libRbt.so/2013.1/901 2013/11/27
 32 34  0  0  0  0  0  0  0  0999 V2000
   -9.7595    6.0595   19.6673 C   0  0  2  0  0  0  0  0  0  0  0  0
  -10.9804    6.6808   19.9827 O   0  0  0  0  0  0  0  0  0  0  0  0
   -9.8055    4.6127   20.1998 C   0  0  2  0  0  0  0  0  0  0  0  0
  -10.9367    3.8887   19.6117 N   0  3  0  0  0  0  0  0  0  0  0  0
   -9.8802    4.6166   21.7448 C   0  0  0  0  0  0  0  0  0  0  0  0
   -8.6380    5.3600   22.2664 C   0  0  2  0  0  0  0  0  0  0  0  0
   -8.6196    5.3583   23.6978 O   0  0  0  0  0  0  0  0  0  0  0  0
   -8.6334    6.8040   21.7057 C   0  0  2  0  0  0  0  0  0  0  0  0
   -8.6530    6.7829   20.2500 O   0  0  0  0  0  0  0  0  0  0  0  0
   -7.4085    7.6148   22.1216 C   0  0  0  0  0  0  0  0  0  0  0  0
   -7.5371    8.1060   23.5187 N   0  3  0  0  0  0  0  0  0  0  0  0
  -13.4837    9.8463   18.6894 C   0  0  2  0  0  0  0  0  0  0  0  0
  -13.9673   11.1171   18.1192 N   0  3  0  0  0  0  0  0  0  0  0  0
  -12.5561   10.1261   19.8640 C   0  0  0  0  0  0  0  0  0  0  0  0
  -12.0433    8.8121   20.4635 C   0  0  2  0  0  0  0  0  0  0  0  0
  -11.2428    9.1292   21.6723 N   0  3  0  0  0  0  0  0  0  0  0  0
  -11.2844    7.9638   19.3996 C   0  0  2  0  0  0  0  0  0  0  0  0
  -12.2061    7.7262   18.1758 C   0  0  2  0  0  0  0  0  0  0  0  0
  -11.4702    7.1048   17.1500 O   0  0  0  0  0  0  0  0  0  0  0  0
  -12.7310    9.0593   17.6183 C   0  0  1  0  0  0  0  0  0  0  0  0
  -13.5979    8.7898   16.5171 O   0  0  0  0  0  0  0  0  0  0  0  0
  -13.4466    9.5735   15.3839 C   0  0  2  0  0  0  0  0  0  0  0  0
  -14.8398    9.9408   14.8449 C   0  0  2  0  0  0  0  0  0  0  0  0
  -15.5441   10.6528   15.8544 O   0  0  0  0  0  0  0  0  0  0  0  0
  -15.6017    8.6556   14.4770 C   0  0  1  0  0  0  0  0  0  0  0  0
  -16.9721    8.9486   13.9668 N   0  3  0  0  0  0  0  0  0  0  0  0
  -14.7868    7.8621   13.4265 C   0  0  2  0  0  0  0  0  0  0  0  0
  -15.4572    6.6513   13.0841 O   0  0  0  0  0  0  0  0  0  0  0  0
  -13.3736    7.5663   13.9622 C   0  0  2  0  0  0  0  0  0  0  0  0
  -12.7128    8.8126   14.3895 O   0  0  0  0  0  0  0  0  0  0  0  0
  -12.4877    6.9308   12.9138 C   0  0  0  0  0  0  0  0  0  0  0  0
  -12.3298    7.7758   11.7761 O   0  0  0  0  0  0  0  0  0  0  0  0
  1  2  1  1  0  0  0
  1  3  1  0  0  0  0
  1  9  1  0  0  0  0
  3  4  1  6  0  0  0
  3  5  1  0  0  0  0
  5  6  1  0  0  0  0
  6  7  1  1  0  0  0
  6  8  1  0  0  0  0
  8  9  1  0  0  0  0
  8 10  1  6  0  0  0
 10 11  1  0  0  0  0
 12 13  1  6  0  0  0
 12 14  1  0  0  0  0
 12 20  1  0  0  0  0
 14 15  1  0  0  0  0
 15 16  1  1  0  0  0
 15 17  1  0  0  0  0
 17  2  1  1  0  0  0
 17 18  1  0  0  0  0
 18 19  1  6  0  0  0
 18 20  1  0  0  0  0
 20 21  1  6  0  0  0
 22 21  1  1  0  0  0
 22 23  1  0  0  0  0
 22 30  1  0  0  0  0
 23 24  1  1  0  0  0
 23 25  1  0  0  0  0
 25 26  1  6  0  0  0
 25 27  1  0  0  0  0
 27 28  1  1  0  0  0
 27 29  1  0  0  0  0
 29 30  1  0  0  0  0
 29 31  1  6  0  0  0
 31 32  1  0  0  0  0
M  CHG  5   4   1  11   1  13   1  16   1  26   1
M  END
>  <CHROM.1>
-169.56614195,-143.26818231,57.39694273,-56.78806002,-78.06356659,8.35716353
-53.40257516,55.98196625,-54.79600478,102.46790744,-138.23668093,177.01062202
175.60770270,71.26701376,60.12363382,169.71075560,-11.98716279,7.78771462
18.00432504,-0.52034548,0.86601622,-2.22891622

>  <Name>
1lc4

>  <RI>
0

>  <Rbt.Current_Directory>
/home/afrankz/demos/rdock_decoys_rna/rnas/1lc4

>  <Rbt.Executable>
rbdock ($Id: //depot/dev/client3/rdock/2013.1/src/exe/rbdock.cxx#4 $)

>  <Rbt.Library>
libRbt.so (2013.1, Build901 2013/11/27)

>  <Rbt.Parameter_File>
/export/apps/rDock/src/rDock_2013.1_src/data/scripts/dock_solv.prm

>  <Rbt.Receptor>
prm/blind_docking_40.prm

>  <SCORE>
-59.6428

>  <SCORE.INTER>
-50.1666

>  <SCORE.INTER.CONST>
1

>  <SCORE.INTER.POLAR>
-6.94147

>  <SCORE.INTER.ROT>
6

>  <SCORE.INTER.SOLV>
29.2541

>  <SCORE.INTER.VDW>
-27.6575

>  <SCORE.INTER.norm>
-1.56771

>  <SCORE.INTRA>
-16.9534

>  <SCORE.INTRA.DIHEDRAL>
-21.2713

>  <SCORE.INTRA.DIHEDRAL.0>
44.2576

>  <SCORE.INTRA.POLAR>
-0.793859

>  <SCORE.INTRA.POLAR.0>
-0.381556

>  <SCORE.INTRA.REPUL>
0

>  <SCORE.INTRA.REPUL.0>
0

>  <SCORE.INTRA.SOLV>
1.82061

>  <SCORE.INTRA.SOLV.lig_0>
-134.592

>  <SCORE.INTRA.VDW>
-4.5289

>  <SCORE.INTRA.VDW.0>
-1.01417

>  <SCORE.INTRA.norm>
-0.529792

>  <SCORE.RESTR>
7.47716

>  <SCORE.RESTR.CAVITY>
7.47716

>  <SCORE.RESTR.norm>
0.233661

>  <SCORE.SYSTEM>
0

>  <SCORE.SYSTEM.CONST>
0

>  <SCORE.SYSTEM.DIHEDRAL>
0

>  <SCORE.SYSTEM.SOLV>
0

>  <SCORE.SYSTEM.norm>
0

>  <SCORE.heavy>
32

>  <SCORE.norm>
-1.86384

>  <RMSD>
0.704

$$$$
1lc4
 OpenBabel02141814113D
libRbt.so/2013.1/901 2013/11/27
 32 34  0  0  0  0  0  0  0  0999 V2000
  -10.2559    5.7470   19.3791 C   0  0  2  0  0  0  0  0  0  0  0  0
  -11.3590    6.5002   19.8174 O   0  0  0  0  0  0  0  0  0  0  0  0
  -10.4534    4.2903   19.8460 C   0  0  2  0  0  0  0  0  0  0  0  0
  -11.7090    3.7506   19.3153 N   0  3  0  0  0  0  0  0  0  0  0  0
  -10.4162    4.2171   21.3906 C   0  0  0  0  0  0  0  0  0  0  0  0
   -9.0530    4.7657   21.8474 C   0  0  2  0  0  0  0  0  0  0  0  0
   -8.9327    4.6813   23.2713 O   0  0  0  0  0  0  0  0  0  0  0  0
   -8.8989    6.2265   21.3555 C   0  0  2  0  0  0  0  0  0  0  0  0
   -9.0252    6.2896   19.9063 O   0  0  0  0  0  0  0  0  0  0  0  0
   -7.5515    6.8498   21.7114 C   0  0  0  0  0  0  0  0  0  0  0  0
   -7.5376    8.3065   21.4156 N   0  3  0  0  0  0  0  0  0  0  0  0
  -13.6871    9.8551   18.6842 C   0  0  2  0  0  0  0  0  0  0  0  0
  -14.1113   11.1511   18.1235 N   0  3  0  0  0  0  0  0  0  0  0  0
  -12.6159   10.0754   19.7436 C   0  0  0  0  0  0  0  0  0  0  0  0
  -12.1636    8.7343   20.3319 C   0  0  2  0  0  0  0  0  0  0  0  0
  -11.2110    9.0047   21.4374 N   0  3  0  0  0  0  0  0  0  0  0  0
  -11.6056    7.7910   19.2246 C   0  0  2  0  0  0  0  0  0  0  0  0
  -12.6725    7.6109   18.1142 C   0  0  2  0  0  0  0  0  0  0  0  0
  -12.1123    6.8965   17.0391 O   0  0  0  0  0  0  0  0  0  0  0  0
  -13.1304    8.9731   17.5683 C   0  0  1  0  0  0  0  0  0  0  0  0
  -14.1327    8.7592   16.5751 O   0  0  0  0  0  0  0  0  0  0  0  0
  -14.2065    9.6780   15.5399 C   0  0  2  0  0  0  0  0  0  0  0  0
  -15.6763    9.8243   15.1101 C   0  0  2  0  0  0  0  0  0  0  0  0
  -16.4343   10.2692   16.2279 O   0  0  0  0  0  0  0  0  0  0  0  0
  -16.2049    8.4641   14.6221 C   0  0  1  0  0  0  0  0  0  0  0  0
  -17.6365    8.5393   14.2108 N   0  3  0  0  0  0  0  0  0  0  0  0
  -15.3260    7.9660   13.4489 C   0  0  2  0  0  0  0  0  0  0  0  0
  -15.7772    6.6933   12.9913 O   0  0  0  0  0  0  0  0  0  0  0  0
  -13.8503    7.8936   13.8832 C   0  0  2  0  0  0  0  0  0  0  0  0
  -13.4094    9.1896   14.4297 O   0  0  0  0  0  0  0  0  0  0  0  0
  -12.9312    7.5630   12.7282 C   0  0  0  0  0  0  0  0  0  0  0  0
  -13.0472    6.1963   12.3385 O   0  0  0  0  0  0  0  0  0  0  0  0
  1  2  1  1  0  0  0
  1  3  1  0  0  0  0
  1  9  1  0  0  0  0
  3  4  1  1  0  0  0
  3  5  1  0  0  0  0
  5  6  1  0  0  0  0
  6  7  1  1  0  0  0
  6  8  1  0  0  0  0
  8  9  1  0  0  0  0
  8 10  1  6  0  0  0
 10 11  1  0  0  0  0
 12 13  1  6  0  0  0
 12 14  1  0  0  0  0
 12 20  1  0  0  0  0
 14 15  1  0  0  0  0
 15 16  1  1  0  0  0
 15 17  1  0  0  0  0
 17  2  1  1  0  0  0
 17 18  1  0  0  0  0
 18 19  1  6  0  0  0
 18 20  1  0  0  0  0
 20 21  1  6  0  0  0
 22 21  1  1  0  0  0
 22 23  1  0  0  0  0
 22 30  1  0  0  0  0
 23 24  1  1  0  0  0
 23 25  1  0  0  0  0
 25 26  1  6  0  0  0
 25 27  1  0  0  0  0
 27 28  1  1  0  0  0
 27 29  1  0  0  0  0
 29 30  1  0  0  0  0
 29 31  1  6  0  0  0
 31 32  1  0  0  0  0
M  CHG  5   4   1  11   1  13   1  16   1  26   1
M  END
>  <CHROM.1>
-163.63176465,-144.45764471,-61.62599450,-63.38878093,-170.81050655,-65.91124967
-51.04738702,-62.66021190,61.73041593,89.20013807,-146.71848973,176.45323080
60.60892672,-59.09772919,-73.18130283,-175.22756995,-12.42837376,7.58353410
17.84882659,-0.32751671,0.86199338,-2.38437185

>  <Name>
1lc4

>  <RI>
0

>  <Rbt.Current_Directory>
/home/afrankz/demos/rdock_decoys_rna/rnas/1lc4

>  <Rbt.Executable>
rbdock ($Id: //depot/dev/client3/rdock/2013.1/src/exe/rbdock.cxx#4 $)

>  <Rbt.Library>
libRbt.so (2013.1, Build901 2013/11/27)

>  <Rbt.Parameter_File>
/export/apps/rDock/src/rDock_2013.1_src/data/scripts/dock_solv.prm

>  <Rbt.Receptor>
prm/pocket_docking_2.prm

>  <SCORE>
-76.4601

>  <SCORE.INTER>
-56.0992

>  <SCORE.INTER.CONST>
1

>  <SCORE.INTER.POLAR>
-7.47219

>  <SCORE.INTER.ROT>
6

>  <SCORE.INTER.SOLV>
26.7319

>  <SCORE.INTER.VDW>
-29.0028

>  <SCORE.INTER.norm>
-1.7531

>  <SCORE.INTRA>
-20.8631

>  <SCORE.INTRA.DIHEDRAL>
-29.1684

>  <SCORE.INTRA.DIHEDRAL.0>
44.2576

>  <SCORE.INTRA.POLAR>
-0.785111

>  <SCORE.INTRA.POLAR.0>
-0.381556

>  <SCORE.INTRA.REPUL>
0

>  <SCORE.INTRA.REPUL.0>
0

>  <SCORE.INTRA.SOLV>
1.95344

>  <SCORE.INTRA.SOLV.lig_0>
-134.592

>  <SCORE.INTRA.VDW>
-4.58622

>  <SCORE.INTRA.VDW.0>
-1.01417

>  <SCORE.INTRA.norm>
-0.651972

>  <SCORE.RESTR>
0.502163

>  <SCORE.RESTR.CAVITY>
0.502163

>  <SCORE.RESTR.norm>
0.0156926

>  <SCORE.SYSTEM>
0

>  <SCORE.SYSTEM.CONST>
0

>  <SCORE.SYSTEM.DIHEDRAL>
0

>  <SCORE.SYSTEM.SOLV>
0

>  <SCORE.SYSTEM.norm>
0

>  <SCORE.heavy>
32

>  <SCORE.norm>
-2.38938

>  <RMSD>
0.704

$$$$
1lc4
 OpenBabel02141814113D
libRbt.so/2013.1/901 2013/11/27
 32 34  0  0  0  0  0  0  0  0999 V2000
   -9.7280    6.0425   19.6045 C   0  0  2  0  0  0  0  0  0  0  0  0
  -10.9753    6.6110   19.9159 O   0  0  0  0  0  0  0  0  0  0  0  0
   -9.7536    4.5623   20.0374 C   0  0  2  0  0  0  0  0  0  0  0  0
  -10.8438    3.8523   19.3614 N   0  3  0  0  0  0  0  0  0  0  0  0
   -9.8819    4.4599   21.5754 C   0  0  0  0  0  0  0  0  0  0  0  0
   -8.6790    5.1966   22.1903 C   0  0  2  0  0  0  0  0  0  0  0  0
   -8.7102    5.0985   23.6181 O   0  0  0  0  0  0  0  0  0  0  0  0
   -8.6937    6.6749   21.7277 C   0  0  2  0  0  0  0  0  0  0  0  0
   -8.6622    6.7517   20.2741 O   0  0  0  0  0  0  0  0  0  0  0  0
   -7.5062    7.4854   22.2411 C   0  0  0  0  0  0  0  0  0  0  0  0
   -6.5089    7.7201   21.1640 N   0  3  0  0  0  0  0  0  0  0  0  0
  -13.5498    9.8057   18.8549 C   0  0  2  0  0  0  0  0  0  0  0  0
  -14.0691   11.0818   18.3299 N   0  3  0  0  0  0  0  0  0  0  0  0
  -12.5140   10.0750   19.9380 C   0  0  0  0  0  0  0  0  0  0  0  0
  -11.9635    8.7552   20.4896 C   0  0  2  0  0  0  0  0  0  0  0  0
  -11.0506    9.0634   21.6184 N   0  3  0  0  0  0  0  0  0  0  0  0
  -11.3168    7.8973   19.3614 C   0  0  2  0  0  0  0  0  0  0  0  0
  -12.3509    7.6700   18.2288 C   0  0  2  0  0  0  0  0  0  0  0  0
  -11.7208    7.0391   17.1402 O   0  0  0  0  0  0  0  0  0  0  0  0
  -12.9093    9.0090   17.7201 C   0  0  1  0  0  0  0  0  0  0  0  0
  -13.8777    8.7493   16.7045 O   0  0  0  0  0  0  0  0  0  0  0  0
  -13.5696    9.1546   15.4153 C   0  0  2  0  0  0  0  0  0  0  0  0
  -14.8733    9.2731   14.6074 C   0  0  2  0  0  0  0  0  0  0  0  0
  -15.7163   10.2259   15.2426 O   0  0  0  0  0  0  0  0  0  0  0  0
  -15.5708    7.9024   14.5570 C   0  0  1  0  0  0  0  0  0  0  0  0
  -16.8558    7.9602   13.8023 N   0  3  0  0  0  0  0  0  0  0  0  0
  -14.6123    6.8649   13.9232 C   0  0  2  0  0  0  0  0  0  0  0  0
  -15.2231    5.5771   13.8862 O   0  0  0  0  0  0  0  0  0  0  0  0
  -13.2886    6.8143   14.7085 C   0  0  2  0  0  0  0  0  0  0  0  0
  -12.6994    8.1613   14.8133 O   0  0  0  0  0  0  0  0  0  0  0  0
  -12.2605    5.9309   14.0373 C   0  0  0  0  0  0  0  0  0  0  0  0
  -11.3811    6.6853   13.2062 O   0  0  0  0  0  0  0  0  0  0  0  0
  1  2  1  1  0  0  0
  1  3  1  0  0  0  0
  1  9  1  0  0  0  0
  3  4  1  6  0  0  0
  3  5  1  0  0  0  0
  5  6  1  0  0  0  0
  6  7  1  1  0  0  0
  6  8  1  0  0  0  0
  8  9  1  0  0  0  0
  8 10  1  1  0  0  0
 10 11  1  0  0  0  0
 12 13  1  6  0  0  0
 12 14  1  0  0  0  0
 12 20  1  0  0  0  0
 14 15  1  0  0  0  0
 15 16  1  1  0  0  0
 15 17  1  0  0  0  0
 17  2  1  1  0  0  0
 17 18  1  0  0  0  0
 18 19  1  6  0  0  0
 18 20  1  0  0  0  0
 20 21  1  6  0  0  0
 22 21  1  1  0  0  0
 22 23  1  0  0  0  0
 22 30  1  0  0  0  0
 23 24  1  1  0  0  0
 23 25  1  0  0  0  0
 25 26  1  6  0  0  0
 25 27  1  0  0  0  0
 27 28  1  1  0  0  0
 27 29  1  0  0  0  0
 29 30  1  0  0  0  0
 29 31  1  6  0  0  0
 31 32  1  0  0  0  0
M  CHG  5   4   1  11   1  13   1  16   1  26   1
M  END
>  <CHROM.1>
-166.88717166,-136.27830899,-92.72177723,-66.52268907,104.65754088,41.12667689
-49.58114639,175.02652987,120.37117967,124.73708160,-159.28899912,128.84235522
-69.31507128,-69.21730960,95.09393346,177.93859751,-11.92342555,7.44091651
18.04897666,-0.40892215,0.82473273,-2.36426201

>  <Name>
1lc4

>  <RI>
0

>  <Rbt.Current_Directory>
/home/afrankz/demos/rdock_decoys_rna/rnas/1lc4

>  <Rbt.Executable>
rbdock ($Id: //depot/dev/client3/rdock/2013.1/src/exe/rbdock.cxx#4 $)

>  <Rbt.Library>
libRbt.so (2013.1, Build901 2013/11/27)

>  <Rbt.Parameter_File>
/export/apps/rDock/src/rDock_2013.1_src/data/scripts/dock_solv.prm

>  <Rbt.Receptor>
prm/pocket_docking_3.prm

>  <SCORE>
-67.929

>  <SCORE.INTER>
-63.5086

>  <SCORE.INTER.CONST>
1

>  <SCORE.INTER.POLAR>
-10.2547

>  <SCORE.INTER.ROT>
6

>  <SCORE.INTER.SOLV>
32.0803

>  <SCORE.INTER.VDW>
-26.4502

>  <SCORE.INTER.norm>
-1.98464

>  <SCORE.INTRA>
-4.42037

>  <SCORE.INTRA.DIHEDRAL>
-2.54054

>  <SCORE.INTRA.DIHEDRAL.0>
44.2576

>  <SCORE.INTRA.POLAR>
0.254422

>  <SCORE.INTRA.POLAR.0>
-0.381556

>  <SCORE.INTRA.REPUL>
0

>  <SCORE.INTRA.REPUL.0>
0

>  <SCORE.INTRA.SOLV>
-0.52744

>  <SCORE.INTRA.SOLV.lig_0>
-134.592

>  <SCORE.INTRA.VDW>
-3.75141

>  <SCORE.INTRA.VDW.0>
-1.01417

>  <SCORE.INTRA.norm>
-0.138136

>  <SCORE.RESTR>
0

>  <SCORE.RESTR.CAVITY>
0

>  <SCORE.RESTR.norm>
0

>  <SCORE.SYSTEM>
0

>  <SCORE.SYSTEM.CONST>
0

>  <SCORE.SYSTEM.DIHEDRAL>
0

>  <SCORE.SYSTEM.SOLV>
0

>  <SCORE.SYSTEM.norm>
0

>  <SCORE.heavy>
32

>  <SCORE.norm>
-2.12278

>  <RMSD>
0.704

$$$$
1lc4
 OpenBabel02141814113D
libRbt.so/2013.1/901 2013/11/27
 32 34  0  0  0  0  0  0  0  0999 V2000
  -10.3466    6.3562   19.4216 C   0  0  2  0  0  0  0  0  0  0  0  0
  -11.3444    7.1822   19.9677 O   0  0  0  0  0  0  0  0  0  0  0  0
  -10.7898    4.8891   19.5954 C   0  0  2  0  0  0  0  0  0  0  0  0
  -12.0816    4.6656   18.9390 N   0  3  0  0  0  0  0  0  0  0  0  0
  -10.8501    4.5260   21.0978 C   0  0  0  0  0  0  0  0  0  0  0  0
   -9.4467    4.7546   21.6860 C   0  0  2  0  0  0  0  0  0  0  0  0
   -9.4200    4.3898   23.0700 O   0  0  0  0  0  0  0  0  0  0  0  0
   -9.0443    6.2372   21.4874 C   0  0  2  0  0  0  0  0  0  0  0  0
   -9.0787    6.5871   20.0744 O   0  0  0  0  0  0  0  0  0  0  0  0
   -7.6395    6.5595   21.9906 C   0  0  0  0  0  0  0  0  0  0  0  0
   -7.2643    7.9633   21.6771 N   0  3  0  0  0  0  0  0  0  0  0  0
  -14.1951    9.7937   18.2317 C   0  0  2  0  0  0  0  0  0  0  0  0
  -14.8212   10.9049   17.4922 N   0  3  0  0  0  0  0  0  0  0  0  0
  -13.3504   10.3429   19.3734 C   0  0  0  0  0  0  0  0  0  0  0  0
  -12.6907    9.1967   20.1481 C   0  0  2  0  0  0  0  0  0  0  0  0
  -11.9778    9.7701   21.3168 N   0  3  0  0  0  0  0  0  0  0  0  0
  -11.7937    8.3278   19.2165 C   0  0  2  0  0  0  0  0  0  0  0  0
  -12.6365    7.8145   18.0208 C   0  0  2  0  0  0  0  0  0  0  0  0
  -11.7931    7.1703   17.0968 O   0  0  0  0  0  0  0  0  0  0  0  0
  -13.3121    8.9831   17.2850 C   0  0  1  0  0  0  0  0  0  0  0  0
  -14.1003    8.4616   16.2157 O   0  0  0  0  0  0  0  0  0  0  0  0
  -13.8120    8.9114   14.9368 C   0  0  2  0  0  0  0  0  0  0  0  0
  -15.1203    8.9894   14.1315 C   0  0  2  0  0  0  0  0  0  0  0  0
  -16.0058    9.8870   14.7890 O   0  0  0  0  0  0  0  0  0  0  0  0
  -15.7543    7.5898   14.0478 C   0  0  1  0  0  0  0  0  0  0  0  0
  -17.0411    7.6067   13.2941 N   0  3  0  0  0  0  0  0  0  0  0  0
  -14.7496    6.6129   13.3896 C   0  0  2  0  0  0  0  0  0  0  0  0
  -15.3007    5.2997   13.3213 O   0  0  0  0  0  0  0  0  0  0  0  0
  -13.4244    6.6042   14.1740 C   0  0  2  0  0  0  0  0  0  0  0  0
  -12.8976    7.9739   14.3114 O   0  0  0  0  0  0  0  0  0  0  0  0
  -12.3573    5.7853   13.4822 C   0  0  0  0  0  0  0  0  0  0  0  0
  -11.9653    6.3717   12.2430 O   0  0  0  0  0  0  0  0  0  0  0  0
  1  2  1  1  0  0  0
  1  3  1  0  0  0  0
  1  9  1  0  0  0  0
  3  4  1  1  0  0  0
  3  5  1  0  0  0  0
  5  6  1  0  0  0  0
  6  7  1  1  0  0  0
  6  8  1  0  0  0  0
  8  9  1  0  0  0  0
  8 10  1  6  0  0  0
 10 11  1  0  0  0  0
 12 13  1  6  0  0  0
 12 14  1  0  0  0  0
 12 20  1  0  0  0  0
 14 15  1  0  0  0  0
 15 16  1  1  0  0  0
 15 17  1  0  0  0  0
 17  2  1  1  0  0  0
 17 18  1  0  0  0  0
 18 19  1  6  0  0  0
 18 20  1  0  0  0  0
 20 21  1  6  0  0  0
 22 21  1  1  0  0  0
 22 23  1  0  0  0  0
 22 30  1  0  0  0  0
 23 24  1  1  0  0  0
 23 25  1  0  0  0  0
 25 26  1  6  0  0  0
 25 27  1  0  0  0  0
 27 28  1  1  0  0  0
 27 29  1  0  0  0  0
 29 30  1  0  0  0  0
 29 31  1  6  0  0  0
 31 32  1  0  0  0  0
M  CHG  5   4   1  11   1  13   1  16   1  26   1
M  END
>  <CHROM.1>
-133.69308923,-169.77080822,37.77456281,33.73788729,175.41466904,-178.61128446
178.05301204,162.82786760,-51.30600820,115.85626753,-145.77611235,98.83055361
160.81602900,-67.44850144,66.19783282,-54.70050830,-12.39961696,7.39646808
17.65157577,-0.50152064,0.84994268,-2.31399066

>  <Name>
1lc4

>  <RI>
0

>  <Rbt.Current_Directory>
/home/afrankz/demos/rdock_decoys_rna/rnas/1lc4

>  <Rbt.Executable>
rbdock ($Id: //depot/dev/client3/rdock/2013.1/src/exe/rbdock.cxx#4 $)

>  <Rbt.Library>
libRbt.so (2013.1, Build901 2013/11/27)

>  <Rbt.Parameter_File>
/export/apps/rDock/src/rDock_2013.1_src/data/scripts/dock_solv.prm

>  <Rbt.Receptor>
prm/pocket_docking_2.prm

>  <SCORE>
-68.0439

>  <SCORE.INTER>
-51.4027

>  <SCORE.INTER.CONST>
1

>  <SCORE.INTER.POLAR>
-7.87467

>  <SCORE.INTER.ROT>
6

>  <SCORE.INTER.SOLV>
23.6086

>  <SCORE.INTER.VDW>
-23.4891

>  <SCORE.INTER.norm>
-1.60633

>  <SCORE.INTRA>
-16.872

>  <SCORE.INTRA.DIHEDRAL>
-14.1713

>  <SCORE.INTRA.DIHEDRAL.0>
44.2576

>  <SCORE.INTRA.POLAR>
-1.66763

>  <SCORE.INTRA.POLAR.0>
-0.381556

>  <SCORE.INTRA.REPUL>
0

>  <SCORE.INTRA.REPUL.0>
0

>  <SCORE.INTRA.SOLV>
-1.59088

>  <SCORE.INTRA.SOLV.lig_0>
-134.592

>  <SCORE.INTRA.VDW>
-3.32094

>  <SCORE.INTRA.VDW.0>
-1.01417

>  <SCORE.INTRA.norm>
-0.527249

>  <SCORE.RESTR>
0.230721

>  <SCORE.RESTR.CAVITY>
0.230721

>  <SCORE.RESTR.norm>
0.00721004

>  <SCORE.SYSTEM>
0

>  <SCORE.SYSTEM.CONST>
0

>  <SCORE.SYSTEM.DIHEDRAL>
0

>  <SCORE.SYSTEM.SOLV>
0

>  <SCORE.SYSTEM.norm>
0

>  <SCORE.heavy>
32

>  <SCORE.norm>
-2.12637

>  <RMSD>
0.706

$$$$
1lc4
 OpenBabel02141814113D
libRbt.so/2013.1/901 2013/11/27
 32 34  0  0  0  0  0  0  0  0999 V2000
  -10.0830    6.0007   19.5312 C   0  0  2  0  0  0  0  0  0  0  0  0
  -11.1809    6.7590   19.9734 O   0  0  0  0  0  0  0  0  0  0  0  0
  -10.3650    4.5179   19.8482 C   0  0  2  0  0  0  0  0  0  0  0  0
  -11.6055    4.0844   19.1980 N   0  3  0  0  0  0  0  0  0  0  0  0
  -10.4256    4.3032   21.3788 C   0  0  0  0  0  0  0  0  0  0  0  0
   -9.0729    4.7474   21.9625 C   0  0  2  0  0  0  0  0  0  0  0  0
   -9.0436    4.5291   23.3769 O   0  0  0  0  0  0  0  0  0  0  0  0
   -8.8324    6.2385   21.6185 C   0  0  2  0  0  0  0  0  0  0  0  0
   -8.8669    6.4383   20.1767 O   0  0  0  0  0  0  0  0  0  0  0  0
   -7.4864    6.7669   22.1080 C   0  0  0  0  0  0  0  0  0  0  0  0
   -6.7935    7.5414   21.0451 N   0  3  0  0  0  0  0  0  0  0  0  0
  -13.7579    9.7553   18.4432 C   0  0  2  0  0  0  0  0  0  0  0  0
  -14.2723   10.9598   17.7663 N   0  3  0  0  0  0  0  0  0  0  0  0
  -12.8097   10.1572   19.5647 C   0  0  0  0  0  0  0  0  0  0  0  0
  -12.2648    8.9127   20.2742 C   0  0  2  0  0  0  0  0  0  0  0  0
  -11.4434    9.3534   21.4291 N   0  3  0  0  0  0  0  0  0  0  0  0
  -11.5163    7.9769   19.2785 C   0  0  2  0  0  0  0  0  0  0  0  0
  -12.4603    7.6124   18.1039 C   0  0  2  0  0  0  0  0  0  0  0  0
  -11.7373    6.9057   17.1252 O   0  0  0  0  0  0  0  0  0  0  0  0
  -13.0167    8.8797   17.4347 C   0  0  1  0  0  0  0  0  0  0  0  0
  -13.9028    8.4958   16.3839 O   0  0  0  0  0  0  0  0  0  0  0  0
  -13.6651    9.0290   15.1268 C   0  0  2  0  0  0  0  0  0  0  0  0
  -15.0093    9.2040   14.3997 C   0  0  2  0  0  0  0  0  0  0  0  0
  -15.8299   10.0769   15.1656 O   0  0  0  0  0  0  0  0  0  0  0  0
  -15.6928    7.8335   14.2502 C   0  0  1  0  0  0  0  0  0  0  0  0
  -17.0149    7.9431   13.5690 N   0  3  0  0  0  0  0  0  0  0  0  0
  -14.7558    6.8780   13.4716 C   0  0  2  0  0  0  0  0  0  0  0  0
  -15.3529    5.5901   13.3392 O   0  0  0  0  0  0  0  0  0  0  0  0
  -13.3935    6.7732   14.1820 C   0  0  2  0  0  0  0  0  0  0  0  0
  -12.8152    8.1132   14.3885 O   0  0  0  0  0  0  0  0  0  0  0  0
  -12.3907    5.9758   13.3779 C   0  0  0  0  0  0  0  0  0  0  0  0
  -11.0529    6.2402   13.7948 O   0  0  0  0  0  0  0  0  0  0  0  0
  1  2  1  1  0  0  0
  1  3  1  0  0  0  0
  1  9  1  0  0  0  0
  3  4  1  6  0  0  0
  3  5  1  0  0  0  0
  5  6  1  0  0  0  0
  6  7  1  1  0  0  0
  6  8  1  0  0  0  0
  8  9  1  0  0  0  0
  8 10  1  6  0  0  0
 10 11  1  0  0  0  0
 12 13  1  6  0  0  0
 12 14  1  0  0  0  0
 12 20  1  0  0  0  0
 14 15  1  0  0  0  0
 15 16  1  1  0  0  0
 15 17  1  0  0  0  0
 17  2  1  1  0  0  0
 17 18  1  0  0  0  0
 18 19  1  6  0  0  0
 18 20  1  0  0  0  0
 20 21  1  6  0  0  0
 22 21  1  1  0  0  0
 22 23  1  0  0  0  0
 22 30  1  0  0  0  0
 23 24  1  1  0  0  0
 23 25  1  0  0  0  0
 25 26  1  6  0  0  0
 25 27  1  0  0  0  0
 27 28  1  1  0  0  0
 27 29  1  0  0  0  0
 29 30  1  0  0  0  0
 29 31  1  6  0  0  0
 31 32  1  0  0  0  0
M  CHG  5   4   1  11   1  13   1  16   1  26   1
M  END
>  <CHROM.1>
-149.74280541,-154.40392675,62.20226137,-70.66767026,133.48184592,-122.50464890
178.29536306,-72.18825682,-60.51298403,111.48128163,-147.83273287,105.12632597
-71.01428403,-177.96370802,160.82491631,172.79821274,-12.12391822,7.33401714
17.82640130,-0.41433463,0.85076764,-2.34682997

>  <Name>
1lc4

>  <RI>
0

>  <Rbt.Current_Directory>
/home/afrankz/demos/rdock_decoys_rna/rnas/1lc4

>  <Rbt.Executable>
rbdock ($Id: //depot/dev/client3/rdock/2013.1/src/exe/rbdock.cxx#4 $)

>  <Rbt.Library>
libRbt.so (2013.1, Build901 2013/11/27)

>  <Rbt.Parameter_File>
/export/apps/rDock/src/rDock_2013.1_src/data/scripts/dock_solv.prm

>  <Rbt.Receptor>
prm/pocket_docking_4.prm

>  <SCORE>
-75.4734

>  <SCORE.INTER>
-62.7147

>  <SCORE.INTER.CONST>
1

>  <SCORE.INTER.POLAR>
-9.56615

>  <SCORE.INTER.ROT>
6

>  <SCORE.INTER.SOLV>
31.1677

>  <SCORE.INTER.VDW>
-27.9119

>  <SCORE.INTER.norm>
-1.95983

>  <SCORE.INTRA>
-12.7588

>  <SCORE.INTRA.DIHEDRAL>
-9.8296

>  <SCORE.INTRA.DIHEDRAL.0>
44.2576

>  <SCORE.INTRA.POLAR>
-1.14399

>  <SCORE.INTRA.POLAR.0>
-0.381556

>  <SCORE.INTRA.REPUL>
0.0526646

>  <SCORE.INTRA.REPUL.0>
0

>  <SCORE.INTRA.SOLV>
-1.43142

>  <SCORE.INTRA.SOLV.lig_0>
-134.592

>  <SCORE.INTRA.VDW>
-3.50202

>  <SCORE.INTRA.VDW.0>
-1.01417

>  <SCORE.INTRA.norm>
-0.398711

>  <SCORE.RESTR>
0

>  <SCORE.RESTR.CAVITY>
0

>  <SCORE.RESTR.norm>
0

>  <SCORE.SYSTEM>
0

>  <SCORE.SYSTEM.CONST>
0

>  <SCORE.SYSTEM.DIHEDRAL>
0

>  <SCORE.SYSTEM.SOLV>
0

>  <SCORE.SYSTEM.norm>
0

>  <SCORE.heavy>
32

>  <SCORE.norm>
-2.35854

>  <RMSD>
0.706

$$$$
1lc4
 OpenBabel02141814113D
libRbt.so/2013.1/901 2013/11/27
 32 34  0  0  0  0  0  0  0  0999 V2000
  -10.3975    5.5398   19.1212 C   0  0  2  0  0  0  0  0  0  0  0  0
  -11.4817    6.3176   19.5633 O   0  0  0  0  0  0  0  0  0  0  0  0
  -10.4800    4.1639   19.8133 C   0  0  2  0  0  0  0  0  0  0  0  0
  -11.7585    3.5149   19.5068 N   0  3  0  0  0  0  0  0  0  0  0  0
  -10.2795    4.3229   21.3388 C   0  0  0  0  0  0  0  0  0  0  0  0
   -8.9023    4.9727   21.5594 C   0  0  2  0  0  0  0  0  0  0  0  0
   -8.6313    5.1051   22.9588 O   0  0  0  0  0  0  0  0  0  0  0  0
   -8.8656    6.3477   20.8470 C   0  0  2  0  0  0  0  0  0  0  0  0
   -9.1442    6.1903   19.4265 O   0  0  0  0  0  0  0  0  0  0  0  0
   -7.5179    7.0559   20.9594 C   0  0  0  0  0  0  0  0  0  0  0  0
   -7.2358    7.4566   22.3628 N   0  3  0  0  0  0  0  0  0  0  0  0
  -13.8994    9.5397   18.2471 C   0  0  2  0  0  0  0  0  0  0  0  0
  -14.3578   10.7916   17.6175 N   0  3  0  0  0  0  0  0  0  0  0  0
  -12.8399    9.8463   19.2968 C   0  0  0  0  0  0  0  0  0  0  0  0
  -12.3523    8.5516   19.9566 C   0  0  2  0  0  0  0  0  0  0  0  0
  -11.4131    8.9072   21.0493 N   0  3  0  0  0  0  0  0  0  0  0  0
  -11.7623    7.5678   18.9023 C   0  0  2  0  0  0  0  0  0  0  0  0
  -12.8185    7.2988   17.7997 C   0  0  2  0  0  0  0  0  0  0  0  0
  -12.2330    6.5451   16.7656 O   0  0  0  0  0  0  0  0  0  0  0  0
  -13.3125    8.6166   17.1811 C   0  0  1  0  0  0  0  0  0  0  0  0
  -14.3036    8.3219   16.1974 O   0  0  0  0  0  0  0  0  0  0  0  0
  -14.1126    8.8445   14.9279 C   0  0  2  0  0  0  0  0  0  0  0  0
  -15.4858    9.1481   14.3046 C   0  0  2  0  0  0  0  0  0  0  0  0
  -16.1640   10.0838   15.1333 O   0  0  0  0  0  0  0  0  0  0  0  0
  -16.3006    7.8469   14.2020 C   0  0  1  0  0  0  0  0  0  0  0  0
  -17.6544    8.0830   13.6227 N   0  3  0  0  0  0  0  0  0  0  0  0
  -15.5154    6.8186   13.3517 C   0  0  2  0  0  0  0  0  0  0  0  0
  -16.2356    5.5916   13.2600 O   0  0  0  0  0  0  0  0  0  0  0  0
  -14.1191    6.5833   13.9572 C   0  0  2  0  0  0  0  0  0  0  0  0
  -13.4072    7.8631   14.1245 O   0  0  0  0  0  0  0  0  0  0  0  0
  -13.2560    5.7068   13.0771 C   0  0  0  0  0  0  0  0  0  0  0  0
  -12.8204    6.4003   11.9097 O   0  0  0  0  0  0  0  0  0  0  0  0
  1  2  1  1  0  0  0
  1  3  1  0  0  0  0
  1  9  1  0  0  0  0
  3  4  1  1  0  0  0
  3  5  1  0  0  0  0
  5  6  1  0  0  0  0
  6  7  1  1  0  0  0
  6  8  1  0  0  0  0
  8  9  1  0  0  0  0
  8 10  1  6  0  0  0
 10 11  1  0  0  0  0
 12 13  1  6  0  0  0
 12 14  1  0  0  0  0
 12 20  1  0  0  0  0
 14 15  1  0  0  0  0
 15 16  1  1  0  0  0
 15 17  1  0  0  0  0
 17  2  1  1  0  0  0
 17 18  1  0  0  0  0
 18 19  1  6  0  0  0
 18 20  1  0  0  0  0
 20 21  1  6  0  0  0
 22 21  1  1  0  0  0
 22 23  1  0  0  0  0
 22 30  1  0  0  0  0
 23 24  1  1  0  0  0
 23 25  1  0  0  0  0
 25 26  1  6  0  0  0
 25 27  1  0  0  0  0
 27 28  1  1  0  0  0
 27 29  1  0  0  0  0
 29 30  1  0  0  0  0
 29 31  1  6  0  0  0
 31 32  1  0  0  0  0
M  CHG  5   4   1  11   1  13   1  16   1  26   1
M  END
>  <CHROM.1>
-169.84995626,-147.83309649,-52.28596280,62.85711561,-66.93329312,166.50972840
177.55632993,96.15283524,-57.67181070,111.68742822,-147.62878187,101.71653960
172.96426974,-56.53681771,72.54010091,60.20976693,-12.48015957,7.19140478
17.56685878,-0.33633220,0.83822059,-2.46200129

>  <Name>
1lc4

>  <RI>
0

>  <Rbt.Current_Directory>
/home/afrankz/demos/rdock_decoys_rna/rnas/1lc4

>  <Rbt.Executable>
rbdock ($Id: //depot/dev/client3/rdock/2013.1/src/exe/rbdock.cxx#4 $)

>  <Rbt.Library>
libRbt.so (2013.1, Build901 2013/11/27)

>  <Rbt.Parameter_File>
/export/apps/rDock/src/rDock_2013.1_src/data/scripts/dock_solv.prm

>  <Rbt.Receptor>
prm/pocket_docking_2.prm

>  <SCORE>
-64.9243

>  <SCORE.INTER>
-46.0742

>  <SCORE.INTER.CONST>
1

>  <SCORE.INTER.POLAR>
-6.11617

>  <SCORE.INTER.ROT>
6

>  <SCORE.INTER.SOLV>
20.9975

>  <SCORE.INTER.VDW>
-24.9281

>  <SCORE.INTER.norm>
-1.43982

>  <SCORE.INTRA>
-18.8661

>  <SCORE.INTRA.DIHEDRAL>
-19.2043

>  <SCORE.INTRA.DIHEDRAL.0>
44.2576

>  <SCORE.INTRA.POLAR>
-1.51681

>  <SCORE.INTRA.POLAR.0>
-0.381556

>  <SCORE.INTRA.REPUL>
0

>  <SCORE.INTRA.REPUL.0>
0

>  <SCORE.INTRA.SOLV>
0.0174757

>  <SCORE.INTRA.SOLV.lig_0>
-134.592

>  <SCORE.INTRA.VDW>
-4.11548

>  <SCORE.INTRA.VDW.0>
-1.01417

>  <SCORE.INTRA.norm>
-0.589564

>  <SCORE.RESTR>
0.0159539

>  <SCORE.RESTR.CAVITY>
0.0159539

>  <SCORE.RESTR.norm>
0.00049856

>  <SCORE.SYSTEM>
0

>  <SCORE.SYSTEM.CONST>
0

>  <SCORE.SYSTEM.DIHEDRAL>
0

>  <SCORE.SYSTEM.SOLV>
0

>  <SCORE.SYSTEM.norm>
0

>  <SCORE.heavy>
32

>  <SCORE.norm>
-2.02888

>  <RMSD>
0.707

$$$$
1lc4
 OpenBabel02141814113D
libRbt.so/2013.1/901 2013/11/27
 32 34  0  0  0  0  0  0  0  0999 V2000
  -10.2772    5.7889   19.3082 C   0  0  2  0  0  0  0  0  0  0  0  0
  -11.3339    6.5759   19.7980 O   0  0  0  0  0  0  0  0  0  0  0  0
  -10.4034    4.3798   19.9226 C   0  0  2  0  0  0  0  0  0  0  0  0
  -11.7034    3.7913   19.5859 N   0  3  0  0  0  0  0  0  0  0  0  0
  -10.1938    4.4463   21.4537 C   0  0  0  0  0  0  0  0  0  0  0  0
   -8.7953    5.0371   21.7043 C   0  0  2  0  0  0  0  0  0  0  0  0
   -8.5164    5.0819   23.1077 O   0  0  0  0  0  0  0  0  0  0  0  0
   -8.7150    6.4479   21.0697 C   0  0  2  0  0  0  0  0  0  0  0  0
   -9.0023    6.3797   19.6439 O   0  0  0  0  0  0  0  0  0  0  0  0
   -7.3443    7.1041   21.2156 C   0  0  0  0  0  0  0  0  0  0  0  0
   -6.9889    7.2958   22.6462 N   0  3  0  0  0  0  0  0  0  0  0  0
  -13.8098    9.7298   18.4259 C   0  0  2  0  0  0  0  0  0  0  0  0
  -14.2855   10.9779   17.8016 N   0  3  0  0  0  0  0  0  0  0  0  0
  -12.8232   10.0519   19.5400 C   0  0  0  0  0  0  0  0  0  0  0  0
  -12.3183    8.7615   20.1950 C   0  0  2  0  0  0  0  0  0  0  0  0
  -11.4560    9.1265   21.3465 N   0  3  0  0  0  0  0  0  0  0  0  0
  -11.6305    7.8304   19.1522 C   0  0  2  0  0  0  0  0  0  0  0  0
  -12.6124    7.5472   17.9863 C   0  0  2  0  0  0  0  0  0  0  0  0
  -11.9400    6.8453   16.9689 O   0  0  0  0  0  0  0  0  0  0  0  0
  -13.1271    8.8595   17.3727 C   0  0  1  0  0  0  0  0  0  0  0  0
  -14.0495    8.5503   16.3286 O   0  0  0  0  0  0  0  0  0  0  0  0
  -13.6592    8.8401   15.0305 C   0  0  2  0  0  0  0  0  0  0  0  0
  -14.9128    8.9287   14.1434 C   0  0  2  0  0  0  0  0  0  0  0  0
  -15.7575    9.9535   14.6517 O   0  0  0  0  0  0  0  0  0  0  0  0
  -15.6508    7.5786   14.1635 C   0  0  1  0  0  0  0  0  0  0  0  0
  -16.8905    7.6105   13.3352 N   0  3  0  0  0  0  0  0  0  0  0  0
  -14.6936    6.4663   13.6698 C   0  0  2  0  0  0  0  0  0  0  0  0
  -15.3431    5.1975   13.7015 O   0  0  0  0  0  0  0  0  0  0  0  0
  -13.4166    6.4430   14.5302 C   0  0  2  0  0  0  0  0  0  0  0  0
  -12.7904    7.7771   14.5600 O   0  0  0  0  0  0  0  0  0  0  0  0
  -12.3830    5.4793   13.9910 C   0  0  0  0  0  0  0  0  0  0  0  0
  -11.9684    5.8354   12.6739 O   0  0  0  0  0  0  0  0  0  0  0  0
  1  2  1  1  0  0  0
  1  3  1  0  0  0  0
  1  9  1  0  0  0  0
  3  4  1  1  0  0  0
  3  5  1  0  0  0  0
  5  6  1  0  0  0  0
  6  7  1  1  0  0  0
  6  8  1  0  0  0  0
  8  9  1  0  0  0  0
  8 10  1  6  0  0  0
 10 11  1  0  0  0  0
 12 13  1  6  0  0  0
 12 14  1  0  0  0  0
 12 20  1  0  0  0  0
 14 15  1  0  0  0  0
 15 16  1  1  0  0  0
 15 17  1  0  0  0  0
 17  2  1  1  0  0  0
 17 18  1  0  0  0  0
 18 19  1  6  0  0  0
 18 20  1  0  0  0  0
 20 21  1  6  0  0  0
 22 21  1  1  0  0  0
 22 23  1  0  0  0  0
 22 30  1  0  0  0  0
 23 24  1  1  0  0  0
 23 25  1  0  0  0  0
 25 26  1  6  0  0  0
 25 27  1  0  0  0  0
 27 28  1  1  0  0  0
 27 29  1  0  0  0  0
 29 30  1  0  0  0  0
 29 31  1  6  0  0  0
 31 32  1  0  0  0  0
M  CHG  5   4   1  11   1  13   1  16   1  26   1
M  END
>  <CHROM.1>
-165.80778731,-154.29987098,65.86845945,-51.54957926,-61.42817503,-72.44919886
-54.39544001,-71.53648075,67.48423579,126.48157206,-159.55106075,-59.17136743
-127.67878998,60.01853482,60.96831896,63.12369810,-12.16177095,7.20829846
17.77493251,-0.39973843,0.85009589,-2.42275533

>  <Name>
1lc4

>  <RI>
0

>  <Rbt.Current_Directory>
/home/afrankz/demos/rdock_decoys_rna/rnas/1lc4

>  <Rbt.Executable>
rbdock ($Id: //depot/dev/client3/rdock/2013.1/src/exe/rbdock.cxx#4 $)

>  <Rbt.Library>
libRbt.so (2013.1, Build901 2013/11/27)

>  <Rbt.Parameter_File>
/export/apps/rDock/src/rDock_2013.1_src/data/scripts/dock_solv.prm

>  <Rbt.Receptor>
prm/pocket_docking_2.prm

>  <SCORE>
-65.5445

>  <SCORE.INTER>
-48.4593

>  <SCORE.INTER.CONST>
1

>  <SCORE.INTER.POLAR>
-6.68497

>  <SCORE.INTER.ROT>
6

>  <SCORE.INTER.SOLV>
21.3958

>  <SCORE.INTER.VDW>
-24.7549

>  <SCORE.INTER.norm>
-1.51435

>  <SCORE.INTRA>
-17.4302

>  <SCORE.INTRA.DIHEDRAL>
-26.5884

>  <SCORE.INTRA.DIHEDRAL.0>
44.2576

>  <SCORE.INTRA.POLAR>
-0.220381

>  <SCORE.INTRA.POLAR.0>
-0.381556

>  <SCORE.INTRA.REPUL>
0

>  <SCORE.INTRA.REPUL.0>
0

>  <SCORE.INTRA.SOLV>
-0.17649

>  <SCORE.INTRA.SOLV.lig_0>
-134.592

>  <SCORE.INTRA.VDW>
-3.29848

>  <SCORE.INTRA.VDW.0>
-1.01417

>  <SCORE.INTRA.norm>
-0.544694

>  <SCORE.RESTR>
0.34503

>  <SCORE.RESTR.CAVITY>
0.34503

>  <SCORE.RESTR.norm>
0.0107822

>  <SCORE.SYSTEM>
0

>  <SCORE.SYSTEM.CONST>
0

>  <SCORE.SYSTEM.DIHEDRAL>
0

>  <SCORE.SYSTEM.SOLV>
0

>  <SCORE.SYSTEM.norm>
0

>  <SCORE.heavy>
32

>  <SCORE.norm>
-2.04826

>  <RMSD>
0.709

$$$$
1lc4
 OpenBabel02141814113D
libRbt.so/2013.1/901 2013/11/27
 32 34  0  0  0  0  0  0  0  0999 V2000
  -10.4171    5.7214   19.3744 C   0  0  2  0  0  0  0  0  0  0  0  0
  -11.4772    6.5197   19.8382 O   0  0  0  0  0  0  0  0  0  0  0  0
  -10.6525    4.2784   19.8655 C   0  0  2  0  0  0  0  0  0  0  0  0
  -11.9435    3.7794   19.3818 N   0  3  0  0  0  0  0  0  0  0  0  0
  -10.5681    4.2213   21.4089 C   0  0  0  0  0  0  0  0  0  0  0  0
   -9.1717    4.7243   21.8151 C   0  0  2  0  0  0  0  0  0  0  0  0
   -9.0086    4.6517   23.2354 O   0  0  0  0  0  0  0  0  0  0  0  0
   -8.9803    6.1728   21.3004 C   0  0  2  0  0  0  0  0  0  0  0  0
   -9.1510    6.2241   19.8553 O   0  0  0  0  0  0  0  0  0  0  0  0
   -7.6003    6.7499   21.6053 C   0  0  0  0  0  0  0  0  0  0  0  0
   -7.5665    8.2172   21.3695 N   0  3  0  0  0  0  0  0  0  0  0  0
  -13.7399    9.9183   18.7026 C   0  0  2  0  0  0  0  0  0  0  0  0
  -14.1420   11.2161   18.1301 N   0  3  0  0  0  0  0  0  0  0  0  0
  -12.6384   10.1264   19.7330 C   0  0  0  0  0  0  0  0  0  0  0  0
  -12.2088    8.7831   20.3333 C   0  0  2  0  0  0  0  0  0  0  0  0
  -11.2234    9.0453   21.4117 N   0  3  0  0  0  0  0  0  0  0  0  0
  -11.7027    7.8071   19.2295 C   0  0  2  0  0  0  0  0  0  0  0  0
  -12.8001    7.6382   18.1473 C   0  0  2  0  0  0  0  0  0  0  0  0
  -12.2850    6.8913   17.0718 O   0  0  0  0  0  0  0  0  0  0  0  0
  -13.2338    9.0034   17.5892 C   0  0  1  0  0  0  0  0  0  0  0  0
  -14.2647    8.8009   16.6233 O   0  0  0  0  0  0  0  0  0  0  0  0
  -14.2610    9.6253   15.5090 C   0  0  2  0  0  0  0  0  0  0  0  0
  -15.7136    9.8591   15.0600 C   0  0  2  0  0  0  0  0  0  0  0  0
  -16.4272   10.4673   16.1291 O   0  0  0  0  0  0  0  0  0  0  0  0
  -16.3597    8.5115   14.6939 C   0  0  1  0  0  0  0  0  0  0  0  0
  -17.7803    8.6731   14.2699 N   0  3  0  0  0  0  0  0  0  0  0  0
  -15.5304    7.8350   13.5751 C   0  0  2  0  0  0  0  0  0  0  0  0
  -16.0917    6.5701   13.2319 O   0  0  0  0  0  0  0  0  0  0  0  0
  -14.0654    7.6744   14.0220 C   0  0  2  0  0  0  0  0  0  0  0  0
  -13.5122    8.9713   14.4517 O   0  0  0  0  0  0  0  0  0  0  0  0
  -13.1816    7.1623   12.9065 C   0  0  0  0  0  0  0  0  0  0  0  0
  -11.8634    6.8763   13.3691 O   0  0  0  0  0  0  0  0  0  0  0  0
  1  2  1  1  0  0  0
  1  3  1  0  0  0  0
  1  9  1  0  0  0  0
  3  4  1  1  0  0  0
  3  5  1  0  0  0  0
  5  6  1  0  0  0  0
  6  7  1  1  0  0  0
  6  8  1  0  0  0  0
  8  9  1  0  0  0  0
  8 10  1  6  0  0  0
 10 11  1  0  0  0  0
 12 13  1  6  0  0  0
 12 14  1  0  0  0  0
 12 20  1  0  0  0  0
 14 15  1  0  0  0  0
 15 16  1  1  0  0  0
 15 17  1  0  0  0  0
 17  2  1  1  0  0  0
 17 18  1  0  0  0  0
 18 19  1  6  0  0  0
 18 20  1  0  0  0  0
 20 21  1  6  0  0  0
 22 21  1  1  0  0  0
 22 23  1  0  0  0  0
 22 30  1  0  0  0  0
 23 24  1  1  0  0  0
 23 25  1  0  0  0  0
 25 26  1  6  0  0  0
 25 27  1  0  0  0  0
 27 28  1  1  0  0  0
 27 29  1  0  0  0  0
 29 30  1  0  0  0  0
 29 31  1  6  0  0  0
 31 32  1  0  0  0  0
M  CHG  5   4   1  11   1  13   1  16   1  26   1
M  END
>  <CHROM.1>
-163.09120559,-145.34952272,-57.25674699,-65.07644206,-167.36109878,49.54872069
59.97732673,177.48564984,60.27104577,95.17483243,-147.58409977,176.89208190
-62.15421115,-54.50286857,-173.50050712,63.86659341,-12.49939619,7.58723084
17.90730760,-0.25634732,0.86035773,-2.44020256

>  <Name>
1lc4

>  <RI>
0

>  <Rbt.Current_Directory>
/home/afrankz/demos/rdock_decoys_rna/rnas/1lc4

>  <Rbt.Executable>
rbdock ($Id: //depot/dev/client3/rdock/2013.1/src/exe/rbdock.cxx#4 $)

>  <Rbt.Library>
libRbt.so (2013.1, Build901 2013/11/27)

>  <Rbt.Parameter_File>
/export/apps/rDock/src/rDock_2013.1_src/data/scripts/dock_solv.prm

>  <Rbt.Receptor>
prm/pocket_docking_2.prm

>  <SCORE>
-80.282

>  <SCORE.INTER>
-59.9597

>  <SCORE.INTER.CONST>
1

>  <SCORE.INTER.POLAR>
-8.37342

>  <SCORE.INTER.ROT>
6

>  <SCORE.INTER.SOLV>
27.9551

>  <SCORE.INTER.VDW>
-28.9801

>  <SCORE.INTER.norm>
-1.87374

>  <SCORE.INTRA>
-20.9084

>  <SCORE.INTRA.DIHEDRAL>
-28.3385

>  <SCORE.INTRA.DIHEDRAL.0>
44.2576

>  <SCORE.INTRA.POLAR>
-0.786829

>  <SCORE.INTRA.POLAR.0>
-0.381556

>  <SCORE.INTRA.REPUL>
0

>  <SCORE.INTRA.REPUL.0>
0

>  <SCORE.INTRA.SOLV>
1.41996

>  <SCORE.INTRA.SOLV.lig_0>
-134.592

>  <SCORE.INTRA.VDW>
-4.77396

>  <SCORE.INTRA.VDW.0>
-1.01417

>  <SCORE.INTRA.norm>
-0.653388

>  <SCORE.RESTR>
0.586211

>  <SCORE.RESTR.CAVITY>
0.586211

>  <SCORE.RESTR.norm>
0.0183191

>  <SCORE.SYSTEM>
0

>  <SCORE.SYSTEM.CONST>
0

>  <SCORE.SYSTEM.DIHEDRAL>
0

>  <SCORE.SYSTEM.SOLV>
0

>  <SCORE.SYSTEM.norm>
0

>  <SCORE.heavy>
32

>  <SCORE.norm>
-2.50881

>  <RMSD>
0.710

$$$$
1lc4
 OpenBabel02141814113D
libRbt.so/2013.1/901 2013/11/27
 32 34  0  0  0  0  0  0  0  0999 V2000
  -10.0594    5.8849   19.5834 C   0  0  2  0  0  0  0  0  0  0  0  0
  -11.1964    6.6074   19.9848 O   0  0  0  0  0  0  0  0  0  0  0  0
  -10.1854    4.4486   20.1311 C   0  0  2  0  0  0  0  0  0  0  0  0
  -11.4147    3.8206   19.6372 N   0  3  0  0  0  0  0  0  0  0  0  0
  -10.1411    4.4630   21.6772 C   0  0  0  0  0  0  0  0  0  0  0  0
   -8.8050    5.1009   22.0961 C   0  0  2  0  0  0  0  0  0  0  0  0
   -8.6774    5.1015   23.5219 O   0  0  0  0  0  0  0  0  0  0  0  0
   -8.7226    6.5378   21.5235 C   0  0  2  0  0  0  0  0  0  0  0  0
   -8.8550    6.5143   20.0737 O   0  0  0  0  0  0  0  0  0  0  0  0
   -7.4060    7.2439   21.8377 C   0  0  0  0  0  0  0  0  0  0  0  0
   -7.5143    8.7094   21.6132 N   0  3  0  0  0  0  0  0  0  0  0  0
  -13.6331    9.8360   18.7202 C   0  0  2  0  0  0  0  0  0  0  0  0
  -14.0974   11.0985   18.1167 N   0  3  0  0  0  0  0  0  0  0  0  0
  -12.5901   10.1270   19.7907 C   0  0  0  0  0  0  0  0  0  0  0  0
  -12.0964    8.8212   20.4235 C   0  0  2  0  0  0  0  0  0  0  0  0
  -11.1747    9.1589   21.5366 N   0  3  0  0  0  0  0  0  0  0  0  0
  -11.4826    7.8710   19.3522 C   0  0  2  0  0  0  0  0  0  0  0  0
  -12.5220    7.6188   18.2298 C   0  0  2  0  0  0  0  0  0  0  0  0
  -11.9155    6.8981   17.1844 O   0  0  0  0  0  0  0  0  0  0  0  0
  -13.0229    8.9467   17.6387 C   0  0  1  0  0  0  0  0  0  0  0  0
  -13.9984    8.6665   16.6353 O   0  0  0  0  0  0  0  0  0  0  0  0
  -13.7125    9.0726   15.3413 C   0  0  2  0  0  0  0  0  0  0  0  0
  -15.0249    9.1437   14.5421 C   0  0  2  0  0  0  0  0  0  0  0  0
  -15.8937   10.0733   15.1770 O   0  0  0  0  0  0  0  0  0  0  0  0
  -15.6784    7.7511   14.5057 C   0  0  1  0  0  0  0  0  0  0  0  0
  -16.9698    7.7624   13.7599 N   0  3  0  0  0  0  0  0  0  0  0  0
  -14.6914    6.7405   13.8719 C   0  0  2  0  0  0  0  0  0  0  0  0
  -15.2607    5.4336   13.8477 O   0  0  0  0  0  0  0  0  0  0  0  0
  -13.3613    6.7379   14.6480 C   0  0  2  0  0  0  0  0  0  0  0  0
  -12.8150    8.1038   14.7396 O   0  0  0  0  0  0  0  0  0  0  0  0
  -12.3100    5.8833   13.9752 C   0  0  0  0  0  0  0  0  0  0  0  0
  -11.0239    6.0736   14.5609 O   0  0  0  0  0  0  0  0  0  0  0  0
  1  2  1  1  0  0  0
  1  3  1  0  0  0  0
  1  9  1  0  0  0  0
  3  4  1  1  0  0  0
  3  5  1  0  0  0  0
  5  6  1  0  0  0  0
  6  7  1  1  0  0  0
  6  8  1  0  0  0  0
  8  9  1  0  0  0  0
  8 10  1  6  0  0  0
 10 11  1  0  0  0  0
 12 13  1  6  0  0  0
 12 14  1  0  0  0  0
 12 20  1  0  0  0  0
 14 15  1  0  0  0  0
 15 16  1  1  0  0  0
 15 17  1  0  0  0  0
 17  2  1  1  0  0  0
 17 18  1  0  0  0  0
 18 19  1  6  0  0  0
 18 20  1  0  0  0  0
 20 21  1  6  0  0  0
 22 21  1  1  0  0  0
 22 23  1  0  0  0  0
 22 30  1  0  0  0  0
 23 24  1  1  0  0  0
 23 25  1  0  0  0  0
 25 26  1  6  0  0  0
 25 27  1  0  0  0  0
 27 28  1  1  0  0  0
 27 29  1  0  0  0  0
 29 30  1  0  0  0  0
 29 31  1  6  0  0  0
 31 32  1  0  0  0  0
M  CHG  5   4   1  11   1  13   1  16   1  26   1
M  END
>  <CHROM.1>
-165.59819296,-144.63191732,62.60874094,61.39741717,-164.09336284,170.96206748
-58.08675322,-65.68906993,-59.51991226,119.95941956,-160.18448908,92.77423156
47.85606819,-57.86469938,169.58842380,55.77936383,-12.07829856,7.38765459
18.06366100,-0.29625174,0.86222801,-2.52773455

>  <Name>
1lc4

>  <RI>
0

>  <Rbt.Current_Directory>
/home/afrankz/demos/rdock_decoys_rna/rnas/1lc4

>  <Rbt.Executable>
rbdock ($Id: //depot/dev/client3/rdock/2013.1/src/exe/rbdock.cxx#4 $)

>  <Rbt.Library>
libRbt.so (2013.1, Build901 2013/11/27)

>  <Rbt.Parameter_File>
/export/apps/rDock/src/rDock_2013.1_src/data/scripts/dock_solv.prm

>  <Rbt.Receptor>
prm/pocket_docking_4.prm

>  <SCORE>
-77.2431

>  <SCORE.INTER>
-59.5384

>  <SCORE.INTER.CONST>
1

>  <SCORE.INTER.POLAR>
-8.80978

>  <SCORE.INTER.ROT>
6

>  <SCORE.INTER.SOLV>
25.7613

>  <SCORE.INTER.VDW>
-26.5134

>  <SCORE.INTER.norm>
-1.86057

>  <SCORE.INTRA>
-17.7047

>  <SCORE.INTRA.DIHEDRAL>
-23.488

>  <SCORE.INTRA.DIHEDRAL.0>
44.2576

>  <SCORE.INTRA.POLAR>
-0.299463

>  <SCORE.INTRA.POLAR.0>
-0.381556

>  <SCORE.INTRA.REPUL>
0

>  <SCORE.INTRA.REPUL.0>
0

>  <SCORE.INTRA.SOLV>
0.437532

>  <SCORE.INTRA.SOLV.lig_0>
-134.592

>  <SCORE.INTRA.VDW>
-5.16129

>  <SCORE.INTRA.VDW.0>
-1.01417

>  <SCORE.INTRA.norm>
-0.553272

>  <SCORE.RESTR>
0

>  <SCORE.RESTR.CAVITY>
0

>  <SCORE.RESTR.norm>
0

>  <SCORE.SYSTEM>
0

>  <SCORE.SYSTEM.CONST>
0

>  <SCORE.SYSTEM.DIHEDRAL>
0

>  <SCORE.SYSTEM.SOLV>
0

>  <SCORE.SYSTEM.norm>
0

>  <SCORE.heavy>
32

>  <SCORE.norm>
-2.41385

>  <RMSD>
0.712

$$$$
1lc4
 OpenBabel02141814113D
libRbt.so/2013.1/901 2013/11/27
 32 34  0  0  0  0  0  0  0  0999 V2000
  -10.0485    5.7423   19.6402 C   0  0  2  0  0  0  0  0  0  0  0  0
  -11.1361    6.5278   20.0601 O   0  0  0  0  0  0  0  0  0  0  0  0
  -10.2060    4.3366   20.2551 C   0  0  2  0  0  0  0  0  0  0  0  0
  -11.4810    3.7404   19.8444 N   0  3  0  0  0  0  0  0  0  0  0  0
  -10.0895    4.4136   21.7955 C   0  0  0  0  0  0  0  0  0  0  0  0
   -8.7111    5.0121   22.1262 C   0  0  2  0  0  0  0  0  0  0  0  0
   -8.5176    5.0669   23.5435 O   0  0  0  0  0  0  0  0  0  0  0  0
   -8.5982    6.4192   21.4884 C   0  0  2  0  0  0  0  0  0  0  0  0
   -8.7986    6.3408   20.0483 O   0  0  0  0  0  0  0  0  0  0  0  0
   -7.2414    7.0822   21.7125 C   0  0  0  0  0  0  0  0  0  0  0  0
   -7.3185    8.5513   21.4990 N   0  3  0  0  0  0  0  0  0  0  0  0
  -13.6351    9.5617   18.4758 C   0  0  2  0  0  0  0  0  0  0  0  0
  -14.1182   10.7678   17.7789 N   0  3  0  0  0  0  0  0  0  0  0  0
  -12.6807    9.9577   19.5941 C   0  0  0  0  0  0  0  0  0  0  0  0
  -12.1682    8.7114   20.3244 C   0  0  2  0  0  0  0  0  0  0  0  0
  -11.3397    9.1498   21.4751 N   0  3  0  0  0  0  0  0  0  0  0  0
  -11.4397    7.7426   19.3456 C   0  0  2  0  0  0  0  0  0  0  0  0
  -12.3890    7.3830   18.1736 C   0  0  2  0  0  0  0  0  0  0  0  0
  -11.6805    6.6440   17.2082 O   0  0  0  0  0  0  0  0  0  0  0  0
  -12.9125    8.6529   17.4833 C   0  0  1  0  0  0  0  0  0  0  0  0
  -13.8046    8.2745   16.4356 O   0  0  0  0  0  0  0  0  0  0  0  0
  -13.6696    8.9274   15.2204 C   0  0  2  0  0  0  0  0  0  0  0  0
  -15.0539    9.0347   14.5582 C   0  0  2  0  0  0  0  0  0  0  0  0
  -15.9162    9.7627   15.4234 O   0  0  0  0  0  0  0  0  0  0  0  0
  -15.6173    7.6231   14.3177 C   0  0  1  0  0  0  0  0  0  0  0  0
  -16.9718    7.6639   13.6950 N   0  3  0  0  0  0  0  0  0  0  0  0
  -14.6323    6.8250   13.4289 C   0  0  2  0  0  0  0  0  0  0  0  0
  -15.1164    5.5021   13.2093 O   0  0  0  0  0  0  0  0  0  0  0  0
  -13.2370    6.7904   14.0797 C   0  0  2  0  0  0  0  0  0  0  0  0
  -12.7732    8.1573   14.3781 O   0  0  0  0  0  0  0  0  0  0  0  0
  -12.2019    6.1575   13.1764 C   0  0  0  0  0  0  0  0  0  0  0  0
  -10.8822    6.3271   13.6893 O   0  0  0  0  0  0  0  0  0  0  0  0
  1  2  1  1  0  0  0
  1  3  1  0  0  0  0
  1  9  1  0  0  0  0
  3  4  1  1  0  0  0
  3  5  1  0  0  0  0
  5  6  1  0  0  0  0
  6  7  1  1  0  0  0
  6  8  1  0  0  0  0
  8  9  1  0  0  0  0
  8 10  1  6  0  0  0
 10 11  1  0  0  0  0
 12 13  1  6  0  0  0
 12 14  1  0  0  0  0
 12 20  1  0  0  0  0
 14 15  1  0  0  0  0
 15 16  1  1  0  0  0
 15 17  1  0  0  0  0
 17  2  1  1  0  0  0
 17 18  1  0  0  0  0
 18 19  1  6  0  0  0
 18 20  1  0  0  0  0
 20 21  1  6  0  0  0
 22 21  1  1  0  0  0
 22 23  1  0  0  0  0
 22 30  1  0  0  0  0
 23 24  1  1  0  0  0
 23 25  1  0  0  0  0
 25 26  1  6  0  0  0
 25 27  1  0  0  0  0
 27 28  1  1  0  0  0
 27 29  1  0  0  0  0
 29 30  1  0  0  0  0
 29 31  1  6  0  0  0
 31 32  1  0  0  0  0
M  CHG  5   4   1  11   1  13   1  16   1  26   1
M  END
>  <CHROM.1>
-162.64185782,-153.86115634,-53.62931599,69.54151986,-161.09018916,-69.58687364
-57.80160302,172.51298064,-177.78621332,102.45007537,-147.83766806,-179.78141539
54.22184268,75.09401502,170.36821301,-176.98002032,-12.02399904,7.27890979
17.90511743,-0.44891818,0.84298077,-2.35396095

>  <Name>
1lc4

>  <RI>
0

>  <Rbt.Current_Directory>
/home/afrankz/demos/rdock_decoys_rna/rnas/1lc4

>  <Rbt.Executable>
rbdock ($Id: //depot/dev/client3/rdock/2013.1/src/exe/rbdock.cxx#4 $)

>  <Rbt.Library>
libRbt.so (2013.1, Build901 2013/11/27)

>  <Rbt.Parameter_File>
/export/apps/rDock/src/rDock_2013.1_src/data/scripts/dock_solv.prm

>  <Rbt.Receptor>
prm/pocket_docking_5.prm

>  <SCORE>
-74.4138

>  <SCORE.INTER>
-53.5522

>  <SCORE.INTER.CONST>
1

>  <SCORE.INTER.POLAR>
-7.75824

>  <SCORE.INTER.ROT>
6

>  <SCORE.INTER.SOLV>
26.0368

>  <SCORE.INTER.VDW>
-26.1196

>  <SCORE.INTER.norm>
-1.67351

>  <SCORE.INTRA>
-20.8617

>  <SCORE.INTRA.DIHEDRAL>
-26.47

>  <SCORE.INTRA.DIHEDRAL.0>
44.2576

>  <SCORE.INTRA.POLAR>
-0.804336

>  <SCORE.INTRA.POLAR.0>
-0.381556

>  <SCORE.INTRA.REPUL>
0.00153915

>  <SCORE.INTRA.REPUL.0>
0

>  <SCORE.INTRA.SOLV>
-0.42599

>  <SCORE.INTRA.SOLV.lig_0>
-134.592

>  <SCORE.INTRA.VDW>
-4.68662

>  <SCORE.INTRA.VDW.0>
-1.01417

>  <SCORE.INTRA.norm>
-0.651927

>  <SCORE.RESTR>
0

>  <SCORE.RESTR.CAVITY>
0

>  <SCORE.RESTR.norm>
0

>  <SCORE.SYSTEM>
0

>  <SCORE.SYSTEM.CONST>
0

>  <SCORE.SYSTEM.DIHEDRAL>
0

>  <SCORE.SYSTEM.SOLV>
0

>  <SCORE.SYSTEM.norm>
0

>  <SCORE.heavy>
32

>  <SCORE.norm>
-2.32543

>  <RMSD>
0.712

$$$$
1lc4
 OpenBabel02141814113D
libRbt.so/2013.1/901 2013/11/27
 32 34  0  0  0  0  0  0  0  0999 V2000
  -10.2584    6.1011   19.3935 C   0  0  2  0  0  0  0  0  0  0  0  0
  -11.4502    6.7394   19.7784 O   0  0  0  0  0  0  0  0  0  0  0  0
  -10.2935    4.6553   19.9294 C   0  0  2  0  0  0  0  0  0  0  0  0
  -11.4668    3.9469   19.4086 N   0  3  0  0  0  0  0  0  0  0  0  0
  -10.2783    4.6607   21.4761 C   0  0  0  0  0  0  0  0  0  0  0  0
   -8.9978    5.3870   21.9240 C   0  0  2  0  0  0  0  0  0  0  0  0
   -8.8965    5.3854   23.3519 O   0  0  0  0  0  0  0  0  0  0  0  0
   -9.0058    6.8306   21.3624 C   0  0  2  0  0  0  0  0  0  0  0  0
   -9.1100    6.8092   19.9102 O   0  0  0  0  0  0  0  0  0  0  0  0
   -7.7477    7.6244   21.7056 C   0  0  0  0  0  0  0  0  0  0  0  0
   -6.5966    7.1976   20.8674 N   0  3  0  0  0  0  0  0  0  0  0  0
  -13.8769   10.1024   18.9061 C   0  0  2  0  0  0  0  0  0  0  0  0
  -14.3459   11.4142   18.4233 N   0  3  0  0  0  0  0  0  0  0  0  0
  -12.7578   10.2943   19.9205 C   0  0  0  0  0  0  0  0  0  0  0  0
  -12.2589    8.9367   20.4276 C   0  0  2  0  0  0  0  0  0  0  0  0
  -11.2567    9.1748   21.4960 N   0  3  0  0  0  0  0  0  0  0  0  0
  -11.7433    8.0503   19.2546 C   0  0  2  0  0  0  0  0  0  0  0  0
  -12.8612    7.9007   18.1908 C   0  0  2  0  0  0  0  0  0  0  0  0
  -12.3451    7.2416   17.0598 O   0  0  0  0  0  0  0  0  0  0  0  0
  -13.3640    9.2776   17.7273 C   0  0  1  0  0  0  0  0  0  0  0  0
  -14.4111    9.0904   16.7758 O   0  0  0  0  0  0  0  0  0  0  0  0
  -14.2488    9.6762   15.5301 C   0  0  2  0  0  0  0  0  0  0  0  0
  -15.6319    9.8507   14.8798 C   0  0  2  0  0  0  0  0  0  0  0  0
  -16.4281   10.6763   15.7202 O   0  0  0  0  0  0  0  0  0  0  0  0
  -16.2961    8.4730   14.7116 C   0  0  1  0  0  0  0  0  0  0  0  0
  -17.6536    8.5810   14.1035 N   0  3  0  0  0  0  0  0  0  0  0  0
  -15.3828    7.5678   13.8493 C   0  0  2  0  0  0  0  0  0  0  0  0
  -15.9615    6.2737   13.6971 O   0  0  0  0  0  0  0  0  0  0  0  0
  -13.9838    7.4643   14.4848 C   0  0  2  0  0  0  0  0  0  0  0  0
  -13.4210    8.8072   14.7141 O   0  0  0  0  0  0  0  0  0  0  0  0
  -13.0091    6.7194   13.5999 C   0  0  0  0  0  0  0  0  0  0  0  0
  -11.7059    6.6715   14.1768 O   0  0  0  0  0  0  0  0  0  0  0  0
  1  2  1  1  0  0  0
  1  3  1  0  0  0  0
  1  9  1  0  0  0  0
  3  4  1  1  0  0  0
  3  5  1  0  0  0  0
  5  6  1  0  0  0  0
  6  7  1  1  0  0  0
  6  8  1  0  0  0  0
  8  9  1  0  0  0  0
  8 10  1  6  0  0  0
 10 11  1  0  0  0  0
 12 13  1  6  0  0  0
 12 14  1  0  0  0  0
 12 20  1  0  0  0  0
 14 15  1  0  0  0  0
 15 16  1  1  0  0  0
 15 17  1  0  0  0  0
 17  2  1  1  0  0  0
 17 18  1  0  0  0  0
 18 19  1  6  0  0  0
 18 20  1  0  0  0  0
 20 21  1  6  0  0  0
 22 21  1  1  0  0  0
 22 23  1  0  0  0  0
 22 30  1  0  0  0  0
 23 24  1  1  0  0  0
 23 25  1  0  0  0  0
 25 26  1  6  0  0  0
 25 27  1  0  0  0  0
 27 28  1  1  0  0  0
 27 29  1  0  0  0  0
 29 30  1  0  0  0  0
 29 31  1  6  0  0  0
 31 32  1  0  0  0  0
M  CHG  5   4   1  11   1  13   1  16   1  26   1
M  END
>  <CHROM.1>
-172.07314052,-135.63977493,173.48337327,62.40288762,75.67462364,-44.67883235
-55.71003577,170.98449555,-54.13605211,114.69703083,-157.76406139,60.50747927
-178.45995551,-63.73958403,177.91378849,44.35063709,-12.40781459,7.73007972
18.01385269,-0.30390667,0.79774707,-2.38813640

>  <Name>
1lc4

>  <RI>
0

>  <Rbt.Current_Directory>
/home/afrankz/demos/rdock_decoys_rna/rnas/1lc4

>  <Rbt.Executable>
rbdock ($Id: //depot/dev/client3/rdock/2013.1/src/exe/rbdock.cxx#4 $)

>  <Rbt.Library>
libRbt.so (2013.1, Build901 2013/11/27)

>  <Rbt.Parameter_File>
/export/apps/rDock/src/rDock_2013.1_src/data/scripts/dock_solv.prm

>  <Rbt.Receptor>
prm/pocket_docking_5.prm

>  <SCORE>
-72.4867

>  <SCORE.INTER>
-53.342

>  <SCORE.INTER.CONST>
1

>  <SCORE.INTER.POLAR>
-7.79544

>  <SCORE.INTER.ROT>
6

>  <SCORE.INTER.SOLV>
34.2961

>  <SCORE.INTER.VDW>
-28.6086

>  <SCORE.INTER.norm>
-1.66694

>  <SCORE.INTRA>
-19.1447

>  <SCORE.INTRA.DIHEDRAL>
-25.4066

>  <SCORE.INTRA.DIHEDRAL.0>
44.2576

>  <SCORE.INTRA.POLAR>
-0.470826

>  <SCORE.INTRA.POLAR.0>
-0.381556

>  <SCORE.INTRA.REPUL>
0

>  <SCORE.INTRA.REPUL.0>
0

>  <SCORE.INTRA.SOLV>
0.103501

>  <SCORE.INTRA.SOLV.lig_0>
-134.592

>  <SCORE.INTRA.VDW>
-4.89233

>  <SCORE.INTRA.VDW.0>
-1.01417

>  <SCORE.INTRA.norm>
-0.598272

>  <SCORE.RESTR>
0

>  <SCORE.RESTR.CAVITY>
0

>  <SCORE.RESTR.norm>
0

>  <SCORE.SYSTEM>
0

>  <SCORE.SYSTEM.CONST>
0

>  <SCORE.SYSTEM.DIHEDRAL>
0

>  <SCORE.SYSTEM.SOLV>
0

>  <SCORE.SYSTEM.norm>
0

>  <SCORE.heavy>
32

>  <SCORE.norm>
-2.26521

>  <RMSD>
0.713

$$$$
1lc4
 OpenBabel02141814113D
libRbt.so/2013.1/901 2013/11/27
 32 34  0  0  0  0  0  0  0  0999 V2000
  -10.5146    5.9651   19.3165 C   0  0  2  0  0  0  0  0  0  0  0  0
  -11.6137    6.7223   19.7577 O   0  0  0  0  0  0  0  0  0  0  0  0
  -10.6059    4.5664   19.9602 C   0  0  2  0  0  0  0  0  0  0  0  0
  -11.8728    3.9217   19.6009 N   0  3  0  0  0  0  0  0  0  0  0  0
  -10.4435    4.6752   21.4945 C   0  0  0  0  0  0  0  0  0  0  0  0
   -9.0759    5.3242   21.7704 C   0  0  2  0  0  0  0  0  0  0  0  0
   -8.8397    5.4110   23.1796 O   0  0  0  0  0  0  0  0  0  0  0  0
   -9.0298    6.7224   21.1053 C   0  0  2  0  0  0  0  0  0  0  0  0
   -9.2729    6.6113   19.6740 O   0  0  0  0  0  0  0  0  0  0  0  0
   -7.6894    7.4332   21.2742 C   0  0  0  0  0  0  0  0  0  0  0  0
   -7.8799    8.8709   21.6005 N   0  3  0  0  0  0  0  0  0  0  0  0
  -14.0993    9.8356   18.3123 C   0  0  2  0  0  0  0  0  0  0  0  0
  -14.5767   11.0757   17.6735 N   0  3  0  0  0  0  0  0  0  0  0  0
  -13.1505   10.1739   19.4542 C   0  0  0  0  0  0  0  0  0  0  0  0
  -12.6441    8.8919   20.1244 C   0  0  2  0  0  0  0  0  0  0  0  0
  -11.8214    9.2711   21.3000 N   0  3  0  0  0  0  0  0  0  0  0  0
  -11.9116    7.9716   19.1027 C   0  0  2  0  0  0  0  0  0  0  0  0
  -12.8548    7.6724   17.9092 C   0  0  2  0  0  0  0  0  0  0  0  0
  -12.1421    6.9811   16.9121 O   0  0  0  0  0  0  0  0  0  0  0  0
  -13.3725    8.9760   17.2799 C   0  0  1  0  0  0  0  0  0  0  0  0
  -14.2593    8.6517   16.2098 O   0  0  0  0  0  0  0  0  0  0  0  0
  -13.8830    9.0407   14.9337 C   0  0  2  0  0  0  0  0  0  0  0  0
  -15.1097    8.9613   14.0088 C   0  0  2  0  0  0  0  0  0  0  0  0
  -16.1186    9.8248   14.5172 O   0  0  0  0  0  0  0  0  0  0  0  0
  -15.6269    7.5127   13.9675 C   0  0  1  0  0  0  0  0  0  0  0  0
  -16.8326    7.3776   13.1002 N   0  3  0  0  0  0  0  0  0  0  0  0
  -14.4936    6.5799   13.4750 C   0  0  2  0  0  0  0  0  0  0  0  0
  -14.9365    5.2249   13.4503 O   0  0  0  0  0  0  0  0  0  0  0  0
  -13.2534    6.7283   14.3758 C   0  0  2  0  0  0  0  0  0  0  0  0
  -12.8454    8.1420   14.4628 O   0  0  0  0  0  0  0  0  0  0  0  0
  -12.0667    5.9555   13.8443 C   0  0  0  0  0  0  0  0  0  0  0  0
  -11.1866    6.7919   13.0964 O   0  0  0  0  0  0  0  0  0  0  0  0
  1  2  1  1  0  0  0
  1  3  1  0  0  0  0
  1  9  1  0  0  0  0
  3  4  1  1  0  0  0
  3  5  1  0  0  0  0
  5  6  1  0  0  0  0
  6  7  1  1  0  0  0
  6  8  1  0  0  0  0
  8  9  1  0  0  0  0
  8 10  1  6  0  0  0
 10 11  1  0  0  0  0
 12 13  1  6  0  0  0
 12 14  1  0  0  0  0
 12 20  1  0  0  0  0
 14 15  1  0  0  0  0
 15 16  1  1  0  0  0
 15 17  1  0  0  0  0
 17  2  1  1  0  0  0
 17 18  1  0  0  0  0
 18 19  1  6  0  0  0
 18 20  1  0  0  0  0
 20 21  1  6  0  0  0
 22 21  1  1  0  0  0
 22 23  1  0  0  0  0
 22 30  1  0  0  0  0
 23 24  1  1  0  0  0
 23 25  1  0  0  0  0
 25 26  1  6  0  0  0
 25 27  1  0  0  0  0
 27 28  1  1  0  0  0
 27 29  1  0  0  0  0
 29 30  1  0  0  0  0
 29 31  1  6  0  0  0
 31 32  1  0  0  0  0
M  CHG  5   4   1  11   1  13   1  16   1  26   1
M  END
>  <CHROM.1>
-167.82433040,-153.04230765,67.17293529,62.91621974,-137.52909686,-174.98616955
-59.14785523,-78.50775444,-51.09832954,121.60394296,-164.36289568,76.74372705
-128.73833962,63.33750734,97.18487068,-173.68094619,-12.31979234,7.43933489
17.67809249,-0.47365903,0.86193368,-2.36858803

>  <Name>
1lc4

>  <RI>
0

>  <Rbt.Current_Directory>
/home/afrankz/demos/rdock_decoys_rna/rnas/1lc4

>  <Rbt.Executable>
rbdock ($Id: //depot/dev/client3/rdock/2013.1/src/exe/rbdock.cxx#4 $)

>  <Rbt.Library>
libRbt.so (2013.1, Build901 2013/11/27)

>  <Rbt.Parameter_File>
/export/apps/rDock/src/rDock_2013.1_src/data/scripts/dock_solv.prm

>  <Rbt.Receptor>
prm/pocket_docking_5.prm

>  <SCORE>
-68.5196

>  <SCORE.INTER>
-56.9924

>  <SCORE.INTER.CONST>
1

>  <SCORE.INTER.POLAR>
-8.52928

>  <SCORE.INTER.ROT>
6

>  <SCORE.INTER.SOLV>
24.6796

>  <SCORE.INTER.VDW>
-25.3905

>  <SCORE.INTER.norm>
-1.78101

>  <SCORE.INTRA>
-11.5272

>  <SCORE.INTRA.DIHEDRAL>
-17.9262

>  <SCORE.INTRA.DIHEDRAL.0>
44.2576

>  <SCORE.INTRA.POLAR>
0.366427

>  <SCORE.INTRA.POLAR.0>
-0.381556

>  <SCORE.INTRA.REPUL>
0.0856649

>  <SCORE.INTRA.REPUL.0>
0

>  <SCORE.INTRA.SOLV>
-1.58064

>  <SCORE.INTRA.SOLV.lig_0>
-134.592

>  <SCORE.INTRA.VDW>
-3.44792

>  <SCORE.INTRA.VDW.0>
-1.01417

>  <SCORE.INTRA.norm>
-0.360223

>  <SCORE.RESTR>
0

>  <SCORE.RESTR.CAVITY>
0

>  <SCORE.RESTR.norm>
0

>  <SCORE.SYSTEM>
0

>  <SCORE.SYSTEM.CONST>
0

>  <SCORE.SYSTEM.DIHEDRAL>
0

>  <SCORE.SYSTEM.SOLV>
0

>  <SCORE.SYSTEM.norm>
0

>  <SCORE.heavy>
32

>  <SCORE.norm>
-2.14124

>  <RMSD>
0.714

$$$$
1lc4
 OpenBabel02141814113D
libRbt.so/2013.1/901 2013/11/27
 32 34  0  0  0  0  0  0  0  0999 V2000
  -10.3508    5.8286   19.3900 C   0  0  2  0  0  0  0  0  0  0  0  0
  -11.4196    6.6125   19.8581 O   0  0  0  0  0  0  0  0  0  0  0  0
  -10.5742    4.3788   19.8665 C   0  0  2  0  0  0  0  0  0  0  0  0
  -11.8590    3.8725   19.3740 N   0  3  0  0  0  0  0  0  0  0  0  0
  -10.4940    4.3076   21.4096 C   0  0  0  0  0  0  0  0  0  0  0  0
   -9.1037    4.8197   21.8249 C   0  0  2  0  0  0  0  0  0  0  0  0
   -8.9442    4.7349   23.2450 O   0  0  0  0  0  0  0  0  0  0  0  0
   -8.9242    6.2747   21.3248 C   0  0  2  0  0  0  0  0  0  0  0  0
   -9.0908    6.3383   19.8797 O   0  0  0  0  0  0  0  0  0  0  0  0
   -7.5505    6.8617   21.6396 C   0  0  0  0  0  0  0  0  0  0  0  0
   -7.5115    8.3209   21.3587 N   0  3  0  0  0  0  0  0  0  0  0  0
  -13.6580   10.0496   18.7925 C   0  0  2  0  0  0  0  0  0  0  0  0
  -14.0487   11.3655   18.2542 N   0  3  0  0  0  0  0  0  0  0  0  0
  -12.5728   10.2232   19.8464 C   0  0  0  0  0  0  0  0  0  0  0  0
  -12.1552    8.8611   20.4115 C   0  0  2  0  0  0  0  0  0  0  0  0
  -11.1868    9.0875   21.5130 N   0  3  0  0  0  0  0  0  0  0  0  0
  -11.6332    7.9186   19.2860 C   0  0  2  0  0  0  0  0  0  0  0  0
  -12.7133    7.7858   18.1818 C   0  0  2  0  0  0  0  0  0  0  0  0
  -12.1823    7.0714   17.0920 O   0  0  0  0  0  0  0  0  0  0  0  0
  -13.1357    9.1686   17.6595 C   0  0  1  0  0  0  0  0  0  0  0  0
  -14.1513    8.9984   16.6714 O   0  0  0  0  0  0  0  0  0  0  0  0
  -14.1471    9.8769   15.5992 C   0  0  2  0  0  0  0  0  0  0  0  0
  -15.5953   10.0898   15.1265 C   0  0  2  0  0  0  0  0  0  0  0  0
  -16.3519   10.6227   16.2061 O   0  0  0  0  0  0  0  0  0  0  0  0
  -16.1910    8.7435   14.6789 C   0  0  1  0  0  0  0  0  0  0  0  0
  -17.6058    8.8840   14.2284 N   0  3  0  0  0  0  0  0  0  0  0  0
  -15.3156    8.1482   13.5492 C   0  0  2  0  0  0  0  0  0  0  0  0
  -15.8297    6.8860   13.1307 O   0  0  0  0  0  0  0  0  0  0  0  0
  -13.8572    8.0089   14.0238 C   0  0  2  0  0  0  0  0  0  0  0  0
  -13.3542    9.2987   14.5300 O   0  0  0  0  0  0  0  0  0  0  0  0
  -12.9324    7.5792   12.9067 C   0  0  0  0  0  0  0  0  0  0  0  0
  -13.1829    6.2342   12.5047 O   0  0  0  0  0  0  0  0  0  0  0  0
  1  2  1  1  0  0  0
  1  3  1  0  0  0  0
  1  9  1  0  0  0  0
  3  4  1  1  0  0  0
  3  5  1  0  0  0  0
  5  6  1  0  0  0  0
  6  7  1  1  0  0  0
  6  8  1  0  0  0  0
  8  9  1  0  0  0  0
  8 10  1  6  0  0  0
 10 11  1  0  0  0  0
 12 13  1  6  0  0  0
 12 14  1  0  0  0  0
 12 20  1  0  0  0  0
 14 15  1  0  0  0  0
 15 16  1  1  0  0  0
 15 17  1  0  0  0  0
 17  2  1  1  0  0  0
 17 18  1  0  0  0  0
 18 19  1  6  0  0  0
 18 20  1  0  0  0  0
 20 21  1  6  0  0  0
 22 21  1  1  0  0  0
 22 23  1  0  0  0  0
 22 30  1  0  0  0  0
 23 24  1  1  0  0  0
 23 25  1  0  0  0  0
 25 26  1  6  0  0  0
 25 27  1  0  0  0  0
 27 28  1  1  0  0  0
 27 29  1  0  0  0  0
 29 30  1  0  0  0  0
 29 31  1  6  0  0  0
 31 32  1  0  0  0  0
M  CHG  5   4   1  11   1  13   1  16   1  26   1
M  END
>  <CHROM.1>
-164.75920685,-145.12689985,61.53816135,-62.09902219,-169.96028113,52.07930253
64.47417820,58.22374848,-56.66760971,93.70586164,-148.63952074,171.46584979
-172.94256447,68.67686374,-69.10633859,54.85948562,-12.44827943,7.73008110
17.89987978,-0.27294196,0.87513311,-2.43038934

>  <Name>
1lc4

>  <RI>
0

>  <Rbt.Current_Directory>
/home/afrankz/demos/rdock_decoys_rna/rnas/1lc4

>  <Rbt.Executable>
rbdock ($Id: //depot/dev/client3/rdock/2013.1/src/exe/rbdock.cxx#4 $)

>  <Rbt.Library>
libRbt.so (2013.1, Build901 2013/11/27)

>  <Rbt.Parameter_File>
/export/apps/rDock/src/rDock_2013.1_src/data/scripts/dock_solv.prm

>  <Rbt.Receptor>
prm/pocket_docking_3.prm

>  <SCORE>
-79.7849

>  <SCORE.INTER>
-57.02

>  <SCORE.INTER.CONST>
1

>  <SCORE.INTER.POLAR>
-7.48463

>  <SCORE.INTER.ROT>
6

>  <SCORE.INTER.SOLV>
28.6724

>  <SCORE.INTER.VDW>
-30.222

>  <SCORE.INTER.norm>
-1.78187

>  <SCORE.INTRA>
-22.7649

>  <SCORE.INTRA.DIHEDRAL>
-28.5077

>  <SCORE.INTRA.DIHEDRAL.0>
44.2576

>  <SCORE.INTRA.POLAR>
-1.38191

>  <SCORE.INTRA.POLAR.0>
-0.381556

>  <SCORE.INTRA.REPUL>
0

>  <SCORE.INTRA.REPUL.0>
0

>  <SCORE.INTRA.SOLV>
1.60217

>  <SCORE.INTRA.SOLV.lig_0>
-134.592

>  <SCORE.INTRA.VDW>
-4.61367

>  <SCORE.INTRA.VDW.0>
-1.01417

>  <SCORE.INTRA.norm>
-0.711404

>  <SCORE.RESTR>
0

>  <SCORE.RESTR.CAVITY>
0

>  <SCORE.RESTR.norm>
0

>  <SCORE.SYSTEM>
0

>  <SCORE.SYSTEM.CONST>
0

>  <SCORE.SYSTEM.DIHEDRAL>
0

>  <SCORE.SYSTEM.SOLV>
0

>  <SCORE.SYSTEM.norm>
0

>  <SCORE.heavy>
32

>  <SCORE.norm>
-2.49328

>  <RMSD>
0.717

$$$$
1lc4
 OpenBabel02141814113D
libRbt.so/2013.1/901 2013/11/27
 32 34  0  0  0  0  0  0  0  0999 V2000
  -10.5100    5.7789   19.3126 C   0  0  2  0  0  0  0  0  0  0  0  0
  -11.4907    6.6328   19.8466 O   0  0  0  0  0  0  0  0  0  0  0  0
  -10.6810    4.3887   19.9582 C   0  0  2  0  0  0  0  0  0  0  0  0
  -12.0294    3.8715   19.7054 N   0  3  0  0  0  0  0  0  0  0  0  0
  -10.3812    4.4654   21.4738 C   0  0  0  0  0  0  0  0  0  0  0  0
   -8.9393    4.9780   21.6350 C   0  0  2  0  0  0  0  0  0  0  0  0
   -8.5789    5.0271   23.0195 O   0  0  0  0  0  0  0  0  0  0  0  0
   -8.8152    6.3723   20.9718 C   0  0  2  0  0  0  0  0  0  0  0  0
   -9.1866    6.3000   19.5658 O   0  0  0  0  0  0  0  0  0  0  0  0
   -7.4032    6.9502   21.0289 C   0  0  0  0  0  0  0  0  0  0  0  0
   -6.9765    7.1906   22.4324 N   0  3  0  0  0  0  0  0  0  0  0  0
  -13.8986    9.8433   18.4847 C   0  0  2  0  0  0  0  0  0  0  0  0
  -14.3500   11.0956   17.8509 N   0  3  0  0  0  0  0  0  0  0  0  0
  -12.8717   10.1516   19.5659 C   0  0  0  0  0  0  0  0  0  0  0  0
  -12.3916    8.8565   20.2303 C   0  0  2  0  0  0  0  0  0  0  0  0
  -11.4865    9.2124   21.3514 N   0  3  0  0  0  0  0  0  0  0  0  0
  -11.7635    7.8852   19.1865 C   0  0  2  0  0  0  0  0  0  0  0  0
  -12.7859    7.6149   18.0527 C   0  0  2  0  0  0  0  0  0  0  0  0
  -12.1650    6.8736   17.0305 O   0  0  0  0  0  0  0  0  0  0  0  0
  -13.2739    8.9328   17.4294 C   0  0  1  0  0  0  0  0  0  0  0  0
  -14.2343    8.6365   16.4162 O   0  0  0  0  0  0  0  0  0  0  0  0
  -14.3355    9.5262   15.3582 C   0  0  2  0  0  0  0  0  0  0  0  0
  -15.7984    9.5699   14.8848 C   0  0  2  0  0  0  0  0  0  0  0  0
  -16.6150    9.9898   15.9706 O   0  0  0  0  0  0  0  0  0  0  0  0
  -16.2264    8.1688   14.4142 C   0  0  1  0  0  0  0  0  0  0  0  0
  -17.6473    8.1442   13.9620 N   0  3  0  0  0  0  0  0  0  0  0  0
  -15.2843    7.7022   13.2776 C   0  0  2  0  0  0  0  0  0  0  0  0
  -15.6413    6.3939   12.8376 O   0  0  0  0  0  0  0  0  0  0  0  0
  -13.8201    7.7328   13.7541 C   0  0  2  0  0  0  0  0  0  0  0  0
  -13.4775    9.0656   14.2822 O   0  0  0  0  0  0  0  0  0  0  0  0
  -12.8491    7.4363   12.6329 C   0  0  0  0  0  0  0  0  0  0  0  0
  -13.0661    6.1407   12.0782 O   0  0  0  0  0  0  0  0  0  0  0  0
  1  2  1  1  0  0  0
  1  3  1  0  0  0  0
  1  9  1  0  0  0  0
  3  4  1  1  0  0  0
  3  5  1  0  0  0  0
  5  6  1  0  0  0  0
  6  7  1  1  0  0  0
  6  8  1  0  0  0  0
  8  9  1  0  0  0  0
  8 10  1  6  0  0  0
 10 11  1  0  0  0  0
 12 13  1  6  0  0  0
 12 14  1  0  0  0  0
 12 20  1  0  0  0  0
 14 15  1  0  0  0  0
 15 16  1  1  0  0  0
 15 17  1  0  0  0  0
 17  2  1  1  0  0  0
 17 18  1  0  0  0  0
 18 19  1  6  0  0  0
 18 20  1  0  0  0  0
 20 21  1  6  0  0  0
 22 21  1  1  0  0  0
 22 23  1  0  0  0  0
 22 30  1  0  0  0  0
 23 24  1  1  0  0  0
 23 25  1  0  0  0  0
 25 26  1  6  0  0  0
 25 27  1  0  0  0  0
 27 28  1  1  0  0  0
 27 29  1  0  0  0  0
 29 30  1  0  0  0  0
 29 31  1  6  0  0  0
 31 32  1  0  0  0  0
M  CHG  5   4   1  11   1  13   1  16   1  26   1
M  END
>  <CHROM.1>
-165.03113223,-156.75690646,177.95848408,-55.22658414,-63.60200770,57.67214588
72.43893339,49.20757612,-58.80546998,87.23372884,-146.89699771,175.55397928
175.95624675,-177.35371204,-60.63295036,-69.30818419,-12.48036454,7.52090184
17.74329177,-0.43097555,0.81700886,-2.28166225

>  <Name>
1lc4

>  <RI>
0

>  <Rbt.Current_Directory>
/home/afrankz/demos/rdock_decoys_rna/rnas/1lc4

>  <Rbt.Executable>
rbdock ($Id: //depot/dev/client3/rdock/2013.1/src/exe/rbdock.cxx#4 $)

>  <Rbt.Library>
libRbt.so (2013.1, Build901 2013/11/27)

>  <Rbt.Parameter_File>
/export/apps/rDock/src/rDock_2013.1_src/data/scripts/dock_solv.prm

>  <Rbt.Receptor>
prm/pocket_docking_2.prm

>  <SCORE>
-74.8041

>  <SCORE.INTER>
-50.2442

>  <SCORE.INTER.CONST>
1

>  <SCORE.INTER.POLAR>
-6.34337

>  <SCORE.INTER.ROT>
6

>  <SCORE.INTER.SOLV>
22.6432

>  <SCORE.INTER.VDW>
-27.4993

>  <SCORE.INTER.norm>
-1.57013

>  <SCORE.INTRA>
-24.9428

>  <SCORE.INTRA.DIHEDRAL>
-32.0672

>  <SCORE.INTRA.DIHEDRAL.0>
44.2576

>  <SCORE.INTRA.POLAR>
-1.66681

>  <SCORE.INTRA.POLAR.0>
-0.381556

>  <SCORE.INTRA.REPUL>
0

>  <SCORE.INTRA.REPUL.0>
0

>  <SCORE.INTRA.SOLV>
0.113412

>  <SCORE.INTRA.SOLV.lig_0>
-134.592

>  <SCORE.INTRA.VDW>
-3.29872

>  <SCORE.INTRA.VDW.0>
-1.01417

>  <SCORE.INTRA.norm>
-0.779461

>  <SCORE.RESTR>
0.382908

>  <SCORE.RESTR.CAVITY>
0.382908

>  <SCORE.RESTR.norm>
0.0119659

>  <SCORE.SYSTEM>
0

>  <SCORE.SYSTEM.CONST>
0

>  <SCORE.SYSTEM.DIHEDRAL>
0

>  <SCORE.SYSTEM.SOLV>
0

>  <SCORE.SYSTEM.norm>
0

>  <SCORE.heavy>
32

>  <SCORE.norm>
-2.33763

>  <RMSD>
0.724

$$$$
1lc4
 OpenBabel02141814113D
libRbt.so/2013.1/901 2013/11/27
 32 34  0  0  0  0  0  0  0  0999 V2000
  -10.5745    5.7131   19.2892 C   0  0  2  0  0  0  0  0  0  0  0  0
  -11.6134    6.5245   19.7774 O   0  0  0  0  0  0  0  0  0  0  0  0
  -10.8034    4.2779   19.8057 C   0  0  2  0  0  0  0  0  0  0  0  0
  -12.1128    3.7823   19.3706 N   0  3  0  0  0  0  0  0  0  0  0  0
  -10.6688    4.2391   21.3461 C   0  0  0  0  0  0  0  0  0  0  0  0
   -9.2566    4.7371   21.7001 C   0  0  2  0  0  0  0  0  0  0  0  0
   -9.0475    4.6806   23.1152 O   0  0  0  0  0  0  0  0  0  0  0  0
   -9.0724    6.1777   21.1615 C   0  0  2  0  0  0  0  0  0  0  0  0
   -9.2899    6.2126   19.7222 O   0  0  0  0  0  0  0  0  0  0  0  0
   -7.6793    6.7487   21.4140 C   0  0  0  0  0  0  0  0  0  0  0  0
   -7.6715    8.2289   21.2775 N   0  3  0  0  0  0  0  0  0  0  0  0
  -13.8969    9.9134   18.6543 C   0  0  2  0  0  0  0  0  0  0  0  0
  -14.3101   11.2053   18.0764 N   0  3  0  0  0  0  0  0  0  0  0  0
  -12.7728   10.1314   19.6579 C   0  0  0  0  0  0  0  0  0  0  0  0
  -12.3316    8.7942   20.2635 C   0  0  2  0  0  0  0  0  0  0  0  0
  -11.3225    9.0669   21.3170 N   0  3  0  0  0  0  0  0  0  0  0  0
  -11.8509    7.8054   19.1596 C   0  0  2  0  0  0  0  0  0  0  0  0
  -12.9719    7.6260   18.1037 C   0  0  2  0  0  0  0  0  0  0  0  0
  -12.4813    6.8666   17.0255 O   0  0  0  0  0  0  0  0  0  0  0  0
  -13.4163    8.9856   17.5402 C   0  0  1  0  0  0  0  0  0  0  0  0
  -14.4683    8.7738   16.5994 O   0  0  0  0  0  0  0  0  0  0  0  0
  -14.4407    9.5272   15.4362 C   0  0  2  0  0  0  0  0  0  0  0  0
  -15.8850    9.7569   14.9594 C   0  0  2  0  0  0  0  0  0  0  0  0
  -16.5974   10.4422   15.9817 O   0  0  0  0  0  0  0  0  0  0  0  0
  -16.5511    8.4001   14.6712 C   0  0  1  0  0  0  0  0  0  0  0  0
  -17.9649    8.5588   14.2241 N   0  3  0  0  0  0  0  0  0  0  0  0
  -15.7238    7.6417   13.6047 C   0  0  2  0  0  0  0  0  0  0  0  0
  -16.3039    6.3675   13.3350 O   0  0  0  0  0  0  0  0  0  0  0  0
  -14.2658    7.4847   14.0751 C   0  0  2  0  0  0  0  0  0  0  0  0
  -13.6941    8.7964   14.4289 O   0  0  0  0  0  0  0  0  0  0  0  0
  -13.3812    6.8895   13.0021 C   0  0  0  0  0  0  0  0  0  0  0  0
  -12.0143    7.2508   13.1874 O   0  0  0  0  0  0  0  0  0  0  0  0
  1  2  1  1  0  0  0
  1  3  1  0  0  0  0
  1  9  1  0  0  0  0
  3  4  1  1  0  0  0
  3  5  1  0  0  0  0
  5  6  1  0  0  0  0
  6  7  1  1  0  0  0
  6  8  1  0  0  0  0
  8  9  1  0  0  0  0
  8 10  1  6  0  0  0
 10 11  1  0  0  0  0
 12 13  1  6  0  0  0
 12 14  1  0  0  0  0
 12 20  1  0  0  0  0
 14 15  1  0  0  0  0
 15 16  1  1  0  0  0
 15 17  1  0  0  0  0
 17  2  1  1  0  0  0
 17 18  1  0  0  0  0
 18 19  1  6  0  0  0
 18 20  1  0  0  0  0
 20 21  1  6  0  0  0
 22 21  1  1  0  0  0
 22 23  1  0  0  0  0
 22 30  1  0  0  0  0
 23 24  1  1  0  0  0
 23 25  1  0  0  0  0
 25 26  1  6  0  0  0
 25 27  1  0  0  0  0
 27 28  1  1  0  0  0
 27 29  1  0  0  0  0
 29 30  1  0  0  0  0
 29 31  1  6  0  0  0
 31 32  1  0  0  0  0
M  CHG  5   4   1  11   1  13   1  16   1  26   1
M  END
>  <CHROM.1>
-163.03472561,-146.07845939,-176.28184348,-66.52537724,-162.27690941,-77.11625991
-56.07937126,52.99854175,75.61699763,99.15067979,-149.71187836,-71.00252959
60.97323323,-59.99959312,155.33468396,-69.66339874,-12.64983614,7.55730397
17.84606926,-0.23076429,0.85097915,-2.48131078

>  <Name>
1lc4

>  <RI>
0

>  <Rbt.Current_Directory>
/home/afrankz/demos/rdock_decoys_rna/rnas/1lc4

>  <Rbt.Executable>
rbdock ($Id: //depot/dev/client3/rdock/2013.1/src/exe/rbdock.cxx#4 $)

>  <Rbt.Library>
libRbt.so (2013.1, Build901 2013/11/27)

>  <Rbt.Parameter_File>
/export/apps/rDock/src/rDock_2013.1_src/data/scripts/dock_solv.prm

>  <Rbt.Receptor>
prm/pocket_docking_2.prm

>  <SCORE>
-73.0749

>  <SCORE.INTER>
-57.1131

>  <SCORE.INTER.CONST>
1

>  <SCORE.INTER.POLAR>
-8.3027

>  <SCORE.INTER.ROT>
6

>  <SCORE.INTER.SOLV>
27.3566

>  <SCORE.INTER.VDW>
-27.1186

>  <SCORE.INTER.norm>
-1.78478

>  <SCORE.INTRA>
-16.4193

>  <SCORE.INTRA.DIHEDRAL>
-23.3808

>  <SCORE.INTRA.DIHEDRAL.0>
44.2576

>  <SCORE.INTRA.POLAR>
-0.0570089

>  <SCORE.INTRA.POLAR.0>
-0.381556

>  <SCORE.INTRA.REPUL>
0

>  <SCORE.INTRA.REPUL.0>
0

>  <SCORE.INTRA.SOLV>
1.01858

>  <SCORE.INTRA.SOLV.lig_0>
-134.592

>  <SCORE.INTRA.VDW>
-5.04439

>  <SCORE.INTRA.VDW.0>
-1.01417

>  <SCORE.INTRA.norm>
-0.513104

>  <SCORE.RESTR>
0.457535

>  <SCORE.RESTR.CAVITY>
0.457535

>  <SCORE.RESTR.norm>
0.014298

>  <SCORE.SYSTEM>
0

>  <SCORE.SYSTEM.CONST>
0

>  <SCORE.SYSTEM.DIHEDRAL>
0

>  <SCORE.SYSTEM.SOLV>
0

>  <SCORE.SYSTEM.norm>
0

>  <SCORE.heavy>
32

>  <SCORE.norm>
-2.28359

>  <RMSD>
0.727

$$$$
1lc4
 OpenBabel02141814113D
libRbt.so/2013.1/901 2013/11/27
 32 34  0  0  0  0  0  0  0  0999 V2000
  -10.3203    5.7965   19.3650 C   0  0  2  0  0  0  0  0  0  0  0  0
  -11.3576    6.5914   19.8828 O   0  0  0  0  0  0  0  0  0  0  0  0
  -10.3967    4.4103   20.0371 C   0  0  2  0  0  0  0  0  0  0  0  0
  -11.7064    3.7975   19.7944 N   0  3  0  0  0  0  0  0  0  0  0  0
  -10.1046    4.5362   21.5508 C   0  0  0  0  0  0  0  0  0  0  0  0
   -8.7013    5.1490   21.7021 C   0  0  2  0  0  0  0  0  0  0  0  0
   -8.3467    5.2490   23.0854 O   0  0  0  0  0  0  0  0  0  0  0  0
   -8.6718    6.5357   21.0124 C   0  0  2  0  0  0  0  0  0  0  0  0
   -9.0358    6.4114   19.6080 O   0  0  0  0  0  0  0  0  0  0  0  0
   -7.3028    7.2097   21.0583 C   0  0  0  0  0  0  0  0  0  0  0  0
   -6.8902    7.4954   22.4575 N   0  3  0  0  0  0  0  0  0  0  0  0
  -13.6434   10.0032   18.8363 C   0  0  2  0  0  0  0  0  0  0  0  0
  -14.0527   11.3155   18.3032 N   0  3  0  0  0  0  0  0  0  0  0  0
  -12.5558   10.1875   19.8859 C   0  0  0  0  0  0  0  0  0  0  0  0
  -12.1188    8.8291   20.4455 C   0  0  2  0  0  0  0  0  0  0  0  0
  -11.1485    9.0646   21.5435 N   0  3  0  0  0  0  0  0  0  0  0  0
  -11.5900    7.8962   19.3152 C   0  0  2  0  0  0  0  0  0  0  0  0
  -12.6732    7.7529   18.2153 C   0  0  2  0  0  0  0  0  0  0  0  0
  -12.1380    7.0482   17.1213 O   0  0  0  0  0  0  0  0  0  0  0  0
  -13.1150    9.1317   17.6986 C   0  0  1  0  0  0  0  0  0  0  0  0
  -14.1326    8.9515   16.7144 O   0  0  0  0  0  0  0  0  0  0  0  0
  -14.1350    9.8236   15.6370 C   0  0  2  0  0  0  0  0  0  0  0  0
  -15.5868   10.0395   15.1765 C   0  0  2  0  0  0  0  0  0  0  0  0
  -16.3312   10.5818   16.2600 O   0  0  0  0  0  0  0  0  0  0  0  0
  -16.1920    8.6929   14.7427 C   0  0  1  0  0  0  0  0  0  0  0  0
  -17.6103    8.8364   14.3046 N   0  3  0  0  0  0  0  0  0  0  0  0
  -15.3295    8.0875   13.6084 C   0  0  2  0  0  0  0  0  0  0  0  0
  -15.8524    6.8248   13.2022 O   0  0  0  0  0  0  0  0  0  0  0  0
  -13.8673    7.9452   14.0701 C   0  0  2  0  0  0  0  0  0  0  0  0
  -13.3545    9.2359   14.5639 O   0  0  0  0  0  0  0  0  0  0  0  0
  -12.9546    7.5051   12.9470 C   0  0  0  0  0  0  0  0  0  0  0  0
  -13.3038    6.2103   12.4624 O   0  0  0  0  0  0  0  0  0  0  0  0
  1  2  1  1  0  0  0
  1  3  1  0  0  0  0
  1  9  1  0  0  0  0
  3  4  1  1  0  0  0
  3  5  1  0  0  0  0
  5  6  1  0  0  0  0
  6  7  1  1  0  0  0
  6  8  1  0  0  0  0
  8  9  1  0  0  0  0
  8 10  1  6  0  0  0
 10 11  1  0  0  0  0
 12 13  1  6  0  0  0
 12 14  1  0  0  0  0
 12 20  1  0  0  0  0
 14 15  1  0  0  0  0
 15 16  1  1  0  0  0
 15 17  1  0  0  0  0
 17  2  1  1  0  0  0
 17 18  1  0  0  0  0
 18 19  1  6  0  0  0
 18 20  1  0  0  0  0
 20 21  1  6  0  0  0
 22 21  1  1  0  0  0
 22 23  1  0  0  0  0
 22 30  1  0  0  0  0
 23 24  1  1  0  0  0
 23 25  1  0  0  0  0
 25 26  1  6  0  0  0
 25 27  1  0  0  0  0
 27 28  1  1  0  0  0
 27 29  1  0  0  0  0
 29 30  1  0  0  0  0
 29 31  1  6  0  0  0
 31 32  1  0  0  0  0
M  CHG  5   4   1  11   1  13   1  16   1  26   1
M  END
>  <CHROM.1>
-173.73704459,-148.08878412,-176.33002921,-51.31083766,-63.14259406,48.91948170
-52.63136082,58.40407385,69.91961744,94.40310512,-148.04679067,177.51711360
60.71832873,-55.86462537,-63.09056898,53.10609738,-12.34882003,7.71529450
17.95327610,-0.32232212,0.82798835,-2.37447377

>  <Name>
1lc4

>  <RI>
0

>  <Rbt.Current_Directory>
/home/afrankz/demos/rdock_decoys_rna/rnas/1lc4

>  <Rbt.Executable>
rbdock ($Id: //depot/dev/client3/rdock/2013.1/src/exe/rbdock.cxx#4 $)

>  <Rbt.Library>
libRbt.so (2013.1, Build901 2013/11/27)

>  <Rbt.Parameter_File>
/export/apps/rDock/src/rDock_2013.1_src/data/scripts/dock_solv.prm

>  <Rbt.Receptor>
prm/pocket_docking_5.prm

>  <SCORE>
-74.9891

>  <SCORE.INTER>
-50.4358

>  <SCORE.INTER.CONST>
1

>  <SCORE.INTER.POLAR>
-6.20202

>  <SCORE.INTER.ROT>
6

>  <SCORE.INTER.SOLV>
24.9464

>  <SCORE.INTER.VDW>
-28.866

>  <SCORE.INTER.norm>
-1.57612

>  <SCORE.INTRA>
-24.5643

>  <SCORE.INTRA.DIHEDRAL>
-29.8996

>  <SCORE.INTRA.DIHEDRAL.0>
44.2576

>  <SCORE.INTRA.POLAR>
-1.79244

>  <SCORE.INTRA.POLAR.0>
-0.381556

>  <SCORE.INTRA.REPUL>
0

>  <SCORE.INTRA.REPUL.0>
0

>  <SCORE.INTRA.SOLV>
1.04539

>  <SCORE.INTRA.SOLV.lig_0>
-134.592

>  <SCORE.INTRA.VDW>
-4.04293

>  <SCORE.INTRA.VDW.0>
-1.01417

>  <SCORE.INTRA.norm>
-0.767635

>  <SCORE.RESTR>
0.0110601

>  <SCORE.RESTR.CAVITY>
0.0110601

>  <SCORE.RESTR.norm>
0.000345629

>  <SCORE.SYSTEM>
0

>  <SCORE.SYSTEM.CONST>
0

>  <SCORE.SYSTEM.DIHEDRAL>
0

>  <SCORE.SYSTEM.SOLV>
0

>  <SCORE.SYSTEM.norm>
0

>  <SCORE.heavy>
32

>  <SCORE.norm>
-2.34341

>  <RMSD>
0.729

$$$$
1lc4
 OpenBabel02141814113D
libRbt.so/2013.1/901 2013/11/27
 32 34  0  0  0  0  0  0  0  0999 V2000
   -9.8223    5.7791   19.7707 C   0  0  2  0  0  0  0  0  0  0  0  0
  -10.8915    6.5701   20.2259 O   0  0  0  0  0  0  0  0  0  0  0  0
   -9.8517    4.4433   20.5411 C   0  0  2  0  0  0  0  0  0  0  0  0
  -11.1363    3.7662   20.3390 N   0  3  0  0  0  0  0  0  0  0  0  0
   -9.5737    4.6890   22.0428 C   0  0  0  0  0  0  0  0  0  0  0  0
   -8.1949    5.3630   22.1541 C   0  0  2  0  0  0  0  0  0  0  0  0
   -7.8527    5.5758   23.5277 O   0  0  0  0  0  0  0  0  0  0  0  0
   -8.2124    6.6963   21.3658 C   0  0  2  0  0  0  0  0  0  0  0  0
   -8.5629    6.4574   19.9729 O   0  0  0  0  0  0  0  0  0  0  0  0
   -6.8695    7.4224   21.3675 C   0  0  0  0  0  0  0  0  0  0  0  0
   -6.5116    7.8889   22.7328 N   0  3  0  0  0  0  0  0  0  0  0  0
  -13.3451    9.7126   18.7890 C   0  0  2  0  0  0  0  0  0  0  0  0
  -13.8121   10.9504   18.1383 N   0  3  0  0  0  0  0  0  0  0  0  0
  -12.3541   10.0513   19.8943 C   0  0  0  0  0  0  0  0  0  0  0  0
  -11.8581    8.7715   20.5766 C   0  0  2  0  0  0  0  0  0  0  0  0
  -10.9911    9.1549   21.7184 N   0  3  0  0  0  0  0  0  0  0  0  0
  -11.1793    7.8125   19.5534 C   0  0  2  0  0  0  0  0  0  0  0  0
  -12.1654    7.5117   18.3954 C   0  0  2  0  0  0  0  0  0  0  0  0
  -11.5002    6.7824   17.3925 O   0  0  0  0  0  0  0  0  0  0  0  0
  -12.6709    8.8142   17.7540 C   0  0  1  0  0  0  0  0  0  0  0  0
  -13.5975    8.4894   16.7183 O   0  0  0  0  0  0  0  0  0  0  0  0
  -13.2336    8.8064   15.4189 C   0  0  2  0  0  0  0  0  0  0  0  0
  -14.4398    9.4421   14.7068 C   0  0  2  0  0  0  0  0  0  0  0  0
  -14.8224   10.6124   15.4181 O   0  0  0  0  0  0  0  0  0  0  0  0
  -15.6052    8.4377   14.6782 C   0  0  1  0  0  0  0  0  0  0  0  0
  -16.8141    9.0077   14.0166 N   0  3  0  0  0  0  0  0  0  0  0  0
  -15.1479    7.1455   13.9585 C   0  0  2  0  0  0  0  0  0  0  0  0
  -16.2011    6.1846   13.9388 O   0  0  0  0  0  0  0  0  0  0  0  0
  -13.8987    6.5662   14.6481 C   0  0  2  0  0  0  0  0  0  0  0  0
  -12.8392    7.5870   14.7380 O   0  0  0  0  0  0  0  0  0  0  0  0
  -13.3210    5.3921   13.8893 C   0  0  0  0  0  0  0  0  0  0  0  0
  -12.9620    5.7523   12.5571 O   0  0  0  0  0  0  0  0  0  0  0  0
  1  2  1  1  0  0  0
  1  3  1  0  0  0  0
  1  9  1  0  0  0  0
  3  4  1  1  0  0  0
  3  5  1  0  0  0  0
  5  6  1  0  0  0  0
  6  7  1  1  0  0  0
  6  8  1  0  0  0  0
  8  9  1  0  0  0  0
  8 10  1  6  0  0  0
 10 11  1  0  0  0  0
 12 13  1  6  0  0  0
 12 14  1  0  0  0  0
 12 20  1  0  0  0  0
 14 15  1  0  0  0  0
 15 16  1  1  0  0  0
 15 17  1  0  0  0  0
 17  2  1  1  0  0  0
 17 18  1  0  0  0  0
 18 19  1  6  0  0  0
 18 20  1  0  0  0  0
 20 21  1  6  0  0  0
 22 21  1  1  0  0  0
 22 23  1  0  0  0  0
 22 30  1  0  0  0  0
 23 24  1  1  0  0  0
 23 25  1  0  0  0  0
 25 26  1  6  0  0  0
 25 27  1  0  0  0  0
 27 28  1  1  0  0  0
 27 29  1  0  0  0  0
 29 30  1  0  0  0  0
 29 31  1  6  0  0  0
 31 32  1  0  0  0  0
M  CHG  5   4   1  11   1  13   1  16   1  26   1
M  END
>  <CHROM.1>
-172.92578248,-152.86788312,65.95042186,-51.39605090,-66.24619042,172.96842324
-55.20929439,-59.47146154,-170.72644827,123.47984994,-135.80953044,65.87212263
61.81395800,66.77144566,58.62701001,172.08431652,-11.89694697,7.43426950
18.14179103,-0.27848775,0.84937687,-2.56194409

>  <Name>
1lc4

>  <RI>
0

>  <Rbt.Current_Directory>
/home/afrankz/demos/rdock_decoys_rna/rnas/1lc4

>  <Rbt.Executable>
rbdock ($Id: //depot/dev/client3/rdock/2013.1/src/exe/rbdock.cxx#4 $)

>  <Rbt.Library>
libRbt.so (2013.1, Build901 2013/11/27)

>  <Rbt.Parameter_File>
/export/apps/rDock/src/rDock_2013.1_src/data/scripts/dock_solv.prm

>  <Rbt.Receptor>
prm/pocket_docking_5.prm

>  <SCORE>
-71.6661

>  <SCORE.INTER>
-49.9843

>  <SCORE.INTER.CONST>
1

>  <SCORE.INTER.POLAR>
-6.93459

>  <SCORE.INTER.ROT>
6

>  <SCORE.INTER.SOLV>
27.5593

>  <SCORE.INTER.VDW>
-26.994

>  <SCORE.INTER.norm>
-1.56201

>  <SCORE.INTRA>
-21.6818

>  <SCORE.INTRA.DIHEDRAL>
-25.8021

>  <SCORE.INTRA.DIHEDRAL.0>
44.2576

>  <SCORE.INTRA.POLAR>
-1.31423

>  <SCORE.INTRA.POLAR.0>
-0.381556

>  <SCORE.INTRA.REPUL>
0

>  <SCORE.INTRA.REPUL.0>
0

>  <SCORE.INTRA.SOLV>
0.400228

>  <SCORE.INTRA.SOLV.lig_0>
-134.592

>  <SCORE.INTRA.VDW>
-4.51247

>  <SCORE.INTRA.VDW.0>
-1.01417

>  <SCORE.INTRA.norm>
-0.677557

>  <SCORE.RESTR>
0

>  <SCORE.RESTR.CAVITY>
0

>  <SCORE.RESTR.norm>
0

>  <SCORE.SYSTEM>
0

>  <SCORE.SYSTEM.CONST>
0

>  <SCORE.SYSTEM.DIHEDRAL>
0

>  <SCORE.SYSTEM.SOLV>
0

>  <SCORE.SYSTEM.norm>
0

>  <SCORE.heavy>
32

>  <SCORE.norm>
-2.23957

>  <RMSD>
0.733

$$$$
1lc4
 OpenBabel02141814113D
libRbt.so/2013.1/901 2013/11/27
 32 34  0  0  0  0  0  0  0  0999 V2000
  -10.2000    6.0726   19.4693 C   0  0  2  0  0  0  0  0  0  0  0  0
  -11.3917    6.7269   19.8270 O   0  0  0  0  0  0  0  0  0  0  0  0
  -10.2766    4.6207   19.9842 C   0  0  2  0  0  0  0  0  0  0  0  0
  -11.4458    3.9402   19.4190 N   0  3  0  0  0  0  0  0  0  0  0  0
  -10.3080    4.6056   21.5306 C   0  0  0  0  0  0  0  0  0  0  0  0
   -9.0292    5.3031   22.0265 C   0  0  2  0  0  0  0  0  0  0  0  0
   -8.9710    5.2810   23.4566 O   0  0  0  0  0  0  0  0  0  0  0  0
   -8.9950    6.7538   21.4845 C   0  0  2  0  0  0  0  0  0  0  0  0
   -9.0556    6.7533   20.0298 O   0  0  0  0  0  0  0  0  0  0  0  0
   -7.7342    7.5205   21.8761 C   0  0  0  0  0  0  0  0  0  0  0  0
   -6.6248    7.2546   20.9230 N   0  3  0  0  0  0  0  0  0  0  0  0
  -13.8102   10.0467   18.7832 C   0  0  2  0  0  0  0  0  0  0  0  0
  -14.2702   11.3438   18.2542 N   0  3  0  0  0  0  0  0  0  0  0  0
  -12.7378   10.2702   19.8407 C   0  0  0  0  0  0  0  0  0  0  0  0
  -12.2484    8.9281   20.3962 C   0  0  2  0  0  0  0  0  0  0  0  0
  -11.2956    9.1977   21.5016 N   0  3  0  0  0  0  0  0  0  0  0  0
  -11.6743    8.0240   19.2646 C   0  0  2  0  0  0  0  0  0  0  0  0
  -12.7437    7.8419   18.1570 C   0  0  2  0  0  0  0  0  0  0  0  0
  -12.1730    7.1658   17.0628 O   0  0  0  0  0  0  0  0  0  0  0  0
  -13.2391    9.2040   17.6445 C   0  0  1  0  0  0  0  0  0  0  0  0
  -14.2422    8.9871   16.6528 O   0  0  0  0  0  0  0  0  0  0  0  0
  -14.2697    9.8601   15.5765 C   0  0  2  0  0  0  0  0  0  0  0  0
  -15.7268   10.0320   15.1142 C   0  0  2  0  0  0  0  0  0  0  0  0
  -16.4890   10.5500   16.1972 O   0  0  0  0  0  0  0  0  0  0  0  0
  -16.2899    8.6681   14.6778 C   0  0  1  0  0  0  0  0  0  0  0  0
  -17.7113    8.7687   14.2378 N   0  3  0  0  0  0  0  0  0  0  0  0
  -15.4077    8.0908   13.5440 C   0  0  2  0  0  0  0  0  0  0  0  0
  -15.8911    6.8132   13.1355 O   0  0  0  0  0  0  0  0  0  0  0  0
  -13.9424    7.9928   14.0077 C   0  0  2  0  0  0  0  0  0  0  0  0
  -13.4701    9.2979   14.5038 O   0  0  0  0  0  0  0  0  0  0  0  0
  -13.0151    7.5823   12.8854 C   0  0  0  0  0  0  0  0  0  0  0  0
  -13.2594    6.2417   12.4651 O   0  0  0  0  0  0  0  0  0  0  0  0
  1  2  1  1  0  0  0
  1  3  1  0  0  0  0
  1  9  1  0  0  0  0
  3  4  1  6  0  0  0
  3  5  1  0  0  0  0
  5  6  1  0  0  0  0
  6  7  1  1  0  0  0
  6  8  1  0  0  0  0
  8  9  1  0  0  0  0
  8 10  1  6  0  0  0
 10 11  1  0  0  0  0
 12 13  1  6  0  0  0
 12 14  1  0  0  0  0
 12 20  1  0  0  0  0
 14 15  1  0  0  0  0
 15 16  1  1  0  0  0
 15 17  1  0  0  0  0
 17  2  1  1  0  0  0
 17 18  1  0  0  0  0
 18 19  1  6  0  0  0
 18 20  1  0  0  0  0
 20 21  1  6  0  0  0
 22 21  1  1  0  0  0
 22 23  1  0  0  0  0
 22 30  1  0  0  0  0
 23 24  1  1  0  0  0
 23 25  1  0  0  0  0
 25 26  1  6  0  0  0
 25 27  1  0  0  0  0
 27 28  1  1  0  0  0
 27 29  1  0  0  0  0
 29 30  1  0  0  0  0
 29 31  1  6  0  0  0
 31 32  1  0  0  0  0
M  CHG  5   4   1  11   1  13   1  16   1  26   1
M  END
>  <CHROM.1>
-169.28997960,-137.87979633,-175.54216775,62.93297664,85.22606042,-45.43404599
-170.61623619,171.28298920,62.81393816,94.71738013,-147.52877849,-73.52212526
-50.74079276,63.71633712,-67.38988605,53.34658112,-12.44995034,7.78806360
17.91691469,-0.38987003,0.81195434,-2.29692686

>  <Name>
1lc4

>  <RI>
0

>  <Rbt.Current_Directory>
/home/afrankz/demos/rdock_decoys_rna/rnas/1lc4

>  <Rbt.Executable>
rbdock ($Id: //depot/dev/client3/rdock/2013.1/src/exe/rbdock.cxx#4 $)

>  <Rbt.Library>
libRbt.so (2013.1, Build901 2013/11/27)

>  <Rbt.Parameter_File>
/export/apps/rDock/src/rDock_2013.1_src/data/scripts/dock_solv.prm

>  <Rbt.Receptor>
prm/pocket_docking_7.prm

>  <SCORE>
-69.7806

>  <SCORE.INTER>
-50.7441

>  <SCORE.INTER.CONST>
1

>  <SCORE.INTER.POLAR>
-6.90071

>  <SCORE.INTER.ROT>
6

>  <SCORE.INTER.SOLV>
33.6171

>  <SCORE.INTER.VDW>
-29.6327

>  <SCORE.INTER.norm>
-1.58575

>  <SCORE.INTRA>
-19.0366

>  <SCORE.INTRA.DIHEDRAL>
-24.7754

>  <SCORE.INTRA.DIHEDRAL.0>
44.2576

>  <SCORE.INTRA.POLAR>
-0.827592

>  <SCORE.INTRA.POLAR.0>
-0.381556

>  <SCORE.INTRA.REPUL>
0

>  <SCORE.INTRA.REPUL.0>
0

>  <SCORE.INTRA.SOLV>
1.28715

>  <SCORE.INTRA.SOLV.lig_0>
-134.592

>  <SCORE.INTRA.VDW>
-4.4786

>  <SCORE.INTRA.VDW.0>
-1.01417

>  <SCORE.INTRA.norm>
-0.594892

>  <SCORE.RESTR>
0

>  <SCORE.RESTR.CAVITY>
0

>  <SCORE.RESTR.norm>
0

>  <SCORE.SYSTEM>
0

>  <SCORE.SYSTEM.CONST>
0

>  <SCORE.SYSTEM.DIHEDRAL>
0

>  <SCORE.SYSTEM.SOLV>
0

>  <SCORE.SYSTEM.norm>
0

>  <SCORE.heavy>
32

>  <SCORE.norm>
-2.18064

>  <RMSD>
0.740

$$$$
1lc4
 OpenBabel02141814113D
libRbt.so/2013.1/901 2013/11/27
 32 34  0  0  0  0  0  0  0  0999 V2000
  -10.1714    5.8262   19.4661 C   0  0  2  0  0  0  0  0  0  0  0  0
  -11.2895    6.5755   19.8716 O   0  0  0  0  0  0  0  0  0  0  0  0
  -10.3960    4.3606   19.8912 C   0  0  2  0  0  0  0  0  0  0  0  0
  -11.6291    3.8396   19.2931 N   0  3  0  0  0  0  0  0  0  0  0  0
  -10.4280    4.2531   21.4339 C   0  0  0  0  0  0  0  0  0  0  0  0
   -9.0842    4.7840   21.9629 C   0  0  2  0  0  0  0  0  0  0  0  0
   -9.0278    4.6676   23.3886 O   0  0  0  0  0  0  0  0  0  0  0  0
   -8.9018    6.2544   21.5112 C   0  0  2  0  0  0  0  0  0  0  0  0
   -8.9630    6.3503   20.0596 O   0  0  0  0  0  0  0  0  0  0  0  0
   -7.5688    6.8624   21.9405 C   0  0  0  0  0  0  0  0  0  0  0  0
   -7.7411    7.7681   23.1066 N   0  3  0  0  0  0  0  0  0  0  0  0
  -13.8051    9.5973   18.2903 C   0  0  2  0  0  0  0  0  0  0  0  0
  -14.2930   10.8116   17.6112 N   0  3  0  0  0  0  0  0  0  0  0  0
  -12.8962    9.9825   19.4495 C   0  0  0  0  0  0  0  0  0  0  0  0
  -12.3791    8.7277   20.1618 C   0  0  2  0  0  0  0  0  0  0  0  0
  -11.5980    9.1516   21.3504 N   0  3  0  0  0  0  0  0  0  0  0  0
  -11.5978    7.8030   19.1810 C   0  0  2  0  0  0  0  0  0  0  0  0
  -12.5006    7.4557   17.9694 C   0  0  2  0  0  0  0  0  0  0  0  0
  -11.7450    6.7598   17.0077 O   0  0  0  0  0  0  0  0  0  0  0  0
  -13.0306    8.7328   17.2974 C   0  0  1  0  0  0  0  0  0  0  0  0
  -13.8799    8.3645   16.2112 O   0  0  0  0  0  0  0  0  0  0  0  0
  -13.6693    8.9997   14.9973 C   0  0  2  0  0  0  0  0  0  0  0  0
  -15.0182    9.1440   14.2722 C   0  0  2  0  0  0  0  0  0  0  0  0
  -15.8945    9.9085   15.0906 O   0  0  0  0  0  0  0  0  0  0  0  0
  -15.6157    7.7487   14.0195 C   0  0  1  0  0  0  0  0  0  0  0  0
  -16.9388    7.8261   13.3358 N   0  3  0  0  0  0  0  0  0  0  0  0
  -14.6181    6.9100   13.1837 C   0  0  2  0  0  0  0  0  0  0  0  0
  -15.1345    5.6010   12.9547 O   0  0  0  0  0  0  0  0  0  0  0  0
  -13.2554    6.8378   13.8973 C   0  0  2  0  0  0  0  0  0  0  0  0
  -12.7613    8.1923   14.2037 O   0  0  0  0  0  0  0  0  0  0  0  0
  -12.2017    6.1624   13.0478 C   0  0  0  0  0  0  0  0  0  0  0  0
  -12.6679    4.9230   12.5187 O   0  0  0  0  0  0  0  0  0  0  0  0
  1  2  1  1  0  0  0
  1  3  1  0  0  0  0
  1  9  1  0  0  0  0
  3  4  1  6  0  0  0
  3  5  1  0  0  0  0
  5  6  1  0  0  0  0
  6  7  1  1  0  0  0
  6  8  1  0  0  0  0
  8  9  1  0  0  0  0
  8 10  1  6  0  0  0
 10 11  1  0  0  0  0
 12 13  1  6  0  0  0
 12 14  1  0  0  0  0
 12 20  1  0  0  0  0
 14 15  1  0  0  0  0
 15 16  1  1  0  0  0
 15 17  1  0  0  0  0
 17  2  1  1  0  0  0
 17 18  1  0  0  0  0
 18 19  1  6  0  0  0
 18 20  1  0  0  0  0
 20 21  1  6  0  0  0
 22 21  1  1  0  0  0
 22 23  1  0  0  0  0
 22 30  1  0  0  0  0
 23 24  1  1  0  0  0
 23 25  1  0  0  0  0
 25 26  1  6  0  0  0
 25 27  1  0  0  0  0
 27 28  1  1  0  0  0
 27 29  1  0  0  0  0
 29 30  1  0  0  0  0
 29 31  1  6  0  0  0
 31 32  1  0  0  0  0
M  CHG  5   4   1  11   1  13   1  16   1  26   1
M  END
>  <CHROM.1>
-155.96594471,-153.85229387,72.78939160,-178.73361196,-102.94748292,-77.78124787
64.05503993,171.31110969,-55.44795502,106.08941511,-147.37582159,112.52225925
46.22748909,79.08378273,-49.46340179,-173.14144456,-12.22376174,7.22253629
17.73751401,-0.47322595,0.89323190,-2.35856926

>  <Name>
1lc4

>  <RI>
0

>  <Rbt.Current_Directory>
/home/afrankz/demos/rdock_decoys_rna/rnas/1lc4

>  <Rbt.Executable>
rbdock ($Id: //depot/dev/client3/rdock/2013.1/src/exe/rbdock.cxx#4 $)

>  <Rbt.Library>
libRbt.so (2013.1, Build901 2013/11/27)

>  <Rbt.Parameter_File>
/export/apps/rDock/src/rDock_2013.1_src/data/scripts/dock_solv.prm

>  <Rbt.Receptor>
prm/pocket_docking_2.prm

>  <SCORE>
-65.832

>  <SCORE.INTER>
-52.3318

>  <SCORE.INTER.CONST>
1

>  <SCORE.INTER.POLAR>
-7.56094

>  <SCORE.INTER.ROT>
6

>  <SCORE.INTER.SOLV>
21.9966

>  <SCORE.INTER.VDW>
-24.617

>  <SCORE.INTER.norm>
-1.63537

>  <SCORE.INTRA>
-13.829

>  <SCORE.INTRA.DIHEDRAL>
-13.0611

>  <SCORE.INTRA.DIHEDRAL.0>
44.2576

>  <SCORE.INTRA.POLAR>
-0.815618

>  <SCORE.INTRA.POLAR.0>
-0.381556

>  <SCORE.INTRA.REPUL>
0

>  <SCORE.INTRA.REPUL.0>
0

>  <SCORE.INTRA.SOLV>
-0.716171

>  <SCORE.INTRA.SOLV.lig_0>
-134.592

>  <SCORE.INTRA.VDW>
-4.16726

>  <SCORE.INTRA.VDW.0>
-1.01417

>  <SCORE.INTRA.norm>
-0.432156

>  <SCORE.RESTR>
0.328862

>  <SCORE.RESTR.CAVITY>
0.328862

>  <SCORE.RESTR.norm>
0.0102769

>  <SCORE.SYSTEM>
0

>  <SCORE.SYSTEM.CONST>
0

>  <SCORE.SYSTEM.DIHEDRAL>
0

>  <SCORE.SYSTEM.SOLV>
0

>  <SCORE.SYSTEM.norm>
0

>  <SCORE.heavy>
32

>  <SCORE.norm>
-2.05725

>  <RMSD>
0.744

$$$$
1lc4
 OpenBabel02141814113D
libRbt.so/2013.1/901 2013/11/27
 32 34  0  0  0  0  0  0  0  0999 V2000
  -10.3481    6.1125   19.3172 C   0  0  2  0  0  0  0  0  0  0  0  0
  -11.5181    6.7962   19.6906 O   0  0  0  0  0  0  0  0  0  0  0  0
  -10.4442    4.6691   19.8524 C   0  0  2  0  0  0  0  0  0  0  0  0
  -11.6387    4.0064   19.3200 N   0  3  0  0  0  0  0  0  0  0  0  0
  -10.4439    4.6741   21.3992 C   0  0  0  0  0  0  0  0  0  0  0  0
   -9.1408    5.3505   21.8597 C   0  0  2  0  0  0  0  0  0  0  0  0
   -9.0535    5.3452   23.2885 O   0  0  0  0  0  0  0  0  0  0  0  0
   -9.0875    6.7933   21.2984 C   0  0  2  0  0  0  0  0  0  0  0  0
   -9.1783    6.7758   19.8453 O   0  0  0  0  0  0  0  0  0  0  0  0
   -7.8032    7.5380   21.6541 C   0  0  0  0  0  0  0  0  0  0  0  0
   -6.6841    7.1377   20.7614 N   0  3  0  0  0  0  0  0  0  0  0  0
  -14.0071    9.9832   18.4226 C   0  0  2  0  0  0  0  0  0  0  0  0
  -14.4914   11.2390   17.8205 N   0  3  0  0  0  0  0  0  0  0  0  0
  -12.9758   10.2900   19.4999 C   0  0  0  0  0  0  0  0  0  0  0  0
  -12.4615    8.9915   20.1313 C   0  0  2  0  0  0  0  0  0  0  0  0
  -11.5525    9.3425   21.2508 N   0  3  0  0  0  0  0  0  0  0  0  0
  -11.8241    8.0564   19.0605 C   0  0  2  0  0  0  0  0  0  0  0  0
  -12.8523    7.7887   17.9314 C   0  0  2  0  0  0  0  0  0  0  0  0
  -12.2266    7.0829   16.8872 O   0  0  0  0  0  0  0  0  0  0  0  0
  -13.3744    9.1090   17.3417 C   0  0  1  0  0  0  0  0  0  0  0  0
  -14.3389    8.8141   16.3319 O   0  0  0  0  0  0  0  0  0  0  0  0
  -14.4217    9.6878   15.2590 C   0  0  2  0  0  0  0  0  0  0  0  0
  -15.8813    9.7446   14.7769 C   0  0  2  0  0  0  0  0  0  0  0  0
  -16.6975   10.1939   15.8512 O   0  0  0  0  0  0  0  0  0  0  0  0
  -16.3269    8.3423   14.3268 C   0  0  1  0  0  0  0  0  0  0  0  0
  -17.7456    8.3307   13.8672 N   0  3  0  0  0  0  0  0  0  0  0  0
  -15.3856    7.8438   13.2031 C   0  0  2  0  0  0  0  0  0  0  0  0
  -15.7591    6.5337   12.7825 O   0  0  0  0  0  0  0  0  0  0  0  0
  -13.9237    7.8612   13.6871 C   0  0  2  0  0  0  0  0  0  0  0  0
  -13.5647    9.1974   14.1954 O   0  0  0  0  0  0  0  0  0  0  0  0
  -12.9511    7.5326   12.5763 C   0  0  0  0  0  0  0  0  0  0  0  0
  -13.1881    6.2340   12.0370 O   0  0  0  0  0  0  0  0  0  0  0  0
  1  2  1  1  0  0  0
  1  3  1  0  0  0  0
  1  9  1  0  0  0  0
  3  4  1  6  0  0  0
  3  5  1  0  0  0  0
  5  6  1  0  0  0  0
  6  7  1  1  0  0  0
  6  8  1  0  0  0  0
  8  9  1  0  0  0  0
  8 10  1  6  0  0  0
 10 11  1  0  0  0  0
 12 13  1  6  0  0  0
 12 14  1  0  0  0  0
 12 20  1  0  0  0  0
 14 15  1  0  0  0  0
 15 16  1  1  0  0  0
 15 17  1  0  0  0  0
 17  2  1  1  0  0  0
 17 18  1  0  0  0  0
 18 19  1  6  0  0  0
 18 20  1  0  0  0  0
 20 21  1  6  0  0  0
 22 21  1  1  0  0  0
 22 23  1  0  0  0  0
 22 30  1  0  0  0  0
 23 24  1  1  0  0  0
 23 25  1  0  0  0  0
 25 26  1  6  0  0  0
 25 27  1  0  0  0  0
 27 28  1  1  0  0  0
 27 29  1  0  0  0  0
 29 30  1  0  0  0  0
 29 31  1  6  0  0  0
 31 32  1  0  0  0  0
M  CHG  5   4   1  11   1  13   1  16   1  26   1
M  END
>  <CHROM.1>
-165.76392664,-143.05984970,177.59270920,61.29582080,79.77206042,-159.68850562
70.37974071,164.83065606,-176.14498353,90.48187816,-147.24455892,-71.75912514
-60.99928593,-166.91617023,-60.33885746,-179.14947508,-12.54844194,7.71336322
17.65001666,-0.47350841,0.79293954,-2.23163097

>  <Name>
1lc4

>  <RI>
0

>  <Rbt.Current_Directory>
/home/afrankz/demos/rdock_decoys_rna/rnas/1lc4

>  <Rbt.Executable>
rbdock ($Id: //depot/dev/client3/rdock/2013.1/src/exe/rbdock.cxx#4 $)

>  <Rbt.Library>
libRbt.so (2013.1, Build901 2013/11/27)

>  <Rbt.Parameter_File>
/export/apps/rDock/src/rDock_2013.1_src/data/scripts/dock_solv.prm

>  <Rbt.Receptor>
prm/pocket_docking_6.prm

>  <SCORE>
-69.6613

>  <SCORE.INTER>
-50.0599

>  <SCORE.INTER.CONST>
1

>  <SCORE.INTER.POLAR>
-7.13784

>  <SCORE.INTER.ROT>
6

>  <SCORE.INTER.SOLV>
33.2963

>  <SCORE.INTER.VDW>
-28.2793

>  <SCORE.INTER.norm>
-1.56437

>  <SCORE.INTRA>
-19.7439

>  <SCORE.INTRA.DIHEDRAL>
-25.9373

>  <SCORE.INTRA.DIHEDRAL.0>
44.2576

>  <SCORE.INTRA.POLAR>
-0.966521

>  <SCORE.INTRA.POLAR.0>
-0.381556

>  <SCORE.INTRA.REPUL>
0

>  <SCORE.INTRA.REPUL.0>
0

>  <SCORE.INTRA.SOLV>
0.249392

>  <SCORE.INTRA.SOLV.lig_0>
-134.592

>  <SCORE.INTRA.VDW>
-3.61373

>  <SCORE.INTRA.VDW.0>
-1.01417

>  <SCORE.INTRA.norm>
-0.616996

>  <SCORE.RESTR>
0.142454

>  <SCORE.RESTR.CAVITY>
0.142454

>  <SCORE.RESTR.norm>
0.00445169

>  <SCORE.SYSTEM>
0

>  <SCORE.SYSTEM.CONST>
0

>  <SCORE.SYSTEM.DIHEDRAL>
0

>  <SCORE.SYSTEM.SOLV>
0

>  <SCORE.SYSTEM.norm>
0

>  <SCORE.heavy>
32

>  <SCORE.norm>
-2.17692

>  <RMSD>
0.744

$$$$
1lc4
 OpenBabel02141814113D
libRbt.so/2013.1/901 2013/11/27
 32 34  0  0  0  0  0  0  0  0999 V2000
  -10.1138    5.7128   19.5150 C   0  0  2  0  0  0  0  0  0  0  0  0
  -11.1477    6.5371   19.9920 O   0  0  0  0  0  0  0  0  0  0  0  0
  -10.2028    4.3586   20.2480 C   0  0  2  0  0  0  0  0  0  0  0  0
  -11.5158    3.7446   20.0271 N   0  3  0  0  0  0  0  0  0  0  0  0
   -9.9162    4.5500   21.7559 C   0  0  0  0  0  0  0  0  0  0  0  0
   -8.5093    5.1594   21.8860 C   0  0  2  0  0  0  0  0  0  0  0  0
   -8.1598    5.3187   23.2650 O   0  0  0  0  0  0  0  0  0  0  0  0
   -8.4671    6.5136   21.1351 C   0  0  2  0  0  0  0  0  0  0  0  0
   -8.8261    6.3291   19.7361 O   0  0  0  0  0  0  0  0  0  0  0  0
   -7.0935    7.1795   21.1570 C   0  0  0  0  0  0  0  0  0  0  0  0
   -6.7137    7.5845   22.5359 N   0  3  0  0  0  0  0  0  0  0  0  0
  -13.6652    9.5589   18.4136 C   0  0  2  0  0  0  0  0  0  0  0  0
  -14.1555   10.7641   17.7202 N   0  3  0  0  0  0  0  0  0  0  0  0
  -12.7163    9.9575   19.5357 C   0  0  0  0  0  0  0  0  0  0  0  0
  -12.1964    8.7121   20.2624 C   0  0  2  0  0  0  0  0  0  0  0  0
  -11.3739    9.1521   21.4167 N   0  3  0  0  0  0  0  0  0  0  0  0
  -11.4586    7.7525   19.2815 C   0  0  2  0  0  0  0  0  0  0  0  0
  -12.4025    7.3906   18.1059 C   0  0  2  0  0  0  0  0  0  0  0  0
  -11.6864    6.6606   17.1393 O   0  0  0  0  0  0  0  0  0  0  0  0
  -12.9336    8.6593   17.4193 C   0  0  1  0  0  0  0  0  0  0  0  0
  -13.8205    8.2785   16.3681 O   0  0  0  0  0  0  0  0  0  0  0  0
  -13.7215    8.9717   15.1718 C   0  0  2  0  0  0  0  0  0  0  0  0
  -15.1115    9.0301   14.5156 C   0  0  2  0  0  0  0  0  0  0  0  0
  -16.0055    9.6900   15.4030 O   0  0  0  0  0  0  0  0  0  0  0  0
  -15.6061    7.6002   14.2357 C   0  0  1  0  0  0  0  0  0  0  0  0
  -16.9630    7.5926   13.6169 N   0  3  0  0  0  0  0  0  0  0  0  0
  -14.5863    6.8770   13.3224 C   0  0  2  0  0  0  0  0  0  0  0  0
  -15.0060    5.5388   13.0658 O   0  0  0  0  0  0  0  0  0  0  0  0
  -13.1888    6.8920   13.9693 C   0  0  2  0  0  0  0  0  0  0  0  0
  -12.7913    8.2708   14.3061 O   0  0  0  0  0  0  0  0  0  0  0  0
  -12.1270    6.3365   13.0464 C   0  0  0  0  0  0  0  0  0  0  0  0
  -12.3536    4.9596   12.7525 O   0  0  0  0  0  0  0  0  0  0  0  0
  1  2  1  1  0  0  0
  1  3  1  0  0  0  0
  1  9  1  0  0  0  0
  3  4  1  1  0  0  0
  3  5  1  0  0  0  0
  5  6  1  0  0  0  0
  6  7  1  1  0  0  0
  6  8  1  0  0  0  0
  8  9  1  0  0  0  0
  8 10  1  6  0  0  0
 10 11  1  0  0  0  0
 12 13  1  6  0  0  0
 12 14  1  0  0  0  0
 12 20  1  0  0  0  0
 14 15  1  0  0  0  0
 15 16  1  1  0  0  0
 15 17  1  0  0  0  0
 17  2  1  1  0  0  0
 17 18  1  0  0  0  0
 18 19  1  6  0  0  0
 18 20  1  0  0  0  0
 20 21  1  6  0  0  0
 22 21  1  1  0  0  0
 22 23  1  0  0  0  0
 22 30  1  0  0  0  0
 23 24  1  1  0  0  0
 23 25  1  0  0  0  0
 25 26  1  6  0  0  0
 25 27  1  0  0  0  0
 27 28  1  1  0  0  0
 27 29  1  0  0  0  0
 29 30  1  0  0  0  0
 29 31  1  6  0  0  0
 31 32  1  0  0  0  0
M  CHG  5   4   1  11   1  13   1  16   1  26   1
M  END
>  <CHROM.1>
-167.40637275,-158.33515350,57.50248599,-50.98739046,-65.90853977,-62.87061331
-177.14895552,-69.59286261,-56.52635766,100.07017815,-148.56155674,-72.92083219
49.58253818,-57.01324043,-63.86248240,-57.11394375,-12.02956019,7.22876274
17.82271413,-0.47623763,0.81637936,-2.33625971

>  <Name>
1lc4

>  <RI>
0

>  <Rbt.Current_Directory>
/home/afrankz/demos/rdock_decoys_rna/rnas/1lc4

>  <Rbt.Executable>
rbdock ($Id: //depot/dev/client3/rdock/2013.1/src/exe/rbdock.cxx#4 $)

>  <Rbt.Library>
libRbt.so (2013.1, Build901 2013/11/27)

>  <Rbt.Parameter_File>
/export/apps/rDock/src/rDock_2013.1_src/data/scripts/dock_solv.prm

>  <Rbt.Receptor>
prm/pocket_docking_4.prm

>  <SCORE>
-70.0584

>  <SCORE.INTER>
-48.6613

>  <SCORE.INTER.CONST>
1

>  <SCORE.INTER.POLAR>
-6.46528

>  <SCORE.INTER.ROT>
6

>  <SCORE.INTER.SOLV>
21.4947

>  <SCORE.INTER.VDW>
-25.6548

>  <SCORE.INTER.norm>
-1.52067

>  <SCORE.INTRA>
-21.3971

>  <SCORE.INTRA.DIHEDRAL>
-30.0086

>  <SCORE.INTRA.DIHEDRAL.0>
44.2576

>  <SCORE.INTRA.POLAR>
-0.603145

>  <SCORE.INTRA.POLAR.0>
-0.381556

>  <SCORE.INTRA.REPUL>
0

>  <SCORE.INTRA.REPUL.0>
0

>  <SCORE.INTRA.SOLV>
-0.533167

>  <SCORE.INTRA.SOLV.lig_0>
-134.592

>  <SCORE.INTRA.VDW>
-4.07547

>  <SCORE.INTRA.VDW.0>
-1.01417

>  <SCORE.INTRA.norm>
-0.668658

>  <SCORE.RESTR>
0

>  <SCORE.RESTR.CAVITY>
0

>  <SCORE.RESTR.norm>
0

>  <SCORE.SYSTEM>
0

>  <SCORE.SYSTEM.CONST>
0

>  <SCORE.SYSTEM.DIHEDRAL>
0

>  <SCORE.SYSTEM.SOLV>
0

>  <SCORE.SYSTEM.norm>
0

>  <SCORE.heavy>
32

>  <SCORE.norm>
-2.18932

>  <RMSD>
0.745

$$$$
1lc4
 OpenBabel02141814113D
libRbt.so/2013.1/901 2013/11/27
 32 34  0  0  0  0  0  0  0  0999 V2000
  -10.3492    5.7582   19.4682 C   0  0  2  0  0  0  0  0  0  0  0  0
  -11.4323    6.5479   19.8916 O   0  0  0  0  0  0  0  0  0  0  0  0
  -10.5879    4.3147   19.9564 C   0  0  2  0  0  0  0  0  0  0  0  0
  -11.8564    3.8016   19.4298 N   0  3  0  0  0  0  0  0  0  0  0  0
  -10.5570    4.2638   21.5020 C   0  0  0  0  0  0  0  0  0  0  0  0
   -9.1806    4.7817   21.9548 C   0  0  2  0  0  0  0  0  0  0  0  0
   -9.0666    4.7156   23.3803 O   0  0  0  0  0  0  0  0  0  0  0  0
   -8.9850    6.2301   21.4416 C   0  0  2  0  0  0  0  0  0  0  0  0
   -9.1055    6.2747   19.9912 O   0  0  0  0  0  0  0  0  0  0  0  0
   -7.6220    6.8215   21.7924 C   0  0  0  0  0  0  0  0  0  0  0  0
   -7.5152    7.1007   23.2485 N   0  3  0  0  0  0  0  0  0  0  0  0
  -13.8589    9.7216   18.4777 C   0  0  2  0  0  0  0  0  0  0  0  0
  -14.3200   10.9541   17.8127 N   0  3  0  0  0  0  0  0  0  0  0  0
  -12.8068   10.0613   19.5247 C   0  0  0  0  0  0  0  0  0  0  0  0
  -12.3164    8.7870   20.2210 C   0  0  2  0  0  0  0  0  0  0  0  0
  -11.3851    9.1761   21.3090 N   0  3  0  0  0  0  0  0  0  0  0  0
  -11.7155    7.7788   19.1964 C   0  0  2  0  0  0  0  0  0  0  0  0
  -12.7641    7.4753   18.0954 C   0  0  2  0  0  0  0  0  0  0  0  0
  -12.1691    6.6977   17.0848 O   0  0  0  0  0  0  0  0  0  0  0  0
  -13.2613    8.7738   17.4396 C   0  0  1  0  0  0  0  0  0  0  0  0
  -14.2454    8.4481   16.4586 O   0  0  0  0  0  0  0  0  0  0  0  0
  -14.0342    8.9120   15.1696 C   0  0  2  0  0  0  0  0  0  0  0  0
  -15.3955    9.2292   14.5272 C   0  0  2  0  0  0  0  0  0  0  0  0
  -16.0494   10.2175   15.3130 O   0  0  0  0  0  0  0  0  0  0  0  0
  -16.2474    7.9489   14.4741 C   0  0  1  0  0  0  0  0  0  0  0  0
  -17.5914    8.1999   13.8785 N   0  3  0  0  0  0  0  0  0  0  0  0
  -15.4890    6.8640   13.6711 C   0  0  2  0  0  0  0  0  0  0  0  0
  -16.2444    5.6556   13.6263 O   0  0  0  0  0  0  0  0  0  0  0  0
  -14.1026    6.6137   14.2931 C   0  0  2  0  0  0  0  0  0  0  0  0
  -13.3545    7.8782   14.4111 O   0  0  0  0  0  0  0  0  0  0  0  0
  -13.2619    5.6768   13.4543 C   0  0  0  0  0  0  0  0  0  0  0  0
  -11.9629    5.4932   14.0131 O   0  0  0  0  0  0  0  0  0  0  0  0
  1  2  1  1  0  0  0
  1  3  1  0  0  0  0
  1  9  1  0  0  0  0
  3  4  1  1  0  0  0
  3  5  1  0  0  0  0
  5  6  1  0  0  0  0
  6  7  1  1  0  0  0
  6  8  1  0  0  0  0
  8  9  1  0  0  0  0
  8 10  1  6  0  0  0
 10 11  1  0  0  0  0
 12 13  1  6  0  0  0
 12 14  1  0  0  0  0
 12 20  1  0  0  0  0
 14 15  1  0  0  0  0
 15 16  1  1  0  0  0
 15 17  1  0  0  0  0
 17  2  1  1  0  0  0
 17 18  1  0  0  0  0
 18 19  1  6  0  0  0
 18 20  1  0  0  0  0
 20 21  1  6  0  0  0
 22 21  1  1  0  0  0
 22 23  1  0  0  0  0
 22 30  1  0  0  0  0
 23 24  1  1  0  0  0
 23 25  1  0  0  0  0
 25 26  1  6  0  0  0
 25 27  1  0  0  0  0
 27 28  1  1  0  0  0
 27 29  1  0  0  0  0
 29 30  1  0  0  0  0
 29 31  1  6  0  0  0
 31 32  1  0  0  0  0
M  CHG  5   4   1  11   1  13   1  16   1  26   1
M  END
>  <CHROM.1>
-157.97249952,-148.41387997,57.44604386,-65.02077824,-70.57394086,91.34467929
178.22824716,52.16202673,175.54980422,113.14347375,-146.59457089,104.70412653
179.34826327,173.61996001,177.75718221,63.87716774,-12.47561582,7.22231011
17.95293199,-0.27428952,0.86785113,-2.52664273

>  <Name>
1lc4

>  <RI>
0

>  <Rbt.Current_Directory>
/home/afrankz/demos/rdock_decoys_rna/rnas/1lc4

>  <Rbt.Executable>
rbdock ($Id: //depot/dev/client3/rdock/2013.1/src/exe/rbdock.cxx#4 $)

>  <Rbt.Library>
libRbt.so (2013.1, Build901 2013/11/27)

>  <Rbt.Parameter_File>
/export/apps/rDock/src/rDock_2013.1_src/data/scripts/dock_solv.prm

>  <Rbt.Receptor>
prm/pocket_docking_2.prm

>  <SCORE>
-72.2191

>  <SCORE.INTER>
-56.3153

>  <SCORE.INTER.CONST>
1

>  <SCORE.INTER.POLAR>
-8.35625

>  <SCORE.INTER.ROT>
6

>  <SCORE.INTER.SOLV>
21.8863

>  <SCORE.INTER.VDW>
-24.5848

>  <SCORE.INTER.norm>
-1.75985

>  <SCORE.INTRA>
-16.287

>  <SCORE.INTRA.DIHEDRAL>
-17.8251

>  <SCORE.INTRA.DIHEDRAL.0>
44.2576

>  <SCORE.INTRA.POLAR>
-0.785111

>  <SCORE.INTRA.POLAR.0>
-0.381556

>  <SCORE.INTRA.REPUL>
0

>  <SCORE.INTRA.REPUL.0>
0

>  <SCORE.INTRA.SOLV>
0.0552282

>  <SCORE.INTRA.SOLV.lig_0>
-134.592

>  <SCORE.INTRA.VDW>
-4.73275

>  <SCORE.INTRA.VDW.0>
-1.01417

>  <SCORE.INTRA.norm>
-0.50897

>  <SCORE.RESTR>
0.383212

>  <SCORE.RESTR.CAVITY>
0.383212

>  <SCORE.RESTR.norm>
0.0119754

>  <SCORE.SYSTEM>
0

>  <SCORE.SYSTEM.CONST>
0

>  <SCORE.SYSTEM.DIHEDRAL>
0

>  <SCORE.SYSTEM.SOLV>
0

>  <SCORE.SYSTEM.norm>
0

>  <SCORE.heavy>
32

>  <SCORE.norm>
-2.25685

>  <RMSD>
0.748

$$$$
1lc4
 OpenBabel02141814113D
libRbt.so/2013.1/901 2013/11/27
 32 34  0  0  0  0  0  0  0  0999 V2000
  -10.3014    5.8114   19.3423 C   0  0  2  0  0  0  0  0  0  0  0  0
  -11.3594    6.5948   19.8352 O   0  0  0  0  0  0  0  0  0  0  0  0
  -10.5515    4.3484   19.7618 C   0  0  2  0  0  0  0  0  0  0  0  0
  -11.8420    3.8832   19.2443 N   0  3  0  0  0  0  0  0  0  0  0  0
  -10.4806    4.2169   21.3014 C   0  0  0  0  0  0  0  0  0  0  0  0
   -9.0841    4.6890   21.7424 C   0  0  2  0  0  0  0  0  0  0  0  0
   -8.9335    4.5473   23.1589 O   0  0  0  0  0  0  0  0  0  0  0  0
   -8.8776    6.1589   21.2993 C   0  0  2  0  0  0  0  0  0  0  0  0
   -9.0356    6.2806   19.8570 O   0  0  0  0  0  0  0  0  0  0  0  0
   -7.4960    6.7101   21.6427 C   0  0  0  0  0  0  0  0  0  0  0  0
   -7.4391    8.1821   21.4437 N   0  3  0  0  0  0  0  0  0  0  0  0
  -13.6277   10.0209   18.7976 C   0  0  2  0  0  0  0  0  0  0  0  0
  -14.0305   11.3363   18.2672 N   0  3  0  0  0  0  0  0  0  0  0  0
  -12.5375   10.1975   19.8458 C   0  0  0  0  0  0  0  0  0  0  0  0
  -12.1072    8.8359   20.4026 C   0  0  2  0  0  0  0  0  0  0  0  0
  -11.1339    9.0642   21.4995 N   0  3  0  0  0  0  0  0  0  0  0  0
  -11.5853    7.9018   19.2701 C   0  0  2  0  0  0  0  0  0  0  0  0
  -12.6709    7.7662   18.1716 C   0  0  2  0  0  0  0  0  0  0  0  0
  -12.1413    7.0603   17.0756 O   0  0  0  0  0  0  0  0  0  0  0  0
  -13.1059    9.1483   17.6577 C   0  0  1  0  0  0  0  0  0  0  0  0
  -14.1260    8.9754   16.6748 O   0  0  0  0  0  0  0  0  0  0  0  0
  -14.0871    9.8072   15.5667 C   0  0  2  0  0  0  0  0  0  0  0  0
  -15.5260   10.0590   15.0846 C   0  0  2  0  0  0  0  0  0  0  0  0
  -16.2590   10.6673   16.1404 O   0  0  0  0  0  0  0  0  0  0  0  0
  -16.1768    8.7206   14.6936 C   0  0  1  0  0  0  0  0  0  0  0  0
  -17.5851    8.8998   14.2369 N   0  3  0  0  0  0  0  0  0  0  0  0
  -15.3277    8.0432   13.5904 C   0  0  2  0  0  0  0  0  0  0  0  0
  -15.8934    6.7865   13.2250 O   0  0  0  0  0  0  0  0  0  0  0  0
  -13.8756    7.8644   14.0712 C   0  0  2  0  0  0  0  0  0  0  0  0
  -13.3198    9.1526   14.5231 O   0  0  0  0  0  0  0  0  0  0  0  0
  -12.9705    7.3507   12.9737 C   0  0  0  0  0  0  0  0  0  0  0  0
  -11.6872    6.9867   13.4777 O   0  0  0  0  0  0  0  0  0  0  0  0
  1  2  1  1  0  0  0
  1  3  1  0  0  0  0
  1  9  1  0  0  0  0
  3  4  1  1  0  0  0
  3  5  1  0  0  0  0
  5  6  1  0  0  0  0
  6  7  1  1  0  0  0
  6  8  1  0  0  0  0
  8  9  1  0  0  0  0
  8 10  1  6  0  0  0
 10 11  1  0  0  0  0
 12 13  1  6  0  0  0
 12 14  1  0  0  0  0
 12 20  1  0  0  0  0
 14 15  1  0  0  0  0
 15 16  1  1  0  0  0
 15 17  1  0  0  0  0
 17  2  1  1  0  0  0
 17 18  1  0  0  0  0
 18 19  1  6  0  0  0
 18 20  1  0  0  0  0
 20 21  1  6  0  0  0
 22 21  1  1  0  0  0
 22 23  1  0  0  0  0
 22 30  1  0  0  0  0
 23 24  1  1  0  0  0
 23 25  1  0  0  0  0
 25 26  1  6  0  0  0
 25 27  1  0  0  0  0
 27 28  1  1  0  0  0
 27 29  1  0  0  0  0
 29 30  1  0  0  0  0
 29 31  1  6  0  0  0
 31 32  1  0  0  0  0
M  CHG  5   4   1  11   1  13   1  16   1  26   1
M  END
>  <CHROM.1>
-161.97209181,-146.16218169,-60.65150450,175.83096017,-168.84132645,-66.67279076
-53.40961829,55.91212800,-58.50672494,97.43056700,-148.42730209,173.18585858
178.11860805,178.98260493,-170.65847708,57.44794681,-12.35624778,7.69461294
17.92201335,-0.26425020,0.86554813,-2.40193527

>  <Name>
1lc4

>  <RI>
0

>  <Rbt.Current_Directory>
/home/afrankz/demos/rdock_decoys_rna/rnas/1lc4

>  <Rbt.Executable>
rbdock ($Id: //depot/dev/client3/rdock/2013.1/src/exe/rbdock.cxx#4 $)

>  <Rbt.Library>
libRbt.so (2013.1, Build901 2013/11/27)

>  <Rbt.Parameter_File>
/export/apps/rDock/src/rDock_2013.1_src/data/scripts/dock_solv.prm

>  <Rbt.Receptor>
prm/pocket_docking_3.prm

>  <SCORE>
-77.8907

>  <SCORE.INTER>
-56.7006

>  <SCORE.INTER.CONST>
1

>  <SCORE.INTER.POLAR>
-7.47533

>  <SCORE.INTER.ROT>
6

>  <SCORE.INTER.SOLV>
29.926

>  <SCORE.INTER.VDW>
-30.458

>  <SCORE.INTER.norm>
-1.77189

>  <SCORE.INTRA>
-21.1901

>  <SCORE.INTRA.DIHEDRAL>
-28.1167

>  <SCORE.INTRA.DIHEDRAL.0>
44.2576

>  <SCORE.INTRA.POLAR>
-0.785111

>  <SCORE.INTRA.POLAR.0>
-0.381556

>  <SCORE.INTRA.REPUL>
0

>  <SCORE.INTRA.REPUL.0>
0

>  <SCORE.INTRA.SOLV>
0.602139

>  <SCORE.INTRA.SOLV.lig_0>
-134.592

>  <SCORE.INTRA.VDW>
-4.76348

>  <SCORE.INTRA.VDW.0>
-1.01417

>  <SCORE.INTRA.norm>
-0.662191

>  <SCORE.RESTR>
0

>  <SCORE.RESTR.CAVITY>
0

>  <SCORE.RESTR.norm>
0

>  <SCORE.SYSTEM>
0

>  <SCORE.SYSTEM.CONST>
0

>  <SCORE.SYSTEM.DIHEDRAL>
0

>  <SCORE.SYSTEM.SOLV>
0

>  <SCORE.SYSTEM.norm>
0

>  <SCORE.heavy>
32

>  <SCORE.norm>
-2.43409

>  <RMSD>
0.750

$$$$
1lc4
 OpenBabel02141814113D
libRbt.so/2013.1/901 2013/11/27
 32 34  0  0  0  0  0  0  0  0999 V2000
  -10.3967    6.4165   19.2944 C   0  0  2  0  0  0  0  0  0  0  0  0
  -11.6101    7.0050   19.6912 O   0  0  0  0  0  0  0  0  0  0  0  0
  -10.4728    4.9068   19.6004 C   0  0  2  0  0  0  0  0  0  0  0  0
  -11.6099    4.3013   18.9004 N   0  3  0  0  0  0  0  0  0  0  0  0
  -10.5633    4.6773   21.1274 C   0  0  0  0  0  0  0  0  0  0  0  0
   -9.3141    5.3100   21.7654 C   0  0  2  0  0  0  0  0  0  0  0  0
   -9.3106    5.0905   23.1800 O   0  0  0  0  0  0  0  0  0  0  0  0
   -9.2793    6.8221   21.4309 C   0  0  2  0  0  0  0  0  0  0  0  0
   -9.2841    7.0226   19.9887 O   0  0  0  0  0  0  0  0  0  0  0  0
   -8.0451    7.5377   21.9745 C   0  0  0  0  0  0  0  0  0  0  0  0
   -7.7722    8.7887   21.2196 N   0  3  0  0  0  0  0  0  0  0  0  0
  -14.4016    9.8917   18.3371 C   0  0  2  0  0  0  0  0  0  0  0  0
  -15.0047   11.0890   17.7233 N   0  3  0  0  0  0  0  0  0  0  0  0
  -13.4615   10.3045   19.4614 C   0  0  0  0  0  0  0  0  0  0  0  0
  -12.8250    9.0680   20.1056 C   0  0  2  0  0  0  0  0  0  0  0  0
  -12.0133    9.5097   21.2669 N   0  3  0  0  0  0  0  0  0  0  0  0
  -12.0356    8.2280   19.0574 C   0  0  2  0  0  0  0  0  0  0  0  0
  -12.9750    7.8551   17.8817 C   0  0  2  0  0  0  0  0  0  0  0  0
  -12.2255    7.2411   16.8612 O   0  0  0  0  0  0  0  0  0  0  0  0
  -13.6237    9.1118   17.2790 C   0  0  1  0  0  0  0  0  0  0  0  0
  -14.5018    8.7180   16.2252 O   0  0  0  0  0  0  0  0  0  0  0  0
  -14.5696    9.5434   15.1138 C   0  0  2  0  0  0  0  0  0  0  0  0
  -16.0006    9.5012   14.5509 C   0  0  2  0  0  0  0  0  0  0  0  0
  -16.8988    9.9464   15.5595 O   0  0  0  0  0  0  0  0  0  0  0  0
  -16.3455    8.0601   14.1363 C   0  0  1  0  0  0  0  0  0  0  0  0
  -17.7333    7.9528   13.6010 N   0  3  0  0  0  0  0  0  0  0  0  0
  -15.3171    7.5707   13.0874 C   0  0  2  0  0  0  0  0  0  0  0  0
  -15.5967    6.2268   12.7023 O   0  0  0  0  0  0  0  0  0  0  0  0
  -13.8879    7.6873   13.6492 C   0  0  2  0  0  0  0  0  0  0  0  0
  -13.6292    9.0599   14.1198 O   0  0  0  0  0  0  0  0  0  0  0  0
  -12.8380    7.3696   12.6077 C   0  0  0  0  0  0  0  0  0  0  0  0
  -12.8985    6.0047   12.1992 O   0  0  0  0  0  0  0  0  0  0  0  0
  1  2  1  1  0  0  0
  1  3  1  0  0  0  0
  1  9  1  0  0  0  0
  3  4  1  6  0  0  0
  3  5  1  0  0  0  0
  5  6  1  0  0  0  0
  6  7  1  1  0  0  0
  6  8  1  0  0  0  0
  8  9  1  0  0  0  0
  8 10  1  6  0  0  0
 10 11  1  0  0  0  0
 12 13  1  6  0  0  0
 12 14  1  0  0  0  0
 12 20  1  0  0  0  0
 14 15  1  0  0  0  0
 15 16  1  1  0  0  0
 15 17  1  0  0  0  0
 17  2  1  1  0  0  0
 17 18  1  0  0  0  0
 18 19  1  6  0  0  0
 18 20  1  0  0  0  0
 20 21  1  6  0  0  0
 22 21  1  1  0  0  0
 22 23  1  0  0  0  0
 22 30  1  0  0  0  0
 23 24  1  1  0  0  0
 23 25  1  0  0  0  0
 25 26  1  6  0  0  0
 25 27  1  0  0  0  0
 27 28  1  1  0  0  0
 27 29  1  0  0  0  0
 29 30  1  0  0  0  0
 29 31  1  6  0  0  0
 31 32  1  0  0  0  0
M  CHG  5   4   1  11   1  13   1  16   1  26   1
M  END
>  <CHROM.1>
-154.84137333,-147.65643748,-172.66970451,-71.96254545,157.71747524,51.04030772
-53.47223615,45.97442262,174.61662289,94.88547192,-146.58920305,87.67129386
55.50995661,-58.61268273,-65.62138993,177.83809830,-12.71627026,7.74075912
17.59557798,-0.52632168,0.79419204,-2.24536435

>  <Name>
1lc4

>  <RI>
0

>  <Rbt.Current_Directory>
/home/afrankz/demos/rdock_decoys_rna/rnas/1lc4

>  <Rbt.Executable>
rbdock ($Id: //depot/dev/client3/rdock/2013.1/src/exe/rbdock.cxx#4 $)

>  <Rbt.Library>
libRbt.so (2013.1, Build901 2013/11/27)

>  <Rbt.Parameter_File>
/export/apps/rDock/src/rDock_2013.1_src/data/scripts/dock_solv.prm

>  <Rbt.Receptor>
prm/pocket_docking_2.prm

>  <SCORE>
-67.7873

>  <SCORE.INTER>
-53.1278

>  <SCORE.INTER.CONST>
1

>  <SCORE.INTER.POLAR>
-7.89068

>  <SCORE.INTER.ROT>
6

>  <SCORE.INTER.SOLV>
26.0477

>  <SCORE.INTER.VDW>
-25.3988

>  <SCORE.INTER.norm>
-1.66024

>  <SCORE.INTRA>
-14.8264

>  <SCORE.INTRA.DIHEDRAL>
-22.0306

>  <SCORE.INTRA.DIHEDRAL.0>
44.2576

>  <SCORE.INTRA.POLAR>
0.0132786

>  <SCORE.INTRA.POLAR.0>
-0.381556

>  <SCORE.INTRA.REPUL>
0.06803

>  <SCORE.INTRA.REPUL.0>
0

>  <SCORE.INTRA.SOLV>
0.338262

>  <SCORE.INTRA.SOLV.lig_0>
-134.592

>  <SCORE.INTRA.VDW>
-4.3655

>  <SCORE.INTRA.VDW.0>
-1.01417

>  <SCORE.INTRA.norm>
-0.463324

>  <SCORE.RESTR>
0.166883

>  <SCORE.RESTR.CAVITY>
0.166883

>  <SCORE.RESTR.norm>
0.0052151

>  <SCORE.SYSTEM>
0

>  <SCORE.SYSTEM.CONST>
0

>  <SCORE.SYSTEM.DIHEDRAL>
0

>  <SCORE.SYSTEM.SOLV>
0

>  <SCORE.SYSTEM.norm>
0

>  <SCORE.heavy>
32

>  <SCORE.norm>
-2.11835

>  <RMSD>
0.751

$$$$
1lc4
 OpenBabel02141814113D
libRbt.so/2013.1/901 2013/11/27
 32 34  0  0  0  0  0  0  0  0999 V2000
   -9.6461    5.9739   19.7648 C   0  0  2  0  0  0  0  0  0  0  0  0
  -10.7523    6.7052   20.2311 O   0  0  0  0  0  0  0  0  0  0  0  0
   -9.7668    4.5306   20.2950 C   0  0  2  0  0  0  0  0  0  0  0  0
  -11.0270    3.9277   19.8501 N   0  3  0  0  0  0  0  0  0  0  0  0
   -9.6494    4.5188   21.8373 C   0  0  0  0  0  0  0  0  0  0  0  0
   -8.2859    5.1313   22.2025 C   0  0  2  0  0  0  0  0  0  0  0  0
   -8.0912    5.1066   23.6205 O   0  0  0  0  0  0  0  0  0  0  0  0
   -8.2098    6.5763   21.6495 C   0  0  2  0  0  0  0  0  0  0  0  0
   -8.4109    6.5786   20.2074 O   0  0  0  0  0  0  0  0  0  0  0  0
   -6.8698    7.2590   21.9121 C   0  0  0  0  0  0  0  0  0  0  0  0
   -6.9960    8.7383   21.8389 N   0  3  0  0  0  0  0  0  0  0  0  0
  -13.2593    9.8367   18.8641 C   0  0  2  0  0  0  0  0  0  0  0  0
  -13.7440   11.0954   18.2687 N   0  3  0  0  0  0  0  0  0  0  0  0
  -12.3431   10.1405   20.0417 C   0  0  0  0  0  0  0  0  0  0  0  0
  -11.8293    8.8390   20.6674 C   0  0  2  0  0  0  0  0  0  0  0  0
  -11.0406    9.1801   21.8775 N   0  3  0  0  0  0  0  0  0  0  0  0
  -11.0573    7.9769   19.6242 C   0  0  2  0  0  0  0  0  0  0  0  0
  -11.9675    7.7145   18.3968 C   0  0  2  0  0  0  0  0  0  0  0  0
  -11.2199    7.0796   17.3878 O   0  0  0  0  0  0  0  0  0  0  0  0
  -12.4938    9.0356   17.8128 C   0  0  1  0  0  0  0  0  0  0  0  0
  -13.3500    8.7437   16.7089 O   0  0  0  0  0  0  0  0  0  0  0  0
  -12.9707    9.2271   15.4664 C   0  0  2  0  0  0  0  0  0  0  0  0
  -14.1619    9.9710   14.8387 C   0  0  2  0  0  0  0  0  0  0  0  0
  -14.5337   11.0407   15.6987 O   0  0  0  0  0  0  0  0  0  0  0  0
  -15.3411    8.9975   14.6677 C   0  0  1  0  0  0  0  0  0  0  0  0
  -16.5362    9.6696   14.0811 N   0  3  0  0  0  0  0  0  0  0  0  0
  -14.8961    7.8071   13.7834 C   0  0  2  0  0  0  0  0  0  0  0  0
  -15.9626    6.8737   13.6278 O   0  0  0  0  0  0  0  0  0  0  0  0
  -13.6611    7.1213   14.3967 C   0  0  2  0  0  0  0  0  0  0  0  0
  -12.5881    8.1045   14.6300 O   0  0  0  0  0  0  0  0  0  0  0  0
  -13.0938    6.0515   13.4904 C   0  0  0  0  0  0  0  0  0  0  0  0
  -12.4926    6.6133   12.3258 O   0  0  0  0  0  0  0  0  0  0  0  0
  1  2  1  1  0  0  0
  1  3  1  0  0  0  0
  1  9  1  0  0  0  0
  3  4  1  1  0  0  0
  3  5  1  0  0  0  0
  5  6  1  0  0  0  0
  6  7  1  1  0  0  0
  6  8  1  0  0  0  0
  8  9  1  0  0  0  0
  8 10  1  6  0  0  0
 10 11  1  0  0  0  0
 12 13  1  6  0  0  0
 12 14  1  0  0  0  0
 12 20  1  0  0  0  0
 14 15  1  0  0  0  0
 15 16  1  1  0  0  0
 15 17  1  0  0  0  0
 17  2  1  1  0  0  0
 17 18  1  0  0  0  0
 18 19  1  6  0  0  0
 18 20  1  0  0  0  0
 20 21  1  6  0  0  0
 22 21  1  1  0  0  0
 22 23  1  0  0  0  0
 22 30  1  0  0  0  0
 23 24  1  1  0  0  0
 23 25  1  0  0  0  0
 25 26  1  6  0  0  0
 25 27  1  0  0  0  0
 27 28  1  1  0  0  0
 27 29  1  0  0  0  0
 29 30  1  0  0  0  0
 29 31  1  6  0  0  0
 31 32  1  0  0  0  0
M  CHG  5   4   1  11   1  13   1  16   1  26   1
M  END
>  <CHROM.1>
-165.00602569,-154.33893675,67.18676844,66.66806377,-158.86701254,169.82946042
-170.88173784,-57.79037182,-172.79463118,119.82640389,-129.34963009,73.23159539
-142.01526436,179.11266156,69.48936990,-55.99800340,-11.77285044,7.70675432
18.10579824,-0.29910887,0.89026915,-2.47136374

>  <Name>
1lc4

>  <RI>
0

>  <Rbt.Current_Directory>
/home/afrankz/demos/rdock_decoys_rna/rnas/1lc4

>  <Rbt.Executable>
rbdock ($Id: //depot/dev/client3/rdock/2013.1/src/exe/rbdock.cxx#4 $)

>  <Rbt.Library>
libRbt.so (2013.1, Build901 2013/11/27)

>  <Rbt.Parameter_File>
/export/apps/rDock/src/rDock_2013.1_src/data/scripts/dock_solv.prm

>  <Rbt.Receptor>
prm/blind_docking_80.prm

>  <SCORE>
-60.1215

>  <SCORE.INTER>
-48.9794

>  <SCORE.INTER.CONST>
1

>  <SCORE.INTER.POLAR>
-7.34885

>  <SCORE.INTER.ROT>
6

>  <SCORE.INTER.SOLV>
34.8437

>  <SCORE.INTER.VDW>
-27.3714

>  <SCORE.INTER.norm>
-1.53061

>  <SCORE.INTRA>
-16.1406

>  <SCORE.INTRA.DIHEDRAL>
-20.072

>  <SCORE.INTRA.DIHEDRAL.0>
44.2576

>  <SCORE.INTRA.POLAR>
-0.54279

>  <SCORE.INTRA.POLAR.0>
-0.381556

>  <SCORE.INTRA.REPUL>
0

>  <SCORE.INTRA.REPUL.0>
0

>  <SCORE.INTRA.SOLV>
-0.191683

>  <SCORE.INTRA.SOLV.lig_0>
-134.592

>  <SCORE.INTRA.VDW>
-4.16326

>  <SCORE.INTRA.VDW.0>
-1.01417

>  <SCORE.INTRA.norm>
-0.504393

>  <SCORE.RESTR>
4.99855

>  <SCORE.RESTR.CAVITY>
4.99855

>  <SCORE.RESTR.norm>
0.156205

>  <SCORE.SYSTEM>
0

>  <SCORE.SYSTEM.CONST>
0

>  <SCORE.SYSTEM.DIHEDRAL>
0

>  <SCORE.SYSTEM.SOLV>
0

>  <SCORE.SYSTEM.norm>
0

>  <SCORE.heavy>
32

>  <SCORE.norm>
-1.8788

>  <RMSD>
0.758

$$$$
1lc4
 OpenBabel02141814113D
libRbt.so/2013.1/901 2013/11/27
 32 34  0  0  0  0  0  0  0  0999 V2000
   -9.9557    5.6845   19.7311 C   0  0  2  0  0  0  0  0  0  0  0  0
  -11.0101    6.4992   20.1790 O   0  0  0  0  0  0  0  0  0  0  0  0
  -10.1417    4.2803   20.3412 C   0  0  2  0  0  0  0  0  0  0  0  0
  -11.4424    3.7247   19.9549 N   0  3  0  0  0  0  0  0  0  0  0  0
   -9.9898    4.3440   21.8792 C   0  0  0  0  0  0  0  0  0  0  0  0
   -8.5873    4.8993   22.1832 C   0  0  2  0  0  0  0  0  0  0  0  0
   -8.3618    4.9394   23.5963 O   0  0  0  0  0  0  0  0  0  0  0  0
   -8.4464    6.3065   21.5512 C   0  0  2  0  0  0  0  0  0  0  0  0
   -8.6801    6.2432   20.1154 O   0  0  0  0  0  0  0  0  0  0  0  0
   -7.0660    6.9276   21.7494 C   0  0  0  0  0  0  0  0  0  0  0  0
   -7.1022    8.3985   21.5381 N   0  3  0  0  0  0  0  0  0  0  0  0
  -13.4451    9.6187   18.6626 C   0  0  2  0  0  0  0  0  0  0  0  0
  -13.9040   10.8452   17.9850 N   0  3  0  0  0  0  0  0  0  0  0  0
  -12.4634    9.9761   19.7703 C   0  0  0  0  0  0  0  0  0  0  0  0
  -11.9758    8.7083   20.4804 C   0  0  2  0  0  0  0  0  0  0  0  0
  -11.1184    9.1112   21.6228 N   0  3  0  0  0  0  0  0  0  0  0  0
  -11.2897    7.7295   19.4812 C   0  0  2  0  0  0  0  0  0  0  0  0
  -12.2659    7.4090   18.3202 C   0  0  2  0  0  0  0  0  0  0  0  0
  -11.5930    6.6603   17.3369 O   0  0  0  0  0  0  0  0  0  0  0  0
  -12.7632    8.7003   17.6504 C   0  0  1  0  0  0  0  0  0  0  0  0
  -13.6811    8.3581   16.6125 O   0  0  0  0  0  0  0  0  0  0  0  0
  -13.3795    8.7905   15.3306 C   0  0  2  0  0  0  0  0  0  0  0  0
  -14.6811    9.2212   14.6331 C   0  0  2  0  0  0  0  0  0  0  0  0
  -15.2751   10.2702   15.3874 O   0  0  0  0  0  0  0  0  0  0  0  0
  -15.6405    8.0208   14.5527 C   0  0  1  0  0  0  0  0  0  0  0  0
  -16.9326    8.3845   13.9030 N   0  3  0  0  0  0  0  0  0  0  0  0
  -14.9504    6.8664   13.7858 C   0  0  2  0  0  0  0  0  0  0  0  0
  -15.8075    5.7291   13.7172 O   0  0  0  0  0  0  0  0  0  0  0  0
  -13.6170    6.4998   14.4635 C   0  0  2  0  0  0  0  0  0  0  0  0
  -12.7649    7.6943   14.6048 O   0  0  0  0  0  0  0  0  0  0  0  0
  -12.8305    5.4853   13.6635 C   0  0  0  0  0  0  0  0  0  0  0  0
  -13.5513    4.2648   13.5083 O   0  0  0  0  0  0  0  0  0  0  0  0
  1  2  1  1  0  0  0
  1  3  1  0  0  0  0
  1  9  1  0  0  0  0
  3  4  1  1  0  0  0
  3  5  1  0  0  0  0
  5  6  1  0  0  0  0
  6  7  1  1  0  0  0
  6  8  1  0  0  0  0
  8  9  1  0  0  0  0
  8 10  1  6  0  0  0
 10 11  1  0  0  0  0
 12 13  1  6  0  0  0
 12 14  1  0  0  0  0
 12 20  1  0  0  0  0
 14 15  1  0  0  0  0
 15 16  1  1  0  0  0
 15 17  1  0  0  0  0
 17  2  1  1  0  0  0
 17 18  1  0  0  0  0
 18 19  1  6  0  0  0
 18 20  1  0  0  0  0
 20 21  1  6  0  0  0
 22 21  1  1  0  0  0
 22 23  1  0  0  0  0
 22 30  1  0  0  0  0
 23 24  1  1  0  0  0
 23 25  1  0  0  0  0
 25 26  1  6  0  0  0
 25 27  1  0  0  0  0
 27 28  1  1  0  0  0
 27 29  1  0  0  0  0
 29 30  1  0  0  0  0
 29 31  1  6  0  0  0
 31 32  1  0  0  0  0
M  CHG  5   4   1  11   1  13   1  16   1  26   1
M  END
>  <CHROM.1>
-162.87075330,-154.16482563,65.14883804,-61.79183796,-161.43363916,173.82368329
62.85294355,58.21571542,-174.22602974,116.04422757,-141.56028413,145.74986422
179.53914922,69.03891602,-60.72437250,-60.19401596,-12.04804583,7.21014554
18.05618303,-0.21515460,0.87586012,-2.65503462

>  <Name>
1lc4

>  <RI>
0

>  <Rbt.Current_Directory>
/home/afrankz/demos/rdock_decoys_rna/rnas/1lc4

>  <Rbt.Executable>
rbdock ($Id: //depot/dev/client3/rdock/2013.1/src/exe/rbdock.cxx#4 $)

>  <Rbt.Library>
libRbt.so (2013.1, Build901 2013/11/27)

>  <Rbt.Parameter_File>
/export/apps/rDock/src/rDock_2013.1_src/data/scripts/dock_solv.prm

>  <Rbt.Receptor>
prm/pocket_docking_4.prm

>  <SCORE>
-77.9007

>  <SCORE.INTER>
-59.6408

>  <SCORE.INTER.CONST>
1

>  <SCORE.INTER.POLAR>
-8.98003

>  <SCORE.INTER.ROT>
6

>  <SCORE.INTER.SOLV>
27.7589

>  <SCORE.INTER.VDW>
-26.6801

>  <SCORE.INTER.norm>
-1.86378

>  <SCORE.INTRA>
-18.2598

>  <SCORE.INTRA.DIHEDRAL>
-21.4186

>  <SCORE.INTRA.DIHEDRAL.0>
44.2576

>  <SCORE.INTRA.POLAR>
-0.830325

>  <SCORE.INTRA.POLAR.0>
-0.381556

>  <SCORE.INTRA.REPUL>
0

>  <SCORE.INTRA.REPUL.0>
0

>  <SCORE.INTRA.SOLV>
-0.225407

>  <SCORE.INTRA.SOLV.lig_0>
-134.592

>  <SCORE.INTRA.VDW>
-4.6147

>  <SCORE.INTRA.VDW.0>
-1.01417

>  <SCORE.INTRA.norm>
-0.57062

>  <SCORE.RESTR>
0

>  <SCORE.RESTR.CAVITY>
0

>  <SCORE.RESTR.norm>
0

>  <SCORE.SYSTEM>
0

>  <SCORE.SYSTEM.CONST>
0

>  <SCORE.SYSTEM.DIHEDRAL>
0

>  <SCORE.SYSTEM.SOLV>
0

>  <SCORE.SYSTEM.norm>
0

>  <SCORE.heavy>
32

>  <SCORE.norm>
-2.4344

>  <RMSD>
0.760

$$$$
1lc4
 OpenBabel02141814113D
libRbt.so/2013.1/901 2013/11/27
 32 34  0  0  0  0  0  0  0  0999 V2000
  -10.2871    6.0368   19.3496 C   0  0  2  0  0  0  0  0  0  0  0  0
  -11.4674    6.7032   19.7224 O   0  0  0  0  0  0  0  0  0  0  0  0
  -10.2939    4.6430   20.0100 C   0  0  2  0  0  0  0  0  0  0  0  0
  -11.4818    3.8891   19.5975 N   0  3  0  0  0  0  0  0  0  0  0  0
  -10.2209    4.7830   21.5488 C   0  0  0  0  0  0  0  0  0  0  0  0
   -8.9287    5.5486   21.8831 C   0  0  2  0  0  0  0  0  0  0  0  0
   -8.7740    5.6715   23.3010 O   0  0  0  0  0  0  0  0  0  0  0  0
   -8.9659    6.9379   21.1990 C   0  0  2  0  0  0  0  0  0  0  0  0
   -9.1243    6.7900   19.7591 O   0  0  0  0  0  0  0  0  0  0  0  0
   -7.7004    7.7616   21.4242 C   0  0  0  0  0  0  0  0  0  0  0  0
   -6.4796    6.9337   21.2403 N   0  3  0  0  0  0  0  0  0  0  0  0
  -13.8747   10.0317   18.6807 C   0  0  2  0  0  0  0  0  0  0  0  0
  -14.3303   11.3307   18.1526 N   0  3  0  0  0  0  0  0  0  0  0  0
  -12.8018   10.2509   19.7386 C   0  0  0  0  0  0  0  0  0  0  0  0
  -12.3170    8.9068   20.2931 C   0  0  2  0  0  0  0  0  0  0  0  0
  -11.3635    9.1724   21.3990 N   0  3  0  0  0  0  0  0  0  0  0  0
  -11.7456    8.0017   19.1610 C   0  0  2  0  0  0  0  0  0  0  0  0
  -12.8154    7.8239   18.0530 C   0  0  2  0  0  0  0  0  0  0  0  0
  -12.2466    7.1468   16.9585 O   0  0  0  0  0  0  0  0  0  0  0  0
  -13.3061    9.1880   17.5414 C   0  0  1  0  0  0  0  0  0  0  0  0
  -14.3097    8.9753   16.5494 O   0  0  0  0  0  0  0  0  0  0  0  0
  -14.2908    9.8051   15.4393 C   0  0  2  0  0  0  0  0  0  0  0  0
  -15.7327    9.9973   14.9389 C   0  0  2  0  0  0  0  0  0  0  0  0
  -16.5027   10.5781   15.9838 O   0  0  0  0  0  0  0  0  0  0  0  0
  -16.3238    8.6326   14.5440 C   0  0  1  0  0  0  0  0  0  0  0  0
  -17.7325    8.7535   14.0694 N   0  3  0  0  0  0  0  0  0  0  0  0
  -15.4344    7.9874   13.4533 C   0  0  2  0  0  0  0  0  0  0  0  0
  -15.9442    6.7079   13.0848 O   0  0  0  0  0  0  0  0  0  0  0  0
  -13.9824    7.8688   13.9525 C   0  0  2  0  0  0  0  0  0  0  0  0
  -13.4848    9.1796   14.4073 O   0  0  0  0  0  0  0  0  0  0  0  0
  -13.0436    7.3894   12.8677 C   0  0  0  0  0  0  0  0  0  0  0  0
  -11.7353    7.1397   13.3770 O   0  0  0  0  0  0  0  0  0  0  0  0
  1  2  1  1  0  0  0
  1  3  1  0  0  0  0
  1  9  1  0  0  0  0
  3  4  1  1  0  0  0
  3  5  1  0  0  0  0
  5  6  1  0  0  0  0
  6  7  1  1  0  0  0
  6  8  1  0  0  0  0
  8  9  1  0  0  0  0
  8 10  1  6  0  0  0
 10 11  1  0  0  0  0
 12 13  1  6  0  0  0
 12 14  1  0  0  0  0
 12 20  1  0  0  0  0
 14 15  1  0  0  0  0
 15 16  1  1  0  0  0
 15 17  1  0  0  0  0
 17  2  1  1  0  0  0
 17 18  1  0  0  0  0
 18 19  1  6  0  0  0
 18 20  1  0  0  0  0
 20 21  1  6  0  0  0
 22 21  1  1  0  0  0
 22 23  1  0  0  0  0
 22 30  1  0  0  0  0
 23 24  1  1  0  0  0
 23 25  1  0  0  0  0
 25 26  1  6  0  0  0
 25 27  1  0  0  0  0
 27 28  1  1  0  0  0
 27 29  1  0  0  0  0
 29 30  1  0  0  0  0
 29 31  1  6  0  0  0
 31 32  1  0  0  0  0
M  CHG  5   4   1  11   1  13   1  16   1  26   1
M  END
>  <CHROM.1>
-175.93216548,-138.78612435,-57.84844206,61.61647893,44.57160535,52.99752119
63.33850657,170.78359290,179.44131567,98.00486747,-148.69632726,178.19402444
-58.53216065,63.62206052,-173.43680343,176.04804694,-12.41384848,7.81925148
17.85043475,-0.43021483,0.77778971,-2.22107167

>  <Name>
1lc4

>  <RI>
0

>  <Rbt.Current_Directory>
/home/afrankz/demos/rdock_decoys_rna/rnas/1lc4

>  <Rbt.Executable>
rbdock ($Id: //depot/dev/client3/rdock/2013.1/src/exe/rbdock.cxx#4 $)

>  <Rbt.Library>
libRbt.so (2013.1, Build901 2013/11/27)

>  <Rbt.Parameter_File>
/export/apps/rDock/src/rDock_2013.1_src/data/scripts/dock_solv.prm

>  <Rbt.Receptor>
prm/pocket_docking_3.prm

>  <SCORE>
-70.5904

>  <SCORE.INTER>
-49.9706

>  <SCORE.INTER.CONST>
1

>  <SCORE.INTER.POLAR>
-6.63358

>  <SCORE.INTER.ROT>
6

>  <SCORE.INTER.SOLV>
34.4803

>  <SCORE.INTER.VDW>
-30.2952

>  <SCORE.INTER.norm>
-1.56158

>  <SCORE.INTRA>
-20.6199

>  <SCORE.INTRA.DIHEDRAL>
-28.0834

>  <SCORE.INTRA.DIHEDRAL.0>
44.2576

>  <SCORE.INTRA.POLAR>
-0.788833

>  <SCORE.INTRA.POLAR.0>
-0.381556

>  <SCORE.INTRA.REPUL>
0

>  <SCORE.INTRA.REPUL.0>
0

>  <SCORE.INTRA.SOLV>
1.2877

>  <SCORE.INTRA.SOLV.lig_0>
-134.592

>  <SCORE.INTRA.VDW>
-4.53996

>  <SCORE.INTRA.VDW.0>
-1.01417

>  <SCORE.INTRA.norm>
-0.644371

>  <SCORE.RESTR>
0

>  <SCORE.RESTR.CAVITY>
0

>  <SCORE.RESTR.norm>
0

>  <SCORE.SYSTEM>
0

>  <SCORE.SYSTEM.CONST>
0

>  <SCORE.SYSTEM.DIHEDRAL>
0

>  <SCORE.SYSTEM.SOLV>
0

>  <SCORE.SYSTEM.norm>
0

>  <SCORE.heavy>
32

>  <SCORE.norm>
-2.20595

>  <RMSD>
0.762

$$$$
1lc4
 OpenBabel02141814113D
libRbt.so/2013.1/901 2013/11/27
 32 34  0  0  0  0  0  0  0  0999 V2000
  -10.5150    5.7818   19.2265 C   0  0  2  0  0  0  0  0  0  0  0  0
  -11.5420    6.5898   19.7445 O   0  0  0  0  0  0  0  0  0  0  0  0
  -10.7759    4.3288   19.6733 C   0  0  2  0  0  0  0  0  0  0  0  0
  -12.0910    3.8799   19.2057 N   0  3  0  0  0  0  0  0  0  0  0  0
  -10.6550    4.2152   21.2112 C   0  0  0  0  0  0  0  0  0  0  0  0
   -9.2364    4.6682   21.5987 C   0  0  2  0  0  0  0  0  0  0  0  0
   -9.0404    4.5415   23.0111 O   0  0  0  0  0  0  0  0  0  0  0  0
   -9.0199    6.1285   21.1297 C   0  0  2  0  0  0  0  0  0  0  0  0
   -9.2246    6.2350   19.6920 O   0  0  0  0  0  0  0  0  0  0  0  0
   -7.6181    6.6595   21.4191 C   0  0  0  0  0  0  0  0  0  0  0  0
   -7.5867    8.1451   21.3804 N   0  3  0  0  0  0  0  0  0  0  0  0
  -13.9169    9.8966   18.5676 C   0  0  2  0  0  0  0  0  0  0  0  0
  -14.3606   11.1760   17.9845 N   0  3  0  0  0  0  0  0  0  0  0  0
  -12.8355   10.1502   19.6092 C   0  0  0  0  0  0  0  0  0  0  0  0
  -12.3629    8.8265   20.2206 C   0  0  2  0  0  0  0  0  0  0  0  0
  -11.4001    9.1299   21.3085 N   0  3  0  0  0  0  0  0  0  0  0  0
  -11.8085    7.8651   19.1271 C   0  0  2  0  0  0  0  0  0  0  0  0
  -12.8866    7.6507   18.0337 C   0  0  2  0  0  0  0  0  0  0  0  0
  -12.3319    6.9188   16.9676 O   0  0  0  0  0  0  0  0  0  0  0  0
  -13.3645    8.9963   17.4643 C   0  0  1  0  0  0  0  0  0  0  0  0
  -14.3762    8.7513   16.4880 O   0  0  0  0  0  0  0  0  0  0  0  0
  -14.4133    9.5932   15.3875 C   0  0  2  0  0  0  0  0  0  0  0  0
  -15.8753    9.7591   14.9387 C   0  0  2  0  0  0  0  0  0  0  0  0
  -16.6213   10.3116   16.0159 O   0  0  0  0  0  0  0  0  0  0  0  0
  -16.4501    8.3861   14.5487 C   0  0  1  0  0  0  0  0  0  0  0  0
  -17.8765    8.4811   14.1238 N   0  3  0  0  0  0  0  0  0  0  0  0
  -15.5850    7.7722   13.4210 C   0  0  2  0  0  0  0  0  0  0  0  0
  -16.0795    6.4858   13.0554 O   0  0  0  0  0  0  0  0  0  0  0  0
  -14.1145    7.6801   13.8690 C   0  0  2  0  0  0  0  0  0  0  0  0
  -13.6299    8.9966   14.3215 O   0  0  0  0  0  0  0  0  0  0  0  0
  -13.2034    7.2331   12.7474 C   0  0  0  0  0  0  0  0  0  0  0  0
  -11.8343    7.2442   13.1459 O   0  0  0  0  0  0  0  0  0  0  0  0
  1  2  1  1  0  0  0
  1  3  1  0  0  0  0
  1  9  1  0  0  0  0
  3  4  1  1  0  0  0
  3  5  1  0  0  0  0
  5  6  1  0  0  0  0
  6  7  1  1  0  0  0
  6  8  1  0  0  0  0
  8  9  1  0  0  0  0
  8 10  1  6  0  0  0
 10 11  1  0  0  0  0
 12 13  1  6  0  0  0
 12 14  1  0  0  0  0
 12 20  1  0  0  0  0
 14 15  1  0  0  0  0
 15 16  1  1  0  0  0
 15 17  1  0  0  0  0
 17  2  1  1  0  0  0
 17 18  1  0  0  0  0
 18 19  1  6  0  0  0
 18 20  1  0  0  0  0
 20 21  1  6  0  0  0
 22 21  1  1  0  0  0
 22 23  1  0  0  0  0
 22 30  1  0  0  0  0
 23 24  1  1  0  0  0
 23 25  1  0  0  0  0
 25 26  1  6  0  0  0
 25 27  1  0  0  0  0
 27 28  1  1  0  0  0
 27 29  1  0  0  0  0
 29 30  1  0  0  0  0
 29 31  1  6  0  0  0
 31 32  1  0  0  0  0
M  CHG  5   4   1  11   1  13   1  16   1  26   1
M  END
>  <CHROM.1>
-158.88683371,-150.38698695,-170.07351637,176.35470900,-161.08633410,45.47040421
-46.59278464,172.34598716,67.85259624,93.46897406,-147.17090356,-69.14730257
72.07446690,59.01583298,175.79239154,166.99849196,-12.59012838,7.57953108
17.76057223,-0.30504389,0.84357875,-2.38047316

>  <Name>
1lc4

>  <RI>
0

>  <Rbt.Current_Directory>
/home/afrankz/demos/rdock_decoys_rna/rnas/1lc4

>  <Rbt.Executable>
rbdock ($Id: //depot/dev/client3/rdock/2013.1/src/exe/rbdock.cxx#4 $)

>  <Rbt.Library>
libRbt.so (2013.1, Build901 2013/11/27)

>  <Rbt.Parameter_File>
/export/apps/rDock/src/rDock_2013.1_src/data/scripts/dock_solv.prm

>  <Rbt.Receptor>
prm/pocket_docking_2.prm

>  <SCORE>
-71.0272

>  <SCORE.INTER>
-54.8284

>  <SCORE.INTER.CONST>
1

>  <SCORE.INTER.POLAR>
-7.48189

>  <SCORE.INTER.ROT>
6

>  <SCORE.INTER.SOLV>
27.2661

>  <SCORE.INTER.VDW>
-28.3013

>  <SCORE.INTER.norm>
-1.71339

>  <SCORE.INTRA>
-16.6649

>  <SCORE.INTRA.DIHEDRAL>
-25.7875

>  <SCORE.INTRA.DIHEDRAL.0>
44.2576

>  <SCORE.INTRA.POLAR>
-0.17273

>  <SCORE.INTRA.POLAR.0>
-0.381556

>  <SCORE.INTRA.REPUL>
0.208212

>  <SCORE.INTRA.REPUL.0>
0

>  <SCORE.INTRA.SOLV>
0.619647

>  <SCORE.INTRA.SOLV.lig_0>
-134.592

>  <SCORE.INTRA.VDW>
-4.53476

>  <SCORE.INTRA.VDW.0>
-1.01417

>  <SCORE.INTRA.norm>
-0.520778

>  <SCORE.RESTR>
0.466021

>  <SCORE.RESTR.CAVITY>
0.466021

>  <SCORE.RESTR.norm>
0.0145632

>  <SCORE.SYSTEM>
0

>  <SCORE.SYSTEM.CONST>
0

>  <SCORE.SYSTEM.DIHEDRAL>
0

>  <SCORE.SYSTEM.SOLV>
0

>  <SCORE.SYSTEM.norm>
0

>  <SCORE.heavy>
32

>  <SCORE.norm>
-2.2196

>  <RMSD>
0.763

$$$$
1lc4
 OpenBabel02141814113D
libRbt.so/2013.1/901 2013/11/27
 32 34  0  0  0  0  0  0  0  0999 V2000
   -9.6915    6.1327   19.7097 C   0  0  2  0  0  0  0  0  0  0  0  0
  -10.8974    6.7651   20.0586 O   0  0  0  0  0  0  0  0  0  0  0  0
   -9.7270    4.6932   20.2624 C   0  0  2  0  0  0  0  0  0  0  0  0
  -10.8817    3.9683   19.7230 N   0  3  0  0  0  0  0  0  0  0  0  0
   -9.7484    4.7175   21.8088 C   0  0  0  0  0  0  0  0  0  0  0  0
   -8.4851    5.4603   22.2777 C   0  0  2  0  0  0  0  0  0  0  0  0
   -8.4174    5.4770   23.7075 O   0  0  0  0  0  0  0  0  0  0  0  0
   -8.4919    6.8969   21.6983 C   0  0  2  0  0  0  0  0  0  0  0  0
   -8.5617    6.8571   20.2445 O   0  0  0  0  0  0  0  0  0  0  0  0
   -7.2491    7.7058   22.0612 C   0  0  0  0  0  0  0  0  0  0  0  0
   -7.3990    9.1303   21.6639 N   0  3  0  0  0  0  0  0  0  0  0  0
  -13.5721    9.6131   18.4169 C   0  0  2  0  0  0  0  0  0  0  0  0
  -14.1243   10.8019   17.7418 N   0  3  0  0  0  0  0  0  0  0  0  0
  -12.7596   10.0390   19.6322 C   0  0  0  0  0  0  0  0  0  0  0  0
  -12.1768    8.8114   20.3410 C   0  0  2  0  0  0  0  0  0  0  0  0
  -11.4963    9.2644   21.5797 N   0  3  0  0  0  0  0  0  0  0  0  0
  -11.2713    7.9821   19.3819 C   0  0  2  0  0  0  0  0  0  0  0  0
  -12.0782    7.5961   18.1156 C   0  0  2  0  0  0  0  0  0  0  0  0
  -11.2184    6.9922   17.1796 O   0  0  0  0  0  0  0  0  0  0  0  0
  -12.6778    8.8437   17.4467 C   0  0  1  0  0  0  0  0  0  0  0  0
  -13.4362    8.4376   16.3080 O   0  0  0  0  0  0  0  0  0  0  0  0
  -13.2125    9.1178   15.1211 C   0  0  2  0  0  0  0  0  0  0  0  0
  -14.5661    9.3926   14.4440 C   0  0  2  0  0  0  0  0  0  0  0  0
  -15.3644   10.1732   15.3244 O   0  0  0  0  0  0  0  0  0  0  0  0
  -15.2674    8.0569   14.1407 C   0  0  1  0  0  0  0  0  0  0  0  0
  -16.5989    8.2610   13.5008 N   0  3  0  0  0  0  0  0  0  0  0  0
  -14.3538    7.1947   13.2356 C   0  0  2  0  0  0  0  0  0  0  0  0
  -14.9676    5.9382   12.9578 O   0  0  0  0  0  0  0  0  0  0  0  0
  -12.9816    6.9915   13.9044 C   0  0  2  0  0  0  0  0  0  0  0  0
  -12.3849    8.2909   14.2624 O   0  0  0  0  0  0  0  0  0  0  0  0
  -12.0009    6.2887   12.9921 C   0  0  0  0  0  0  0  0  0  0  0  0
  -10.6717    6.3456   13.5052 O   0  0  0  0  0  0  0  0  0  0  0  0
  1  2  1  1  0  0  0
  1  3  1  0  0  0  0
  1  9  1  0  0  0  0
  3  4  1  6  0  0  0
  3  5  1  0  0  0  0
  5  6  1  0  0  0  0
  6  7  1  1  0  0  0
  6  8  1  0  0  0  0
  8  9  1  0  0  0  0
  8 10  1  6  0  0  0
 10 11  1  0  0  0  0
 12 13  1  6  0  0  0
 12 14  1  0  0  0  0
 12 20  1  0  0  0  0
 14 15  1  0  0  0  0
 15 16  1  1  0  0  0
 15 17  1  0  0  0  0
 17  2  1  1  0  0  0
 17 18  1  0  0  0  0
 18 19  1  6  0  0  0
 18 20  1  0  0  0  0
 20 21  1  6  0  0  0
 22 21  1  1  0  0  0
 22 23  1  0  0  0  0
 22 30  1  0  0  0  0
 23 24  1  1  0  0  0
 23 25  1  0  0  0  0
 25 26  1  6  0  0  0
 25 27  1  0  0  0  0
 27 28  1  1  0  0  0
 27 29  1  0  0  0  0
 29 30  1  0  0  0  0
 29 31  1  6  0  0  0
 31 32  1  0  0  0  0
M  CHG  5   4   1  11   1  13   1  16   1  26   1
M  END
>  <CHROM.1>
-164.08105332,-152.93110629,-175.29264720,-51.98092344,-171.21171902,178.24686675
58.66315533,171.32013706,178.50502978,106.38607183,-137.49116244,132.01633489
177.37410739,67.59475037,168.15105865,-169.25145967,-11.78692540,7.57803153
17.88039545,-0.56752552,0.83054066,-2.24040903

>  <Name>
1lc4

>  <RI>
0

>  <Rbt.Current_Directory>
/home/afrankz/demos/rdock_decoys_rna/rnas/1lc4

>  <Rbt.Executable>
rbdock ($Id: //depot/dev/client3/rdock/2013.1/src/exe/rbdock.cxx#4 $)

>  <Rbt.Library>
libRbt.so (2013.1, Build901 2013/11/27)

>  <Rbt.Parameter_File>
/export/apps/rDock/src/rDock_2013.1_src/data/scripts/dock_solv.prm

>  <Rbt.Receptor>
prm/blind_docking_80.prm

>  <SCORE>
-68.9145

>  <SCORE.INTER>
-57.0418

>  <SCORE.INTER.CONST>
1

>  <SCORE.INTER.POLAR>
-9.17338

>  <SCORE.INTER.ROT>
6

>  <SCORE.INTER.SOLV>
31.4995

>  <SCORE.INTER.VDW>
-25.5497

>  <SCORE.INTER.norm>
-1.78256

>  <SCORE.INTRA>
-16.8296

>  <SCORE.INTRA.DIHEDRAL>
-19.1255

>  <SCORE.INTRA.DIHEDRAL.0>
44.2576

>  <SCORE.INTRA.POLAR>
-0.792927

>  <SCORE.INTRA.POLAR.0>
-0.381556

>  <SCORE.INTRA.REPUL>
0.0267008

>  <SCORE.INTRA.REPUL.0>
0

>  <SCORE.INTRA.SOLV>
0.133822

>  <SCORE.INTRA.SOLV.lig_0>
-134.592

>  <SCORE.INTRA.VDW>
-4.7713

>  <SCORE.INTRA.VDW.0>
-1.01417

>  <SCORE.INTRA.norm>
-0.525924

>  <SCORE.RESTR>
4.95688

>  <SCORE.RESTR.CAVITY>
4.95688

>  <SCORE.RESTR.norm>
0.154902

>  <SCORE.SYSTEM>
0

>  <SCORE.SYSTEM.CONST>
0

>  <SCORE.SYSTEM.DIHEDRAL>
0

>  <SCORE.SYSTEM.SOLV>
0

>  <SCORE.SYSTEM.norm>
0

>  <SCORE.heavy>
32

>  <SCORE.norm>
-2.15358

>  <RMSD>
0.776

$$$$
1lc4
 OpenBabel02141814113D
libRbt.so/2013.1/901 2013/11/27
 32 34  0  0  0  0  0  0  0  0999 V2000
  -10.2851    5.8797   19.4336 C   0  0  2  0  0  0  0  0  0  0  0  0
  -11.4048    6.6185   19.8539 O   0  0  0  0  0  0  0  0  0  0  0  0
  -10.4745    4.4190   19.8913 C   0  0  2  0  0  0  0  0  0  0  0  0
  -11.7137    3.8670   19.3351 N   0  3  0  0  0  0  0  0  0  0  0  0
  -10.4653    4.3402   21.4361 C   0  0  0  0  0  0  0  0  0  0  0  0
   -9.1173    4.9025   21.9202 C   0  0  2  0  0  0  0  0  0  0  0  0
   -9.0225    4.8140   23.3459 O   0  0  0  0  0  0  0  0  0  0  0  0
   -8.9709    6.3669   21.4368 C   0  0  2  0  0  0  0  0  0  0  0  0
   -9.0708    6.4342   19.9857 O   0  0  0  0  0  0  0  0  0  0  0  0
   -7.6376    7.0042   21.8201 C   0  0  0  0  0  0  0  0  0  0  0  0
   -7.6899    7.5787   23.1901 N   0  3  0  0  0  0  0  0  0  0  0  0
  -13.6776   10.0429   18.8208 C   0  0  2  0  0  0  0  0  0  0  0  0
  -14.0820   11.3588   18.2928 N   0  3  0  0  0  0  0  0  0  0  0  0
  -12.5894   10.2190   19.8711 C   0  0  0  0  0  0  0  0  0  0  0  0
  -12.1575    8.8568   20.4254 C   0  0  2  0  0  0  0  0  0  0  0  0
  -11.1864    9.0844   21.5243 N   0  3  0  0  0  0  0  0  0  0  0  0
  -11.6321    7.9264   19.2915 C   0  0  2  0  0  0  0  0  0  0  0  0
  -12.7158    7.7914   18.1910 C   0  0  2  0  0  0  0  0  0  0  0  0
  -12.1832    7.0890   17.0942 O   0  0  0  0  0  0  0  0  0  0  0  0
  -13.1524    9.1739   17.6797 C   0  0  1  0  0  0  0  0  0  0  0  0
  -14.1707    9.0014   16.6948 O   0  0  0  0  0  0  0  0  0  0  0  0
  -14.1633    9.8709   15.6153 C   0  0  2  0  0  0  0  0  0  0  0  0
  -15.6133   10.1090   15.1600 C   0  0  2  0  0  0  0  0  0  0  0  0
  -16.3446   10.6657   16.2450 O   0  0  0  0  0  0  0  0  0  0  0  0
  -16.2416    8.7713   14.7316 C   0  0  1  0  0  0  0  0  0  0  0  0
  -17.6592    8.9365   14.2987 N   0  3  0  0  0  0  0  0  0  0  0  0
  -15.3934    8.1495   13.5954 C   0  0  2  0  0  0  0  0  0  0  0  0
  -15.9381    6.8944   13.1943 O   0  0  0  0  0  0  0  0  0  0  0  0
  -13.9318    7.9849   14.0519 C   0  0  2  0  0  0  0  0  0  0  0  0
  -13.3965    9.2683   14.5406 O   0  0  0  0  0  0  0  0  0  0  0  0
  -13.0308    7.5276   12.9263 C   0  0  0  0  0  0  0  0  0  0  0  0
  -13.4111    6.2434   12.4368 O   0  0  0  0  0  0  0  0  0  0  0  0
  1  2  1  1  0  0  0
  1  3  1  0  0  0  0
  1  9  1  0  0  0  0
  3  4  1  1  0  0  0
  3  5  1  0  0  0  0
  5  6  1  0  0  0  0
  6  7  1  1  0  0  0
  6  8  1  0  0  0  0
  8  9  1  0  0  0  0
  8 10  1  6  0  0  0
 10 11  1  0  0  0  0
 12 13  1  6  0  0  0
 12 14  1  0  0  0  0
 12 20  1  0  0  0  0
 14 15  1  0  0  0  0
 15 16  1  1  0  0  0
 15 17  1  0  0  0  0
 17  2  1  1  0  0  0
 17 18  1  0  0  0  0
 18 19  1  6  0  0  0
 18 20  1  0  0  0  0
 20 21  1  6  0  0  0
 22 21  1  1  0  0  0
 22 23  1  0  0  0  0
 22 30  1  0  0  0  0
 23 24  1  1  0  0  0
 23 25  1  0  0  0  0
 25 26  1  6  0  0  0
 25 27  1  0  0  0  0
 27 28  1  1  0  0  0
 27 29  1  0  0  0  0
 29 30  1  0  0  0  0
 29 31  1  6  0  0  0
 31 32  1  0  0  0  0
M  CHG  5   4   1  11   1  13   1  16   1  26   1
M  END
>  <CHROM.1>
-165.53288256,-141.37252905,-171.33485229,-64.36464718,-85.30126495,-95.01418661
75.11887605,176.66022385,-55.69604359,94.90635312,-147.58990977,-72.02756029
-54.67940072,-175.59202835,-62.48938569,-62.66253654,-12.47099760,7.71849248
18.00666710,-0.31804712,0.87822552,-2.39517771

>  <Name>
1lc4

>  <RI>
0

>  <Rbt.Current_Directory>
/home/afrankz/demos/rdock_decoys_rna/rnas/1lc4

>  <Rbt.Executable>
rbdock ($Id: //depot/dev/client3/rdock/2013.1/src/exe/rbdock.cxx#4 $)

>  <Rbt.Library>
libRbt.so (2013.1, Build901 2013/11/27)

>  <Rbt.Parameter_File>
/export/apps/rDock/src/rDock_2013.1_src/data/scripts/dock_solv.prm

>  <Rbt.Receptor>
prm/pocket_docking_3.prm

>  <SCORE>
-72.3127

>  <SCORE.INTER>
-54.9752

>  <SCORE.INTER.CONST>
1

>  <SCORE.INTER.POLAR>
-7.17542

>  <SCORE.INTER.ROT>
6

>  <SCORE.INTER.SOLV>
25.0572

>  <SCORE.INTER.VDW>
-28.6845

>  <SCORE.INTER.norm>
-1.71798

>  <SCORE.INTRA>
-17.3375

>  <SCORE.INTRA.DIHEDRAL>
-23.3589

>  <SCORE.INTRA.DIHEDRAL.0>
44.2576

>  <SCORE.INTRA.POLAR>
-0.621388

>  <SCORE.INTRA.POLAR.0>
-0.381556

>  <SCORE.INTRA.REPUL>
0

>  <SCORE.INTRA.REPUL.0>
0

>  <SCORE.INTRA.SOLV>
1.0507

>  <SCORE.INTRA.SOLV.lig_0>
-134.592

>  <SCORE.INTRA.VDW>
-4.07063

>  <SCORE.INTRA.VDW.0>
-1.01417

>  <SCORE.INTRA.norm>
-0.541796

>  <SCORE.RESTR>
0

>  <SCORE.RESTR.CAVITY>
0

>  <SCORE.RESTR.norm>
0

>  <SCORE.SYSTEM>
0

>  <SCORE.SYSTEM.CONST>
0

>  <SCORE.SYSTEM.DIHEDRAL>
0

>  <SCORE.SYSTEM.SOLV>
0

>  <SCORE.SYSTEM.norm>
0

>  <SCORE.heavy>
32

>  <SCORE.norm>
-2.25977

>  <RMSD>
0.779

$$$$
1lc4
 OpenBabel02141814113D
libRbt.so/2013.1/901 2013/11/27
 32 34  0  0  0  0  0  0  0  0999 V2000
  -10.7794    5.9914   19.3222 C   0  0  2  0  0  0  0  0  0  0  0  0
  -11.8565    6.7850   19.7536 O   0  0  0  0  0  0  0  0  0  0  0  0
  -10.9833    4.5652   19.8730 C   0  0  2  0  0  0  0  0  0  0  0  0
  -12.2632    4.0186   19.4116 N   0  3  0  0  0  0  0  0  0  0  0  0
  -10.8975    4.5739   21.4173 C   0  0  0  0  0  0  0  0  0  0  0  0
   -9.5124    5.1236   21.8009 C   0  0  2  0  0  0  0  0  0  0  0  0
   -9.3475    5.1135   23.2228 O   0  0  0  0  0  0  0  0  0  0  0  0
   -9.3526    6.5533   21.2264 C   0  0  2  0  0  0  0  0  0  0  0  0
   -9.5244    6.5409   19.7806 O   0  0  0  0  0  0  0  0  0  0  0  0
   -7.9853    7.1724   21.5058 C   0  0  0  0  0  0  0  0  0  0  0  0
   -7.8720    7.6102   22.9218 N   0  3  0  0  0  0  0  0  0  0  0  0
  -14.0970   10.1972   18.6147 C   0  0  2  0  0  0  0  0  0  0  0  0
  -14.4944   11.4905   18.0289 N   0  3  0  0  0  0  0  0  0  0  0  0
  -12.9656   10.4068   19.6119 C   0  0  0  0  0  0  0  0  0  0  0  0
  -12.5406    9.0681   20.2256 C   0  0  2  0  0  0  0  0  0  0  0  0
  -11.5232    9.3344   21.2728 N   0  3  0  0  0  0  0  0  0  0  0  0
  -12.0786    8.0644   19.1272 C   0  0  2  0  0  0  0  0  0  0  0  0
  -13.2066    7.8930   18.0774 C   0  0  2  0  0  0  0  0  0  0  0  0
  -12.7313    7.1188   17.0028 O   0  0  0  0  0  0  0  0  0  0  0  0
  -13.6342    9.2545   17.5056 C   0  0  1  0  0  0  0  0  0  0  0  0
  -14.6931    9.0505   16.5708 O   0  0  0  0  0  0  0  0  0  0  0  0
  -14.6237    9.7432   15.3722 C   0  0  2  0  0  0  0  0  0  0  0  0
  -16.0149    9.7398   14.7158 C   0  0  2  0  0  0  0  0  0  0  0  0
  -16.9364   10.3640   15.6008 O   0  0  0  0  0  0  0  0  0  0  0  0
  -16.4478    8.2890   14.4408 C   0  0  1  0  0  0  0  0  0  0  0  0
  -17.8031    8.2212   13.8221 N   0  3  0  0  0  0  0  0  0  0  0  0
  -15.3979    7.6069   13.5301 C   0  0  2  0  0  0  0  0  0  0  0  0
  -15.7599    6.2511   13.2782 O   0  0  0  0  0  0  0  0  0  0  0  0
  -14.0024    7.6839   14.1770 C   0  0  2  0  0  0  0  0  0  0  0  0
  -13.6642    9.0796   14.5089 O   0  0  0  0  0  0  0  0  0  0  0  0
  -12.9177    7.1711   13.2559 C   0  0  0  0  0  0  0  0  0  0  0  0
  -13.0508    7.7027   11.9395 O   0  0  0  0  0  0  0  0  0  0  0  0
  1  2  1  1  0  0  0
  1  3  1  0  0  0  0
  1  9  1  0  0  0  0
  3  4  1  1  0  0  0
  3  5  1  0  0  0  0
  5  6  1  0  0  0  0
  6  7  1  1  0  0  0
  6  8  1  0  0  0  0
  8  9  1  0  0  0  0
  8 10  1  6  0  0  0
 10 11  1  0  0  0  0
 12 13  1  6  0  0  0
 12 14  1  0  0  0  0
 12 20  1  0  0  0  0
 14 15  1  0  0  0  0
 15 16  1  1  0  0  0
 15 17  1  0  0  0  0
 17  2  1  1  0  0  0
 17 18  1  0  0  0  0
 18 19  1  6  0  0  0
 18 20  1  0  0  0  0
 20 21  1  6  0  0  0
 22 21  1  1  0  0  0
 22 23  1  0  0  0  0
 22 30  1  0  0  0  0
 23 24  1  1  0  0  0
 23 25  1  0  0  0  0
 25 26  1  6  0  0  0
 25 27  1  0  0  0  0
 27 28  1  1  0  0  0
 27 29  1  0  0  0  0
 29 30  1  0  0  0  0
 29 31  1  6  0  0  0
 31 32  1  0  0  0  0
M  CHG  5   4   1  11   1  13   1  16   1  26   1
M  END
>  <CHROM.1>
-165.48358259,-142.17372769,-59.50020522,59.41011013,-75.22277243,143.35616858
-58.65287213,51.19435073,-56.70600449,102.39060440,-162.63839108,66.05518325
-61.97692260,174.42532452,46.48175460,178.69893880,-12.78898650,7.74242076
17.82855226,-0.35300455,0.88237046,-2.39678222

>  <Name>
1lc4

>  <RI>
0

>  <Rbt.Current_Directory>
/home/afrankz/demos/rdock_decoys_rna/rnas/1lc4

>  <Rbt.Executable>
rbdock ($Id: //depot/dev/client3/rdock/2013.1/src/exe/rbdock.cxx#4 $)

>  <Rbt.Library>
libRbt.so (2013.1, Build901 2013/11/27)

>  <Rbt.Parameter_File>
/export/apps/rDock/src/rDock_2013.1_src/data/scripts/dock_solv.prm

>  <Rbt.Receptor>
prm/pocket_docking_5.prm

>  <SCORE>
-67.862

>  <SCORE.INTER>
-48.8362

>  <SCORE.INTER.CONST>
1

>  <SCORE.INTER.POLAR>
-6.643

>  <SCORE.INTER.ROT>
6

>  <SCORE.INTER.SOLV>
22.6912

>  <SCORE.INTER.VDW>
-25.5779

>  <SCORE.INTER.norm>
-1.52613

>  <SCORE.INTRA>
-19.0258

>  <SCORE.INTRA.DIHEDRAL>
-26.5635

>  <SCORE.INTRA.DIHEDRAL.0>
44.2576

>  <SCORE.INTRA.POLAR>
-0.321165

>  <SCORE.INTRA.POLAR.0>
-0.381556

>  <SCORE.INTRA.REPUL>
0

>  <SCORE.INTRA.REPUL.0>
0

>  <SCORE.INTRA.SOLV>
-0.412657

>  <SCORE.INTRA.SOLV.lig_0>
-134.592

>  <SCORE.INTRA.VDW>
-4.44579

>  <SCORE.INTRA.VDW.0>
-1.01417

>  <SCORE.INTRA.norm>
-0.594557

>  <SCORE.RESTR>
0

>  <SCORE.RESTR.CAVITY>
0

>  <SCORE.RESTR.norm>
0

>  <SCORE.SYSTEM>
0

>  <SCORE.SYSTEM.CONST>
0

>  <SCORE.SYSTEM.DIHEDRAL>
0

>  <SCORE.SYSTEM.SOLV>
0

>  <SCORE.SYSTEM.norm>
0

>  <SCORE.heavy>
32

>  <SCORE.norm>
-2.12069

>  <RMSD>
0.782

$$$$
1lc4
 OpenBabel02141814113D
libRbt.so/2013.1/901 2013/11/27
 32 34  0  0  0  0  0  0  0  0999 V2000
  -10.4644    5.5057   19.5666 C   0  0  2  0  0  0  0  0  0  0  0  0
  -11.3380    6.4620   20.1127 O   0  0  0  0  0  0  0  0  0  0  0  0
  -10.5531    4.2283   20.4263 C   0  0  2  0  0  0  0  0  0  0  0  0
  -11.9316    3.7302   20.4587 N   0  3  0  0  0  0  0  0  0  0  0  0
  -10.0207    4.5080   21.8514 C   0  0  0  0  0  0  0  0  0  0  0  0
   -8.5641    4.9852   21.7161 C   0  0  2  0  0  0  0  0  0  0  0  0
   -7.9926    5.2169   23.0080 O   0  0  0  0  0  0  0  0  0  0  0  0
   -8.5243    6.2659   20.8457 C   0  0  2  0  0  0  0  0  0  0  0  0
   -9.1103    6.0086   19.5378 O   0  0  0  0  0  0  0  0  0  0  0  0
   -7.1125    6.7940   20.6036 C   0  0  0  0  0  0  0  0  0  0  0  0
   -6.4104    7.0610   21.8863 N   0  3  0  0  0  0  0  0  0  0  0  0
  -13.6722    9.6250   18.5294 C   0  0  2  0  0  0  0  0  0  0  0  0
  -14.0917   10.8508   17.8257 N   0  3  0  0  0  0  0  0  0  0  0  0
  -12.6791    9.9742   19.6295 C   0  0  0  0  0  0  0  0  0  0  0  0
  -12.2322    8.7069   20.3667 C   0  0  2  0  0  0  0  0  0  0  0  0
  -11.3618    9.1063   21.5004 N   0  3  0  0  0  0  0  0  0  0  0  0
  -11.5782    7.6854   19.3887 C   0  0  2  0  0  0  0  0  0  0  0  0
  -12.5647    7.3718   18.2345 C   0  0  2  0  0  0  0  0  0  0  0  0
  -11.9166    6.5811   17.2677 O   0  0  0  0  0  0  0  0  0  0  0  0
  -13.0206    8.6638   17.5372 C   0  0  1  0  0  0  0  0  0  0  0  0
  -13.9494    8.3292   16.5066 O   0  0  0  0  0  0  0  0  0  0  0  0
  -13.6471    8.7465   15.2199 C   0  0  2  0  0  0  0  0  0  0  0  0
  -14.9575    8.9143   14.4319 C   0  0  2  0  0  0  0  0  0  0  0  0
  -15.7651    9.8797   15.0935 O   0  0  0  0  0  0  0  0  0  0  0  0
  -15.6938    7.5645   14.3693 C   0  0  1  0  0  0  0  0  0  0  0  0
  -16.9865    7.6702   13.6332 N   0  3  0  0  0  0  0  0  0  0  0  0
  -14.7731    6.5111   13.7061 C   0  0  2  0  0  0  0  0  0  0  0  0
  -15.4202    5.2416   13.6571 O   0  0  0  0  0  0  0  0  0  0  0  0
  -13.4411    6.4111   14.4724 C   0  0  2  0  0  0  0  0  0  0  0  0
  -12.8131    7.7394   14.5904 O   0  0  0  0  0  0  0  0  0  0  0  0
  -12.4471    5.5104   13.7734 C   0  0  0  0  0  0  0  0  0  0  0  0
  -11.9224    6.1202   12.5959 O   0  0  0  0  0  0  0  0  0  0  0  0
  1  2  1  1  0  0  0
  1  3  1  0  0  0  0
  1  9  1  0  0  0  0
  3  4  1  1  0  0  0
  3  5  1  0  0  0  0
  5  6  1  0  0  0  0
  6  7  1  1  0  0  0
  6  8  1  0  0  0  0
  8  9  1  0  0  0  0
  8 10  1  6  0  0  0
 10 11  1  0  0  0  0
 12 13  1  6  0  0  0
 12 14  1  0  0  0  0
 12 20  1  0  0  0  0
 14 15  1  0  0  0  0
 15 16  1  1  0  0  0
 15 17  1  0  0  0  0
 17  2  1  1  0  0  0
 17 18  1  0  0  0  0
 18 19  1  6  0  0  0
 18 20  1  0  0  0  0
 20 21  1  6  0  0  0
 22 21  1  1  0  0  0
 22 23  1  0  0  0  0
 22 30  1  0  0  0  0
 23 24  1  1  0  0  0
 23 25  1  0  0  0  0
 25 26  1  6  0  0  0
 25 27  1  0  0  0  0
 27 28  1  1  0  0  0
 27 29  1  0  0  0  0
 29 30  1  0  0  0  0
 29 31  1  6  0  0  0
 31 32  1  0  0  0  0
M  CHG  5   4   1  11   1  13   1  16   1  26   1
M  END
>  <CHROM.1>
-171.70075949,-164.27348449,68.07463246,64.68384992,-56.75216426,42.79099750
-175.53826836,177.79020870,-51.06726429,114.83957993,-153.19222024,-64.61056440
-72.85094667,74.53896641,72.46135250,-177.59251218,-12.09731369,7.12177018
17.87533542,-0.41429368,0.81727043,-2.36642712

>  <Name>
1lc4

>  <RI>
0

>  <Rbt.Current_Directory>
/home/afrankz/demos/rdock_decoys_rna/rnas/1lc4

>  <Rbt.Executable>
rbdock ($Id: //depot/dev/client3/rdock/2013.1/src/exe/rbdock.cxx#4 $)

>  <Rbt.Library>
libRbt.so (2013.1, Build901 2013/11/27)

>  <Rbt.Parameter_File>
/export/apps/rDock/src/rDock_2013.1_src/data/scripts/dock_solv.prm

>  <Rbt.Receptor>
prm/pocket_docking_3.prm

>  <SCORE>
-67.7191

>  <SCORE.INTER>
-46.9197

>  <SCORE.INTER.CONST>
1

>  <SCORE.INTER.POLAR>
-6.73588

>  <SCORE.INTER.ROT>
6

>  <SCORE.INTER.SOLV>
25.9099

>  <SCORE.INTER.VDW>
-25.0635

>  <SCORE.INTER.norm>
-1.46624

>  <SCORE.INTRA>
-20.7994

>  <SCORE.INTRA.DIHEDRAL>
-29.1106

>  <SCORE.INTRA.DIHEDRAL.0>
44.2576

>  <SCORE.INTRA.POLAR>
-0.61097

>  <SCORE.INTRA.POLAR.0>
-0.381556

>  <SCORE.INTRA.REPUL>
0

>  <SCORE.INTRA.REPUL.0>
0

>  <SCORE.INTRA.SOLV>
-0.985884

>  <SCORE.INTRA.SOLV.lig_0>
-134.592

>  <SCORE.INTRA.VDW>
-3.67382

>  <SCORE.INTRA.VDW.0>
-1.01417

>  <SCORE.INTRA.norm>
-0.64998

>  <SCORE.RESTR>
0

>  <SCORE.RESTR.CAVITY>
0

>  <SCORE.RESTR.norm>
0

>  <SCORE.SYSTEM>
0

>  <SCORE.SYSTEM.CONST>
0

>  <SCORE.SYSTEM.DIHEDRAL>
0

>  <SCORE.SYSTEM.SOLV>
0

>  <SCORE.SYSTEM.norm>
0

>  <SCORE.heavy>
32

>  <SCORE.norm>
-2.11622

>  <RMSD>
0.791

$$$$
1lc4
 OpenBabel02141814113D
libRbt.so/2013.1/901 2013/11/27
 32 34  0  0  0  0  0  0  0  0999 V2000
   -9.7035    6.0848   19.6511 C   0  0  2  0  0  0  0  0  0  0  0  0
  -10.9379    6.6782   19.9675 O   0  0  0  0  0  0  0  0  0  0  0  0
   -9.7095    4.6432   20.1994 C   0  0  2  0  0  0  0  0  0  0  0  0
  -10.8254    3.8844   19.6261 N   0  3  0  0  0  0  0  0  0  0  0  0
   -9.7748    4.6619   21.7446 C   0  0  0  0  0  0  0  0  0  0  0  0
   -8.5489    5.4423   22.2504 C   0  0  2  0  0  0  0  0  0  0  0  0
   -8.5218    5.4565   23.6816 O   0  0  0  0  0  0  0  0  0  0  0  0
   -8.5845    6.8798   21.6743 C   0  0  2  0  0  0  0  0  0  0  0  0
   -8.6123    6.8423   20.2190 O   0  0  0  0  0  0  0  0  0  0  0  0
   -7.3781    7.7258   22.0738 C   0  0  0  0  0  0  0  0  0  0  0  0
   -6.2471    7.5302   21.1293 N   0  3  0  0  0  0  0  0  0  0  0  0
  -13.5088    9.7871   18.6694 C   0  0  2  0  0  0  0  0  0  0  0  0
  -14.0193   11.0487   18.1021 N   0  3  0  0  0  0  0  0  0  0  0  0
  -12.5996   10.0832   19.8543 C   0  0  0  0  0  0  0  0  0  0  0  0
  -12.0591    8.7789   20.4509 C   0  0  2  0  0  0  0  0  0  0  0  0
  -11.2781    9.1089   21.6690 N   0  3  0  0  0  0  0  0  0  0  0  0
  -11.2690    7.9567   19.3892 C   0  0  2  0  0  0  0  0  0  0  0  0
  -12.1731    7.7033   18.1554 C   0  0  2  0  0  0  0  0  0  0  0  0
  -11.4122    7.1069   17.1330 O   0  0  0  0  0  0  0  0  0  0  0  0
  -12.7266    9.0260   17.6009 C   0  0  1  0  0  0  0  0  0  0  0  0
  -13.5761    8.7413   16.4900 O   0  0  0  0  0  0  0  0  0  0  0  0
  -13.5004    9.5926   15.3987 C   0  0  2  0  0  0  0  0  0  0  0  0
  -14.9247    9.8798   14.8936 C   0  0  2  0  0  0  0  0  0  0  0  0
  -15.6672   10.4819   15.9463 O   0  0  0  0  0  0  0  0  0  0  0  0
  -15.5917    8.5610   14.4650 C   0  0  1  0  0  0  0  0  0  0  0  0
  -16.9872    8.7745   13.9845 N   0  3  0  0  0  0  0  0  0  0  0  0
  -14.7333    7.8885   13.3659 C   0  0  2  0  0  0  0  0  0  0  0  0
  -15.3143    6.6494   12.9661 O   0  0  0  0  0  0  0  0  0  0  0  0
  -13.2945    7.6742   13.8714 C   0  0  2  0  0  0  0  0  0  0  0  0
  -12.7245    8.9433   14.3581 O   0  0  0  0  0  0  0  0  0  0  0  0
  -12.3773    7.1642   12.7822 C   0  0  0  0  0  0  0  0  0  0  0  0
  -11.1510    6.6696   13.3161 O   0  0  0  0  0  0  0  0  0  0  0  0
  1  2  1  1  0  0  0
  1  3  1  0  0  0  0
  1  9  1  0  0  0  0
  3  4  1  6  0  0  0
  3  5  1  0  0  0  0
  5  6  1  0  0  0  0
  6  7  1  1  0  0  0
  6  8  1  0  0  0  0
  8  9  1  0  0  0  0
  8 10  1  6  0  0  0
 10 11  1  0  0  0  0
 12 13  1  6  0  0  0
 12 14  1  0  0  0  0
 12 20  1  0  0  0  0
 14 15  1  0  0  0  0
 15 16  1  1  0  0  0
 15 17  1  0  0  0  0
 17  2  1  1  0  0  0
 17 18  1  0  0  0  0
 18 19  1  6  0  0  0
 18 20  1  0  0  0  0
 20 21  1  6  0  0  0
 22 21  1  1  0  0  0
 22 23  1  0  0  0  0
 22 30  1  0  0  0  0
 23 24  1  1  0  0  0
 23 25  1  0  0  0  0
 25 26  1  6  0  0  0
 25 27  1  0  0  0  0
 27 28  1  1  0  0  0
 27 29  1  0  0  0  0
 29 30  1  0  0  0  0
 29 31  1  6  0  0  0
 31 32  1  0  0  0  0
M  CHG  5   4   1  11   1  13   1  16   1  26   1
M  END
>  <CHROM.1>
-170.53047246,-143.79811953,18.04338178,-57.99165662,86.80029353,69.73051811
-48.65815136,175.18118607,-177.57533717,98.07826775,-137.64248058,-87.69798781
174.31471541,175.99236712,-166.05781056,74.96997353,-11.87320056,7.72412791
17.95511635,-0.55109236,0.78090868,-2.12725970

>  <Name>
1lc4

>  <RI>
0

>  <Rbt.Current_Directory>
/home/afrankz/demos/rdock_decoys_rna/rnas/1lc4

>  <Rbt.Executable>
rbdock ($Id: //depot/dev/client3/rdock/2013.1/src/exe/rbdock.cxx#4 $)

>  <Rbt.Library>
libRbt.so (2013.1, Build901 2013/11/27)

>  <Rbt.Parameter_File>
/export/apps/rDock/src/rDock_2013.1_src/data/scripts/dock_solv.prm

>  <Rbt.Receptor>
prm/blind_docking_80.prm

>  <SCORE>
-63.0287

>  <SCORE.INTER>
-54.1966

>  <SCORE.INTER.CONST>
1

>  <SCORE.INTER.POLAR>
-8.5121

>  <SCORE.INTER.ROT>
6

>  <SCORE.INTER.SOLV>
37.2969

>  <SCORE.INTER.VDW>
-27.7897

>  <SCORE.INTER.norm>
-1.69364

>  <SCORE.INTRA>
-13.6678

>  <SCORE.INTRA.DIHEDRAL>
-17.4018

>  <SCORE.INTRA.DIHEDRAL.0>
44.2576

>  <SCORE.INTRA.POLAR>
-0.526431

>  <SCORE.INTRA.POLAR.0>
-0.381556

>  <SCORE.INTRA.REPUL>
0

>  <SCORE.INTRA.REPUL.0>
0

>  <SCORE.INTRA.SOLV>
0.405685

>  <SCORE.INTRA.SOLV.lig_0>
-134.592

>  <SCORE.INTRA.VDW>
-3.37985

>  <SCORE.INTRA.VDW.0>
-1.01417

>  <SCORE.INTRA.norm>
-0.427117

>  <SCORE.RESTR>
4.83559

>  <SCORE.RESTR.CAVITY>
4.83559

>  <SCORE.RESTR.norm>
0.151112

>  <SCORE.SYSTEM>
0

>  <SCORE.SYSTEM.CONST>
0

>  <SCORE.SYSTEM.DIHEDRAL>
0

>  <SCORE.SYSTEM.SOLV>
0

>  <SCORE.SYSTEM.norm>
0

>  <SCORE.heavy>
32

>  <SCORE.norm>
-1.96965

>  <RMSD>
0.792

$$$$
1lc4
 OpenBabel02141814113D
libRbt.so/2013.1/901 2013/11/27
 32 34  0  0  0  0  0  0  0  0999 V2000
  -10.6115    5.7960   19.3334 C   0  0  2  0  0  0  0  0  0  0  0  0
  -11.6698    6.6019   19.7880 O   0  0  0  0  0  0  0  0  0  0  0  0
  -10.8655    4.3532   19.8159 C   0  0  2  0  0  0  0  0  0  0  0  0
  -12.1551    3.8678   19.3150 N   0  3  0  0  0  0  0  0  0  0  0  0
  -10.7998    4.2892   21.3599 C   0  0  0  0  0  0  0  0  0  0  0  0
   -9.4039    4.7780   21.7845 C   0  0  2  0  0  0  0  0  0  0  0  0
   -9.2581    4.6983   23.2063 O   0  0  0  0  0  0  0  0  0  0  0  0
   -9.1935    6.2267   21.2780 C   0  0  2  0  0  0  0  0  0  0  0  0
   -9.3467    6.2854   19.8312 O   0  0  0  0  0  0  0  0  0  0  0  0
   -7.8121    6.7903   21.6015 C   0  0  0  0  0  0  0  0  0  0  0  0
   -7.8100    7.4907   22.9127 N   0  3  0  0  0  0  0  0  0  0  0  0
  -13.9816    9.9338   18.5577 C   0  0  2  0  0  0  0  0  0  0  0  0
  -14.4029   11.2081   17.9472 N   0  3  0  0  0  0  0  0  0  0  0  0
  -12.8795   10.1880   19.5771 C   0  0  0  0  0  0  0  0  0  0  0  0
  -12.4299    8.8696   20.2165 C   0  0  2  0  0  0  0  0  0  0  0  0
  -11.4445    9.1776   21.2826 N   0  3  0  0  0  0  0  0  0  0  0  0
  -11.9146    7.8669   19.1411 C   0  0  2  0  0  0  0  0  0  0  0  0
  -13.0132    7.6504   18.0688 C   0  0  2  0  0  0  0  0  0  0  0  0
  -12.4918    6.8778   17.0147 O   0  0  0  0  0  0  0  0  0  0  0  0
  -13.4670    8.9920   17.4708 C   0  0  1  0  0  0  0  0  0  0  0  0
  -14.4983    8.7464   16.5154 O   0  0  0  0  0  0  0  0  0  0  0  0
  -14.5020    9.5278   15.3705 C   0  0  2  0  0  0  0  0  0  0  0  0
  -15.9545    9.7075   14.8971 C   0  0  2  0  0  0  0  0  0  0  0  0
  -16.6957   10.3375   15.9343 O   0  0  0  0  0  0  0  0  0  0  0  0
  -16.5624    8.3310   14.5757 C   0  0  1  0  0  0  0  0  0  0  0  0
  -17.9815    8.4404   14.1304 N   0  3  0  0  0  0  0  0  0  0  0  0
  -15.7032    7.6338   13.4927 C   0  0  2  0  0  0  0  0  0  0  0  0
  -16.2287    6.3430   13.1920 O   0  0  0  0  0  0  0  0  0  0  0  0
  -14.2401    7.5275   13.9615 C   0  0  2  0  0  0  0  0  0  0  0  0
  -13.7246    8.8534   14.3473 O   0  0  0  0  0  0  0  0  0  0  0  0
  -13.3306    6.9960   12.8760 C   0  0  0  0  0  0  0  0  0  0  0  0
  -11.9731    7.3726   13.0963 O   0  0  0  0  0  0  0  0  0  0  0  0
  1  2  1  1  0  0  0
  1  3  1  0  0  0  0
  1  9  1  0  0  0  0
  3  4  1  1  0  0  0
  3  5  1  0  0  0  0
  5  6  1  0  0  0  0
  6  7  1  1  0  0  0
  6  8  1  0  0  0  0
  8  9  1  0  0  0  0
  8 10  1  6  0  0  0
 10 11  1  0  0  0  0
 12 13  1  6  0  0  0
 12 14  1  0  0  0  0
 12 20  1  0  0  0  0
 14 15  1  0  0  0  0
 15 16  1  1  0  0  0
 15 17  1  0  0  0  0
 17  2  1  1  0  0  0
 17 18  1  0  0  0  0
 18 19  1  6  0  0  0
 18 20  1  0  0  0  0
 20 21  1  6  0  0  0
 22 21  1  1  0  0  0
 22 23  1  0  0  0  0
 22 30  1  0  0  0  0
 23 24  1  1  0  0  0
 23 25  1  0  0  0  0
 25 26  1  6  0  0  0
 25 27  1  0  0  0  0
 27 28  1  1  0  0  0
 27 29  1  0  0  0  0
 29 30  1  0  0  0  0
 29 31  1  6  0  0  0
 31 32  1  0  0  0  0
M  CHG  5   4   1  11   1  13   1  16   1  26   1
M  END
>  <CHROM.1>
-160.27901880,-146.17016614,-170.58648332,174.95082719,-90.53942872,25.70930697
64.56260642,-67.54809474,-177.37904984,95.76821779,-148.90558080,-69.35832454
-179.97268712,171.79015381,157.29536287,-63.05325446,-12.70663229,7.55791178
17.86824583,-0.31244516,0.86476725,-2.40695706

>  <Name>
1lc4

>  <RI>
0

>  <Rbt.Current_Directory>
/home/afrankz/demos/rdock_decoys_rna/rnas/1lc4

>  <Rbt.Executable>
rbdock ($Id: //depot/dev/client3/rdock/2013.1/src/exe/rbdock.cxx#4 $)

>  <Rbt.Library>
libRbt.so (2013.1, Build901 2013/11/27)

>  <Rbt.Parameter_File>
/export/apps/rDock/src/rDock_2013.1_src/data/scripts/dock_solv.prm

>  <Rbt.Receptor>
prm/pocket_docking_2.prm

>  <SCORE>
-66.1706

>  <SCORE.INTER>
-50.9517

>  <SCORE.INTER.CONST>
1

>  <SCORE.INTER.POLAR>
-7.20349

>  <SCORE.INTER.ROT>
6

>  <SCORE.INTER.SOLV>
23.4543

>  <SCORE.INTER.VDW>
-25.3743

>  <SCORE.INTER.norm>
-1.59224

>  <SCORE.INTRA>
-15.6595

>  <SCORE.INTRA.DIHEDRAL>
-21.7238

>  <SCORE.INTRA.DIHEDRAL.0>
44.2576

>  <SCORE.INTRA.POLAR>
-0.0991965

>  <SCORE.INTRA.POLAR.0>
-0.381556

>  <SCORE.INTRA.REPUL>
0

>  <SCORE.INTRA.REPUL.0>
0

>  <SCORE.INTRA.SOLV>
-0.334571

>  <SCORE.INTRA.SOLV.lig_0>
-134.592

>  <SCORE.INTRA.VDW>
-4.29301

>  <SCORE.INTRA.VDW.0>
-1.01417

>  <SCORE.INTRA.norm>
-0.489359

>  <SCORE.RESTR>
0.440551

>  <SCORE.RESTR.CAVITY>
0.440551

>  <SCORE.RESTR.norm>
0.0137672

>  <SCORE.SYSTEM>
0

>  <SCORE.SYSTEM.CONST>
0

>  <SCORE.SYSTEM.DIHEDRAL>
0

>  <SCORE.SYSTEM.SOLV>
0

>  <SCORE.SYSTEM.norm>
0

>  <SCORE.heavy>
32

>  <SCORE.norm>
-2.06783

>  <RMSD>
0.793

$$$$
1lc4
 OpenBabel02141814113D
libRbt.so/2013.1/901 2013/11/27
 32 34  0  0  0  0  0  0  0  0999 V2000
  -10.2326    5.8240   19.4007 C   0  0  2  0  0  0  0  0  0  0  0  0
  -11.3659    6.5500   19.8061 O   0  0  0  0  0  0  0  0  0  0  0  0
  -10.4315    4.3521   19.8166 C   0  0  2  0  0  0  0  0  0  0  0  0
  -11.6525    3.8117   19.2109 N   0  3  0  0  0  0  0  0  0  0  0  0
  -10.4673    4.2351   21.3586 C   0  0  0  0  0  0  0  0  0  0  0  0
   -9.1355    4.7879   21.8957 C   0  0  2  0  0  0  0  0  0  0  0  0
   -9.0823    4.6644   23.3209 O   0  0  0  0  0  0  0  0  0  0  0  0
   -8.9788    6.2640   21.4530 C   0  0  2  0  0  0  0  0  0  0  0  0
   -9.0363    6.3670   20.0017 O   0  0  0  0  0  0  0  0  0  0  0  0
   -7.6590    6.8942   21.8908 C   0  0  0  0  0  0  0  0  0  0  0  0
   -7.5280    6.8950   23.3716 N   0  3  0  0  0  0  0  0  0  0  0  0
  -13.7911    9.7947   18.5609 C   0  0  2  0  0  0  0  0  0  0  0  0
  -14.2517   11.0608   17.9619 N   0  3  0  0  0  0  0  0  0  0  0  0
  -12.7397   10.0782   19.6250 C   0  0  0  0  0  0  0  0  0  0  0  0
  -12.2499    8.7687   20.2532 C   0  0  2  0  0  0  0  0  0  0  0  0
  -11.3191    9.0994   21.3609 N   0  3  0  0  0  0  0  0  0  0  0  0
  -11.6485    7.8161   19.1769 C   0  0  2  0  0  0  0  0  0  0  0  0
  -12.6965    7.5716   18.0608 C   0  0  2  0  0  0  0  0  0  0  0  0
  -12.1009    6.8485   17.0107 O   0  0  0  0  0  0  0  0  0  0  0  0
  -13.1931    8.9031   17.4744 C   0  0  1  0  0  0  0  0  0  0  0  0
  -14.1766    8.6300   16.4769 O   0  0  0  0  0  0  0  0  0  0  0  0
  -14.2857    9.5317   15.4298 C   0  0  2  0  0  0  0  0  0  0  0  0
  -15.7559    9.5962   14.9818 C   0  0  2  0  0  0  0  0  0  0  0  0
  -16.5493   10.0139   16.0856 O   0  0  0  0  0  0  0  0  0  0  0  0
  -16.2073    8.2048   14.5045 C   0  0  1  0  0  0  0  0  0  0  0  0
  -17.6359    8.2005   14.0763 N   0  3  0  0  0  0  0  0  0  0  0  0
  -15.2899    7.7396   13.3474 C   0  0  2  0  0  0  0  0  0  0  0  0
  -15.6689    6.4399   12.9003 O   0  0  0  0  0  0  0  0  0  0  0  0
  -13.8176    7.7493   13.7991 C   0  0  2  0  0  0  0  0  0  0  0  0
  -13.4513    9.0727   14.3348 O   0  0  0  0  0  0  0  0  0  0  0  0
  -12.8690    7.4536   12.6587 C   0  0  0  0  0  0  0  0  0  0  0  0
  -13.0917    6.1554   12.1125 O   0  0  0  0  0  0  0  0  0  0  0  0
  1  2  1  1  0  0  0
  1  3  1  0  0  0  0
  1  9  1  0  0  0  0
  3  4  1  6  0  0  0
  3  5  1  0  0  0  0
  5  6  1  0  0  0  0
  6  7  1  1  0  0  0
  6  8  1  0  0  0  0
  8  9  1  0  0  0  0
  8 10  1  6  0  0  0
 10 11  1  0  0  0  0
 12 13  1  6  0  0  0
 12 14  1  0  0  0  0
 12 20  1  0  0  0  0
 14 15  1  0  0  0  0
 15 16  1  1  0  0  0
 15 17  1  0  0  0  0
 17  2  1  1  0  0  0
 17 18  1  0  0  0  0
 18 19  1  6  0  0  0
 18 20  1  0  0  0  0
 20 21  1  6  0  0  0
 22 21  1  1  0  0  0
 22 23  1  0  0  0  0
 22 30  1  0  0  0  0
 23 24  1  1  0  0  0
 23 25  1  0  0  0  0
 25 26  1  6  0  0  0
 25 27  1  0  0  0  0
 27 28  1  1  0  0  0
 27 29  1  0  0  0  0
 29 30  1  0  0  0  0
 29 31  1  6  0  0  0
 31 32  1  0  0  0  0
M  CHG  5   4   1  11   1  13   1  16   1  26   1
M  END
>  <CHROM.1>
-159.72670469,-144.35989388,-160.38190195,-66.72123654,-60.59415700,-50.82629705
-49.76784125,53.05846590,175.62494441,88.05374871,-147.08744309,-69.50629357
179.06334734,-174.97069391,-61.82783904,-64.91281224,-12.46598786,7.46718484
17.86163112,-0.41792583,0.85954145,-2.30979798

>  <Name>
1lc4

>  <RI>
0

>  <Rbt.Current_Directory>
/home/afrankz/demos/rdock_decoys_rna/rnas/1lc4

>  <Rbt.Executable>
rbdock ($Id: //depot/dev/client3/rdock/2013.1/src/exe/rbdock.cxx#4 $)

>  <Rbt.Library>
libRbt.so (2013.1, Build901 2013/11/27)

>  <Rbt.Parameter_File>
/export/apps/rDock/src/rDock_2013.1_src/data/scripts/dock_solv.prm

>  <Rbt.Receptor>
prm/pocket_docking_2.prm

>  <SCORE>
-72.7623

>  <SCORE.INTER>
-53.5488

>  <SCORE.INTER.CONST>
1

>  <SCORE.INTER.POLAR>
-7.1902

>  <SCORE.INTER.ROT>
6

>  <SCORE.INTER.SOLV>
22.069

>  <SCORE.INTER.VDW>
-26.6882

>  <SCORE.INTER.norm>
-1.6734

>  <SCORE.INTRA>
-19.6277

>  <SCORE.INTRA.DIHEDRAL>
-27.8471

>  <SCORE.INTRA.DIHEDRAL.0>
44.2576

>  <SCORE.INTRA.POLAR>
-0.79176

>  <SCORE.INTRA.POLAR.0>
-0.381556

>  <SCORE.INTRA.REPUL>
0

>  <SCORE.INTRA.REPUL.0>
0

>  <SCORE.INTRA.SOLV>
1.41871

>  <SCORE.INTRA.SOLV.lig_0>
-134.592

>  <SCORE.INTRA.VDW>
-3.72157

>  <SCORE.INTRA.VDW.0>
-1.01417

>  <SCORE.INTRA.norm>
-0.613367

>  <SCORE.RESTR>
0.414274

>  <SCORE.RESTR.CAVITY>
0.414274

>  <SCORE.RESTR.norm>
0.0129461

>  <SCORE.SYSTEM>
0

>  <SCORE.SYSTEM.CONST>
0

>  <SCORE.SYSTEM.DIHEDRAL>
0

>  <SCORE.SYSTEM.SOLV>
0

>  <SCORE.SYSTEM.norm>
0

>  <SCORE.heavy>
32

>  <SCORE.norm>
-2.27382

>  <RMSD>
0.803

$$$$
1lc4
 OpenBabel02141814113D
libRbt.so/2013.1/901 2013/11/27
 32 34  0  0  0  0  0  0  0  0999 V2000
  -10.1608    5.6551   19.6564 C   0  0  2  0  0  0  0  0  0  0  0  0
  -11.2024    6.4733   20.1271 O   0  0  0  0  0  0  0  0  0  0  0  0
  -10.3742    4.2350   20.2191 C   0  0  2  0  0  0  0  0  0  0  0  0
  -11.6829    3.7158   19.8099 N   0  3  0  0  0  0  0  0  0  0  0  0
  -10.2279    4.2454   21.7589 C   0  0  0  0  0  0  0  0  0  0  0  0
   -8.8171    4.7652   22.0864 C   0  0  2  0  0  0  0  0  0  0  0  0
   -8.5970    4.7546   23.5008 O   0  0  0  0  0  0  0  0  0  0  0  0
   -8.6485    6.1896   21.5016 C   0  0  2  0  0  0  0  0  0  0  0  0
   -8.8770    6.1779   20.0637 O   0  0  0  0  0  0  0  0  0  0  0  0
   -7.2581    6.7791   21.7255 C   0  0  0  0  0  0  0  0  0  0  0  0
   -7.2635    8.2545   21.5444 N   0  3  0  0  0  0  0  0  0  0  0  0
  -13.5801    9.7340   18.8330 C   0  0  2  0  0  0  0  0  0  0  0  0
  -14.0271   10.9867   18.1969 N   0  3  0  0  0  0  0  0  0  0  0  0
  -12.4804   10.0305   19.8435 C   0  0  0  0  0  0  0  0  0  0  0  0
  -12.0043    8.7348   20.5095 C   0  0  2  0  0  0  0  0  0  0  0  0
  -11.0221    9.0840   21.5658 N   0  3  0  0  0  0  0  0  0  0  0  0
  -11.4728    7.7193   19.4541 C   0  0  2  0  0  0  0  0  0  0  0  0
  -12.5700    7.4593   18.3899 C   0  0  2  0  0  0  0  0  0  0  0  0
  -12.0367    6.6744   17.3509 O   0  0  0  0  0  0  0  0  0  0  0  0
  -13.0506    8.7791   17.7649 C   0  0  1  0  0  0  0  0  0  0  0  0
  -14.0796    8.4937   16.8181 O   0  0  0  0  0  0  0  0  0  0  0  0
  -13.7649    8.6386   15.4760 C   0  0  2  0  0  0  0  0  0  0  0  0
  -14.9443    9.3194   14.7605 C   0  0  2  0  0  0  0  0  0  0  0  0
  -15.1684   10.5887   15.3609 O   0  0  0  0  0  0  0  0  0  0  0  0
  -16.2012    8.4422   14.8967 C   0  0  1  0  0  0  0  0  0  0  0  0
  -17.3865    9.0634   14.2384 N   0  3  0  0  0  0  0  0  0  0  0  0
  -15.9151    7.0437   14.2972 C   0  0  2  0  0  0  0  0  0  0  0  0
  -17.0557    6.1990   14.4321 O   0  0  0  0  0  0  0  0  0  0  0  0
  -14.6889    6.4120   14.9822 C   0  0  2  0  0  0  0  0  0  0  0  0
  -13.5321    7.3225   14.9104 O   0  0  0  0  0  0  0  0  0  0  0  0
  -14.2741    5.1142   14.3254 C   0  0  0  0  0  0  0  0  0  0  0  0
  -13.7459    5.3314   13.0188 O   0  0  0  0  0  0  0  0  0  0  0  0
  1  2  1  1  0  0  0
  1  3  1  0  0  0  0
  1  9  1  0  0  0  0
  3  4  1  1  0  0  0
  3  5  1  0  0  0  0
  5  6  1  0  0  0  0
  6  7  1  1  0  0  0
  6  8  1  0  0  0  0
  8  9  1  0  0  0  0
  8 10  1  6  0  0  0
 10 11  1  0  0  0  0
 12 13  1  6  0  0  0
 12 14  1  0  0  0  0
 12 20  1  0  0  0  0
 14 15  1  0  0  0  0
 15 16  1  1  0  0  0
 15 17  1  0  0  0  0
 17  2  1  1  0  0  0
 17 18  1  0  0  0  0
 18 19  1  6  0  0  0
 18 20  1  0  0  0  0
 20 21  1  6  0  0  0
 22 21  1  1  0  0  0
 22 23  1  0  0  0  0
 22 30  1  0  0  0  0
 23 24  1  1  0  0  0
 23 25  1  0  0  0  0
 25 26  1  6  0  0  0
 25 27  1  0  0  0  0
 27 28  1  1  0  0  0
 27 29  1  0  0  0  0
 29 30  1  0  0  0  0
 29 31  1  6  0  0  0
 31 32  1  0  0  0  0
M  CHG  5   4   1  11   1  13   1  16   1  26   1
M  END
>  <CHROM.1>
-161.75340721,-148.43487697,58.43223356,-59.80030734,-162.20995927,-73.41730202
54.74296994,60.63380077,178.10241267,129.78831028,-137.98190926,157.34108977
-175.89249135,-60.18910839,68.59184101,-58.92445873,-12.40018990,7.27810801
18.15054857,-0.06956490,0.84020651,-2.78002008

>  <Name>
1lc4

>  <RI>
0

>  <Rbt.Current_Directory>
/home/afrankz/demos/rdock_decoys_rna/rnas/1lc4

>  <Rbt.Executable>
rbdock ($Id: //depot/dev/client3/rdock/2013.1/src/exe/rbdock.cxx#4 $)

>  <Rbt.Library>
libRbt.so (2013.1, Build901 2013/11/27)

>  <Rbt.Parameter_File>
/export/apps/rDock/src/rDock_2013.1_src/data/scripts/dock_solv.prm

>  <Rbt.Receptor>
prm/pocket_docking_3.prm

>  <SCORE>
-77.548

>  <SCORE.INTER>
-57.9884

>  <SCORE.INTER.CONST>
1

>  <SCORE.INTER.POLAR>
-8.59872

>  <SCORE.INTER.ROT>
6

>  <SCORE.INTER.SOLV>
28.1219

>  <SCORE.INTER.VDW>
-26.9705

>  <SCORE.INTER.norm>
-1.81214

>  <SCORE.INTRA>
-19.5596

>  <SCORE.INTRA.DIHEDRAL>
-22.1455

>  <SCORE.INTRA.DIHEDRAL.0>
44.2576

>  <SCORE.INTRA.POLAR>
-1.05869

>  <SCORE.INTRA.POLAR.0>
-0.381556

>  <SCORE.INTRA.REPUL>
0

>  <SCORE.INTRA.REPUL.0>
0

>  <SCORE.INTRA.SOLV>
0.235159

>  <SCORE.INTRA.SOLV.lig_0>
-134.592

>  <SCORE.INTRA.VDW>
-5.00484

>  <SCORE.INTRA.VDW.0>
-1.01417

>  <SCORE.INTRA.norm>
-0.611236

>  <SCORE.RESTR>
0

>  <SCORE.RESTR.CAVITY>
0

>  <SCORE.RESTR.norm>
0

>  <SCORE.SYSTEM>
0

>  <SCORE.SYSTEM.CONST>
0

>  <SCORE.SYSTEM.DIHEDRAL>
0

>  <SCORE.SYSTEM.SOLV>
0

>  <SCORE.SYSTEM.norm>
0

>  <SCORE.heavy>
32

>  <SCORE.norm>
-2.42337

>  <RMSD>
0.810

$$$$
1lc4
 OpenBabel02141814113D
libRbt.so/2013.1/901 2013/11/27
 32 34  0  0  0  0  0  0  0  0999 V2000
  -10.1804    6.0475   19.4758 C   0  0  2  0  0  0  0  0  0  0  0  0
  -11.3553    6.7328   19.8306 O   0  0  0  0  0  0  0  0  0  0  0  0
  -10.2908    4.6016   20.0014 C   0  0  2  0  0  0  0  0  0  0  0  0
  -11.4770    3.9453   19.4430 N   0  3  0  0  0  0  0  0  0  0  0  0
  -10.3199    4.5985   21.5479 C   0  0  0  0  0  0  0  0  0  0  0  0
   -9.0238    5.2686   22.0367 C   0  0  2  0  0  0  0  0  0  0  0  0
   -8.9637    5.2555   23.4669 O   0  0  0  0  0  0  0  0  0  0  0  0
   -8.9557    6.7141   21.4841 C   0  0  2  0  0  0  0  0  0  0  0  0
   -9.0190    6.7045   20.0295 O   0  0  0  0  0  0  0  0  0  0  0  0
   -7.6762    7.4531   21.8681 C   0  0  0  0  0  0  0  0  0  0  0  0
   -7.7298    7.9260   23.2763 N   0  3  0  0  0  0  0  0  0  0  0  0
  -13.8809    9.8263   18.4123 C   0  0  2  0  0  0  0  0  0  0  0  0
  -14.3765   11.0563   17.7678 N   0  3  0  0  0  0  0  0  0  0  0  0
  -12.8952   10.1822   19.5169 C   0  0  0  0  0  0  0  0  0  0  0  0
  -12.3695    8.9108   20.1927 C   0  0  2  0  0  0  0  0  0  0  0  0
  -11.5086    9.3084   21.3343 N   0  3  0  0  0  0  0  0  0  0  0  0
  -11.6720    7.9713   19.1640 C   0  0  2  0  0  0  0  0  0  0  0  0
  -12.6538    7.6536   18.0068 C   0  0  2  0  0  0  0  0  0  0  0  0
  -11.9748    6.9435   16.9995 O   0  0  0  0  0  0  0  0  0  0  0  0
  -13.1893    8.9473   17.3720 C   0  0  1  0  0  0  0  0  0  0  0  0
  -14.1108    8.6066   16.3369 O   0  0  0  0  0  0  0  0  0  0  0  0
  -13.8159    9.0445   15.0553 C   0  0  2  0  0  0  0  0  0  0  0  0
  -15.1005    9.0064   14.2100 C   0  0  2  0  0  0  0  0  0  0  0  0
  -16.0689    9.8527   14.8167 O   0  0  0  0  0  0  0  0  0  0  0  0
  -15.6284    7.5625   14.1455 C   0  0  1  0  0  0  0  0  0  0  0  0
  -16.8888    7.4663   13.3541 N   0  3  0  0  0  0  0  0  0  0  0  0
  -14.5354    6.6458   13.5438 C   0  0  2  0  0  0  0  0  0  0  0  0
  -14.9874    5.2944   13.4949 O   0  0  0  0  0  0  0  0  0  0  0  0
  -13.2383    6.7537   14.3669 C   0  0  2  0  0  0  0  0  0  0  0  0
  -12.8167    8.1614   14.4827 O   0  0  0  0  0  0  0  0  0  0  0  0
  -12.0935    5.9983   13.7292 C   0  0  0  0  0  0  0  0  0  0  0  0
  -10.8781    6.1757   14.4535 O   0  0  0  0  0  0  0  0  0  0  0  0
  1  2  1  1  0  0  0
  1  3  1  0  0  0  0
  1  9  1  0  0  0  0
  3  4  1  6  0  0  0
  3  5  1  0  0  0  0
  5  6  1  0  0  0  0
  6  7  1  1  0  0  0
  6  8  1  0  0  0  0
  8  9  1  0  0  0  0
  8 10  1  6  0  0  0
 10 11  1  0  0  0  0
 12 13  1  6  0  0  0
 12 14  1  0  0  0  0
 12 20  1  0  0  0  0
 14 15  1  0  0  0  0
 15 16  1  1  0  0  0
 15 17  1  0  0  0  0
 17  2  1  1  0  0  0
 17 18  1  0  0  0  0
 18 19  1  6  0  0  0
 18 20  1  0  0  0  0
 20 21  1  6  0  0  0
 22 21  1  1  0  0  0
 22 23  1  0  0  0  0
 22 30  1  0  0  0  0
 23 24  1  1  0  0  0
 23 25  1  0  0  0  0
 25 26  1  6  0  0  0
 25 27  1  0  0  0  0
 27 28  1  1  0  0  0
 27 29  1  0  0  0  0
 29 30  1  0  0  0  0
 29 31  1  6  0  0  0
 31 32  1  0  0  0  0
M  CHG  5   4   1  11   1  13   1  16   1  26   1
M  END
>  <CHROM.1>
-163.37091793,-145.39024434,67.98638373,68.04303944,-77.36452541,-94.44314635
-62.92053094,-75.52916718,-50.79046745,117.71838080,-161.07506774,82.96098852
41.43788597,-55.42663173,176.25452652,56.52127650,-12.18394481,7.39121877
17.91618959,-0.44053591,0.86738217,-2.39777745

>  <Name>
1lc4

>  <RI>
0

>  <Rbt.Current_Directory>
/home/afrankz/demos/rdock_decoys_rna/rnas/1lc4

>  <Rbt.Executable>
rbdock ($Id: //depot/dev/client3/rdock/2013.1/src/exe/rbdock.cxx#4 $)

>  <Rbt.Library>
libRbt.so (2013.1, Build901 2013/11/27)

>  <Rbt.Parameter_File>
/export/apps/rDock/src/rDock_2013.1_src/data/scripts/dock_solv.prm

>  <Rbt.Receptor>
prm/pocket_docking_7.prm

>  <SCORE>
-75.9567

>  <SCORE.INTER>
-57.2397

>  <SCORE.INTER.CONST>
1

>  <SCORE.INTER.POLAR>
-8.62526

>  <SCORE.INTER.ROT>
6

>  <SCORE.INTER.SOLV>
21.9589

>  <SCORE.INTER.VDW>
-24.3285

>  <SCORE.INTER.norm>
-1.78874

>  <SCORE.INTRA>
-18.7171

>  <SCORE.INTRA.DIHEDRAL>
-21.6634

>  <SCORE.INTRA.DIHEDRAL.0>
44.2576

>  <SCORE.INTRA.POLAR>
-0.830225

>  <SCORE.INTRA.POLAR.0>
-0.381556

>  <SCORE.INTRA.REPUL>
0

>  <SCORE.INTRA.REPUL.0>
0

>  <SCORE.INTRA.SOLV>
-0.813231

>  <SCORE.INTRA.SOLV.lig_0>
-134.592

>  <SCORE.INTRA.VDW>
-4.656

>  <SCORE.INTRA.VDW.0>
-1.01417

>  <SCORE.INTRA.norm>
-0.584909

>  <SCORE.RESTR>
0

>  <SCORE.RESTR.CAVITY>
0

>  <SCORE.RESTR.norm>
0

>  <SCORE.SYSTEM>
0

>  <SCORE.SYSTEM.CONST>
0

>  <SCORE.SYSTEM.DIHEDRAL>
0

>  <SCORE.SYSTEM.SOLV>
0

>  <SCORE.SYSTEM.norm>
0

>  <SCORE.heavy>
32

>  <SCORE.norm>
-2.37365

>  <RMSD>
0.811

$$$$
1lc4
 OpenBabel02141814113D
libRbt.so/2013.1/901 2013/11/27
 32 34  0  0  0  0  0  0  0  0999 V2000
  -10.2261    6.0151   19.4502 C   0  0  2  0  0  0  0  0  0  0  0  0
  -11.3980    6.6930   19.8286 O   0  0  0  0  0  0  0  0  0  0  0  0
  -10.3193    4.5670   19.9728 C   0  0  2  0  0  0  0  0  0  0  0  0
  -11.5119    3.9062   19.4338 N   0  3  0  0  0  0  0  0  0  0  0  0
  -10.3202    4.5587   21.5196 C   0  0  0  0  0  0  0  0  0  0  0  0
   -9.0190    5.2341   21.9869 C   0  0  2  0  0  0  0  0  0  0  0  0
   -8.9328    5.2167   23.4158 O   0  0  0  0  0  0  0  0  0  0  0  0
   -8.9687    6.6818   21.4382 C   0  0  2  0  0  0  0  0  0  0  0  0
   -9.0583    6.6766   19.9849 O   0  0  0  0  0  0  0  0  0  0  0  0
   -7.6863    7.4264   21.8013 C   0  0  0  0  0  0  0  0  0  0  0  0
   -6.6055    7.1471   20.8197 N   0  3  0  0  0  0  0  0  0  0  0  0
  -13.7563   10.0707   18.8339 C   0  0  2  0  0  0  0  0  0  0  0  0
  -14.1938   11.3819   18.3208 N   0  3  0  0  0  0  0  0  0  0  0  0
  -12.6727   10.2622   19.8862 C   0  0  0  0  0  0  0  0  0  0  0  0
  -12.2066    8.9052   20.4251 C   0  0  2  0  0  0  0  0  0  0  0  0
  -11.2413    9.1446   21.5266 N   0  3  0  0  0  0  0  0  0  0  0  0
  -11.6583    8.0010   19.2809 C   0  0  2  0  0  0  0  0  0  0  0  0
  -12.7385    7.8513   18.1789 C   0  0  2  0  0  0  0  0  0  0  0  0
  -12.1887    7.1748   17.0743 O   0  0  0  0  0  0  0  0  0  0  0  0
  -13.2098    9.2280   17.6831 C   0  0  1  0  0  0  0  0  0  0  0  0
  -14.2236    9.0411   16.6963 O   0  0  0  0  0  0  0  0  0  0  0  0
  -14.2213    9.9052   15.6124 C   0  0  2  0  0  0  0  0  0  0  0  0
  -15.6735   10.1440   15.1651 C   0  0  2  0  0  0  0  0  0  0  0  0
  -16.3969   10.7077   16.2519 O   0  0  0  0  0  0  0  0  0  0  0  0
  -16.3074    8.8055   14.7474 C   0  0  1  0  0  0  0  0  0  0  0  0
  -17.7273    8.9715   14.3226 N   0  3  0  0  0  0  0  0  0  0  0  0
  -15.4676    8.1763   13.6090 C   0  0  2  0  0  0  0  0  0  0  0  0
  -16.0174    6.9203   13.2177 O   0  0  0  0  0  0  0  0  0  0  0  0
  -14.0035    8.0108   14.0571 C   0  0  2  0  0  0  0  0  0  0  0  0
  -13.4625    9.2956   14.5360 O   0  0  0  0  0  0  0  0  0  0  0  0
  -13.1106    7.5461   12.9281 C   0  0  0  0  0  0  0  0  0  0  0  0
  -11.8235    7.1561   13.4022 O   0  0  0  0  0  0  0  0  0  0  0  0
  1  2  1  1  0  0  0
  1  3  1  0  0  0  0
  1  9  1  0  0  0  0
  3  4  1  6  0  0  0
  3  5  1  0  0  0  0
  5  6  1  0  0  0  0
  6  7  1  1  0  0  0
  6  8  1  0  0  0  0
  8  9  1  0  0  0  0
  8 10  1  6  0  0  0
 10 11  1  0  0  0  0
 12 13  1  6  0  0  0
 12 14  1  0  0  0  0
 12 20  1  0  0  0  0
 14 15  1  0  0  0  0
 15 16  1  1  0  0  0
 15 17  1  0  0  0  0
 17  2  1  1  0  0  0
 17 18  1  0  0  0  0
 18 19  1  6  0  0  0
 18 20  1  0  0  0  0
 20 21  1  6  0  0  0
 22 21  1  1  0  0  0
 22 23  1  0  0  0  0
 22 30  1  0  0  0  0
 23 24  1  1  0  0  0
 23 25  1  0  0  0  0
 25 26  1  6  0  0  0
 25 27  1  0  0  0  0
 27 28  1  1  0  0  0
 27 29  1  0  0  0  0
 29 30  1  0  0  0  0
 29 31  1  6  0  0  0
 31 32  1  0  0  0  0
M  CHG  5   4   1  11   1  13   1  16   1  26   1
M  END
>  <CHROM.1>
-170.15966058,-138.25733342,63.82282677,64.74016909,85.81138726,-24.77358724
64.15934351,-66.22545756,-51.99495746,96.21932258,-146.75528981,178.00632223
64.04451707,-60.92483325,-169.01635956,64.71092044,-12.38990407,7.82899151
17.96845054,-0.38372165,0.80468102,-2.24578409

>  <Name>
1lc4

>  <RI>
0

>  <Rbt.Current_Directory>
/home/afrankz/demos/rdock_decoys_rna/rnas/1lc4

>  <Rbt.Executable>
rbdock ($Id: //depot/dev/client3/rdock/2013.1/src/exe/rbdock.cxx#4 $)

>  <Rbt.Library>
libRbt.so (2013.1, Build901 2013/11/27)

>  <Rbt.Parameter_File>
/export/apps/rDock/src/rDock_2013.1_src/data/scripts/dock_solv.prm

>  <Rbt.Receptor>
prm/pocket_docking_4.prm

>  <SCORE>
-75.3286

>  <SCORE.INTER>
-56.8369

>  <SCORE.INTER.CONST>
1

>  <SCORE.INTER.POLAR>
-7.87405

>  <SCORE.INTER.ROT>
6

>  <SCORE.INTER.SOLV>
36.8907

>  <SCORE.INTER.VDW>
-31.5413

>  <SCORE.INTER.norm>
-1.77615

>  <SCORE.INTRA>
-18.4922

>  <SCORE.INTRA.DIHEDRAL>
-23.5122

>  <SCORE.INTRA.DIHEDRAL.0>
44.2576

>  <SCORE.INTRA.POLAR>
-0.789389

>  <SCORE.INTRA.POLAR.0>
-0.381556

>  <SCORE.INTRA.REPUL>
0

>  <SCORE.INTRA.REPUL.0>
0

>  <SCORE.INTRA.SOLV>
0.376437

>  <SCORE.INTRA.SOLV.lig_0>
-134.592

>  <SCORE.INTRA.VDW>
-4.24035

>  <SCORE.INTRA.VDW.0>
-1.01417

>  <SCORE.INTRA.norm>
-0.57788

>  <SCORE.RESTR>
0.000411407

>  <SCORE.RESTR.CAVITY>
0.000411407

>  <SCORE.RESTR.norm>
1.28565e-05

>  <SCORE.SYSTEM>
0

>  <SCORE.SYSTEM.CONST>
0

>  <SCORE.SYSTEM.DIHEDRAL>
0

>  <SCORE.SYSTEM.SOLV>
0

>  <SCORE.SYSTEM.norm>
0

>  <SCORE.heavy>
32

>  <SCORE.norm>
-2.35402

>  <RMSD>
0.814

$$$$
1lc4
 OpenBabel02141814113D
libRbt.so/2013.1/901 2013/11/27
 32 34  0  0  0  0  0  0  0  0999 V2000
  -10.0965    5.6892   19.6562 C   0  0  2  0  0  0  0  0  0  0  0  0
  -11.0810    6.5516   20.1693 O   0  0  0  0  0  0  0  0  0  0  0  0
  -10.1844    4.3522   20.4201 C   0  0  2  0  0  0  0  0  0  0  0  0
  -11.5235    3.7718   20.2797 N   0  3  0  0  0  0  0  0  0  0  0  0
   -9.8142    4.5636   21.9069 C   0  0  0  0  0  0  0  0  0  0  0  0
   -8.3861    5.1348   21.9517 C   0  0  2  0  0  0  0  0  0  0  0  0
   -7.9608    5.3100   23.3073 O   0  0  0  0  0  0  0  0  0  0  0  0
   -8.3460    6.4730   21.1724 C   0  0  2  0  0  0  0  0  0  0  0  0
   -8.7825    6.2726   19.7979 O   0  0  0  0  0  0  0  0  0  0  0  0
   -6.9553    7.0997   21.1098 C   0  0  0  0  0  0  0  0  0  0  0  0
   -6.5037    7.5430   22.4549 N   0  3  0  0  0  0  0  0  0  0  0  0
  -13.4952    9.7192   18.7209 C   0  0  2  0  0  0  0  0  0  0  0  0
  -13.9481   10.9560   18.0583 N   0  3  0  0  0  0  0  0  0  0  0  0
  -12.4813   10.0551   19.8061 C   0  0  0  0  0  0  0  0  0  0  0  0
  -11.9997    8.7764   20.5004 C   0  0  2  0  0  0  0  0  0  0  0  0
  -11.1083    9.1599   21.6233 N   0  3  0  0  0  0  0  0  0  0  0  0
  -11.3550    7.7891   19.4821 C   0  0  2  0  0  0  0  0  0  0  0  0
  -12.3641    7.4901   18.3437 C   0  0  2  0  0  0  0  0  0  0  0  0
  -11.7282    6.7330   17.3423 O   0  0  0  0  0  0  0  0  0  0  0  0
  -12.8541    8.7923   17.6899 C   0  0  1  0  0  0  0  0  0  0  0  0
  -13.8023    8.4702   16.6731 O   0  0  0  0  0  0  0  0  0  0  0  0
  -13.5041    8.8663   15.3788 C   0  0  2  0  0  0  0  0  0  0  0  0
  -14.8183    9.1516   14.6319 C   0  0  2  0  0  0  0  0  0  0  0  0
  -15.5181   10.1803   15.3205 O   0  0  0  0  0  0  0  0  0  0  0  0
  -15.6709    7.8715   14.5886 C   0  0  1  0  0  0  0  0  0  0  0  0
  -16.9713    8.0931   13.8929 N   0  3  0  0  0  0  0  0  0  0  0  0
  -14.8662    6.7454   13.8947 C   0  0  2  0  0  0  0  0  0  0  0  0
  -15.6227    5.5373   13.8623 O   0  0  0  0  0  0  0  0  0  0  0  0
  -13.5252    6.5258   14.6194 C   0  0  2  0  0  0  0  0  0  0  0  0
  -12.7805    7.7937   14.7214 O   0  0  0  0  0  0  0  0  0  0  0  0
  -12.6353    5.5457   13.8877 C   0  0  0  0  0  0  0  0  0  0  0  0
  -11.3439    5.4599   14.4863 O   0  0  0  0  0  0  0  0  0  0  0  0
  1  2  1  1  0  0  0
  1  3  1  0  0  0  0
  1  9  1  0  0  0  0
  3  4  1  1  0  0  0
  3  5  1  0  0  0  0
  5  6  1  0  0  0  0
  6  7  1  1  0  0  0
  6  8  1  0  0  0  0
  8  9  1  0  0  0  0
  8 10  1  6  0  0  0
 10 11  1  0  0  0  0
 12 13  1  6  0  0  0
 12 14  1  0  0  0  0
 12 20  1  0  0  0  0
 14 15  1  0  0  0  0
 15 16  1  1  0  0  0
 15 17  1  0  0  0  0
 17  2  1  1  0  0  0
 17 18  1  0  0  0  0
 18 19  1  6  0  0  0
 18 20  1  0  0  0  0
 20 21  1  6  0  0  0
 22 21  1  1  0  0  0
 22 23  1  0  0  0  0
 22 30  1  0  0  0  0
 23 24  1  1  0  0  0
 23 25  1  0  0  0  0
 25 26  1  6  0  0  0
 25 27  1  0  0  0  0
 27 28  1  1  0  0  0
 27 29  1  0  0  0  0
 29 30  1  0  0  0  0
 29 31  1  6  0  0  0
 31 32  1  0  0  0  0
M  CHG  5   4   1  11   1  13   1  16   1  26   1
M  END
>  <CHROM.1>
-170.01441386,-157.23042413,-175.91443707,64.57011266,-66.98886226,-74.11524209
-61.73177905,177.49487699,-57.43002470,117.94770645,-149.35305158,139.42767756
54.52552875,64.48158875,173.66470889,38.45837032,-11.94521935,7.26554315
18.11612345,-0.29073206,0.82820329,-2.51245698

>  <Name>
1lc4

>  <RI>
0

>  <Rbt.Current_Directory>
/home/afrankz/demos/rdock_decoys_rna/rnas/1lc4

>  <Rbt.Executable>
rbdock ($Id: //depot/dev/client3/rdock/2013.1/src/exe/rbdock.cxx#4 $)

>  <Rbt.Library>
libRbt.so (2013.1, Build901 2013/11/27)

>  <Rbt.Parameter_File>
/export/apps/rDock/src/rDock_2013.1_src/data/scripts/dock_solv.prm

>  <Rbt.Receptor>
prm/pocket_docking_4.prm

>  <SCORE>
-73.8838

>  <SCORE.INTER>
-51.1709

>  <SCORE.INTER.CONST>
1

>  <SCORE.INTER.POLAR>
-6.90399

>  <SCORE.INTER.ROT>
6

>  <SCORE.INTER.SOLV>
24.1836

>  <SCORE.INTER.VDW>
-26.7618

>  <SCORE.INTER.norm>
-1.59909

>  <SCORE.INTRA>
-22.7129

>  <SCORE.INTRA.DIHEDRAL>
-21.8152

>  <SCORE.INTRA.DIHEDRAL.0>
44.2576

>  <SCORE.INTRA.POLAR>
-2.07755

>  <SCORE.INTRA.POLAR.0>
-0.381556

>  <SCORE.INTRA.REPUL>
0

>  <SCORE.INTRA.REPUL.0>
0

>  <SCORE.INTRA.SOLV>
-0.712001

>  <SCORE.INTRA.SOLV.lig_0>
-134.592

>  <SCORE.INTRA.VDW>
-4.38567

>  <SCORE.INTRA.VDW.0>
-1.01417

>  <SCORE.INTRA.norm>
-0.709779

>  <SCORE.RESTR>
0

>  <SCORE.RESTR.CAVITY>
0

>  <SCORE.RESTR.norm>
0

>  <SCORE.SYSTEM>
0

>  <SCORE.SYSTEM.CONST>
0

>  <SCORE.SYSTEM.DIHEDRAL>
0

>  <SCORE.SYSTEM.SOLV>
0

>  <SCORE.SYSTEM.norm>
0

>  <SCORE.heavy>
32

>  <SCORE.norm>
-2.30887

>  <RMSD>
0.820

$$$$
1lc4
 OpenBabel02141814113D
libRbt.so/2013.1/901 2013/11/27
 32 34  0  0  0  0  0  0  0  0999 V2000
  -10.4764    5.8340   19.2620 C   0  0  2  0  0  0  0  0  0  0  0  0
  -11.3938    6.6939   19.8904 O   0  0  0  0  0  0  0  0  0  0  0  0
  -10.6463    4.4257   19.8676 C   0  0  2  0  0  0  0  0  0  0  0  0
  -12.0233    3.9557   19.6870 N   0  3  0  0  0  0  0  0  0  0  0  0
  -10.2454    4.4370   21.3615 C   0  0  0  0  0  0  0  0  0  0  0  0
   -8.7813    4.9032   21.4444 C   0  0  2  0  0  0  0  0  0  0  0  0
   -8.3294    4.8902   22.8027 O   0  0  0  0  0  0  0  0  0  0  0  0
   -8.6592    6.3176   20.8246 C   0  0  2  0  0  0  0  0  0  0  0  0
   -9.1241    6.3084   19.4448 O   0  0  0  0  0  0  0  0  0  0  0  0
   -7.2299    6.8537   20.8080 C   0  0  0  0  0  0  0  0  0  0  0  0
   -6.7940    7.2664   22.1679 N   0  3  0  0  0  0  0  0  0  0  0  0
  -13.7056   10.0877   18.8427 C   0  0  2  0  0  0  0  0  0  0  0  0
  -14.1253   11.3960   18.3080 N   0  3  0  0  0  0  0  0  0  0  0  0
  -12.6169   10.2816   19.8893 C   0  0  0  0  0  0  0  0  0  0  0  0
  -12.1692    8.9274   20.4505 C   0  0  2  0  0  0  0  0  0  0  0  0
  -11.1979    9.1718   21.5458 N   0  3  0  0  0  0  0  0  0  0  0  0
  -11.6365    7.9959   19.3209 C   0  0  2  0  0  0  0  0  0  0  0  0
  -12.7213    7.8429   18.2238 C   0  0  2  0  0  0  0  0  0  0  0  0
  -12.1839    7.1397   17.1299 O   0  0  0  0  0  0  0  0  0  0  0  0
  -13.1739    9.2176   17.7054 C   0  0  1  0  0  0  0  0  0  0  0  0
  -14.1926    9.0284   16.7241 O   0  0  0  0  0  0  0  0  0  0  0  0
  -14.2164    9.9113   15.6558 C   0  0  2  0  0  0  0  0  0  0  0  0
  -15.6750   10.1118   15.2102 C   0  0  2  0  0  0  0  0  0  0  0  0
  -16.4172   10.6328   16.3055 O   0  0  0  0  0  0  0  0  0  0  0  0
  -16.2655    8.7616   14.7677 C   0  0  1  0  0  0  0  0  0  0  0  0
  -17.6895    8.8899   14.3434 N   0  3  0  0  0  0  0  0  0  0  0  0
  -15.4049    8.1797   13.6198 C   0  0  2  0  0  0  0  0  0  0  0  0
  -15.9140    6.9141   13.2052 O   0  0  0  0  0  0  0  0  0  0  0  0
  -13.9368    8.0528   14.0674 C   0  0  2  0  0  0  0  0  0  0  0  0
  -13.4375    9.3454   14.5699 O   0  0  0  0  0  0  0  0  0  0  0  0
  -13.0282    7.6368   12.9319 C   0  0  0  0  0  0  0  0  0  0  0  0
  -13.4316    6.3924   12.3645 O   0  0  0  0  0  0  0  0  0  0  0  0
  1  2  1  1  0  0  0
  1  3  1  0  0  0  0
  1  9  1  0  0  0  0
  3  4  1  1  0  0  0
  3  5  1  0  0  0  0
  5  6  1  0  0  0  0
  6  7  1  1  0  0  0
  6  8  1  0  0  0  0
  8  9  1  0  0  0  0
  8 10  1  6  0  0  0
 10 11  1  0  0  0  0
 12 13  1  6  0  0  0
 12 14  1  0  0  0  0
 12 20  1  0  0  0  0
 14 15  1  0  0  0  0
 15 16  1  1  0  0  0
 15 17  1  0  0  0  0
 17  2  1  1  0  0  0
 17 18  1  0  0  0  0
 18 19  1  6  0  0  0
 18 20  1  0  0  0  0
 20 21  1  6  0  0  0
 22 21  1  1  0  0  0
 22 23  1  0  0  0  0
 22 30  1  0  0  0  0
 23 24  1  1  0  0  0
 23 25  1  0  0  0  0
 25 26  1  6  0  0  0
 25 27  1  0  0  0  0
 27 28  1  1  0  0  0
 27 29  1  0  0  0  0
 29 30  1  0  0  0  0
 29 31  1  6  0  0  0
 31 32  1  0  0  0  0
M  CHG  5   4   1  11   1  13   1  16   1  26   1
M  END
>  <CHROM.1>
-167.18818473,-156.50502005,64.74315545,111.71690552,-74.12097997,-66.97514040
-171.05527428,175.72198564,177.95172230,93.41577062,-147.67261471,175.85566821
-52.12806440,63.28715883,-58.28468978,-179.16497760,-12.41830798,7.73674627
17.88780992,-0.30625398,0.81956791,-2.34767730

>  <Name>
1lc4

>  <RI>
0

>  <Rbt.Current_Directory>
/home/afrankz/demos/rdock_decoys_rna/rnas/1lc4

>  <Rbt.Executable>
rbdock ($Id: //depot/dev/client3/rdock/2013.1/src/exe/rbdock.cxx#4 $)

>  <Rbt.Library>
libRbt.so (2013.1, Build901 2013/11/27)

>  <Rbt.Parameter_File>
/export/apps/rDock/src/rDock_2013.1_src/data/scripts/dock_solv.prm

>  <Rbt.Receptor>
prm/pocket_docking_8.prm

>  <SCORE>
-70.1096

>  <SCORE.INTER>
-49.3634

>  <SCORE.INTER.CONST>
1

>  <SCORE.INTER.POLAR>
-5.96022

>  <SCORE.INTER.ROT>
6

>  <SCORE.INTER.SOLV>
27.0384

>  <SCORE.INTER.VDW>
-29.6543

>  <SCORE.INTER.norm>
-1.54261

>  <SCORE.INTRA>
-20.7463

>  <SCORE.INTRA.DIHEDRAL>
-24.4369

>  <SCORE.INTRA.DIHEDRAL.0>
44.2576

>  <SCORE.INTRA.POLAR>
-1.25934

>  <SCORE.INTRA.POLAR.0>
-0.381556

>  <SCORE.INTRA.REPUL>
0

>  <SCORE.INTRA.REPUL.0>
0

>  <SCORE.INTRA.SOLV>
-0.225762

>  <SCORE.INTRA.SOLV.lig_0>
-134.592

>  <SCORE.INTRA.VDW>
-4.13319

>  <SCORE.INTRA.VDW.0>
-1.01417

>  <SCORE.INTRA.norm>
-0.648321

>  <SCORE.RESTR>
0

>  <SCORE.RESTR.CAVITY>
0

>  <SCORE.RESTR.norm>
0

>  <SCORE.SYSTEM>
0

>  <SCORE.SYSTEM.CONST>
0

>  <SCORE.SYSTEM.DIHEDRAL>
0

>  <SCORE.SYSTEM.SOLV>
0

>  <SCORE.SYSTEM.norm>
0

>  <SCORE.heavy>
32

>  <SCORE.norm>
-2.19093

>  <RMSD>
0.826

$$$$
1lc4
 OpenBabel02141814113D
libRbt.so/2013.1/901 2013/11/27
 32 34  0  0  0  0  0  0  0  0999 V2000
  -10.3593    5.8704   19.3756 C   0  0  2  0  0  0  0  0  0  0  0  0
  -11.3911    6.6969   19.8534 O   0  0  0  0  0  0  0  0  0  0  0  0
  -10.6296    4.4332   19.8657 C   0  0  2  0  0  0  0  0  0  0  0  0
  -11.9395    3.9721   19.3954 N   0  3  0  0  0  0  0  0  0  0  0  0
  -10.5294    4.3693   21.4079 C   0  0  0  0  0  0  0  0  0  0  0  0
   -9.1149    4.8317   21.7994 C   0  0  2  0  0  0  0  0  0  0  0  0
   -8.9379    4.7504   23.2176 O   0  0  0  0  0  0  0  0  0  0  0  0
   -8.8887    6.2756   21.2863 C   0  0  2  0  0  0  0  0  0  0  0  0
   -9.0741    6.3359   19.8433 O   0  0  0  0  0  0  0  0  0  0  0  0
   -7.4895    6.8129   21.5770 C   0  0  0  0  0  0  0  0  0  0  0  0
   -7.4457    8.2938   21.4555 N   0  3  0  0  0  0  0  0  0  0  0  0
  -13.9451    9.5962   18.1125 C   0  0  2  0  0  0  0  0  0  0  0  0
  -14.4474   10.7815   17.3938 N   0  3  0  0  0  0  0  0  0  0  0  0
  -13.1076   10.0320   19.3072 C   0  0  0  0  0  0  0  0  0  0  0  0
  -12.5762    8.8078   20.0610 C   0  0  2  0  0  0  0  0  0  0  0  0
  -11.8692    9.2775   21.2785 N   0  3  0  0  0  0  0  0  0  0  0  0
  -11.7140    7.9023   19.1314 C   0  0  2  0  0  0  0  0  0  0  0  0
  -12.5445    7.5042   17.8842 C   0  0  2  0  0  0  0  0  0  0  0  0
  -11.7178    6.8266   16.9690 O   0  0  0  0  0  0  0  0  0  0  0  0
  -13.0915    8.7506   17.1696 C   0  0  1  0  0  0  0  0  0  0  0  0
  -13.8736    8.3351   16.0505 O   0  0  0  0  0  0  0  0  0  0  0  0
  -13.6563    8.9877   14.8471 C   0  0  2  0  0  0  0  0  0  0  0  0
  -14.9739    9.0175   14.0537 C   0  0  2  0  0  0  0  0  0  0  0  0
  -15.9528    9.7032   14.8243 O   0  0  0  0  0  0  0  0  0  0  0  0
  -15.4365    7.5767   13.7750 C   0  0  1  0  0  0  0  0  0  0  0  0
  -16.7248    7.5419   13.0245 N   0  3  0  0  0  0  0  0  0  0  0  0
  -14.3298    6.8274   12.9934 C   0  0  2  0  0  0  0  0  0  0  0  0
  -14.7203    5.4794   12.7423 O   0  0  0  0  0  0  0  0  0  0  0  0
  -13.0039    6.8707   13.7757 C   0  0  2  0  0  0  0  0  0  0  0  0
  -12.6435    8.2619   14.1031 O   0  0  0  0  0  0  0  0  0  0  0  0
  -11.8546    6.2889   12.9830 C   0  0  0  0  0  0  0  0  0  0  0  0
  -12.0570    4.9058   12.7012 O   0  0  0  0  0  0  0  0  0  0  0  0
  1  2  1  1  0  0  0
  1  3  1  0  0  0  0
  1  9  1  0  0  0  0
  3  4  1  1  0  0  0
  3  5  1  0  0  0  0
  5  6  1  0  0  0  0
  6  7  1  1  0  0  0
  6  8  1  0  0  0  0
  8  9  1  0  0  0  0
  8 10  1  6  0  0  0
 10 11  1  0  0  0  0
 12 13  1  6  0  0  0
 12 14  1  0  0  0  0
 12 20  1  0  0  0  0
 14 15  1  0  0  0  0
 15 16  1  1  0  0  0
 15 17  1  0  0  0  0
 17  2  1  1  0  0  0
 17 18  1  0  0  0  0
 18 19  1  6  0  0  0
 18 20  1  0  0  0  0
 20 21  1  6  0  0  0
 22 21  1  1  0  0  0
 22 23  1  0  0  0  0
 22 30  1  0  0  0  0
 23 24  1  1  0  0  0
 23 25  1  0  0  0  0
 25 26  1  6  0  0  0
 25 27  1  0  0  0  0
 27 28  1  1  0  0  0
 27 29  1  0  0  0  0
 29 30  1  0  0  0  0
 29 31  1  6  0  0  0
 31 32  1  0  0  0  0
M  CHG  5   4   1  11   1  13   1  16   1  26   1
M  END
>  <CHROM.1>
-154.18271660,-164.26588926,55.33558875,-63.01917713,-162.58357867,51.36519041
-63.59696996,-73.80805501,-53.82864385,104.38010885,-148.89146142,93.34633404
-115.46475073,-57.96926907,-63.14322893,57.11664168,-12.20392600,7.24786483
17.55544981,-0.52956274,0.87475720,-2.29464224

>  <Name>
1lc4

>  <RI>
0

>  <Rbt.Current_Directory>
/home/afrankz/demos/rdock_decoys_rna/rnas/1lc4

>  <Rbt.Executable>
rbdock ($Id: //depot/dev/client3/rdock/2013.1/src/exe/rbdock.cxx#4 $)

>  <Rbt.Library>
libRbt.so (2013.1, Build901 2013/11/27)

>  <Rbt.Parameter_File>
/export/apps/rDock/src/rDock_2013.1_src/data/scripts/dock_solv.prm

>  <Rbt.Receptor>
prm/pocket_docking_2.prm

>  <SCORE>
-76.3202

>  <SCORE.INTER>
-59.5505

>  <SCORE.INTER.CONST>
1

>  <SCORE.INTER.POLAR>
-8.79156

>  <SCORE.INTER.ROT>
6

>  <SCORE.INTER.SOLV>
24.5341

>  <SCORE.INTER.VDW>
-26.1732

>  <SCORE.INTER.norm>
-1.86095

>  <SCORE.INTRA>
-16.9971

>  <SCORE.INTRA.DIHEDRAL>
-20.4947

>  <SCORE.INTRA.DIHEDRAL.0>
44.2576

>  <SCORE.INTRA.POLAR>
-0.599125

>  <SCORE.INTRA.POLAR.0>
-0.381556

>  <SCORE.INTRA.REPUL>
0

>  <SCORE.INTRA.REPUL.0>
0

>  <SCORE.INTRA.SOLV>
-2.418

>  <SCORE.INTRA.SOLV.lig_0>
-134.592

>  <SCORE.INTRA.VDW>
-3.50369

>  <SCORE.INTRA.VDW.0>
-1.01417

>  <SCORE.INTRA.norm>
-0.531158

>  <SCORE.RESTR>
0.22737

>  <SCORE.RESTR.CAVITY>
0.22737

>  <SCORE.RESTR.norm>
0.00710532

>  <SCORE.SYSTEM>
0

>  <SCORE.SYSTEM.CONST>
0

>  <SCORE.SYSTEM.DIHEDRAL>
0

>  <SCORE.SYSTEM.SOLV>
0

>  <SCORE.SYSTEM.norm>
0

>  <SCORE.heavy>
32

>  <SCORE.norm>
-2.38501

>  <RMSD>
0.828

$$$$
1lc4
 OpenBabel02141814113D
libRbt.so/2013.1/901 2013/11/27
 32 34  0  0  0  0  0  0  0  0999 V2000
   -9.6250    6.0901   19.7587 C   0  0  2  0  0  0  0  0  0  0  0  0
  -10.8823    6.6610   20.0219 O   0  0  0  0  0  0  0  0  0  0  0  0
   -9.5698    4.7118   20.4488 C   0  0  2  0  0  0  0  0  0  0  0  0
  -10.6544    3.8539   19.9616 N   0  3  0  0  0  0  0  0  0  0  0  0
   -9.6325    4.8829   21.9848 C   0  0  0  0  0  0  0  0  0  0  0  0
   -8.4389    5.7599   22.4020 C   0  0  2  0  0  0  0  0  0  0  0  0
   -8.4093    5.9189   23.8243 O   0  0  0  0  0  0  0  0  0  0  0  0
   -8.5355    7.1296   21.6849 C   0  0  2  0  0  0  0  0  0  0  0  0
   -8.5649    6.9451   20.2409 O   0  0  0  0  0  0  0  0  0  0  0  0
   -7.3645    8.0604   21.9898 C   0  0  0  0  0  0  0  0  0  0  0  0
   -6.1111    7.5741   21.3557 N   0  3  0  0  0  0  0  0  0  0  0  0
  -13.5027    9.6317   18.5158 C   0  0  2  0  0  0  0  0  0  0  0  0
  -14.0325   10.8542   17.8844 N   0  3  0  0  0  0  0  0  0  0  0  0
  -12.6508   10.0002   19.7228 C   0  0  0  0  0  0  0  0  0  0  0  0
  -12.0908    8.7371   20.3862 C   0  0  2  0  0  0  0  0  0  0  0  0
  -11.3694    9.1362   21.6202 N   0  3  0  0  0  0  0  0  0  0  0  0
  -11.2330    7.9063   19.3856 C   0  0  2  0  0  0  0  0  0  0  0  0
  -12.0793    7.5787   18.1285 C   0  0  2  0  0  0  0  0  0  0  0  0
  -11.2597    6.9739   17.1578 O   0  0  0  0  0  0  0  0  0  0  0  0
  -12.6545    8.8613   17.5059 C   0  0  1  0  0  0  0  0  0  0  0  0
  -13.4501    8.5088   16.3748 O   0  0  0  0  0  0  0  0  0  0  0  0
  -13.2202    9.2017   15.1965 C   0  0  2  0  0  0  0  0  0  0  0  0
  -14.5696    9.4754   14.5105 C   0  0  2  0  0  0  0  0  0  0  0  0
  -15.3798   10.2430   15.3916 O   0  0  0  0  0  0  0  0  0  0  0  0
  -15.2606    8.1388   14.1883 C   0  0  1  0  0  0  0  0  0  0  0  0
  -16.5878    8.3416   13.5390 N   0  3  0  0  0  0  0  0  0  0  0  0
  -14.3345    7.2906   13.2828 C   0  0  2  0  0  0  0  0  0  0  0  0
  -14.9386    6.0333   12.9877 O   0  0  0  0  0  0  0  0  0  0  0  0
  -12.9669    7.0886   13.9613 C   0  0  2  0  0  0  0  0  0  0  0  0
  -12.3807    8.3878   14.3370 O   0  0  0  0  0  0  0  0  0  0  0  0
  -11.9744    6.4003   13.0507 C   0  0  0  0  0  0  0  0  0  0  0  0
  -12.3550    5.0527   12.7811 O   0  0  0  0  0  0  0  0  0  0  0  0
  1  2  1  1  0  0  0
  1  3  1  0  0  0  0
  1  9  1  0  0  0  0
  3  4  1  6  0  0  0
  3  5  1  0  0  0  0
  5  6  1  0  0  0  0
  6  7  1  1  0  0  0
  6  8  1  0  0  0  0
  8  9  1  0  0  0  0
  8 10  1  6  0  0  0
 10 11  1  0  0  0  0
 12 13  1  6  0  0  0
 12 14  1  0  0  0  0
 12 20  1  0  0  0  0
 14 15  1  0  0  0  0
 15 16  1  1  0  0  0
 15 17  1  0  0  0  0
 17  2  1  1  0  0  0
 17 18  1  0  0  0  0
 18 19  1  6  0  0  0
 18 20  1  0  0  0  0
 20 21  1  6  0  0  0
 22 21  1  1  0  0  0
 22 23  1  0  0  0  0
 22 30  1  0  0  0  0
 23 24  1  1  0  0  0
 23 25  1  0  0  0  0
 25 26  1  6  0  0  0
 25 27  1  0  0  0  0
 27 28  1  1  0  0  0
 27 29  1  0  0  0  0
 29 30  1  0  0  0  0
 29 31  1  6  0  0  0
 31 32  1  0  0  0  0
M  CHG  5   4   1  11   1  13   1  16   1  26   1
M  END
>  <CHROM.1>
-174.48486506,-144.72024752,-28.02373939,62.55138281,70.25412419,-45.62866233
-177.43587892,-67.43085841,65.59908761,107.16285427,-140.66603994,135.75276059
177.23599180,68.64684563,-67.06737506,51.57480720,-11.76548614,7.53136044
17.90457004,-0.54708968,0.81585798,-2.26075362

>  <Name>
1lc4

>  <RI>
0

>  <Rbt.Current_Directory>
/home/afrankz/demos/rdock_decoys_rna/rnas/1lc4

>  <Rbt.Executable>
rbdock ($Id: //depot/dev/client3/rdock/2013.1/src/exe/rbdock.cxx#4 $)

>  <Rbt.Library>
libRbt.so (2013.1, Build901 2013/11/27)

>  <Rbt.Parameter_File>
/export/apps/rDock/src/rDock_2013.1_src/data/scripts/dock_solv.prm

>  <Rbt.Receptor>
prm/blind_docking_80.prm

>  <SCORE>
-59.236

>  <SCORE.INTER>
-46.2883

>  <SCORE.INTER.CONST>
1

>  <SCORE.INTER.POLAR>
-7.8687

>  <SCORE.INTER.ROT>
6

>  <SCORE.INTER.SOLV>
34.9686

>  <SCORE.INTER.VDW>
-23.886

>  <SCORE.INTER.norm>
-1.44651

>  <SCORE.INTRA>
-17.6727

>  <SCORE.INTRA.DIHEDRAL>
-17.6185

>  <SCORE.INTRA.DIHEDRAL.0>
44.2576

>  <SCORE.INTRA.POLAR>
-1.53513

>  <SCORE.INTRA.POLAR.0>
-0.381556

>  <SCORE.INTRA.REPUL>
0

>  <SCORE.INTRA.REPUL.0>
0

>  <SCORE.INTRA.SOLV>
1.35818

>  <SCORE.INTRA.SOLV.lig_0>
-134.592

>  <SCORE.INTRA.VDW>
-4.32311

>  <SCORE.INTRA.VDW.0>
-1.01417

>  <SCORE.INTRA.norm>
-0.552273

>  <SCORE.RESTR>
4.72504

>  <SCORE.RESTR.CAVITY>
4.72504

>  <SCORE.RESTR.norm>
0.147657

>  <SCORE.SYSTEM>
0

>  <SCORE.SYSTEM.CONST>
0

>  <SCORE.SYSTEM.DIHEDRAL>
0

>  <SCORE.SYSTEM.SOLV>
0

>  <SCORE.SYSTEM.norm>
0

>  <SCORE.heavy>
32

>  <SCORE.norm>
-1.85112

>  <RMSD>
0.834

$$$$
1lc4
 OpenBabel02141814113D
libRbt.so/2013.1/901 2013/11/27
 32 34  0  0  0  0  0  0  0  0999 V2000
  -10.1952    5.9693   19.5217 C   0  0  2  0  0  0  0  0  0  0  0  0
  -11.3277    6.6990   19.9230 O   0  0  0  0  0  0  0  0  0  0  0  0
  -10.3777    4.5085   19.9818 C   0  0  2  0  0  0  0  0  0  0  0  0
  -11.6033    3.9431   19.4094 N   0  3  0  0  0  0  0  0  0  0  0  0
  -10.3905    4.4350   21.5268 C   0  0  0  0  0  0  0  0  0  0  0  0
   -9.0551    5.0116   22.0288 C   0  0  2  0  0  0  0  0  0  0  0  0
   -8.9807    4.9287   23.4559 O   0  0  0  0  0  0  0  0  0  0  0  0
   -8.9152    6.4756   21.5424 C   0  0  2  0  0  0  0  0  0  0  0  0
   -8.9943    6.5371   20.0898 O   0  0  0  0  0  0  0  0  0  0  0  0
   -7.5938    7.1267   21.9431 C   0  0  0  0  0  0  0  0  0  0  0  0
   -7.7013    7.7910   23.2685 N   0  3  0  0  0  0  0  0  0  0  0  0
  -13.8657    9.7494   18.4352 C   0  0  2  0  0  0  0  0  0  0  0  0
  -14.3651   10.9672   17.7707 N   0  3  0  0  0  0  0  0  0  0  0  0
  -12.9008   10.1275   19.5508 C   0  0  0  0  0  0  0  0  0  0  0  0
  -12.3714    8.8690   20.2474 C   0  0  2  0  0  0  0  0  0  0  0  0
  -11.5324    9.2878   21.3977 N   0  3  0  0  0  0  0  0  0  0  0  0
  -11.6480    7.9271   19.2390 C   0  0  2  0  0  0  0  0  0  0  0  0
  -12.6086    7.5867   18.0705 C   0  0  2  0  0  0  0  0  0  0  0  0
  -11.9066    6.8741   17.0808 O   0  0  0  0  0  0  0  0  0  0  0  0
  -13.1487    8.8678   17.4145 C   0  0  1  0  0  0  0  0  0  0  0  0
  -14.0506    8.5063   16.3692 O   0  0  0  0  0  0  0  0  0  0  0  0
  -13.7705    8.9804   15.0972 C   0  0  2  0  0  0  0  0  0  0  0  0
  -15.0701    8.9910   14.2743 C   0  0  2  0  0  0  0  0  0  0  0  0
  -16.0131    9.8333   14.9250 O   0  0  0  0  0  0  0  0  0  0  0  0
  -15.6238    7.5589   14.1731 C   0  0  1  0  0  0  0  0  0  0  0  0
  -16.8992    7.5093   13.4017 N   0  3  0  0  0  0  0  0  0  0  0  0
  -14.5574    6.6441   13.5229 C   0  0  2  0  0  0  0  0  0  0  0  0
  -15.0334    5.3028   13.4388 O   0  0  0  0  0  0  0  0  0  0  0  0
  -13.2445    6.7038   14.3256 C   0  0  2  0  0  0  0  0  0  0  0  0
  -12.7968    8.0998   14.4788 O   0  0  0  0  0  0  0  0  0  0  0  0
  -12.1241    5.9504   13.6436 C   0  0  0  0  0  0  0  0  0  0  0  0
  -11.3193    5.2411   14.5830 O   0  0  0  0  0  0  0  0  0  0  0  0
  1  2  1  1  0  0  0
  1  3  1  0  0  0  0
  1  9  1  0  0  0  0
  3  4  1  6  0  0  0
  3  5  1  0  0  0  0
  5  6  1  0  0  0  0
  6  7  1  1  0  0  0
  6  8  1  0  0  0  0
  8  9  1  0  0  0  0
  8 10  1  6  0  0  0
 10 11  1  0  0  0  0
 12 13  1  6  0  0  0
 12 14  1  0  0  0  0
 12 20  1  0  0  0  0
 14 15  1  0  0  0  0
 15 16  1  1  0  0  0
 15 17  1  0  0  0  0
 17  2  1  1  0  0  0
 17 18  1  0  0  0  0
 18 19  1  6  0  0  0
 18 20  1  0  0  0  0
 20 21  1  6  0  0  0
 22 21  1  1  0  0  0
 22 23  1  0  0  0  0
 22 30  1  0  0  0  0
 23 24  1  1  0  0  0
 23 25  1  0  0  0  0
 25 26  1  6  0  0  0
 25 27  1  0  0  0  0
 27 28  1  1  0  0  0
 27 29  1  0  0  0  0
 29 30  1  0  0  0  0
 29 31  1  6  0  0  0
 31 32  1  0  0  0  0
M  CHG  5   4   1  11   1  13   1  16   1  26   1
M  END
>  <CHROM.1>
-158.11340759,-150.28981481,-48.27594756,-64.61692994,-89.43002255,31.21604748
-175.92029578,43.09605301,-51.44349501,115.14840468,-157.29474604,88.05416380
160.83169906,-47.42375733,-140.69927840,-42.11044728,-12.19764689,7.28088085
17.94484514,-0.42187482,0.87627716,-2.41122283

>  <Name>
1lc4

>  <RI>
0

>  <Rbt.Current_Directory>
/home/afrankz/demos/rdock_decoys_rna/rnas/1lc4

>  <Rbt.Executable>
rbdock ($Id: //depot/dev/client3/rdock/2013.1/src/exe/rbdock.cxx#4 $)

>  <Rbt.Library>
libRbt.so (2013.1, Build901 2013/11/27)

>  <Rbt.Parameter_File>
/export/apps/rDock/src/rDock_2013.1_src/data/scripts/dock_solv.prm

>  <Rbt.Receptor>
prm/pocket_docking_5.prm

>  <SCORE>
-72.9651

>  <SCORE.INTER>
-58.7514

>  <SCORE.INTER.CONST>
1

>  <SCORE.INTER.POLAR>
-8.74067

>  <SCORE.INTER.ROT>
6

>  <SCORE.INTER.SOLV>
21.1324

>  <SCORE.INTER.VDW>
-24.6762

>  <SCORE.INTER.norm>
-1.83598

>  <SCORE.INTRA>
-14.2137

>  <SCORE.INTRA.DIHEDRAL>
-13.312

>  <SCORE.INTRA.DIHEDRAL.0>
44.2576

>  <SCORE.INTRA.POLAR>
-0.644124

>  <SCORE.INTRA.POLAR.0>
-0.381556

>  <SCORE.INTRA.REPUL>
0

>  <SCORE.INTRA.REPUL.0>
0

>  <SCORE.INTRA.SOLV>
-1.53528

>  <SCORE.INTRA.SOLV.lig_0>
-134.592

>  <SCORE.INTRA.VDW>
-4.60007

>  <SCORE.INTRA.VDW.0>
-1.01417

>  <SCORE.INTRA.norm>
-0.44418

>  <SCORE.RESTR>
0

>  <SCORE.RESTR.CAVITY>
0

>  <SCORE.RESTR.norm>
0

>  <SCORE.SYSTEM>
0

>  <SCORE.SYSTEM.CONST>
0

>  <SCORE.SYSTEM.DIHEDRAL>
0

>  <SCORE.SYSTEM.SOLV>
0

>  <SCORE.SYSTEM.norm>
0

>  <SCORE.heavy>
32

>  <SCORE.norm>
-2.28016

>  <RMSD>
0.842

$$$$
1lc4
 OpenBabel02141814113D
libRbt.so/2013.1/901 2013/11/27
 32 34  0  0  0  0  0  0  0  0999 V2000
  -10.2512    5.8705   19.3304 C   0  0  2  0  0  0  0  0  0  0  0  0
  -11.2798    6.6803   19.8424 O   0  0  0  0  0  0  0  0  0  0  0  0
  -10.4975    4.4240   19.8058 C   0  0  2  0  0  0  0  0  0  0  0  0
  -11.8132    3.9572   19.3579 N   0  3  0  0  0  0  0  0  0  0  0  0
  -10.3627    4.3395   21.3444 C   0  0  0  0  0  0  0  0  0  0  0  0
   -8.9442    4.8098   21.7113 C   0  0  2  0  0  0  0  0  0  0  0  0
   -8.7352    4.7104   23.1240 O   0  0  0  0  0  0  0  0  0  0  0  0
   -8.7426    6.2628   21.2139 C   0  0  2  0  0  0  0  0  0  0  0  0
   -8.9604    6.3415   19.7764 O   0  0  0  0  0  0  0  0  0  0  0  0
   -7.3424    6.8092   21.4815 C   0  0  0  0  0  0  0  0  0  0  0  0
   -7.3411    8.2954   21.5108 N   0  3  0  0  0  0  0  0  0  0  0  0
  -13.8237    9.7467   18.3982 C   0  0  2  0  0  0  0  0  0  0  0  0
  -14.3266   10.9686   17.7442 N   0  3  0  0  0  0  0  0  0  0  0  0
  -12.8420   10.1170   19.5016 C   0  0  0  0  0  0  0  0  0  0  0  0
  -12.3089    8.8542   20.1873 C   0  0  2  0  0  0  0  0  0  0  0  0
  -11.4523    9.2657   21.3272 N   0  3  0  0  0  0  0  0  0  0  0  0
  -11.6037    7.9119   19.1664 C   0  0  2  0  0  0  0  0  0  0  0  0
  -12.5817    7.5793   18.0102 C   0  0  2  0  0  0  0  0  0  0  0  0
  -11.8966    6.8664   17.0090 O   0  0  0  0  0  0  0  0  0  0  0  0
  -13.1249    8.8648   17.3653 C   0  0  1  0  0  0  0  0  0  0  0  0
  -14.0426    8.5105   16.3314 O   0  0  0  0  0  0  0  0  0  0  0  0
  -13.7205    8.8927   15.0386 C   0  0  2  0  0  0  0  0  0  0  0  0
  -15.0080    8.9334   14.1979 C   0  0  2  0  0  0  0  0  0  0  0  0
  -15.9053    9.8668   14.7859 O   0  0  0  0  0  0  0  0  0  0  0  0
  -15.6463    7.5335   14.1706 C   0  0  1  0  0  0  0  0  0  0  0  0
  -16.9139    7.5158   13.3851 N   0  3  0  0  0  0  0  0  0  0  0  0
  -14.6302    6.5205   13.5890 C   0  0  2  0  0  0  0  0  0  0  0  0
  -15.1856    5.2074   13.5747 O   0  0  0  0  0  0  0  0  0  0  0  0
  -13.3249    6.5479   14.4058 C   0  0  2  0  0  0  0  0  0  0  0  0
  -12.7952    7.9210   14.4855 O   0  0  0  0  0  0  0  0  0  0  0  0
  -12.2448    5.6906   13.7840 C   0  0  0  0  0  0  0  0  0  0  0  0
  -11.4685    5.0216   14.7755 O   0  0  0  0  0  0  0  0  0  0  0  0
  1  2  1  1  0  0  0
  1  3  1  0  0  0  0
  1  9  1  0  0  0  0
  3  4  1  1  0  0  0
  3  5  1  0  0  0  0
  5  6  1  0  0  0  0
  6  7  1  1  0  0  0
  6  8  1  0  0  0  0
  8  9  1  0  0  0  0
  8 10  1  6  0  0  0
 10 11  1  0  0  0  0
 12 13  1  6  0  0  0
 12 14  1  0  0  0  0
 12 20  1  0  0  0  0
 14 15  1  0  0  0  0
 15 16  1  1  0  0  0
 15 17  1  0  0  0  0
 17  2  1  1  0  0  0
 17 18  1  0  0  0  0
 18 19  1  6  0  0  0
 18 20  1  0  0  0  0
 20 21  1  6  0  0  0
 22 21  1  1  0  0  0
 22 23  1  0  0  0  0
 22 30  1  0  0  0  0
 23 24  1  1  0  0  0
 23 25  1  0  0  0  0
 25 26  1  6  0  0  0
 25 27  1  0  0  0  0
 27 28  1  1  0  0  0
 27 29  1  0  0  0  0
 29 30  1  0  0  0  0
 29 31  1  6  0  0  0
 31 32  1  0  0  0  0
M  CHG  5   4   1  11   1  13   1  16   1  26   1
M  END
>  <CHROM.1>
-155.94891841,-157.44779355,58.18053809,173.10579791,-157.06620959,-75.24804780
-60.76522480,166.74428856,-59.41483714,120.35339987,-157.94491546,-60.93694648
-81.49775912,-58.97755260,-142.48003906,-47.17198087,-12.16665775,7.21544581
17.80193284,-0.30947300,0.85765594,-2.51295708

>  <Name>
1lc4

>  <RI>
0

>  <Rbt.Current_Directory>
/home/afrankz/demos/rdock_decoys_rna/rnas/1lc4

>  <Rbt.Executable>
rbdock ($Id: //depot/dev/client3/rdock/2013.1/src/exe/rbdock.cxx#4 $)

>  <Rbt.Library>
libRbt.so (2013.1, Build901 2013/11/27)

>  <Rbt.Parameter_File>
/export/apps/rDock/src/rDock_2013.1_src/data/scripts/dock_solv.prm

>  <Rbt.Receptor>
prm/pocket_docking_6.prm

>  <SCORE>
-67.8207

>  <SCORE.INTER>
-49.9393

>  <SCORE.INTER.CONST>
1

>  <SCORE.INTER.POLAR>
-7.18078

>  <SCORE.INTER.ROT>
6

>  <SCORE.INTER.SOLV>
24.7322

>  <SCORE.INTER.VDW>
-25.201

>  <SCORE.INTER.norm>
-1.5606

>  <SCORE.INTRA>
-18.1086

>  <SCORE.INTRA.DIHEDRAL>
-21.7444

>  <SCORE.INTRA.DIHEDRAL.0>
44.2576

>  <SCORE.INTRA.POLAR>
-0.508446

>  <SCORE.INTRA.POLAR.0>
-0.381556

>  <SCORE.INTRA.REPUL>
0

>  <SCORE.INTRA.REPUL.0>
0

>  <SCORE.INTRA.SOLV>
-1.94761

>  <SCORE.INTRA.SOLV.lig_0>
-134.592

>  <SCORE.INTRA.VDW>
-4.53389

>  <SCORE.INTRA.VDW.0>
-1.01417

>  <SCORE.INTRA.norm>
-0.565895

>  <SCORE.RESTR>
0.227229

>  <SCORE.RESTR.CAVITY>
0.227229

>  <SCORE.RESTR.norm>
0.00710091

>  <SCORE.SYSTEM>
0

>  <SCORE.SYSTEM.CONST>
0

>  <SCORE.SYSTEM.DIHEDRAL>
0

>  <SCORE.SYSTEM.SOLV>
0

>  <SCORE.SYSTEM.norm>
0

>  <SCORE.heavy>
32

>  <SCORE.norm>
-2.1194

>  <RMSD>
0.843

$$$$
1lc4
 OpenBabel02141814113D
libRbt.so/2013.1/901 2013/11/27
 32 34  0  0  0  0  0  0  0  0999 V2000
  -10.1204    5.6433   19.6440 C   0  0  2  0  0  0  0  0  0  0  0  0
  -11.1188    6.5063   20.1282 O   0  0  0  0  0  0  0  0  0  0  0  0
  -10.2157    4.3149   20.4219 C   0  0  2  0  0  0  0  0  0  0  0  0
  -11.5489    3.7257   20.2634 N   0  3  0  0  0  0  0  0  0  0  0  0
   -9.8746    4.5458   21.9128 C   0  0  0  0  0  0  0  0  0  0  0  0
   -8.4506    5.1253   21.9776 C   0  0  2  0  0  0  0  0  0  0  0  0
   -8.0518    5.3187   23.3388 O   0  0  0  0  0  0  0  0  0  0  0  0
   -8.4028    6.4543   21.1834 C   0  0  2  0  0  0  0  0  0  0  0  0
   -8.8123    6.2354   19.8033 O   0  0  0  0  0  0  0  0  0  0  0  0
   -7.0145    7.0878   21.1394 C   0  0  0  0  0  0  0  0  0  0  0  0
   -6.5426    7.4452   22.5030 N   0  3  0  0  0  0  0  0  0  0  0  0
  -13.5715    9.5818   18.5515 C   0  0  2  0  0  0  0  0  0  0  0  0
  -14.0374   10.7918   17.8497 N   0  3  0  0  0  0  0  0  0  0  0  0
  -12.5905    9.9666   19.6507 C   0  0  0  0  0  0  0  0  0  0  0  0
  -12.0957    8.7161   20.3858 C   0  0  2  0  0  0  0  0  0  0  0  0
  -11.2392    9.1465   21.5188 N   0  3  0  0  0  0  0  0  0  0  0  0
  -11.4055    7.7207   19.4059 C   0  0  2  0  0  0  0  0  0  0  0  0
  -12.3812    7.3717   18.2527 C   0  0  2  0  0  0  0  0  0  0  0  0
  -11.7055    6.6067   17.2841 O   0  0  0  0  0  0  0  0  0  0  0  0
  -12.8859    8.6465   17.5574 C   0  0  1  0  0  0  0  0  0  0  0  0
  -13.8031    8.2786   16.5278 O   0  0  0  0  0  0  0  0  0  0  0  0
  -13.5201    8.7110   15.2416 C   0  0  2  0  0  0  0  0  0  0  0  0
  -14.8441    8.9756   14.5045 C   0  0  2  0  0  0  0  0  0  0  0  0
  -15.5702    9.9690   15.2172 O   0  0  0  0  0  0  0  0  0  0  0  0
  -15.6608    7.6734   14.4354 C   0  0  1  0  0  0  0  0  0  0  0  0
  -16.9691    7.8736   13.7480 N   0  3  0  0  0  0  0  0  0  0  0  0
  -14.8272    6.5857   13.7150 C   0  0  2  0  0  0  0  0  0  0  0  0
  -15.5497    5.3579   13.6581 O   0  0  0  0  0  0  0  0  0  0  0  0
  -13.4783    6.3879   14.4313 C   0  0  2  0  0  0  0  0  0  0  0  0
  -12.7690    7.6737   14.5591 O   0  0  0  0  0  0  0  0  0  0  0  0
  -12.5637    5.4492   13.6761 C   0  0  0  0  0  0  0  0  0  0  0  0
  -13.0928    4.1260   13.6268 O   0  0  0  0  0  0  0  0  0  0  0  0
  1  2  1  1  0  0  0
  1  3  1  0  0  0  0
  1  9  1  0  0  0  0
  3  4  1  1  0  0  0
  3  5  1  0  0  0  0
  5  6  1  0  0  0  0
  6  7  1  1  0  0  0
  6  8  1  0  0  0  0
  8  9  1  0  0  0  0
  8 10  1  6  0  0  0
 10 11  1  0  0  0  0
 12 13  1  6  0  0  0
 12 14  1  0  0  0  0
 12 20  1  0  0  0  0
 14 15  1  0  0  0  0
 15 16  1  1  0  0  0
 15 17  1  0  0  0  0
 17  2  1  1  0  0  0
 17 18  1  0  0  0  0
 18 19  1  6  0  0  0
 18 20  1  0  0  0  0
 20 21  1  6  0  0  0
 22 21  1  1  0  0  0
 22 23  1  0  0  0  0
 22 30  1  0  0  0  0
 23 24  1  1  0  0  0
 23 25  1  0  0  0  0
 25 26  1  6  0  0  0
 25 27  1  0  0  0  0
 27 28  1  1  0  0  0
 27 29  1  0  0  0  0
 29 30  1  0  0  0  0
 29 31  1  6  0  0  0
 31 32  1  0  0  0  0
M  CHG  5   4   1  11   1  13   1  16   1  26   1
M  END
>  <CHROM.1>
-168.73784526,-158.40418736,-175.81404771,62.76083059,-62.20231296,46.28580888
-60.51249922,54.02290749,-60.10481549,114.68422679,-147.13075558,136.67346837
51.36593012,-174.31762564,-65.20540933,-69.51688978,-12.03428140,7.11671665
17.99955491,-0.30424630,0.84310240,-2.55902146

>  <Name>
1lc4

>  <RI>
0

>  <Rbt.Current_Directory>
/home/afrankz/demos/rdock_decoys_rna/rnas/1lc4

>  <Rbt.Executable>
rbdock ($Id: //depot/dev/client3/rdock/2013.1/src/exe/rbdock.cxx#4 $)

>  <Rbt.Library>
libRbt.so (2013.1, Build901 2013/11/27)

>  <Rbt.Parameter_File>
/export/apps/rDock/src/rDock_2013.1_src/data/scripts/dock_solv.prm

>  <Rbt.Receptor>
prm/pocket_docking_5.prm

>  <SCORE>
-74.3184

>  <SCORE.INTER>
-51.3128

>  <SCORE.INTER.CONST>
1

>  <SCORE.INTER.POLAR>
-7.00648

>  <SCORE.INTER.ROT>
6

>  <SCORE.INTER.SOLV>
22.9783

>  <SCORE.INTER.VDW>
-26.113

>  <SCORE.INTER.norm>
-1.60353

>  <SCORE.INTRA>
-23.0056

>  <SCORE.INTRA.DIHEDRAL>
-22.8805

>  <SCORE.INTRA.DIHEDRAL.0>
44.2576

>  <SCORE.INTRA.POLAR>
-2.10287

>  <SCORE.INTRA.POLAR.0>
-0.381556

>  <SCORE.INTRA.REPUL>
0

>  <SCORE.INTRA.REPUL.0>
0

>  <SCORE.INTRA.SOLV>
-0.774336

>  <SCORE.INTRA.SOLV.lig_0>
-134.592

>  <SCORE.INTRA.VDW>
-4.02845

>  <SCORE.INTRA.VDW.0>
-1.01417

>  <SCORE.INTRA.norm>
-0.718925

>  <SCORE.RESTR>
0

>  <SCORE.RESTR.CAVITY>
0

>  <SCORE.RESTR.norm>
0

>  <SCORE.SYSTEM>
0

>  <SCORE.SYSTEM.CONST>
0

>  <SCORE.SYSTEM.DIHEDRAL>
0

>  <SCORE.SYSTEM.SOLV>
0

>  <SCORE.SYSTEM.norm>
0

>  <SCORE.heavy>
32

>  <SCORE.norm>
-2.32245

>  <RMSD>
0.849

$$$$
1lc4
 OpenBabel02141814113D
libRbt.so/2013.1/901 2013/11/27
 32 34  0  0  0  0  0  0  0  0999 V2000
  -10.2094    5.9251   19.6566 C   0  0  2  0  0  0  0  0  0  0  0  0
  -11.3038    6.7155   20.0484 O   0  0  0  0  0  0  0  0  0  0  0  0
  -10.4253    4.5002   20.2062 C   0  0  2  0  0  0  0  0  0  0  0  0
  -11.6867    3.9460   19.7047 N   0  3  0  0  0  0  0  0  0  0  0  0
  -10.3912    4.5156   21.7525 C   0  0  0  0  0  0  0  0  0  0  0  0
   -9.0221    5.0731   22.1798 C   0  0  2  0  0  0  0  0  0  0  0  0
   -8.9048    5.0694   23.6065 O   0  0  0  0  0  0  0  0  0  0  0  0
   -8.8495    6.5011   21.6050 C   0  0  2  0  0  0  0  0  0  0  0  0
   -8.9729    6.4822   20.1543 O   0  0  0  0  0  0  0  0  0  0  0  0
   -7.4951    7.1276   21.9273 C   0  0  0  0  0  0  0  0  0  0  0  0
   -6.6077    7.1342   20.7348 N   0  3  0  0  0  0  0  0  0  0  0  0
  -13.8291    9.6451   18.3162 C   0  0  2  0  0  0  0  0  0  0  0  0
  -14.3212   10.8200   17.5737 N   0  3  0  0  0  0  0  0  0  0  0  0
  -12.9139   10.0940   19.4473 C   0  0  0  0  0  0  0  0  0  0  0  0
  -12.3925    8.8805   20.2250 C   0  0  2  0  0  0  0  0  0  0  0  0
  -11.6050    9.3696   21.3840 N   0  3  0  0  0  0  0  0  0  0  0  0
  -11.6163    7.9029   19.2927 C   0  0  2  0  0  0  0  0  0  0  0  0
  -12.5257    7.4891   18.1071 C   0  0  2  0  0  0  0  0  0  0  0  0
  -11.7752    6.7411   17.1813 O   0  0  0  0  0  0  0  0  0  0  0  0
  -13.0598    8.7270   17.3684 C   0  0  1  0  0  0  0  0  0  0  0  0
  -13.9149    8.2992   16.3090 O   0  0  0  0  0  0  0  0  0  0  0  0
  -13.6319    8.7688   15.0360 C   0  0  2  0  0  0  0  0  0  0  0  0
  -14.9500    8.9145   14.2564 C   0  0  2  0  0  0  0  0  0  0  0  0
  -15.7899    9.8281   14.9507 O   0  0  0  0  0  0  0  0  0  0  0  0
  -15.6371    7.5418   14.1512 C   0  0  1  0  0  0  0  0  0  0  0  0
  -16.9351    7.6244   13.4214 N   0  3  0  0  0  0  0  0  0  0  0  0
  -14.6811    6.5446   13.4522 C   0  0  2  0  0  0  0  0  0  0  0  0
  -15.2819    5.2547   13.3630 O   0  0  0  0  0  0  0  0  0  0  0  0
  -13.3439    6.4680   14.2123 C   0  0  2  0  0  0  0  0  0  0  0  0
  -12.7640    7.8136   14.3724 O   0  0  0  0  0  0  0  0  0  0  0  0
  -12.3202    5.6272   13.4823 C   0  0  0  0  0  0  0  0  0  0  0  0
  -11.2446    5.2477   14.3382 O   0  0  0  0  0  0  0  0  0  0  0  0
  1  2  1  1  0  0  0
  1  3  1  0  0  0  0
  1  9  1  0  0  0  0
  3  4  1  1  0  0  0
  3  5  1  0  0  0  0
  5  6  1  0  0  0  0
  6  7  1  1  0  0  0
  6  8  1  0  0  0  0
  8  9  1  0  0  0  0
  8 10  1  6  0  0  0
 10 11  1  0  0  0  0
 12 13  1  6  0  0  0
 12 14  1  0  0  0  0
 12 20  1  0  0  0  0
 14 15  1  0  0  0  0
 15 16  1  1  0  0  0
 15 17  1  0  0  0  0
 17  2  1  1  0  0  0
 17 18  1  0  0  0  0
 18 19  1  6  0  0  0
 18 20  1  0  0  0  0
 20 21  1  6  0  0  0
 22 21  1  1  0  0  0
 22 23  1  0  0  0  0
 22 30  1  0  0  0  0
 23 24  1  1  0  0  0
 23 25  1  0  0  0  0
 25 26  1  6  0  0  0
 25 27  1  0  0  0  0
 27 28  1  1  0  0  0
 27 29  1  0  0  0  0
 29 30  1  0  0  0  0
 29 31  1  6  0  0  0
 31 32  1  0  0  0  0
M  CHG  5   4   1  11   1  13   1  16   1  26   1
M  END
>  <CHROM.1>
-157.25543285,-155.57604391,-62.89869849,57.39480565,105.18321546,-24.51295147
-61.38868618,-74.30692167,-58.62301329,112.04052009,-147.99019805,122.45130985
-74.55398495,-60.01974385,-163.47404046,-58.60351966,-12.14004279,7.20111379
17.85466017,-0.43849882,0.84224444,-2.36668148

>  <Name>
1lc4

>  <RI>
0

>  <Rbt.Current_Directory>
/home/afrankz/demos/rdock_decoys_rna/rnas/1lc4

>  <Rbt.Executable>
rbdock ($Id: //depot/dev/client3/rdock/2013.1/src/exe/rbdock.cxx#4 $)

>  <Rbt.Library>
libRbt.so (2013.1, Build901 2013/11/27)

>  <Rbt.Parameter_File>
/export/apps/rDock/src/rDock_2013.1_src/data/scripts/dock_solv.prm

>  <Rbt.Receptor>
prm/pocket_docking_4.prm

>  <SCORE>
-70.9977

>  <SCORE.INTER>
-57.0525

>  <SCORE.INTER.CONST>
1

>  <SCORE.INTER.POLAR>
-8.78677

>  <SCORE.INTER.ROT>
6

>  <SCORE.INTER.SOLV>
31.8854

>  <SCORE.INTER.VDW>
-26.9743

>  <SCORE.INTER.norm>
-1.78289

>  <SCORE.INTRA>
-13.9974

>  <SCORE.INTRA.DIHEDRAL>
-12.4943

>  <SCORE.INTRA.DIHEDRAL.0>
44.2576

>  <SCORE.INTRA.POLAR>
-0.857356

>  <SCORE.INTRA.POLAR.0>
-0.381556

>  <SCORE.INTRA.REPUL>
0

>  <SCORE.INTRA.REPUL.0>
0

>  <SCORE.INTRA.SOLV>
-1.38331

>  <SCORE.INTRA.SOLV.lig_0>
-134.592

>  <SCORE.INTRA.VDW>
-4.14357

>  <SCORE.INTRA.VDW.0>
-1.01417

>  <SCORE.INTRA.norm>
-0.437418

>  <SCORE.RESTR>
0.0522369

>  <SCORE.RESTR.CAVITY>
0.0522369

>  <SCORE.RESTR.norm>
0.0016324

>  <SCORE.SYSTEM>
0

>  <SCORE.SYSTEM.CONST>
0

>  <SCORE.SYSTEM.DIHEDRAL>
0

>  <SCORE.SYSTEM.SOLV>
0

>  <SCORE.SYSTEM.norm>
0

>  <SCORE.heavy>
32

>  <SCORE.norm>
-2.21868

>  <RMSD>
0.851

$$$$
1lc4
 OpenBabel02141814113D
libRbt.so/2013.1/901 2013/11/27
 32 34  0  0  0  0  0  0  0  0999 V2000
   -9.6498    6.1765   19.6792 C   0  0  2  0  0  0  0  0  0  0  0  0
  -10.8783    6.7717   20.0149 O   0  0  0  0  0  0  0  0  0  0  0  0
   -9.6386    4.7440   20.2508 C   0  0  2  0  0  0  0  0  0  0  0  0
  -10.7653    3.9729   19.7163 N   0  3  0  0  0  0  0  0  0  0  0  0
   -9.6677    4.7877   21.7966 C   0  0  0  0  0  0  0  0  0  0  0  0
   -8.4326    5.5795   22.2607 C   0  0  2  0  0  0  0  0  0  0  0  0
   -8.3720    5.6171   23.6905 O   0  0  0  0  0  0  0  0  0  0  0  0
   -8.4861    7.0073   21.6624 C   0  0  2  0  0  0  0  0  0  0  0  0
   -8.5479    6.9460   20.2089 O   0  0  0  0  0  0  0  0  0  0  0  0
   -7.2732    7.8629   22.0196 C   0  0  0  0  0  0  0  0  0  0  0  0
   -6.1006    7.5133   21.1756 N   0  3  0  0  0  0  0  0  0  0  0  0
  -13.6328    9.4923   18.2912 C   0  0  2  0  0  0  0  0  0  0  0  0
  -14.2194   10.6536   17.5975 N   0  3  0  0  0  0  0  0  0  0  0  0
  -12.8745    9.9568   19.5272 C   0  0  0  0  0  0  0  0  0  0  0  0
  -12.2564    8.7582   20.2556 C   0  0  2  0  0  0  0  0  0  0  0  0
  -11.6318    9.2439   21.5113 N   0  3  0  0  0  0  0  0  0  0  0  0
  -11.2880    7.9692   19.3244 C   0  0  2  0  0  0  0  0  0  0  0  0
  -12.0412    7.5447   18.0375 C   0  0  2  0  0  0  0  0  0  0  0  0
  -11.1293    6.9788   17.1274 O   0  0  0  0  0  0  0  0  0  0  0  0
  -12.6779    8.7626   17.3485 C   0  0  1  0  0  0  0  0  0  0  0  0
  -13.3852    8.3205   16.1905 O   0  0  0  0  0  0  0  0  0  0  0  0
  -13.1501    8.9998   15.0054 C   0  0  2  0  0  0  0  0  0  0  0  0
  -14.4953    9.2544   14.3041 C   0  0  2  0  0  0  0  0  0  0  0  0
  -15.3190   10.0272   15.1681 O   0  0  0  0  0  0  0  0  0  0  0  0
  -15.1736    7.9087   13.9932 C   0  0  1  0  0  0  0  0  0  0  0  0
  -16.4964    8.0931   13.3298 N   0  3  0  0  0  0  0  0  0  0  0  0
  -14.2332    7.0559   13.1069 C   0  0  2  0  0  0  0  0  0  0  0  0
  -14.8254    5.7904   12.8229 O   0  0  0  0  0  0  0  0  0  0  0  0
  -12.8702    6.8729   13.7999 C   0  0  2  0  0  0  0  0  0  0  0  0
  -12.2970    8.1812   14.1638 O   0  0  0  0  0  0  0  0  0  0  0  0
  -11.8647    6.1804   12.9070 C   0  0  0  0  0  0  0  0  0  0  0  0
  -11.4924    6.9991   11.8004 O   0  0  0  0  0  0  0  0  0  0  0  0
  1  2  1  1  0  0  0
  1  3  1  0  0  0  0
  1  9  1  0  0  0  0
  3  4  1  6  0  0  0
  3  5  1  0  0  0  0
  5  6  1  0  0  0  0
  6  7  1  1  0  0  0
  6  8  1  0  0  0  0
  8  9  1  0  0  0  0
  8 10  1  6  0  0  0
 10 11  1  0  0  0  0
 12 13  1  6  0  0  0
 12 14  1  0  0  0  0
 12 20  1  0  0  0  0
 14 15  1  0  0  0  0
 15 16  1  1  0  0  0
 15 17  1  0  0  0  0
 17  2  1  1  0  0  0
 17 18  1  0  0  0  0
 18 19  1  6  0  0  0
 18 20  1  0  0  0  0
 20 21  1  6  0  0  0
 22 21  1  1  0  0  0
 22 23  1  0  0  0  0
 22 30  1  0  0  0  0
 23 24  1  1  0  0  0
 23 25  1  0  0  0  0
 25 26  1  6  0  0  0
 25 27  1  0  0  0  0
 27 28  1  1  0  0  0
 27 29  1  0  0  0  0
 29 30  1  0  0  0  0
 29 31  1  6  0  0  0
 31 32  1  0  0  0  0
M  CHG  5   4   1  11   1  13   1  16   1  26   1
M  END
>  <CHROM.1>
-164.32792532,-154.40519736,-95.97027697,-49.94052290,78.59015839,82.86241704
65.57428727,55.30456351,-172.92797795,106.98969434,-135.90506742,140.82354898
-73.12092329,-49.01640449,67.78954234,-50.81351094,-11.73629648,7.50122270
17.72749878,-0.69220779,0.74849225,-2.07376796

>  <Name>
1lc4

>  <RI>
0

>  <Rbt.Current_Directory>
/home/afrankz/demos/rdock_decoys_rna/rnas/1lc4

>  <Rbt.Executable>
rbdock ($Id: //depot/dev/client3/rdock/2013.1/src/exe/rbdock.cxx#4 $)

>  <Rbt.Library>
libRbt.so (2013.1, Build901 2013/11/27)

>  <Rbt.Parameter_File>
/export/apps/rDock/src/rDock_2013.1_src/data/scripts/dock_solv.prm

>  <Rbt.Receptor>
prm/blind_docking_80.prm

>  <SCORE>
-60.6102

>  <SCORE.INTER>
-50.2986

>  <SCORE.INTER.CONST>
1

>  <SCORE.INTER.POLAR>
-8.68908

>  <SCORE.INTER.ROT>
6

>  <SCORE.INTER.SOLV>
35.3861

>  <SCORE.INTER.VDW>
-23.9642

>  <SCORE.INTER.norm>
-1.57183

>  <SCORE.INTRA>
-14.0622

>  <SCORE.INTRA.DIHEDRAL>
-15.448

>  <SCORE.INTRA.DIHEDRAL.0>
44.2576

>  <SCORE.INTRA.POLAR>
-0.796491

>  <SCORE.INTRA.POLAR.0>
-0.381556

>  <SCORE.INTRA.REPUL>
0

>  <SCORE.INTRA.REPUL.0>
0

>  <SCORE.INTRA.SOLV>
0.172449

>  <SCORE.INTRA.SOLV.lig_0>
-134.592

>  <SCORE.INTRA.VDW>
-3.71637

>  <SCORE.INTRA.VDW.0>
-1.01417

>  <SCORE.INTRA.norm>
-0.439444

>  <SCORE.RESTR>
3.75056

>  <SCORE.RESTR.CAVITY>
3.75056

>  <SCORE.RESTR.norm>
0.117205

>  <SCORE.SYSTEM>
0

>  <SCORE.SYSTEM.CONST>
0

>  <SCORE.SYSTEM.DIHEDRAL>
0

>  <SCORE.SYSTEM.SOLV>
0

>  <SCORE.SYSTEM.norm>
0

>  <SCORE.heavy>
32

>  <SCORE.norm>
-1.89407

>  <RMSD>
0.861

$$$$
1lc4
 OpenBabel02141814113D
libRbt.so/2013.1/901 2013/11/27
 32 34  0  0  0  0  0  0  0  0999 V2000
   -9.7681    5.9685   19.5989 C   0  0  2  0  0  0  0  0  0  0  0  0
  -10.8971    6.6732   20.0514 O   0  0  0  0  0  0  0  0  0  0  0  0
   -9.7493    4.5931   20.2965 C   0  0  2  0  0  0  0  0  0  0  0  0
  -10.9845    3.8580   20.0075 N   0  3  0  0  0  0  0  0  0  0  0  0
   -9.5422    4.7715   21.8190 C   0  0  0  0  0  0  0  0  0  0  0  0
   -8.2095    5.5138   22.0209 C   0  0  2  0  0  0  0  0  0  0  0  0
   -7.9317    5.6700   23.4165 O   0  0  0  0  0  0  0  0  0  0  0  0
   -8.2742    6.8851   21.3035 C   0  0  2  0  0  0  0  0  0  0  0  0
   -8.5581    6.7035   19.8870 O   0  0  0  0  0  0  0  0  0  0  0  0
   -6.9761    7.6832   21.3974 C   0  0  0  0  0  0  0  0  0  0  0  0
   -6.7235    8.1381   22.7899 N   0  3  0  0  0  0  0  0  0  0  0  0
  -13.3789    9.8666   18.7854 C   0  0  2  0  0  0  0  0  0  0  0  0
  -13.8539   11.1458   18.2270 N   0  3  0  0  0  0  0  0  0  0  0  0
  -12.4515   10.1292   19.9641 C   0  0  0  0  0  0  0  0  0  0  0  0
  -11.9477    8.8062   20.5515 C   0  0  2  0  0  0  0  0  0  0  0  0
  -11.1471    9.1065   21.7646 N   0  3  0  0  0  0  0  0  0  0  0  0
  -11.1923    7.9638   19.4805 C   0  0  2  0  0  0  0  0  0  0  0  0
  -12.1137    7.7438   18.2531 C   0  0  2  0  0  0  0  0  0  0  0  0
  -11.3800    7.1279   17.2223 O   0  0  0  0  0  0  0  0  0  0  0  0
  -12.6295    9.0855   17.7079 C   0  0  1  0  0  0  0  0  0  0  0  0
  -13.4963    8.8321   16.6028 O   0  0  0  0  0  0  0  0  0  0  0  0
  -13.1632    9.4125   15.3889 C   0  0  2  0  0  0  0  0  0  0  0  0
  -14.3692   10.2185   14.8768 C   0  0  2  0  0  0  0  0  0  0  0  0
  -14.6889   11.2174   15.8371 O   0  0  0  0  0  0  0  0  0  0  0  0
  -15.5684    9.2752   14.6778 C   0  0  1  0  0  0  0  0  0  0  0  0
  -16.7775   10.0063   14.2008 N   0  3  0  0  0  0  0  0  0  0  0  0
  -15.1784    8.1572   13.6802 C   0  0  2  0  0  0  0  0  0  0  0  0
  -16.2637    7.2514   13.4949 O   0  0  0  0  0  0  0  0  0  0  0  0
  -13.9283    7.4099   14.1808 C   0  0  2  0  0  0  0  0  0  0  0  0
  -12.8324    8.3589   14.4473 O   0  0  0  0  0  0  0  0  0  0  0  0
  -13.4153    6.4126   13.1659 C   0  0  0  0  0  0  0  0  0  0  0  0
  -14.4832    5.7807   12.4633 O   0  0  0  0  0  0  0  0  0  0  0  0
  1  2  1  1  0  0  0
  1  3  1  0  0  0  0
  1  9  1  0  0  0  0
  3  4  1  1  0  0  0
  3  5  1  0  0  0  0
  5  6  1  0  0  0  0
  6  7  1  1  0  0  0
  6  8  1  0  0  0  0
  8  9  1  0  0  0  0
  8 10  1  6  0  0  0
 10 11  1  0  0  0  0
 12 13  1  6  0  0  0
 12 14  1  0  0  0  0
 12 20  1  0  0  0  0
 14 15  1  0  0  0  0
 15 16  1  1  0  0  0
 15 17  1  0  0  0  0
 17  2  1  1  0  0  0
 17 18  1  0  0  0  0
 18 19  1  6  0  0  0
 18 20  1  0  0  0  0
 20 21  1  6  0  0  0
 22 21  1  1  0  0  0
 22 23  1  0  0  0  0
 22 30  1  0  0  0  0
 23 24  1  1  0  0  0
 23 25  1  0  0  0  0
 25 26  1  6  0  0  0
 25 27  1  0  0  0  0
 27 28  1  1  0  0  0
 27 29  1  0  0  0  0
 29 30  1  0  0  0  0
 29 31  1  6  0  0  0
 31 32  1  0  0  0  0
M  CHG  5   4   1  11   1  13   1  16   1  26   1
M  END
>  <CHROM.1>
-176.01552535,-151.58204678,-52.40255311,-50.33709887,-68.41751368,-179.84379593
-49.54989510,59.80115153,-50.87365249,115.98105774,-125.88536736,73.95313990
-4.74068937,-173.89066351,-36.49518035,-175.21128916,-11.95089809,7.81037081
18.04128332,-0.24573232,0.86682797,-2.54435782

>  <Name>
1lc4

>  <RI>
0

>  <Rbt.Current_Directory>
/home/afrankz/demos/rdock_decoys_rna/rnas/1lc4

>  <Rbt.Executable>
rbdock ($Id: //depot/dev/client3/rdock/2013.1/src/exe/rbdock.cxx#4 $)

>  <Rbt.Library>
libRbt.so (2013.1, Build901 2013/11/27)

>  <Rbt.Parameter_File>
/export/apps/rDock/src/rDock_2013.1_src/data/scripts/dock_solv.prm

>  <Rbt.Receptor>
prm/blind_docking_80.prm

>  <SCORE>
-61.7589

>  <SCORE.INTER>
-50.9484

>  <SCORE.INTER.CONST>
1

>  <SCORE.INTER.POLAR>
-7.09784

>  <SCORE.INTER.ROT>
6

>  <SCORE.INTER.SOLV>
31.8908

>  <SCORE.INTER.VDW>
-28.5364

>  <SCORE.INTER.norm>
-1.59214

>  <SCORE.INTRA>
-16.2018

>  <SCORE.INTRA.DIHEDRAL>
-18.6266

>  <SCORE.INTRA.DIHEDRAL.0>
44.2576

>  <SCORE.INTRA.POLAR>
-1.52762

>  <SCORE.INTRA.POLAR.0>
-0.381556

>  <SCORE.INTRA.REPUL>
0

>  <SCORE.INTRA.REPUL.0>
0

>  <SCORE.INTRA.SOLV>
1.57965

>  <SCORE.INTRA.SOLV.lig_0>
-134.592

>  <SCORE.INTRA.VDW>
-2.4844

>  <SCORE.INTRA.VDW.0>
-1.01417

>  <SCORE.INTRA.norm>
-0.506306

>  <SCORE.RESTR>
5.39126

>  <SCORE.RESTR.CAVITY>
5.39126

>  <SCORE.RESTR.norm>
0.168477

>  <SCORE.SYSTEM>
0

>  <SCORE.SYSTEM.CONST>
0

>  <SCORE.SYSTEM.DIHEDRAL>
0

>  <SCORE.SYSTEM.SOLV>
0

>  <SCORE.SYSTEM.norm>
0

>  <SCORE.heavy>
32

>  <SCORE.norm>
-1.92997

>  <RMSD>
0.865

$$$$
1lc4
 OpenBabel02141814113D
libRbt.so/2013.1/901 2013/11/27
 32 34  0  0  0  0  0  0  0  0999 V2000
   -9.7601    5.9497   19.5461 C   0  0  2  0  0  0  0  0  0  0  0  0
  -10.8798    6.6679   20.0005 O   0  0  0  0  0  0  0  0  0  0  0  0
   -9.7458    4.5818   20.2586 C   0  0  2  0  0  0  0  0  0  0  0  0
  -10.9890    3.8531   19.9883 N   0  3  0  0  0  0  0  0  0  0  0  0
   -9.5240    4.7753   21.7771 C   0  0  0  0  0  0  0  0  0  0  0  0
   -8.1841    5.5094   21.9595 C   0  0  2  0  0  0  0  0  0  0  0  0
   -7.8929    5.6787   23.3508 O   0  0  0  0  0  0  0  0  0  0  0  0
   -8.2445    6.8733   21.2276 C   0  0  2  0  0  0  0  0  0  0  0  0
   -8.5421    6.6784   19.8157 O   0  0  0  0  0  0  0  0  0  0  0  0
   -6.9397    7.6623   21.3015 C   0  0  0  0  0  0  0  0  0  0  0  0
   -6.7237    8.2190   22.6628 N   0  3  0  0  0  0  0  0  0  0  0  0
  -13.5427    9.5417   18.3851 C   0  0  2  0  0  0  0  0  0  0  0  0
  -14.0900   10.7362   17.7160 N   0  3  0  0  0  0  0  0  0  0  0  0
  -12.7159    9.9589   19.5937 C   0  0  0  0  0  0  0  0  0  0  0  0
  -12.1381    8.7253   20.2962 C   0  0  2  0  0  0  0  0  0  0  0  0
  -11.4428    9.1707   21.5294 N   0  3  0  0  0  0  0  0  0  0  0  0
  -11.2485    7.8889   19.3284 C   0  0  2  0  0  0  0  0  0  0  0  0
  -12.0698    7.5117   18.0687 C   0  0  2  0  0  0  0  0  0  0  0  0
  -11.2237    6.9011   17.1246 O   0  0  0  0  0  0  0  0  0  0  0  0
  -12.6639    8.7654   17.4063 C   0  0  1  0  0  0  0  0  0  0  0  0
  -13.4357    8.3674   16.2738 O   0  0  0  0  0  0  0  0  0  0  0  0
  -13.2281    9.0579   15.0900 C   0  0  2  0  0  0  0  0  0  0  0  0
  -14.5876    9.3021   14.4130 C   0  0  2  0  0  0  0  0  0  0  0  0
  -15.4054   10.0592   15.2961 O   0  0  0  0  0  0  0  0  0  0  0  0
  -15.2556    7.9509   14.1036 C   0  0  1  0  0  0  0  0  0  0  0  0
  -16.5914    8.1249   13.4635 N   0  3  0  0  0  0  0  0  0  0  0  0
  -14.3206    7.1152   13.1956 C   0  0  2  0  0  0  0  0  0  0  0  0
  -14.9031    5.8451   12.9121 O   0  0  0  0  0  0  0  0  0  0  0  0
  -12.9442    6.9430   13.8646 C   0  0  2  0  0  0  0  0  0  0  0  0
  -12.3799    8.2551   14.2285 O   0  0  0  0  0  0  0  0  0  0  0  0
  -11.9460    6.2683   12.9501 C   0  0  0  0  0  0  0  0  0  0  0  0
  -11.0038    5.4889   13.6837 O   0  0  0  0  0  0  0  0  0  0  0  0
  1  2  1  1  0  0  0
  1  3  1  0  0  0  0
  1  9  1  0  0  0  0
  3  4  1  1  0  0  0
  3  5  1  0  0  0  0
  5  6  1  0  0  0  0
  6  7  1  1  0  0  0
  6  8  1  0  0  0  0
  8  9  1  0  0  0  0
  8 10  1  6  0  0  0
 10 11  1  0  0  0  0
 12 13  1  6  0  0  0
 12 14  1  0  0  0  0
 12 20  1  0  0  0  0
 14 15  1  0  0  0  0
 15 16  1  1  0  0  0
 15 17  1  0  0  0  0
 17  2  1  1  0  0  0
 17 18  1  0  0  0  0
 18 19  1  6  0  0  0
 18 20  1  0  0  0  0
 20 21  1  6  0  0  0
 22 21  1  1  0  0  0
 22 23  1  0  0  0  0
 22 30  1  0  0  0  0
 23 24  1  1  0  0  0
 23 25  1  0  0  0  0
 25 26  1  6  0  0  0
 25 27  1  0  0  0  0
 27 28  1  1  0  0  0
 27 29  1  0  0  0  0
 29 30  1  0  0  0  0
 29 31  1  6  0  0  0
 31 32  1  0  0  0  0
M  CHG  5   4   1  11   1  13   1  16   1  26   1
M  END
>  <CHROM.1>
-169.83579607,-159.62486853,66.60446141,64.04252090,-72.78222172,58.00164450
-61.80743990,48.86575588,178.48667801,105.61054822,-139.02052717,-85.55019876
-72.15728536,-59.74730633,-148.76186791,-54.99303099,-11.71474634,7.44464769
17.84070041,-0.54571986,0.79760375,-2.24698132

>  <Name>
1lc4

>  <RI>
0

>  <Rbt.Current_Directory>
/home/afrankz/demos/rdock_decoys_rna/rnas/1lc4

>  <Rbt.Executable>
rbdock ($Id: //depot/dev/client3/rdock/2013.1/src/exe/rbdock.cxx#4 $)

>  <Rbt.Library>
libRbt.so (2013.1, Build901 2013/11/27)

>  <Rbt.Parameter_File>
/export/apps/rDock/src/rDock_2013.1_src/data/scripts/dock_solv.prm

>  <Rbt.Receptor>
prm/blind_docking_80.prm

>  <SCORE>
-52.5456

>  <SCORE.INTER>
-38.6813

>  <SCORE.INTER.CONST>
1

>  <SCORE.INTER.POLAR>
-5.42009

>  <SCORE.INTER.ROT>
6

>  <SCORE.INTER.SOLV>
25.7182

>  <SCORE.INTER.VDW>
-23.8933

>  <SCORE.INTER.norm>
-1.20879

>  <SCORE.INTRA>
-19.2024

>  <SCORE.INTRA.DIHEDRAL>
-22.895

>  <SCORE.INTRA.DIHEDRAL.0>
44.2576

>  <SCORE.INTRA.POLAR>
-0.994815

>  <SCORE.INTRA.POLAR.0>
-0.381556

>  <SCORE.INTRA.REPUL>
0

>  <SCORE.INTRA.REPUL.0>
0

>  <SCORE.INTRA.SOLV>
-0.895563

>  <SCORE.INTRA.SOLV.lig_0>
-134.592

>  <SCORE.INTRA.VDW>
-3.92477

>  <SCORE.INTRA.VDW.0>
-1.01417

>  <SCORE.INTRA.norm>
-0.600076

>  <SCORE.RESTR>
5.3382

>  <SCORE.RESTR.CAVITY>
5.3382

>  <SCORE.RESTR.norm>
0.166819

>  <SCORE.SYSTEM>
0

>  <SCORE.SYSTEM.CONST>
0

>  <SCORE.SYSTEM.DIHEDRAL>
0

>  <SCORE.SYSTEM.SOLV>
0

>  <SCORE.SYSTEM.norm>
0

>  <SCORE.heavy>
32

>  <SCORE.norm>
-1.64205

>  <RMSD>
0.868

$$$$
1lc4
 OpenBabel02141814113D
libRbt.so/2013.1/901 2013/11/27
 32 34  0  0  0  0  0  0  0  0999 V2000
   -9.7677    6.1387   19.7128 C   0  0  2  0  0  0  0  0  0  0  0  0
  -10.9943    6.7536   20.0182 O   0  0  0  0  0  0  0  0  0  0  0  0
   -9.7496    4.7473   20.3780 C   0  0  2  0  0  0  0  0  0  0  0  0
  -10.8794    3.9413   19.9051 N   0  3  0  0  0  0  0  0  0  0  0  0
   -9.7664    4.8935   21.9178 C   0  0  0  0  0  0  0  0  0  0  0  0
   -8.5288    5.7155   22.3183 C   0  0  2  0  0  0  0  0  0  0  0  0
   -8.4568    5.8480   23.7418 O   0  0  0  0  0  0  0  0  0  0  0  0
   -8.5893    7.1004   21.6270 C   0  0  2  0  0  0  0  0  0  0  0  0
   -8.6627    6.9428   20.1813 O   0  0  0  0  0  0  0  0  0  0  0  0
   -7.3750    7.9791   21.9168 C   0  0  0  0  0  0  0  0  0  0  0  0
   -6.1883    7.5296   21.1425 N   0  3  0  0  0  0  0  0  0  0  0  0
  -13.4401    9.9992   18.8165 C   0  0  2  0  0  0  0  0  0  0  0  0
  -13.9001   11.2974   18.2901 N   0  3  0  0  0  0  0  0  0  0  0  0
  -12.5257   10.2210   20.0135 C   0  0  0  0  0  0  0  0  0  0  0  0
  -12.0376    8.8780   20.5680 C   0  0  2  0  0  0  0  0  0  0  0  0
  -11.2502    9.1374   21.7990 N   0  3  0  0  0  0  0  0  0  0  0  0
  -11.2743    8.0623   19.4819 C   0  0  2  0  0  0  0  0  0  0  0  0
  -12.1818    7.8845   18.2374 C   0  0  2  0  0  0  0  0  0  0  0  0
  -11.4393    7.2942   17.1981 O   0  0  0  0  0  0  0  0  0  0  0  0
  -12.6823    9.2450   17.7256 C   0  0  1  0  0  0  0  0  0  0  0  0
  -13.5370    9.0299   16.6031 O   0  0  0  0  0  0  0  0  0  0  0  0
  -13.2516    9.7344   15.4440 C   0  0  2  0  0  0  0  0  0  0  0  0
  -14.5345   10.4299   14.9575 C   0  0  2  0  0  0  0  0  0  0  0  0
  -14.9891   11.3099   15.9779 O   0  0  0  0  0  0  0  0  0  0  0  0
  -15.6092    9.3704   14.6575 C   0  0  1  0  0  0  0  0  0  0  0  0
  -16.8871    9.9887   14.2006 N   0  3  0  0  0  0  0  0  0  0  0  0
  -15.0700    8.3835   13.5934 C   0  0  2  0  0  0  0  0  0  0  0  0
  -16.0363    7.3734   13.3129 O   0  0  0  0  0  0  0  0  0  0  0  0
  -13.7501    7.7521   14.0739 C   0  0  2  0  0  0  0  0  0  0  0  0
  -12.7799    8.8001   14.4387 O   0  0  0  0  0  0  0  0  0  0  0  0
  -13.1027    6.9004   13.0046 C   0  0  0  0  0  0  0  0  0  0  0  0
  -13.0154    7.5934   11.7615 O   0  0  0  0  0  0  0  0  0  0  0  0
  1  2  1  1  0  0  0
  1  3  1  0  0  0  0
  1  9  1  0  0  0  0
  3  4  1  6  0  0  0
  3  5  1  0  0  0  0
  5  6  1  0  0  0  0
  6  7  1  1  0  0  0
  6  8  1  0  0  0  0
  8  9  1  0  0  0  0
  8 10  1  6  0  0  0
 10 11  1  0  0  0  0
 12 13  1  6  0  0  0
 12 14  1  0  0  0  0
 12 20  1  0  0  0  0
 14 15  1  0  0  0  0
 15 16  1  1  0  0  0
 15 17  1  0  0  0  0
 17  2  1  1  0  0  0
 17 18  1  0  0  0  0
 18 19  1  6  0  0  0
 18 20  1  0  0  0  0
 20 21  1  6  0  0  0
 22 21  1  1  0  0  0
 22 23  1  0  0  0  0
 22 30  1  0  0  0  0
 23 24  1  1  0  0  0
 23 25  1  0  0  0  0
 25 26  1  6  0  0  0
 25 27  1  0  0  0  0
 27 28  1  1  0  0  0
 27 29  1  0  0  0  0
 29 30  1  0  0  0  0
 29 31  1  6  0  0  0
 31 32  1  0  0  0  0
M  CHG  5   4   1  11   1  13   1  16   1  26   1
M  END
>  <CHROM.1>
-178.50251247,-142.24898703,60.47247440,61.34808605,75.53879267,69.82306051
75.83584742,178.29449208,-42.73428915,110.51907587,-129.24433581,71.38336511
-2.46366947,-60.21928878,49.60518845,-65.03640291,-11.95383205,8.01278051
18.01177677,-0.43775635,0.84682811,-2.25469529

>  <Name>
1lc4

>  <RI>
0

>  <Rbt.Current_Directory>
/home/afrankz/demos/rdock_decoys_rna/rnas/1lc4

>  <Rbt.Executable>
rbdock ($Id: //depot/dev/client3/rdock/2013.1/src/exe/rbdock.cxx#4 $)

>  <Rbt.Library>
libRbt.so (2013.1, Build901 2013/11/27)

>  <Rbt.Parameter_File>
/export/apps/rDock/src/rDock_2013.1_src/data/scripts/dock_solv.prm

>  <Rbt.Receptor>
prm/blind_docking_40.prm

>  <SCORE>
-55.0018

>  <SCORE.INTER>
-47.2502

>  <SCORE.INTER.CONST>
1

>  <SCORE.INTER.POLAR>
-6.9483

>  <SCORE.INTER.ROT>
6

>  <SCORE.INTER.SOLV>
42.1664

>  <SCORE.INTER.VDW>
-29.9946

>  <SCORE.INTER.norm>
-1.47657

>  <SCORE.INTRA>
-12.7919

>  <SCORE.INTRA.DIHEDRAL>
-17.8549

>  <SCORE.INTRA.DIHEDRAL.0>
44.2576

>  <SCORE.INTRA.POLAR>
-0.435285

>  <SCORE.INTRA.POLAR.0>
-0.381556

>  <SCORE.INTRA.REPUL>
0

>  <SCORE.INTRA.REPUL.0>
0

>  <SCORE.INTRA.SOLV>
1.6492

>  <SCORE.INTRA.SOLV.lig_0>
-134.592

>  <SCORE.INTRA.VDW>
-3.20912

>  <SCORE.INTRA.VDW.0>
-1.01417

>  <SCORE.INTRA.norm>
-0.399748

>  <SCORE.RESTR>
5.04033

>  <SCORE.RESTR.CAVITY>
5.04033

>  <SCORE.RESTR.norm>
0.15751

>  <SCORE.SYSTEM>
0

>  <SCORE.SYSTEM.CONST>
0

>  <SCORE.SYSTEM.DIHEDRAL>
0

>  <SCORE.SYSTEM.SOLV>
0

>  <SCORE.SYSTEM.norm>
0

>  <SCORE.heavy>
32

>  <SCORE.norm>
-1.71881

>  <RMSD>
0.869

$$$$
1lc4
 OpenBabel02141814113D
libRbt.so/2013.1/901 2013/11/27
 32 34  0  0  0  0  0  0  0  0999 V2000
  -10.1943    5.8634   19.4825 C   0  0  2  0  0  0  0  0  0  0  0  0
  -11.3518    6.5660   19.8600 O   0  0  0  0  0  0  0  0  0  0  0  0
  -10.3597    4.3943   19.9223 C   0  0  2  0  0  0  0  0  0  0  0  0
  -11.5577    3.8109   19.3106 N   0  3  0  0  0  0  0  0  0  0  0  0
  -10.4132    4.3038   21.4655 C   0  0  0  0  0  0  0  0  0  0  0  0
   -9.1039    4.9013   22.0099 C   0  0  2  0  0  0  0  0  0  0  0  0
   -9.0667    4.8045   23.4377 O   0  0  0  0  0  0  0  0  0  0  0  0
   -8.9803    6.3730   21.5427 C   0  0  2  0  0  0  0  0  0  0  0  0
   -9.0210    6.4487   20.0892 O   0  0  0  0  0  0  0  0  0  0  0  0
   -7.6837    7.0459   21.9862 C   0  0  0  0  0  0  0  0  0  0  0  0
   -6.6830    7.0631   20.8872 N   0  3  0  0  0  0  0  0  0  0  0  0
  -13.6259   10.0104   18.8986 C   0  0  2  0  0  0  0  0  0  0  0  0
  -14.0332   11.3330   18.3899 N   0  3  0  0  0  0  0  0  0  0  0  0
  -12.5185   10.1717   19.9311 C   0  0  0  0  0  0  0  0  0  0  0  0
  -12.0835    8.8025   20.4651 C   0  0  2  0  0  0  0  0  0  0  0  0
  -11.0920    9.0154   21.5487 N   0  3  0  0  0  0  0  0  0  0  0  0
  -11.5827    7.8801   19.3137 C   0  0  2  0  0  0  0  0  0  0  0  0
  -12.6864    7.7604   18.2313 C   0  0  2  0  0  0  0  0  0  0  0  0
  -12.1766    7.0656   17.1189 O   0  0  0  0  0  0  0  0  0  0  0  0
  -13.1252    9.1496   17.7405 C   0  0  1  0  0  0  0  0  0  0  0  0
  -14.1616    8.9909   16.7722 O   0  0  0  0  0  0  0  0  0  0  0  0
  -14.1689    9.8701   15.7006 C   0  0  2  0  0  0  0  0  0  0  0  0
  -15.6259   10.1269   15.2795 C   0  0  2  0  0  0  0  0  0  0  0  0
  -16.3276   10.6811   16.3852 O   0  0  0  0  0  0  0  0  0  0  0  0
  -16.2773    8.7997   14.8531 C   0  0  1  0  0  0  0  0  0  0  0  0
  -17.7022    8.9831   14.4530 N   0  3  0  0  0  0  0  0  0  0  0  0
  -15.4606    8.1797   13.6931 C   0  0  2  0  0  0  0  0  0  0  0  0
  -16.0268    6.9340   13.2929 O   0  0  0  0  0  0  0  0  0  0  0  0
  -13.9911    7.9962   14.1158 C   0  0  2  0  0  0  0  0  0  0  0  0
  -13.4321    9.2696   14.6040 O   0  0  0  0  0  0  0  0  0  0  0  0
  -13.1197    7.5402   12.9666 C   0  0  0  0  0  0  0  0  0  0  0  0
  -11.8365    7.1119   13.4174 O   0  0  0  0  0  0  0  0  0  0  0  0
  1  2  1  1  0  0  0
  1  3  1  0  0  0  0
  1  9  1  0  0  0  0
  3  4  1  6  0  0  0
  3  5  1  0  0  0  0
  5  6  1  0  0  0  0
  6  7  1  1  0  0  0
  6  8  1  0  0  0  0
  8  9  1  0  0  0  0
  8 10  1  6  0  0  0
 10 11  1  0  0  0  0
 12 13  1  6  0  0  0
 12 14  1  0  0  0  0
 12 20  1  0  0  0  0
 14 15  1  0  0  0  0
 15 16  1  1  0  0  0
 15 17  1  0  0  0  0
 17  2  1  1  0  0  0
 17 18  1  0  0  0  0
 18 19  1  6  0  0  0
 18 20  1  0  0  0  0
 20 21  1  6  0  0  0
 22 21  1  1  0  0  0
 22 23  1  0  0  0  0
 22 30  1  0  0  0  0
 23 24  1  1  0  0  0
 23 25  1  0  0  0  0
 25 26  1  6  0  0  0
 25 27  1  0  0  0  0
 27 28  1  1  0  0  0
 27 29  1  0  0  0  0
 29 30  1  0  0  0  0
 29 31  1  6  0  0  0
 31 32  1  0  0  0  0
M  CHG  5   4   1  11   1  13   1  16   1  26   1
M  END
>  <CHROM.1>
-166.52563737,-137.03885204,-177.16737876,-67.87678003,99.65274470,-145.29884543
-169.25904594,175.60137195,-179.71619700,94.91785164,-147.19922509,-77.69237669
-172.58462290,179.97104361,-168.03155165,-177.06964908,-12.36432089,7.72092696
18.01758111,-0.34835659,0.82994796,-2.27458883

>  <Name>
1lc4

>  <RI>
0

>  <Rbt.Current_Directory>
/home/afrankz/demos/rdock_decoys_rna/rnas/1lc4

>  <Rbt.Executable>
rbdock ($Id: //depot/dev/client3/rdock/2013.1/src/exe/rbdock.cxx#4 $)

>  <Rbt.Library>
libRbt.so (2013.1, Build901 2013/11/27)

>  <Rbt.Parameter_File>
/export/apps/rDock/src/rDock_2013.1_src/data/scripts/dock_solv.prm

>  <Rbt.Receptor>
prm/pocket_docking_2.prm

>  <SCORE>
-76.4788

>  <SCORE.INTER>
-62.1381

>  <SCORE.INTER.CONST>
1

>  <SCORE.INTER.POLAR>
-8.75491

>  <SCORE.INTER.ROT>
6

>  <SCORE.INTER.SOLV>
36.2229

>  <SCORE.INTER.VDW>
-31.9167

>  <SCORE.INTER.norm>
-1.94181

>  <SCORE.INTRA>
-14.9969

>  <SCORE.INTRA.DIHEDRAL>
-19.8884

>  <SCORE.INTRA.DIHEDRAL.0>
44.2576

>  <SCORE.INTRA.POLAR>
-0.295333

>  <SCORE.INTRA.POLAR.0>
-0.381556

>  <SCORE.INTRA.REPUL>
0

>  <SCORE.INTRA.REPUL.0>
0

>  <SCORE.INTRA.SOLV>
-0.0595879

>  <SCORE.INTRA.SOLV.lig_0>
-134.592

>  <SCORE.INTRA.VDW>
-4.01879

>  <SCORE.INTRA.VDW.0>
-1.01417

>  <SCORE.INTRA.norm>
-0.468654

>  <SCORE.RESTR>
0.656192

>  <SCORE.RESTR.CAVITY>
0.656192

>  <SCORE.RESTR.norm>
0.020506

>  <SCORE.SYSTEM>
0

>  <SCORE.SYSTEM.CONST>
0

>  <SCORE.SYSTEM.DIHEDRAL>
0

>  <SCORE.SYSTEM.SOLV>
0

>  <SCORE.SYSTEM.norm>
0

>  <SCORE.heavy>
32

>  <SCORE.norm>
-2.38996

>  <RMSD>
0.869

$$$$
1lc4
 OpenBabel02141814113D
libRbt.so/2013.1/901 2013/11/27
 32 34  0  0  0  0  0  0  0  0999 V2000
  -10.0572    5.5762   19.7170 C   0  0  2  0  0  0  0  0  0  0  0  0
  -11.0699    6.4369   20.1749 O   0  0  0  0  0  0  0  0  0  0  0  0
  -10.1350    4.2681   20.5304 C   0  0  2  0  0  0  0  0  0  0  0  0
  -11.4587    3.6548   20.3842 N   0  3  0  0  0  0  0  0  0  0  0  0
   -9.8021    4.5443   22.0154 C   0  0  0  0  0  0  0  0  0  0  0  0
   -8.3872    5.1467   22.0684 C   0  0  2  0  0  0  0  0  0  0  0  0
   -7.9956    5.3829   23.4249 O   0  0  0  0  0  0  0  0  0  0  0  0
   -8.3568    6.4544   21.2386 C   0  0  2  0  0  0  0  0  0  0  0  0
   -8.7586    6.1920   19.8639 O   0  0  0  0  0  0  0  0  0  0  0  0
   -6.9779    7.1072   21.1813 C   0  0  0  0  0  0  0  0  0  0  0  0
   -6.5992    7.6815   22.4991 N   0  3  0  0  0  0  0  0  0  0  0  0
  -13.4849    9.5219   18.5593 C   0  0  2  0  0  0  0  0  0  0  0  0
  -13.9352   10.7323   17.8479 N   0  3  0  0  0  0  0  0  0  0  0  0
  -12.5142    9.9046   19.6682 C   0  0  0  0  0  0  0  0  0  0  0  0
  -12.0356    8.6536   20.4134 C   0  0  2  0  0  0  0  0  0  0  0  0
  -11.1894    9.0828   21.5546 N   0  3  0  0  0  0  0  0  0  0  0  0
  -11.3406    7.6504   19.4450 C   0  0  2  0  0  0  0  0  0  0  0  0
  -12.3053    7.3033   18.2820 C   0  0  2  0  0  0  0  0  0  0  0  0
  -11.6234    6.5306   17.3239 O   0  0  0  0  0  0  0  0  0  0  0  0
  -12.7940    8.5787   17.5765 C   0  0  1  0  0  0  0  0  0  0  0  0
  -13.7017    8.2128   16.5377 O   0  0  0  0  0  0  0  0  0  0  0  0
  -13.3996    8.6359   15.2528 C   0  0  2  0  0  0  0  0  0  0  0  0
  -14.7081    8.9942   14.5278 C   0  0  2  0  0  0  0  0  0  0  0  0
  -15.3613   10.0280   15.2536 O   0  0  0  0  0  0  0  0  0  0  0  0
  -15.6104    7.7499   14.4549 C   0  0  1  0  0  0  0  0  0  0  0  0
  -16.9072    8.0425   13.7790 N   0  3  0  0  0  0  0  0  0  0  0  0
  -14.8563    6.6149   13.7199 C   0  0  2  0  0  0  0  0  0  0  0  0
  -15.6596    5.4385   13.6591 O   0  0  0  0  0  0  0  0  0  0  0  0
  -13.5186    6.3218   14.4244 C   0  0  2  0  0  0  0  0  0  0  0  0
  -12.7242    7.5563   14.5567 O   0  0  0  0  0  0  0  0  0  0  0  0
  -12.6740    5.3305   13.6552 C   0  0  0  0  0  0  0  0  0  0  0  0
  -11.4411    5.0628   14.3198 O   0  0  0  0  0  0  0  0  0  0  0  0
  1  2  1  1  0  0  0
  1  3  1  0  0  0  0
  1  9  1  0  0  0  0
  3  4  1  1  0  0  0
  3  5  1  0  0  0  0
  5  6  1  0  0  0  0
  6  7  1  1  0  0  0
  6  8  1  0  0  0  0
  8  9  1  0  0  0  0
  8 10  1  6  0  0  0
 10 11  1  0  0  0  0
 12 13  1  6  0  0  0
 12 14  1  0  0  0  0
 12 20  1  0  0  0  0
 14 15  1  0  0  0  0
 15 16  1  1  0  0  0
 15 17  1  0  0  0  0
 17  2  1  1  0  0  0
 17 18  1  0  0  0  0
 18 19  1  6  0  0  0
 18 20  1  0  0  0  0
 20 21  1  6  0  0  0
 22 21  1  1  0  0  0
 22 23  1  0  0  0  0
 22 30  1  0  0  0  0
 23 24  1  1  0  0  0
 23 25  1  0  0  0  0
 25 26  1  6  0  0  0
 25 27  1  0  0  0  0
 27 28  1  1  0  0  0
 27 29  1  0  0  0  0
 29 30  1  0  0  0  0
 29 31  1  6  0  0  0
 31 32  1  0  0  0  0
M  CHG  5   4   1  11   1  13   1  16   1  26   1
M  END
>  <CHROM.1>
-170.88756913,-157.41202281,-52.35685811,-53.89850521,-70.29666508,54.65446553
57.84139224,177.26567787,176.06107580,114.84501093,-143.52084193,143.87309226
-65.66352099,70.35124272,-179.74990669,-59.32360152,-11.92956260,7.14211716
18.05570322,-0.32941139,0.84106276,-2.50601544

>  <Name>
1lc4

>  <RI>
0

>  <Rbt.Current_Directory>
/home/afrankz/demos/rdock_decoys_rna/rnas/1lc4

>  <Rbt.Executable>
rbdock ($Id: //depot/dev/client3/rdock/2013.1/src/exe/rbdock.cxx#4 $)

>  <Rbt.Library>
libRbt.so (2013.1, Build901 2013/11/27)

>  <Rbt.Parameter_File>
/export/apps/rDock/src/rDock_2013.1_src/data/scripts/dock_solv.prm

>  <Rbt.Receptor>
prm/pocket_docking_3.prm

>  <SCORE>
-75.2764

>  <SCORE.INTER>
-54.4604

>  <SCORE.INTER.CONST>
1

>  <SCORE.INTER.POLAR>
-7.71739

>  <SCORE.INTER.ROT>
6

>  <SCORE.INTER.SOLV>
23.138

>  <SCORE.INTER.VDW>
-25.895

>  <SCORE.INTER.norm>
-1.70189

>  <SCORE.INTRA>
-20.816

>  <SCORE.INTRA.DIHEDRAL>
-23.4633

>  <SCORE.INTRA.DIHEDRAL.0>
44.2576

>  <SCORE.INTRA.POLAR>
-1.24161

>  <SCORE.INTRA.POLAR.0>
-0.381556

>  <SCORE.INTRA.REPUL>
0

>  <SCORE.INTRA.REPUL.0>
0

>  <SCORE.INTRA.SOLV>
-0.405286

>  <SCORE.INTRA.SOLV.lig_0>
-134.592

>  <SCORE.INTRA.VDW>
-4.66023

>  <SCORE.INTRA.VDW.0>
-1.01417

>  <SCORE.INTRA.norm>
-0.650499

>  <SCORE.RESTR>
0

>  <SCORE.RESTR.CAVITY>
0

>  <SCORE.RESTR.norm>
0

>  <SCORE.SYSTEM>
0

>  <SCORE.SYSTEM.CONST>
0

>  <SCORE.SYSTEM.DIHEDRAL>
0

>  <SCORE.SYSTEM.SOLV>
0

>  <SCORE.SYSTEM.norm>
0

>  <SCORE.heavy>
32

>  <SCORE.norm>
-2.35239

>  <RMSD>
0.876

$$$$
1lc4
 OpenBabel02141814113D
libRbt.so/2013.1/901 2013/11/27
 32 34  0  0  0  0  0  0  0  0999 V2000
  -10.7000    5.7925   19.4260 C   0  0  2  0  0  0  0  0  0  0  0  0
  -11.4620    6.7677   20.0926 O   0  0  0  0  0  0  0  0  0  0  0  0
  -10.8900    4.4499   20.1610 C   0  0  2  0  0  0  0  0  0  0  0  0
  -12.3092    4.0831   20.1940 N   0  3  0  0  0  0  0  0  0  0  0  0
  -10.2960    4.5351   21.5866 C   0  0  0  0  0  0  0  0  0  0  0  0
   -8.8039    4.8840   21.4464 C   0  0  2  0  0  0  0  0  0  0  0  0
   -8.1792    4.9312   22.7335 O   0  0  0  0  0  0  0  0  0  0  0  0
   -8.6626    6.2356   20.7028 C   0  0  2  0  0  0  0  0  0  0  0  0
   -9.3047    6.1660   19.3979 O   0  0  0  0  0  0  0  0  0  0  0  0
   -7.2129    6.6498   20.4628 C   0  0  0  0  0  0  0  0  0  0  0  0
   -6.5450    7.0326   21.7345 N   0  3  0  0  0  0  0  0  0  0  0  0
  -13.7217   10.1301   18.8485 C   0  0  2  0  0  0  0  0  0  0  0  0
  -14.1203   11.4137   18.2423 N   0  3  0  0  0  0  0  0  0  0  0  0
  -12.6389   10.3653   19.8928 C   0  0  0  0  0  0  0  0  0  0  0  0
  -12.2130    9.0370   20.5281 C   0  0  2  0  0  0  0  0  0  0  0  0
  -11.2474    9.3266   21.6172 N   0  3  0  0  0  0  0  0  0  0  0  0
  -11.6835    8.0409   19.4535 C   0  0  2  0  0  0  0  0  0  0  0  0
  -12.7615    7.8439   18.3567 C   0  0  2  0  0  0  0  0  0  0  0  0
  -12.2244    7.0776   17.3058 O   0  0  0  0  0  0  0  0  0  0  0  0
  -13.1922    9.1950   17.7630 C   0  0  1  0  0  0  0  0  0  0  0  0
  -14.2055    8.9671   16.7842 O   0  0  0  0  0  0  0  0  0  0  0  0
  -14.2222    9.8061   15.6810 C   0  0  2  0  0  0  0  0  0  0  0  0
  -15.6773    9.9840   15.2149 C   0  0  2  0  0  0  0  0  0  0  0  0
  -16.4306   10.5466   16.2818 O   0  0  0  0  0  0  0  0  0  0  0  0
  -16.2603    8.6152   14.8222 C   0  0  1  0  0  0  0  0  0  0  0  0
  -17.6807    8.7220   14.3806 N   0  3  0  0  0  0  0  0  0  0  0  0
  -15.3879    7.9900   13.7063 C   0  0  2  0  0  0  0  0  0  0  0  0
  -15.8900    6.7072   13.3388 O   0  0  0  0  0  0  0  0  0  0  0  0
  -13.9235    7.8858   14.1715 C   0  0  2  0  0  0  0  0  0  0  0  0
  -13.4321    9.1991   14.6258 O   0  0  0  0  0  0  0  0  0  0  0  0
  -13.0038    7.4270   13.0618 C   0  0  0  0  0  0  0  0  0  0  0  0
  -11.7410    7.0001   13.5681 O   0  0  0  0  0  0  0  0  0  0  0  0
  1  2  1  1  0  0  0
  1  3  1  0  0  0  0
  1  9  1  0  0  0  0
  3  4  1  1  0  0  0
  3  5  1  0  0  0  0
  5  6  1  0  0  0  0
  6  7  1  1  0  0  0
  6  8  1  0  0  0  0
  8  9  1  0  0  0  0
  8 10  1  6  0  0  0
 10 11  1  0  0  0  0
 12 13  1  6  0  0  0
 12 14  1  0  0  0  0
 12 20  1  0  0  0  0
 14 15  1  0  0  0  0
 15 16  1  1  0  0  0
 15 17  1  0  0  0  0
 17  2  1  1  0  0  0
 17 18  1  0  0  0  0
 18 19  1  6  0  0  0
 18 20  1  0  0  0  0
 20 21  1  6  0  0  0
 22 21  1  1  0  0  0
 22 23  1  0  0  0  0
 22 30  1  0  0  0  0
 23 24  1  1  0  0  0
 23 25  1  0  0  0  0
 25 26  1  6  0  0  0
 25 27  1  0  0  0  0
 27 28  1  1  0  0  0
 27 29  1  0  0  0  0
 29 30  1  0  0  0  0
 29 31  1  6  0  0  0
 31 32  1  0  0  0  0
M  CHG  5   4   1  11   1  13   1  16   1  26   1
M  END
>  <CHROM.1>
-167.15425610,-165.35369533,68.22398823,133.15597486,-70.21433289,49.22847788
-171.78274946,-65.77698628,-57.14107144,92.44576888,-147.95422090,175.15295172
-49.69013838,178.75782220,-164.73816430,-176.76940169,-12.37550520,7.70943127
17.98035061,-0.33862002,0.79554290,-2.26937476

>  <Name>
1lc4

>  <RI>
0

>  <Rbt.Current_Directory>
/home/afrankz/demos/rdock_decoys_rna/rnas/1lc4

>  <Rbt.Executable>
rbdock ($Id: //depot/dev/client3/rdock/2013.1/src/exe/rbdock.cxx#4 $)

>  <Rbt.Library>
libRbt.so (2013.1, Build901 2013/11/27)

>  <Rbt.Parameter_File>
/export/apps/rDock/src/rDock_2013.1_src/data/scripts/dock_solv.prm

>  <Rbt.Receptor>
prm/pocket_docking_4.prm

>  <SCORE>
-74.4556

>  <SCORE.INTER>
-53.9941

>  <SCORE.INTER.CONST>
1

>  <SCORE.INTER.POLAR>
-7.81329

>  <SCORE.INTER.ROT>
6

>  <SCORE.INTER.SOLV>
31.2359

>  <SCORE.INTER.VDW>
-27.9637

>  <SCORE.INTER.norm>
-1.68731

>  <SCORE.INTRA>
-20.4616

>  <SCORE.INTRA.DIHEDRAL>
-25.6309

>  <SCORE.INTRA.DIHEDRAL.0>
44.2576

>  <SCORE.INTRA.POLAR>
-1.00961

>  <SCORE.INTRA.POLAR.0>
-0.381556

>  <SCORE.INTRA.REPUL>
0

>  <SCORE.INTRA.REPUL.0>
0

>  <SCORE.INTRA.SOLV>
-1.52709

>  <SCORE.INTRA.SOLV.lig_0>
-134.592

>  <SCORE.INTRA.VDW>
-3.44988

>  <SCORE.INTRA.VDW.0>
-1.01417

>  <SCORE.INTRA.norm>
-0.639424

>  <SCORE.RESTR>
0

>  <SCORE.RESTR.CAVITY>
0

>  <SCORE.RESTR.norm>
0

>  <SCORE.SYSTEM>
0

>  <SCORE.SYSTEM.CONST>
0

>  <SCORE.SYSTEM.DIHEDRAL>
0

>  <SCORE.SYSTEM.SOLV>
0

>  <SCORE.SYSTEM.norm>
0

>  <SCORE.heavy>
32

>  <SCORE.norm>
-2.32674

>  <RMSD>
0.877

$$$$
1lc4
 OpenBabel02141814113D
libRbt.so/2013.1/901 2013/11/27
 32 34  0  0  0  0  0  0  0  0999 V2000
  -10.2487    5.8902   19.4401 C   0  0  2  0  0  0  0  0  0  0  0  0
  -11.3672    6.6279   19.8652 O   0  0  0  0  0  0  0  0  0  0  0  0
  -10.4711    4.4143   19.8290 C   0  0  2  0  0  0  0  0  0  0  0  0
  -11.7043    3.9067   19.2196 N   0  3  0  0  0  0  0  0  0  0  0  0
  -10.5012    4.2686   21.3686 C   0  0  0  0  0  0  0  0  0  0  0  0
   -9.1574    4.7879   21.9091 C   0  0  2  0  0  0  0  0  0  0  0  0
   -9.0993    4.6363   23.3314 O   0  0  0  0  0  0  0  0  0  0  0  0
   -8.9772    6.2692   21.4936 C   0  0  2  0  0  0  0  0  0  0  0  0
   -9.0402    6.4008   20.0449 O   0  0  0  0  0  0  0  0  0  0  0  0
   -7.6445    6.8680   21.9364 C   0  0  0  0  0  0  0  0  0  0  0  0
   -7.5083    6.8428   23.4164 N   0  3  0  0  0  0  0  0  0  0  0  0
  -13.6565   10.0372   18.8185 C   0  0  2  0  0  0  0  0  0  0  0  0
  -14.0665   11.3504   18.2882 N   0  3  0  0  0  0  0  0  0  0  0  0
  -12.5759   10.2204   19.8754 C   0  0  0  0  0  0  0  0  0  0  0  0
  -12.1383    8.8611   20.4322 C   0  0  2  0  0  0  0  0  0  0  0  0
  -11.1754    9.0950   21.5370 N   0  3  0  0  0  0  0  0  0  0  0  0
  -11.5999    7.9343   19.3015 C   0  0  2  0  0  0  0  0  0  0  0  0
  -12.6760    7.7922   18.1944 C   0  0  2  0  0  0  0  0  0  0  0  0
  -12.1321    7.0934   17.1008 O   0  0  0  0  0  0  0  0  0  0  0  0
  -13.1187    9.1718   17.6805 C   0  0  1  0  0  0  0  0  0  0  0  0
  -14.1299    8.9926   16.6895 O   0  0  0  0  0  0  0  0  0  0  0  0
  -14.1134    9.8534   15.6032 C   0  0  2  0  0  0  0  0  0  0  0  0
  -15.5605   10.1010   15.1442 C   0  0  2  0  0  0  0  0  0  0  0  0
  -16.2881   10.6729   16.2238 O   0  0  0  0  0  0  0  0  0  0  0  0
  -16.2005    8.7657   14.7257 C   0  0  1  0  0  0  0  0  0  0  0  0
  -17.6160    8.9402   14.2897 N   0  3  0  0  0  0  0  0  0  0  0  0
  -15.3567    8.1272   13.5955 C   0  0  2  0  0  0  0  0  0  0  0  0
  -15.9122    6.8739   13.2037 O   0  0  0  0  0  0  0  0  0  0  0  0
  -13.8972    7.9529   14.0551 C   0  0  2  0  0  0  0  0  0  0  0  0
  -13.3508    9.2353   14.5342 O   0  0  0  0  0  0  0  0  0  0  0  0
  -12.9990    7.4786   12.9343 C   0  0  0  0  0  0  0  0  0  0  0  0
  -11.7219    7.0713   13.4204 O   0  0  0  0  0  0  0  0  0  0  0  0
  1  2  1  1  0  0  0
  1  3  1  0  0  0  0
  1  9  1  0  0  0  0
  3  4  1  6  0  0  0
  3  5  1  0  0  0  0
  5  6  1  0  0  0  0
  6  7  1  1  0  0  0
  6  8  1  0  0  0  0
  8  9  1  0  0  0  0
  8 10  1  6  0  0  0
 10 11  1  0  0  0  0
 12 13  1  6  0  0  0
 12 14  1  0  0  0  0
 12 20  1  0  0  0  0
 14 15  1  0  0  0  0
 15 16  1  1  0  0  0
 15 17  1  0  0  0  0
 17  2  1  1  0  0  0
 17 18  1  0  0  0  0
 18 19  1  6  0  0  0
 18 20  1  0  0  0  0
 20 21  1  6  0  0  0
 22 21  1  1  0  0  0
 22 23  1  0  0  0  0
 22 30  1  0  0  0  0
 23 24  1  1  0  0  0
 23 25  1  0  0  0  0
 25 26  1  6  0  0  0
 25 27  1  0  0  0  0
 27 28  1  1  0  0  0
 27 29  1  0  0  0  0
 29 30  1  0  0  0  0
 29 31  1  6  0  0  0
 31 32  1  0  0  0  0
M  CHG  5   4   1  11   1  13   1  16   1  26   1
M  END
>  <CHROM.1>
-162.26544917,-142.10471411,177.74385977,-69.76848376,-60.80015781,-52.35675121
-50.72756745,55.69323842,178.45865865,95.56023000,-147.01553805,176.24784866
-173.88111691,179.49555023,-168.56042838,63.34029073,-12.38889698,7.69891362
18.04522894,-0.34642344,0.87437105,-2.31395054

>  <Name>
1lc4

>  <RI>
0

>  <Rbt.Current_Directory>
/home/afrankz/demos/rdock_decoys_rna/rnas/1lc4

>  <Rbt.Executable>
rbdock ($Id: //depot/dev/client3/rdock/2013.1/src/exe/rbdock.cxx#4 $)

>  <Rbt.Library>
libRbt.so (2013.1, Build901 2013/11/27)

>  <Rbt.Parameter_File>
/export/apps/rDock/src/rDock_2013.1_src/data/scripts/dock_solv.prm

>  <Rbt.Receptor>
prm/pocket_docking_3.prm

>  <SCORE>
-79.6808

>  <SCORE.INTER>
-58.9516

>  <SCORE.INTER.CONST>
1

>  <SCORE.INTER.POLAR>
-7.94872

>  <SCORE.INTER.ROT>
6

>  <SCORE.INTER.SOLV>
26.7606

>  <SCORE.INTER.VDW>
-29.3255

>  <SCORE.INTER.norm>
-1.84224

>  <SCORE.INTRA>
-20.7292

>  <SCORE.INTRA.DIHEDRAL>
-27.3228

>  <SCORE.INTRA.DIHEDRAL.0>
44.2576

>  <SCORE.INTRA.POLAR>
-0.977239

>  <SCORE.INTRA.POLAR.0>
-0.381556

>  <SCORE.INTRA.REPUL>
0

>  <SCORE.INTRA.REPUL.0>
0

>  <SCORE.INTRA.SOLV>
1.32252

>  <SCORE.INTRA.SOLV.lig_0>
-134.592

>  <SCORE.INTRA.VDW>
-4.40646

>  <SCORE.INTRA.VDW.0>
-1.01417

>  <SCORE.INTRA.norm>
-0.647788

>  <SCORE.RESTR>
0

>  <SCORE.RESTR.CAVITY>
0

>  <SCORE.RESTR.norm>
0

>  <SCORE.SYSTEM>
0

>  <SCORE.SYSTEM.CONST>
0

>  <SCORE.SYSTEM.DIHEDRAL>
0

>  <SCORE.SYSTEM.SOLV>
0

>  <SCORE.SYSTEM.norm>
0

>  <SCORE.heavy>
32

>  <SCORE.norm>
-2.49002

>  <RMSD>
0.880

$$$$
1lc4
 OpenBabel02141814113D
libRbt.so/2013.1/901 2013/11/27
 32 34  0  0  0  0  0  0  0  0999 V2000
  -10.2712    5.8811   19.4624 C   0  0  2  0  0  0  0  0  0  0  0  0
  -11.3745    6.6361   19.8967 O   0  0  0  0  0  0  0  0  0  0  0  0
  -10.5147    4.4084   19.8507 C   0  0  2  0  0  0  0  0  0  0  0  0
  -11.7604    3.9219   19.2495 N   0  3  0  0  0  0  0  0  0  0  0  0
  -10.5361    4.2606   21.3902 C   0  0  0  0  0  0  0  0  0  0  0  0
   -9.1801    4.7572   21.9218 C   0  0  2  0  0  0  0  0  0  0  0  0
   -9.1142    4.6024   23.3433 O   0  0  0  0  0  0  0  0  0  0  0  0
   -8.9789    6.2361   21.5072 C   0  0  2  0  0  0  0  0  0  0  0  0
   -9.0503    6.3711   20.0592 O   0  0  0  0  0  0  0  0  0  0  0  0
   -7.6335    6.8125   21.9412 C   0  0  0  0  0  0  0  0  0  0  0  0
   -7.5033    6.8192   23.4220 N   0  3  0  0  0  0  0  0  0  0  0  0
  -13.6572   10.0419   18.8243 C   0  0  2  0  0  0  0  0  0  0  0  0
  -14.0661   11.3491   18.2786 N   0  3  0  0  0  0  0  0  0  0  0  0
  -12.5631   10.2353   19.8655 C   0  0  0  0  0  0  0  0  0  0  0  0
  -12.1265    8.8822   20.4381 C   0  0  2  0  0  0  0  0  0  0  0  0
  -11.1492    9.1277   21.5277 N   0  3  0  0  0  0  0  0  0  0  0  0
  -11.6066    7.9350   19.3156 C   0  0  2  0  0  0  0  0  0  0  0  0
  -12.6966    7.7820   18.2236 C   0  0  2  0  0  0  0  0  0  0  0  0
  -12.1696    7.0633   17.1347 O   0  0  0  0  0  0  0  0  0  0  0  0
  -13.1377    9.1560   17.6936 C   0  0  1  0  0  0  0  0  0  0  0  0
  -14.1615    8.9673   16.7175 O   0  0  0  0  0  0  0  0  0  0  0  0
  -14.1693    9.8286   15.6314 C   0  0  2  0  0  0  0  0  0  0  0  0
  -15.6240   10.0463   15.1812 C   0  0  2  0  0  0  0  0  0  0  0  0
  -16.3567   10.6027   16.2654 O   0  0  0  0  0  0  0  0  0  0  0  0
  -16.2387    8.6982   14.7660 C   0  0  1  0  0  0  0  0  0  0  0  0
  -17.6601    8.8435   14.3386 N   0  3  0  0  0  0  0  0  0  0  0  0
  -15.3886    8.0776   13.6305 C   0  0  2  0  0  0  0  0  0  0  0  0
  -15.9205    6.8132   13.2416 O   0  0  0  0  0  0  0  0  0  0  0  0
  -13.9231    7.9334   14.0813 C   0  0  2  0  0  0  0  0  0  0  0  0
  -13.4006    9.2267   14.5577 O   0  0  0  0  0  0  0  0  0  0  0  0
  -13.0221    7.4781   12.9549 C   0  0  0  0  0  0  0  0  0  0  0  0
  -11.7212    7.1354   13.4279 O   0  0  0  0  0  0  0  0  0  0  0  0
  1  2  1  1  0  0  0
  1  3  1  0  0  0  0
  1  9  1  0  0  0  0
  3  4  1  1  0  0  0
  3  5  1  0  0  0  0
  5  6  1  0  0  0  0
  6  7  1  1  0  0  0
  6  8  1  0  0  0  0
  8  9  1  0  0  0  0
  8 10  1  6  0  0  0
 10 11  1  0  0  0  0
 12 13  1  6  0  0  0
 12 14  1  0  0  0  0
 12 20  1  0  0  0  0
 14 15  1  0  0  0  0
 15 16  1  1  0  0  0
 15 17  1  0  0  0  0
 17  2  1  1  0  0  0
 17 18  1  0  0  0  0
 18 19  1  6  0  0  0
 18 20  1  0  0  0  0
 20 21  1  6  0  0  0
 22 21  1  1  0  0  0
 22 23  1  0  0  0  0
 22 30  1  0  0  0  0
 23 24  1  1  0  0  0
 23 25  1  0  0  0  0
 25 26  1  6  0  0  0
 25 27  1  0  0  0  0
 27 28  1  1  0  0  0
 27 29  1  0  0  0  0
 29 30  1  0  0  0  0
 29 31  1  6  0  0  0
 31 32  1  0  0  0  0
M  CHG  5   4   1  11   1  13   1  16   1  26   1
M  END
>  <CHROM.1>
-160.92717810,-142.60247759,-163.02170007,-69.98692088,-62.45785066,-170.62844646
70.14025871,56.15734330,177.99784000,94.28422700,-147.81683688,-69.42584300
-178.90904782,168.91120647,-170.31603592,61.21893032,-12.40811519,7.67840055
18.06727359,-0.33627791,0.87359213,-2.32887494

>  <Name>
1lc4

>  <RI>
0

>  <Rbt.Current_Directory>
/home/afrankz/demos/rdock_decoys_rna/rnas/1lc4

>  <Rbt.Executable>
rbdock ($Id: //depot/dev/client3/rdock/2013.1/src/exe/rbdock.cxx#4 $)

>  <Rbt.Library>
libRbt.so (2013.1, Build901 2013/11/27)

>  <Rbt.Parameter_File>
/export/apps/rDock/src/rDock_2013.1_src/data/scripts/dock_solv.prm

>  <Rbt.Receptor>
prm/pocket_docking_3.prm

>  <SCORE>
-76.8893

>  <SCORE.INTER>
-58.4744

>  <SCORE.INTER.CONST>
1

>  <SCORE.INTER.POLAR>
-7.99215

>  <SCORE.INTER.ROT>
6

>  <SCORE.INTER.SOLV>
26.3142

>  <SCORE.INTER.VDW>
-28.7139

>  <SCORE.INTER.norm>
-1.82733

>  <SCORE.INTRA>
-18.4149

>  <SCORE.INTRA.DIHEDRAL>
-26.1047

>  <SCORE.INTRA.DIHEDRAL.0>
44.2576

>  <SCORE.INTRA.POLAR>
-0.352916

>  <SCORE.INTRA.POLAR.0>
-0.381556

>  <SCORE.INTRA.REPUL>
0

>  <SCORE.INTRA.REPUL.0>
0

>  <SCORE.INTRA.SOLV>
0.965599

>  <SCORE.INTRA.SOLV.lig_0>
-134.592

>  <SCORE.INTRA.VDW>
-4.64543

>  <SCORE.INTRA.VDW.0>
-1.01417

>  <SCORE.INTRA.norm>
-0.575466

>  <SCORE.RESTR>
0

>  <SCORE.RESTR.CAVITY>
0

>  <SCORE.RESTR.norm>
0

>  <SCORE.SYSTEM>
0

>  <SCORE.SYSTEM.CONST>
0

>  <SCORE.SYSTEM.DIHEDRAL>
0

>  <SCORE.SYSTEM.SOLV>
0

>  <SCORE.SYSTEM.norm>
0

>  <SCORE.heavy>
32

>  <SCORE.norm>
-2.40279

>  <RMSD>
0.886

$$$$
1lc4
 OpenBabel02141814113D
libRbt.so/2013.1/901 2013/11/27
 32 34  0  0  0  0  0  0  0  0999 V2000
  -10.4010    5.8181   19.4319 C   0  0  2  0  0  0  0  0  0  0  0  0
  -11.4827    6.6016   19.8702 O   0  0  0  0  0  0  0  0  0  0  0  0
  -10.6405    4.3669   19.8960 C   0  0  2  0  0  0  0  0  0  0  0  0
  -11.9102    3.8640   19.3627 N   0  3  0  0  0  0  0  0  0  0  0  0
  -10.6073    4.2899   21.4405 C   0  0  0  0  0  0  0  0  0  0  0  0
   -9.2297    4.7987   21.8999 C   0  0  2  0  0  0  0  0  0  0  0  0
   -9.1136    4.7084   23.3238 O   0  0  0  0  0  0  0  0  0  0  0  0
   -9.0334    6.2553   21.4108 C   0  0  2  0  0  0  0  0  0  0  0  0
   -9.1560    6.3245   19.9616 O   0  0  0  0  0  0  0  0  0  0  0  0
   -7.6693    6.8394   21.7695 C   0  0  0  0  0  0  0  0  0  0  0  0
   -6.7970    6.9451   20.5705 N   0  3  0  0  0  0  0  0  0  0  0  0
  -13.6788   10.0650   18.8015 C   0  0  2  0  0  0  0  0  0  0  0  0
  -14.0544   11.3831   18.2579 N   0  3  0  0  0  0  0  0  0  0  0  0
  -12.5818   10.2291   19.8447 C   0  0  0  0  0  0  0  0  0  0  0  0
  -12.1797    8.8645   20.4151 C   0  0  2  0  0  0  0  0  0  0  0  0
  -11.1983    9.0835   21.5066 N   0  3  0  0  0  0  0  0  0  0  0  0
  -11.6817    7.9070   19.2914 C   0  0  2  0  0  0  0  0  0  0  0  0
  -12.7735    7.7833   18.1976 C   0  0  2  0  0  0  0  0  0  0  0  0
  -12.2628    7.0540   17.1079 O   0  0  0  0  0  0  0  0  0  0  0  0
  -13.1797    9.1689   17.6698 C   0  0  1  0  0  0  0  0  0  0  0  0
  -14.2064    9.0076   16.6917 O   0  0  0  0  0  0  0  0  0  0  0  0
  -14.2065    9.8875   15.6208 C   0  0  2  0  0  0  0  0  0  0  0  0
  -15.6586   10.1193   15.1691 C   0  0  2  0  0  0  0  0  0  0  0  0
  -16.3929   10.6601   16.2602 O   0  0  0  0  0  0  0  0  0  0  0  0
  -16.2775    8.7813   14.7284 C   0  0  1  0  0  0  0  0  0  0  0  0
  -17.6967    8.9402   14.2985 N   0  3  0  0  0  0  0  0  0  0  0  0
  -15.4259    8.1767   13.5855 C   0  0  2  0  0  0  0  0  0  0  0  0
  -15.9618    6.9217   13.1727 O   0  0  0  0  0  0  0  0  0  0  0  0
  -13.9627    8.0184   14.0389 C   0  0  2  0  0  0  0  0  0  0  0  0
  -13.4364    9.3010   14.5395 O   0  0  0  0  0  0  0  0  0  0  0  0
  -13.0595    7.5787   12.9081 C   0  0  0  0  0  0  0  0  0  0  0  0
  -11.7915    7.1380   13.3889 O   0  0  0  0  0  0  0  0  0  0  0  0
  1  2  1  1  0  0  0
  1  3  1  0  0  0  0
  1  9  1  0  0  0  0
  3  4  1  1  0  0  0
  3  5  1  0  0  0  0
  5  6  1  0  0  0  0
  6  7  1  1  0  0  0
  6  8  1  0  0  0  0
  8  9  1  0  0  0  0
  8 10  1  6  0  0  0
 10 11  1  0  0  0  0
 12 13  1  6  0  0  0
 12 14  1  0  0  0  0
 12 20  1  0  0  0  0
 14 15  1  0  0  0  0
 15 16  1  1  0  0  0
 15 17  1  0  0  0  0
 17  2  1  1  0  0  0
 17 18  1  0  0  0  0
 18 19  1  6  0  0  0
 18 20  1  0  0  0  0
 20 21  1  6  0  0  0
 22 21  1  1  0  0  0
 22 23  1  0  0  0  0
 22 30  1  0  0  0  0
 23 24  1  1  0  0  0
 23 25  1  0  0  0  0
 25 26  1  6  0  0  0
 25 27  1  0  0  0  0
 27 28  1  1  0  0  0
 27 29  1  0  0  0  0
 29 30  1  0  0  0  0
 29 31  1  6  0  0  0
 31 32  1  0  0  0  0
M  CHG  5   4   1  11   1  13   1  16   1  26   1
M  END
>  <CHROM.1>
-164.41238530,-142.86058295,-52.44698485,-178.57093683,107.10555695,-29.36786204
-172.34574459,-64.68836206,-54.21956064,93.06996286,-148.25290237,-76.63358107
-172.69740007,-53.08246654,-166.43817118,58.61977114,-12.43036353,7.70861321
17.93844997,-0.33357313,0.84451680,-2.28245283

>  <Name>
1lc4

>  <RI>
0

>  <Rbt.Current_Directory>
/home/afrankz/demos/rdock_decoys_rna/rnas/1lc4

>  <Rbt.Executable>
rbdock ($Id: //depot/dev/client3/rdock/2013.1/src/exe/rbdock.cxx#4 $)

>  <Rbt.Library>
libRbt.so (2013.1, Build901 2013/11/27)

>  <Rbt.Parameter_File>
/export/apps/rDock/src/rDock_2013.1_src/data/scripts/dock_solv.prm

>  <Rbt.Receptor>
prm/pocket_docking_3.prm

>  <SCORE>
-73.7636

>  <SCORE.INTER>
-58.4977

>  <SCORE.INTER.CONST>
1

>  <SCORE.INTER.POLAR>
-8.30383

>  <SCORE.INTER.ROT>
6

>  <SCORE.INTER.SOLV>
37.878

>  <SCORE.INTER.VDW>
-31.545

>  <SCORE.INTER.norm>
-1.82805

>  <SCORE.INTRA>
-15.2659

>  <SCORE.INTRA.DIHEDRAL>
-20.6577

>  <SCORE.INTRA.DIHEDRAL.0>
44.2576

>  <SCORE.INTRA.POLAR>
-0.266536

>  <SCORE.INTRA.POLAR.0>
-0.381556

>  <SCORE.INTRA.REPUL>
0

>  <SCORE.INTRA.REPUL.0>
0

>  <SCORE.INTRA.SOLV>
-0.469617

>  <SCORE.INTRA.SOLV.lig_0>
-134.592

>  <SCORE.INTRA.VDW>
-3.79603

>  <SCORE.INTRA.VDW.0>
-1.01417

>  <SCORE.INTRA.norm>
-0.477059

>  <SCORE.RESTR>
0

>  <SCORE.RESTR.CAVITY>
0

>  <SCORE.RESTR.norm>
0

>  <SCORE.SYSTEM>
0

>  <SCORE.SYSTEM.CONST>
0

>  <SCORE.SYSTEM.DIHEDRAL>
0

>  <SCORE.SYSTEM.SOLV>
0

>  <SCORE.SYSTEM.norm>
0

>  <SCORE.heavy>
32

>  <SCORE.norm>
-2.30511

>  <RMSD>
0.888

$$$$
1lc4
 OpenBabel02141814113D
libRbt.so/2013.1/901 2013/11/27
 32 34  0  0  0  0  0  0  0  0999 V2000
   -9.6685    6.1282   19.7999 C   0  0  2  0  0  0  0  0  0  0  0  0
  -10.9131    6.7144   20.0889 O   0  0  0  0  0  0  0  0  0  0  0  0
   -9.6106    4.7551   20.5001 C   0  0  2  0  0  0  0  0  0  0  0  0
  -10.7156    3.9047   20.0469 N   0  3  0  0  0  0  0  0  0  0  0  0
   -9.6338    4.9396   22.0357 C   0  0  0  0  0  0  0  0  0  0  0  0
   -8.4214    5.8075   22.4160 C   0  0  2  0  0  0  0  0  0  0  0  0
   -8.3552    5.9779   23.8358 O   0  0  0  0  0  0  0  0  0  0  0  0
   -8.5215    7.1721   21.6899 C   0  0  2  0  0  0  0  0  0  0  0  0
   -8.5883    6.9760   20.2487 O   0  0  0  0  0  0  0  0  0  0  0  0
   -7.3339    8.0931   21.9582 C   0  0  0  0  0  0  0  0  0  0  0  0
   -6.1174    7.6248   21.2437 N   0  3  0  0  0  0  0  0  0  0  0  0
  -13.5935    9.5380   18.4148 C   0  0  2  0  0  0  0  0  0  0  0  0
  -14.1482   10.7224   17.7342 N   0  3  0  0  0  0  0  0  0  0  0  0
  -12.8028    9.9697   19.6423 C   0  0  0  0  0  0  0  0  0  0  0  0
  -12.2174    8.7467   20.3570 C   0  0  2  0  0  0  0  0  0  0  0  0
  -11.5594    9.2041   21.6062 N   0  3  0  0  0  0  0  0  0  0  0  0
  -11.2899    7.9288   19.4093 C   0  0  2  0  0  0  0  0  0  0  0  0
  -12.0747    7.5372   18.1309 C   0  0  2  0  0  0  0  0  0  0  0  0
  -11.1954    6.9441   17.2060 O   0  0  0  0  0  0  0  0  0  0  0  0
  -12.6775    8.7799   17.4559 C   0  0  1  0  0  0  0  0  0  0  0  0
  -13.4154    8.3684   16.3057 O   0  0  0  0  0  0  0  0  0  0  0  0
  -13.1684    9.0411   15.1192 C   0  0  2  0  0  0  0  0  0  0  0  0
  -14.5111    9.3494   14.4349 C   0  0  2  0  0  0  0  0  0  0  0  0
  -15.2938   10.1513   15.3103 O   0  0  0  0  0  0  0  0  0  0  0  0
  -15.2446    8.0316   14.1295 C   0  0  1  0  0  0  0  0  0  0  0  0
  -16.5673    8.2687   13.4826 N   0  3  0  0  0  0  0  0  0  0  0  0
  -14.3488    7.1453   13.2301 C   0  0  2  0  0  0  0  0  0  0  0  0
  -14.9929    5.9044   12.9507 O   0  0  0  0  0  0  0  0  0  0  0  0
  -12.9856    6.9080   13.9062 C   0  0  2  0  0  0  0  0  0  0  0  0
  -12.3578    8.1922   14.2657 O   0  0  0  0  0  0  0  0  0  0  0  0
  -12.0185    6.1793   12.9997 C   0  0  0  0  0  0  0  0  0  0  0  0
  -10.6690    6.3429   13.4304 O   0  0  0  0  0  0  0  0  0  0  0  0
  1  2  1  1  0  0  0
  1  3  1  0  0  0  0
  1  9  1  0  0  0  0
  3  4  1  6  0  0  0
  3  5  1  0  0  0  0
  5  6  1  0  0  0  0
  6  7  1  1  0  0  0
  6  8  1  0  0  0  0
  8  9  1  0  0  0  0
  8 10  1  6  0  0  0
 10 11  1  0  0  0  0
 12 13  1  6  0  0  0
 12 14  1  0  0  0  0
 12 20  1  0  0  0  0
 14 15  1  0  0  0  0
 15 16  1  1  0  0  0
 15 17  1  0  0  0  0
 17  2  1  1  0  0  0
 17 18  1  0  0  0  0
 18 19  1  6  0  0  0
 18 20  1  0  0  0  0
 20 21  1  6  0  0  0
 22 21  1  1  0  0  0
 22 23  1  0  0  0  0
 22 30  1  0  0  0  0
 23 24  1  1  0  0  0
 23 25  1  0  0  0  0
 25 26  1  6  0  0  0
 25 27  1  0  0  0  0
 27 28  1  1  0  0  0
 27 29  1  0  0  0  0
 29 30  1  0  0  0  0
 29 31  1  6  0  0  0
 31 32  1  0  0  0  0
M  CHG  5   4   1  11   1  13   1  16   1  26   1
M  END
>  <CHROM.1>
-171.94942609,-150.06907753,-146.42597955,179.22335554,73.02621653,74.14011774
-53.86199334,-62.66411148,69.86896529,107.25382111,-135.90745191,142.50265515
170.66055692,167.42879656,160.91413426,175.98060930,-11.71663023,7.53676467
17.89990309,-0.64548677,0.75448756,-2.12301092

>  <Name>
1lc4

>  <RI>
0

>  <Rbt.Current_Directory>
/home/afrankz/demos/rdock_decoys_rna/rnas/1lc4

>  <Rbt.Executable>
rbdock ($Id: //depot/dev/client3/rdock/2013.1/src/exe/rbdock.cxx#4 $)

>  <Rbt.Library>
libRbt.so (2013.1, Build901 2013/11/27)

>  <Rbt.Parameter_File>
/export/apps/rDock/src/rDock_2013.1_src/data/scripts/dock_solv.prm

>  <Rbt.Receptor>
prm/blind_docking_80.prm

>  <SCORE>
-59.7073

>  <SCORE.INTER>
-49.7926

>  <SCORE.INTER.CONST>
1

>  <SCORE.INTER.POLAR>
-8.35962

>  <SCORE.INTER.ROT>
6

>  <SCORE.INTER.SOLV>
35.59

>  <SCORE.INTER.VDW>
-24.793

>  <SCORE.INTER.norm>
-1.55602

>  <SCORE.INTRA>
-13.7296

>  <SCORE.INTRA.DIHEDRAL>
-16.8268

>  <SCORE.INTRA.DIHEDRAL.0>
44.2576

>  <SCORE.INTRA.POLAR>
-0.885173

>  <SCORE.INTRA.POLAR.0>
-0.381556

>  <SCORE.INTRA.REPUL>
0.308901

>  <SCORE.INTRA.REPUL.0>
0

>  <SCORE.INTRA.SOLV>
0.421431

>  <SCORE.INTRA.SOLV.lig_0>
-134.592

>  <SCORE.INTRA.VDW>
-4.06183

>  <SCORE.INTRA.VDW.0>
-1.01417

>  <SCORE.INTRA.norm>
-0.42905

>  <SCORE.RESTR>
3.8149

>  <SCORE.RESTR.CAVITY>
3.8149

>  <SCORE.RESTR.norm>
0.119216

>  <SCORE.SYSTEM>
0

>  <SCORE.SYSTEM.CONST>
0

>  <SCORE.SYSTEM.DIHEDRAL>
0

>  <SCORE.SYSTEM.SOLV>
0

>  <SCORE.SYSTEM.norm>
0

>  <SCORE.heavy>
32

>  <SCORE.norm>
-1.86585

>  <RMSD>
0.894

$$$$
1lc4
 OpenBabel02141814113D
libRbt.so/2013.1/901 2013/11/27
 32 34  0  0  0  0  0  0  0  0999 V2000
  -10.1940    5.8644   19.4730 C   0  0  2  0  0  0  0  0  0  0  0  0
  -11.3114    6.6108   19.8859 O   0  0  0  0  0  0  0  0  0  0  0  0
  -10.4185    4.3956   19.8867 C   0  0  2  0  0  0  0  0  0  0  0  0
  -11.6526    3.8797   19.2862 N   0  3  0  0  0  0  0  0  0  0  0  0
  -10.4485    4.2758   21.4286 C   0  0  0  0  0  0  0  0  0  0  0  0
   -9.1037    4.8022   21.9600 C   0  0  2  0  0  0  0  0  0  0  0  0
   -9.0455    4.6744   23.3846 O   0  0  0  0  0  0  0  0  0  0  0  0
   -8.9215    6.2761   21.5196 C   0  0  2  0  0  0  0  0  0  0  0  0
   -8.9846    6.3834   20.0689 O   0  0  0  0  0  0  0  0  0  0  0  0
   -7.5878    6.8802   21.9519 C   0  0  0  0  0  0  0  0  0  0  0  0
   -7.5005    6.9884   23.4319 N   0  3  0  0  0  0  0  0  0  0  0  0
  -13.7997    9.7312   18.4607 C   0  0  2  0  0  0  0  0  0  0  0  0
  -14.2810   10.9640   17.8108 N   0  3  0  0  0  0  0  0  0  0  0  0
  -12.8029   10.0800   19.5576 C   0  0  0  0  0  0  0  0  0  0  0  0
  -12.2920    8.8056   20.2390 C   0  0  2  0  0  0  0  0  0  0  0  0
  -11.4192    9.1982   21.3733 N   0  3  0  0  0  0  0  0  0  0  0  0
  -11.6138    7.8494   19.2128 C   0  0  2  0  0  0  0  0  0  0  0  0
  -12.6063    7.5384   18.0631 C   0  0  2  0  0  0  0  0  0  0  0  0
  -11.9432    6.8119   17.0568 O   0  0  0  0  0  0  0  0  0  0  0  0
  -13.1266    8.8355   17.4226 C   0  0  1  0  0  0  0  0  0  0  0  0
  -14.0585    8.5014   16.3948 O   0  0  0  0  0  0  0  0  0  0  0  0
  -13.7903    8.9699   15.1181 C   0  0  2  0  0  0  0  0  0  0  0  0
  -15.0965    8.9721   14.3057 C   0  0  2  0  0  0  0  0  0  0  0  0
  -16.0369    9.8146   14.9597 O   0  0  0  0  0  0  0  0  0  0  0  0
  -15.6463    7.5377   14.2163 C   0  0  1  0  0  0  0  0  0  0  0  0
  -16.9277    7.4800   13.4555 N   0  3  0  0  0  0  0  0  0  0  0  0
  -14.5821    6.6230   13.5621 C   0  0  2  0  0  0  0  0  0  0  0  0
  -15.0543    5.2797   13.4887 O   0  0  0  0  0  0  0  0  0  0  0  0
  -13.2630    6.6911   14.3539 C   0  0  2  0  0  0  0  0  0  0  0  0
  -12.8187    8.0893   14.4964 O   0  0  0  0  0  0  0  0  0  0  0  0
  -12.1457    5.9379   13.6667 C   0  0  0  0  0  0  0  0  0  0  0  0
  -10.8853    6.1871   14.2853 O   0  0  0  0  0  0  0  0  0  0  0  0
  1  2  1  1  0  0  0
  1  3  1  0  0  0  0
  1  9  1  0  0  0  0
  3  4  1  6  0  0  0
  3  5  1  0  0  0  0
  5  6  1  0  0  0  0
  6  7  1  1  0  0  0
  6  8  1  0  0  0  0
  8  9  1  0  0  0  0
  8 10  1  6  0  0  0
 10 11  1  0  0  0  0
 12 13  1  6  0  0  0
 12 14  1  0  0  0  0
 12 20  1  0  0  0  0
 14 15  1  0  0  0  0
 15 16  1  1  0  0  0
 15 17  1  0  0  0  0
 17  2  1  1  0  0  0
 17 18  1  0  0  0  0
 18 19  1  6  0  0  0
 18 20  1  0  0  0  0
 20 21  1  6  0  0  0
 22 21  1  1  0  0  0
 22 23  1  0  0  0  0
 22 30  1  0  0  0  0
 23 24  1  1  0  0  0
 23 25  1  0  0  0  0
 25 26  1  6  0  0  0
 25 27  1  0  0  0  0
 27 28  1  1  0  0  0
 27 29  1  0  0  0  0
 29 30  1  0  0  0  0
 29 31  1  6  0  0  0
 31 32  1  0  0  0  0
M  CHG  5   4   1  11   1  13   1  16   1  26   1
M  END
>  <CHROM.1>
-156.47524838,-149.29404073,-59.53200224,-66.19025495,-65.73801020,-161.82331636
-54.48201479,170.78468656,152.44018895,115.32954915,-159.24422583,87.97216442
38.46210302,-53.59922015,170.39039885,51.18467608,-12.17839262,7.21294474
17.93335814,-0.40696894,0.88015342,-2.38918471

>  <Name>
1lc4

>  <RI>
0

>  <Rbt.Current_Directory>
/home/afrankz/demos/rdock_decoys_rna/rnas/1lc4

>  <Rbt.Executable>
rbdock ($Id: //depot/dev/client3/rdock/2013.1/src/exe/rbdock.cxx#4 $)

>  <Rbt.Library>
libRbt.so (2013.1, Build901 2013/11/27)

>  <Rbt.Parameter_File>
/export/apps/rDock/src/rDock_2013.1_src/data/scripts/dock_solv.prm

>  <Rbt.Receptor>
prm/pocket_docking_7.prm

>  <SCORE>
-77.3187

>  <SCORE.INTER>
-61.5897

>  <SCORE.INTER.CONST>
1

>  <SCORE.INTER.POLAR>
-9.31175

>  <SCORE.INTER.ROT>
6

>  <SCORE.INTER.SOLV>
21.7664

>  <SCORE.INTER.VDW>
-24.8761

>  <SCORE.INTER.norm>
-1.92468

>  <SCORE.INTRA>
-15.729

>  <SCORE.INTRA.DIHEDRAL>
-19.4044

>  <SCORE.INTRA.DIHEDRAL.0>
44.2576

>  <SCORE.INTRA.POLAR>
-0.483291

>  <SCORE.INTRA.POLAR.0>
-0.381556

>  <SCORE.INTRA.REPUL>
0

>  <SCORE.INTRA.REPUL.0>
0

>  <SCORE.INTRA.SOLV>
-0.129228

>  <SCORE.INTRA.SOLV.lig_0>
-134.592

>  <SCORE.INTRA.VDW>
-4.31896

>  <SCORE.INTRA.VDW.0>
-1.01417

>  <SCORE.INTRA.norm>
-0.49153

>  <SCORE.RESTR>
0

>  <SCORE.RESTR.CAVITY>
0

>  <SCORE.RESTR.norm>
0

>  <SCORE.SYSTEM>
0

>  <SCORE.SYSTEM.CONST>
0

>  <SCORE.SYSTEM.DIHEDRAL>
0

>  <SCORE.SYSTEM.SOLV>
0

>  <SCORE.SYSTEM.norm>
0

>  <SCORE.heavy>
32

>  <SCORE.norm>
-2.41621

>  <RMSD>
0.898

$$$$
1lc4
 OpenBabel02141814113D
libRbt.so/2013.1/901 2013/11/27
 32 34  0  0  0  0  0  0  0  0999 V2000
  -10.5597    5.5118   19.7032 C   0  0  2  0  0  0  0  0  0  0  0  0
  -11.4282    6.4990   20.2002 O   0  0  0  0  0  0  0  0  0  0  0  0
  -10.6480    4.2833   20.6316 C   0  0  2  0  0  0  0  0  0  0  0  0
  -12.0277    3.7918   20.6971 N   0  3  0  0  0  0  0  0  0  0  0  0
  -10.1084    4.6387   22.0370 C   0  0  0  0  0  0  0  0  0  0  0  0
   -8.6511    5.1034   21.8694 C   0  0  2  0  0  0  0  0  0  0  0  0
   -8.0731    5.4034   23.1443 O   0  0  0  0  0  0  0  0  0  0  0  0
   -8.6118    6.3347   20.9304 C   0  0  2  0  0  0  0  0  0  0  0  0
   -9.2044    6.0083   19.6411 O   0  0  0  0  0  0  0  0  0  0  0  0
   -7.1997    6.8446   20.6537 C   0  0  0  0  0  0  0  0  0  0  0  0
   -6.4291    7.0061   21.9145 N   0  3  0  0  0  0  0  0  0  0  0  0
  -13.7620    9.5297   18.3759 C   0  0  2  0  0  0  0  0  0  0  0  0
  -14.1779   10.7136   17.6017 N   0  3  0  0  0  0  0  0  0  0  0  0
  -12.8320    9.9507   19.5056 C   0  0  0  0  0  0  0  0  0  0  0  0
  -12.3895    8.7275   20.3161 C   0  0  2  0  0  0  0  0  0  0  0  0
  -11.5848    9.1968   21.4715 N   0  3  0  0  0  0  0  0  0  0  0  0
  -11.6639    7.6845   19.4143 C   0  0  2  0  0  0  0  0  0  0  0  0
  -12.5857    7.2969   18.2295 C   0  0  2  0  0  0  0  0  0  0  0  0
  -11.8723    6.4847   17.3286 O   0  0  0  0  0  0  0  0  0  0  0  0
  -13.0398    8.5462   17.4572 C   0  0  1  0  0  0  0  0  0  0  0  0
  -13.9093    8.1443   16.3994 O   0  0  0  0  0  0  0  0  0  0  0  0
  -13.6940    8.7087   15.1518 C   0  0  2  0  0  0  0  0  0  0  0  0
  -15.0435    8.8336   14.4241 C   0  0  2  0  0  0  0  0  0  0  0  0
  -15.9049    9.6550   15.2021 O   0  0  0  0  0  0  0  0  0  0  0  0
  -15.6628    7.4358   14.2502 C   0  0  1  0  0  0  0  0  0  0  0  0
  -16.9873    7.4957   13.5674 N   0  3  0  0  0  0  0  0  0  0  0  0
  -14.6813    6.5374   13.4585 C   0  0  2  0  0  0  0  0  0  0  0  0
  -15.2183    5.2258   13.3034 O   0  0  0  0  0  0  0  0  0  0  0  0
  -13.3170    6.4837   14.1707 C   0  0  2  0  0  0  0  0  0  0  0  0
  -12.8014    7.8452   14.4008 O   0  0  0  0  0  0  0  0  0  0  0  0
  -12.2770    5.7467   13.3563 C   0  0  0  0  0  0  0  0  0  0  0  0
  -12.7465    4.4668   12.9383 O   0  0  0  0  0  0  0  0  0  0  0  0
  1  2  1  1  0  0  0
  1  3  1  0  0  0  0
  1  9  1  0  0  0  0
  3  4  1  1  0  0  0
  3  5  1  0  0  0  0
  5  6  1  0  0  0  0
  6  7  1  1  0  0  0
  6  8  1  0  0  0  0
  8  9  1  0  0  0  0
  8 10  1  6  0  0  0
 10 11  1  0  0  0  0
 12 13  1  6  0  0  0
 12 14  1  0  0  0  0
 12 20  1  0  0  0  0
 14 15  1  0  0  0  0
 15 16  1  1  0  0  0
 15 17  1  0  0  0  0
 17  2  1  1  0  0  0
 17 18  1  0  0  0  0
 18 19  1  6  0  0  0
 18 20  1  0  0  0  0
 20 21  1  6  0  0  0
 22 21  1  1  0  0  0
 22 23  1  0  0  0  0
 22 30  1  0  0  0  0
 23 24  1  1  0  0  0
 23 25  1  0  0  0  0
 25 26  1  6  0  0  0
 25 27  1  0  0  0  0
 27 28  1  1  0  0  0
 27 29  1  0  0  0  0
 29 30  1  0  0  0  0
 29 31  1  6  0  0  0
 31 32  1  0  0  0  0
M  CHG  5   4   1  11   1  13   1  16   1  26   1
M  END
>  <CHROM.1>
-171.96397283,-167.61971551,-174.56317819,-47.54975594,-49.15358761,161.57092366
178.90554129,173.97919969,79.28242975,103.65399067,-148.12858333,-75.63051394
37.53340266,-60.13205037,-51.57634347,-176.55096092,-12.16978422,7.05377813
17.86423183,-0.45334524,0.82271287,-2.37026697

>  <Name>
1lc4

>  <RI>
0

>  <Rbt.Current_Directory>
/home/afrankz/demos/rdock_decoys_rna/rnas/1lc4

>  <Rbt.Executable>
rbdock ($Id: //depot/dev/client3/rdock/2013.1/src/exe/rbdock.cxx#4 $)

>  <Rbt.Library>
libRbt.so (2013.1, Build901 2013/11/27)

>  <Rbt.Parameter_File>
/export/apps/rDock/src/rDock_2013.1_src/data/scripts/dock_solv.prm

>  <Rbt.Receptor>
prm/pocket_docking_6.prm

>  <SCORE>
-69.5006

>  <SCORE.INTER>
-51.1612

>  <SCORE.INTER.CONST>
1

>  <SCORE.INTER.POLAR>
-7.646

>  <SCORE.INTER.ROT>
6

>  <SCORE.INTER.SOLV>
24.4273

>  <SCORE.INTER.VDW>
-24.3632

>  <SCORE.INTER.norm>
-1.59879

>  <SCORE.INTRA>
-18.6625

>  <SCORE.INTRA.DIHEDRAL>
-26.8661

>  <SCORE.INTRA.DIHEDRAL.0>
44.2576

>  <SCORE.INTRA.POLAR>
-0.881404

>  <SCORE.INTRA.POLAR.0>
-0.381556

>  <SCORE.INTRA.REPUL>
0

>  <SCORE.INTRA.REPUL.0>
0

>  <SCORE.INTRA.SOLV>
-0.163528

>  <SCORE.INTRA.SOLV.lig_0>
-134.592

>  <SCORE.INTRA.VDW>
-2.15087

>  <SCORE.INTRA.VDW.0>
-1.01417

>  <SCORE.INTRA.norm>
-0.583202

>  <SCORE.RESTR>
0.32301

>  <SCORE.RESTR.CAVITY>
0.32301

>  <SCORE.RESTR.norm>
0.0100941

>  <SCORE.SYSTEM>
0

>  <SCORE.SYSTEM.CONST>
0

>  <SCORE.SYSTEM.DIHEDRAL>
0

>  <SCORE.SYSTEM.SOLV>
0

>  <SCORE.SYSTEM.norm>
0

>  <SCORE.heavy>
32

>  <SCORE.norm>
-2.17189

>  <RMSD>
0.901

$$$$
1lc4
 OpenBabel02141814113D
libRbt.so/2013.1/901 2013/11/27
 32 34  0  0  0  0  0  0  0  0999 V2000
   -9.7499    6.1029   19.6232 C   0  0  2  0  0  0  0  0  0  0  0  0
  -10.9622    6.7270   19.9649 O   0  0  0  0  0  0  0  0  0  0  0  0
   -9.7563    4.6815   20.2220 C   0  0  2  0  0  0  0  0  0  0  0  0
  -10.9046    3.9214   19.7186 N   0  3  0  0  0  0  0  0  0  0  0  0
   -9.7620    4.7551   21.7670 C   0  0  0  0  0  0  0  0  0  0  0  0
   -8.5060    5.5325   22.1981 C   0  0  2  0  0  0  0  0  0  0  0  0
   -8.4238    5.5961   23.6258 O   0  0  0  0  0  0  0  0  0  0  0  0
   -8.5422    6.9495   21.5732 C   0  0  2  0  0  0  0  0  0  0  0  0
   -8.6264    6.8618   20.1222 O   0  0  0  0  0  0  0  0  0  0  0  0
   -7.3089    7.7892   21.8965 C   0  0  0  0  0  0  0  0  0  0  0  0
   -7.5300    9.2208   21.5631 N   0  3  0  0  0  0  0  0  0  0  0  0
  -13.3816   10.0320   18.8770 C   0  0  2  0  0  0  0  0  0  0  0  0
  -13.8315   11.3490   18.3904 N   0  3  0  0  0  0  0  0  0  0  0  0
  -12.4515   10.2110   20.0692 C   0  0  0  0  0  0  0  0  0  0  0  0
  -11.9736    8.8482   20.5823 C   0  0  2  0  0  0  0  0  0  0  0  0
  -11.1696    9.0654   21.8108 N   0  3  0  0  0  0  0  0  0  0  0  0
  -11.2322    8.0526   19.4666 C   0  0  2  0  0  0  0  0  0  0  0  0
  -12.1553    7.9187   18.2281 C   0  0  2  0  0  0  0  0  0  0  0  0
  -11.4315    7.3475   17.1652 O   0  0  0  0  0  0  0  0  0  0  0  0
  -12.6450    9.2981   17.7582 C   0  0  1  0  0  0  0  0  0  0  0  0
  -13.5144    9.1230   16.6401 O   0  0  0  0  0  0  0  0  0  0  0  0
  -13.2983    9.9318   15.5353 C   0  0  2  0  0  0  0  0  0  0  0  0
  -14.6313   10.5831   15.1288 C   0  0  2  0  0  0  0  0  0  0  0  0
  -15.1142   11.3513   16.2237 O   0  0  0  0  0  0  0  0  0  0  0  0
  -15.6474    9.4862   14.7654 C   0  0  1  0  0  0  0  0  0  0  0  0
  -16.9701   10.0586   14.3822 N   0  3  0  0  0  0  0  0  0  0  0  0
  -15.0747    8.6201   13.6170 C   0  0  2  0  0  0  0  0  0  0  0  0
  -15.9851    7.5775   13.2751 O   0  0  0  0  0  0  0  0  0  0  0  0
  -13.7087    8.0354   14.0219 C   0  0  2  0  0  0  0  0  0  0  0  0
  -12.7948    9.1094   14.4508 O   0  0  0  0  0  0  0  0  0  0  0  0
  -13.0363    7.3109   12.8770 C   0  0  0  0  0  0  0  0  0  0  0  0
  -11.6888    6.9664   13.1917 O   0  0  0  0  0  0  0  0  0  0  0  0
  1  2  1  1  0  0  0
  1  3  1  0  0  0  0
  1  9  1  0  0  0  0
  3  4  1  6  0  0  0
  3  5  1  0  0  0  0
  5  6  1  0  0  0  0
  6  7  1  1  0  0  0
  6  8  1  0  0  0  0
  8  9  1  0  0  0  0
  8 10  1  6  0  0  0
 10 11  1  0  0  0  0
 12 13  1  6  0  0  0
 12 14  1  0  0  0  0
 12 20  1  0  0  0  0
 14 15  1  0  0  0  0
 15 16  1  1  0  0  0
 15 17  1  0  0  0  0
 17  2  1  1  0  0  0
 17 18  1  0  0  0  0
 18 19  1  6  0  0  0
 18 20  1  0  0  0  0
 20 21  1  6  0  0  0
 22 21  1  1  0  0  0
 22 23  1  0  0  0  0
 22 30  1  0  0  0  0
 23 24  1  1  0  0  0
 23 25  1  0  0  0  0
 25 26  1  6  0  0  0
 25 27  1  0  0  0  0
 27 28  1  1  0  0  0
 27 29  1  0  0  0  0
 29 30  1  0  0  0  0
 29 31  1  6  0  0  0
 31 32  1  0  0  0  0
M  CHG  5   4   1  11   1  13   1  16   1  26   1
M  END
>  <CHROM.1>
-177.05575395,-142.61100560,69.68235630,-174.48165886,-166.31116420,-175.40484816
82.02114091,-178.17972791,178.81409777,105.49471800,-129.50780130,-179.54355778
10.54379281,179.24868540,170.39631412,-168.15292951,-11.94366451,8.08638284
18.06877105,-0.37067020,0.87227892,-2.31896503

>  <Name>
1lc4

>  <RI>
0

>  <Rbt.Current_Directory>
/home/afrankz/demos/rdock_decoys_rna/rnas/1lc4

>  <Rbt.Executable>
rbdock ($Id: //depot/dev/client3/rdock/2013.1/src/exe/rbdock.cxx#4 $)

>  <Rbt.Library>
libRbt.so (2013.1, Build901 2013/11/27)

>  <Rbt.Parameter_File>
/export/apps/rDock/src/rDock_2013.1_src/data/scripts/dock_solv.prm

>  <Rbt.Receptor>
prm/blind_docking_40.prm

>  <SCORE>
-55.968

>  <SCORE.INTER>
-48.6308

>  <SCORE.INTER.CONST>
1

>  <SCORE.INTER.POLAR>
-6.91598

>  <SCORE.INTER.ROT>
6

>  <SCORE.INTER.SOLV>
38.3694

>  <SCORE.INTER.VDW>
-29.7571

>  <SCORE.INTER.norm>
-1.51971

>  <SCORE.INTRA>
-13.2703

>  <SCORE.INTRA.DIHEDRAL>
-19.7131

>  <SCORE.INTRA.DIHEDRAL.0>
44.2576

>  <SCORE.INTRA.POLAR>
-0.451667

>  <SCORE.INTRA.POLAR.0>
-0.381556

>  <SCORE.INTRA.REPUL>
0.0438279

>  <SCORE.INTRA.REPUL.0>
0

>  <SCORE.INTRA.SOLV>
2.73093

>  <SCORE.INTRA.SOLV.lig_0>
-134.592

>  <SCORE.INTRA.VDW>
-3.46269

>  <SCORE.INTRA.VDW.0>
-1.01417

>  <SCORE.INTRA.norm>
-0.414697

>  <SCORE.RESTR>
5.93314

>  <SCORE.RESTR.CAVITY>
5.93314

>  <SCORE.RESTR.norm>
0.185411

>  <SCORE.SYSTEM>
0

>  <SCORE.SYSTEM.CONST>
0

>  <SCORE.SYSTEM.DIHEDRAL>
0

>  <SCORE.SYSTEM.SOLV>
0

>  <SCORE.SYSTEM.norm>
0

>  <SCORE.heavy>
32

>  <SCORE.norm>
-1.749

>  <RMSD>
0.905

$$$$
1lc4
 OpenBabel02141814113D
libRbt.so/2013.1/901 2013/11/27
 32 34  0  0  0  0  0  0  0  0999 V2000
  -10.4468    5.9023   19.2878 C   0  0  2  0  0  0  0  0  0  0  0  0
  -11.4467    6.7642   19.7710 O   0  0  0  0  0  0  0  0  0  0  0  0
  -10.6518    4.5181   19.9365 C   0  0  2  0  0  0  0  0  0  0  0  0
  -11.9898    4.0038   19.6284 N   0  3  0  0  0  0  0  0  0  0  0  0
  -10.4190    4.6062   21.4631 C   0  0  0  0  0  0  0  0  0  0  0  0
   -8.9837    5.1148   21.6839 C   0  0  2  0  0  0  0  0  0  0  0  0
   -8.6847    5.1740   23.0826 O   0  0  0  0  0  0  0  0  0  0  0  0
   -8.8246    6.5031   21.0156 C   0  0  2  0  0  0  0  0  0  0  0  0
   -9.1337    6.4205   19.5951 O   0  0  0  0  0  0  0  0  0  0  0  0
   -7.4143    7.0762   21.1305 C   0  0  0  0  0  0  0  0  0  0  0  0
   -7.1000    7.4552   22.5332 N   0  3  0  0  0  0  0  0  0  0  0  0
  -14.0544    9.5364   17.9069 C   0  0  2  0  0  0  0  0  0  0  0  0
  -14.5788   10.6830   17.1426 N   0  3  0  0  0  0  0  0  0  0  0  0
  -13.2396   10.0343   19.0929 C   0  0  0  0  0  0  0  0  0  0  0  0
  -12.6854    8.8508   19.8938 C   0  0  2  0  0  0  0  0  0  0  0  0
  -12.0021    9.3802   21.1002 N   0  3  0  0  0  0  0  0  0  0  0  0
  -11.7922    7.9353   19.0042 C   0  0  2  0  0  0  0  0  0  0  0  0
  -12.6005    7.4733   17.7645 C   0  0  2  0  0  0  0  0  0  0  0  0
  -11.7485    6.7850   16.8810 O   0  0  0  0  0  0  0  0  0  0  0  0
  -13.1711    8.6799   17.0018 C   0  0  1  0  0  0  0  0  0  0  0  0
  -13.9319    8.2063   15.8911 O   0  0  0  0  0  0  0  0  0  0  0  0
  -13.4718    8.5274   14.6236 C   0  0  2  0  0  0  0  0  0  0  0  0
  -14.6801    8.7261   13.6926 C   0  0  2  0  0  0  0  0  0  0  0  0
  -15.4863    9.7759   14.2123 O   0  0  0  0  0  0  0  0  0  0  0  0
  -15.4933    7.4216   13.6235 C   0  0  1  0  0  0  0  0  0  0  0  0
  -16.6935    7.5605   12.7492 N   0  3  0  0  0  0  0  0  0  0  0  0
  -14.5806    6.2773   13.1189 C   0  0  2  0  0  0  0  0  0  0  0  0
  -15.3013    5.0482   13.0684 O   0  0  0  0  0  0  0  0  0  0  0  0
  -13.3440    6.1435   14.0271 C   0  0  2  0  0  0  0  0  0  0  0  0
  -12.6454    7.4364   14.1408 O   0  0  0  0  0  0  0  0  0  0  0  0
  -12.3448    5.1448   13.4866 C   0  0  0  0  0  0  0  0  0  0  0  0
  -11.8814    5.5139   12.1896 O   0  0  0  0  0  0  0  0  0  0  0  0
  1  2  1  1  0  0  0
  1  3  1  0  0  0  0
  1  9  1  0  0  0  0
  3  4  1  1  0  0  0
  3  5  1  0  0  0  0
  5  6  1  0  0  0  0
  6  7  1  1  0  0  0
  6  8  1  0  0  0  0
  8  9  1  0  0  0  0
  8 10  1  6  0  0  0
 10 11  1  0  0  0  0
 12 13  1  6  0  0  0
 12 14  1  0  0  0  0
 12 20  1  0  0  0  0
 14 15  1  0  0  0  0
 15 16  1  1  0  0  0
 15 17  1  0  0  0  0
 17  2  1  1  0  0  0
 17 18  1  0  0  0  0
 18 19  1  6  0  0  0
 18 20  1  0  0  0  0
 20 21  1  6  0  0  0
 22 21  1  1  0  0  0
 22 23  1  0  0  0  0
 22 30  1  0  0  0  0
 23 24  1  1  0  0  0
 23 25  1  0  0  0  0
 25 26  1  6  0  0  0
 25 27  1  0  0  0  0
 27 28  1  1  0  0  0
 27 29  1  0  0  0  0
 29 30  1  0  0  0  0
 29 31  1  6  0  0  0
 31 32  1  0  0  0  0
M  CHG  5   4   1  11   1  13   1  16   1  26   1
M  END
>  <CHROM.1>
-157.88750870,-168.21176813,-57.07925165,-51.58941334,-69.35828688,54.56567873
37.37274524,168.43155222,175.59727317,122.44634048,-146.18752305,168.65412342
-147.13570674,-59.54689914,59.49352814,-176.94239576,-12.22582599,7.14488601
17.48005320,-0.54094056,0.85386801,-2.32232876

>  <Name>
1lc4

>  <RI>
0

>  <Rbt.Current_Directory>
/home/afrankz/demos/rdock_decoys_rna/rnas/1lc4

>  <Rbt.Executable>
rbdock ($Id: //depot/dev/client3/rdock/2013.1/src/exe/rbdock.cxx#4 $)

>  <Rbt.Library>
libRbt.so (2013.1, Build901 2013/11/27)

>  <Rbt.Parameter_File>
/export/apps/rDock/src/rDock_2013.1_src/data/scripts/dock_solv.prm

>  <Rbt.Receptor>
prm/pocket_docking_2.prm

>  <SCORE>
-71.4017

>  <SCORE.INTER>
-51.8738

>  <SCORE.INTER.CONST>
1

>  <SCORE.INTER.POLAR>
-7.65092

>  <SCORE.INTER.ROT>
6

>  <SCORE.INTER.SOLV>
19.9583

>  <SCORE.INTER.VDW>
-23.3322

>  <SCORE.INTER.norm>
-1.62106

>  <SCORE.INTRA>
-19.6264

>  <SCORE.INTRA.DIHEDRAL>
-24.8648

>  <SCORE.INTRA.DIHEDRAL.0>
44.2576

>  <SCORE.INTRA.POLAR>
-1.21527

>  <SCORE.INTRA.POLAR.0>
-0.381556

>  <SCORE.INTRA.REPUL>
0

>  <SCORE.INTRA.REPUL.0>
0

>  <SCORE.INTRA.SOLV>
-1.22257

>  <SCORE.INTRA.SOLV.lig_0>
-134.592

>  <SCORE.INTRA.VDW>
-2.45079

>  <SCORE.INTRA.VDW.0>
-1.01417

>  <SCORE.INTRA.norm>
-0.613325

>  <SCORE.RESTR>
0.0984748

>  <SCORE.RESTR.CAVITY>
0.0984748

>  <SCORE.RESTR.norm>
0.00307734

>  <SCORE.SYSTEM>
0

>  <SCORE.SYSTEM.CONST>
0

>  <SCORE.SYSTEM.DIHEDRAL>
0

>  <SCORE.SYSTEM.SOLV>
0

>  <SCORE.SYSTEM.norm>
0

>  <SCORE.heavy>
32

>  <SCORE.norm>
-2.2313

>  <RMSD>
0.908

$$$$
1lc4
 OpenBabel02141814113D
libRbt.so/2013.1/901 2013/11/27
 32 34  0  0  0  0  0  0  0  0999 V2000
   -9.8974    5.9088   19.4159 C   0  0  2  0  0  0  0  0  0  0  0  0
  -11.1484    6.4848   19.6978 O   0  0  0  0  0  0  0  0  0  0  0  0
   -9.8910    4.4743   19.9825 C   0  0  2  0  0  0  0  0  0  0  0  0
  -10.9811    3.6892   19.3950 N   0  3  0  0  0  0  0  0  0  0  0  0
   -9.9906    4.5112   21.5256 C   0  0  0  0  0  0  0  0  0  0  0  0
   -8.7894    5.3188   22.0478 C   0  0  2  0  0  0  0  0  0  0  0  0
   -8.7939    5.3514   23.4789 O   0  0  0  0  0  0  0  0  0  0  0  0
   -8.8367    6.7482   21.4526 C   0  0  2  0  0  0  0  0  0  0  0  0
   -8.8319    6.6920   19.9976 O   0  0  0  0  0  0  0  0  0  0  0  0
   -7.6538    7.6198   21.8672 C   0  0  0  0  0  0  0  0  0  0  0  0
   -7.7933    8.0831   23.2727 N   0  3  0  0  0  0  0  0  0  0  0  0
  -13.8023    9.4302   18.2008 C   0  0  2  0  0  0  0  0  0  0  0  0
  -14.3463   10.6418   17.5605 N   0  3  0  0  0  0  0  0  0  0  0  0
  -12.9226    9.8194   19.3811 C   0  0  0  0  0  0  0  0  0  0  0  0
  -12.3477    8.5677   20.0535 C   0  0  2  0  0  0  0  0  0  0  0  0
  -11.5978    8.9880   21.2633 N   0  3  0  0  0  0  0  0  0  0  0  0
  -11.5135    7.7189   19.0480 C   0  0  2  0  0  0  0  0  0  0  0  0
  -12.3887    7.3699   17.8168 C   0  0  2  0  0  0  0  0  0  0  0  0
  -11.5918    6.7476   16.8381 O   0  0  0  0  0  0  0  0  0  0  0  0
  -12.9778    8.6417   17.1852 C   0  0  1  0  0  0  0  0  0  0  0  0
  -13.7995    8.2699   16.0792 O   0  0  0  0  0  0  0  0  0  0  0  0
  -13.5929    8.9379   14.8823 C   0  0  2  0  0  0  0  0  0  0  0  0
  -14.9286    9.0220   14.1240 C   0  0  2  0  0  0  0  0  0  0  0  0
  -15.8662    9.7224   14.9317 O   0  0  0  0  0  0  0  0  0  0  0  0
  -15.4418    7.6011   13.8318 C   0  0  1  0  0  0  0  0  0  0  0  0
  -16.7492    7.6191   13.1143 N   0  3  0  0  0  0  0  0  0  0  0  0
  -14.3786    6.8336   13.0087 C   0  0  2  0  0  0  0  0  0  0  0  0
  -14.8163    5.5028   12.7438 O   0  0  0  0  0  0  0  0  0  0  0  0
  -13.0328    6.8224   13.7571 C   0  0  2  0  0  0  0  0  0  0  0  0
  -12.6218    8.1959   14.0996 O   0  0  0  0  0  0  0  0  0  0  0  0
  -11.9222    6.2211   12.9247 C   0  0  0  0  0  0  0  0  0  0  0  0
  -10.6753    6.2440   13.6161 O   0  0  0  0  0  0  0  0  0  0  0  0
  1  2  1  1  0  0  0
  1  3  1  0  0  0  0
  1  9  1  0  0  0  0
  3  4  1  6  0  0  0
  3  5  1  0  0  0  0
  5  6  1  0  0  0  0
  6  7  1  1  0  0  0
  6  8  1  0  0  0  0
  8  9  1  0  0  0  0
  8 10  1  1  0  0  0
 10 11  1  0  0  0  0
 12 13  1  6  0  0  0
 12 14  1  0  0  0  0
 12 20  1  0  0  0  0
 14 15  1  0  0  0  0
 15 16  1  1  0  0  0
 15 17  1  0  0  0  0
 17  2  1  1  0  0  0
 17 18  1  0  0  0  0
 18 19  1  6  0  0  0
 18 20  1  0  0  0  0
 20 21  1  6  0  0  0
 22 21  1  1  0  0  0
 22 23  1  0  0  0  0
 22 30  1  0  0  0  0
 23 24  1  1  0  0  0
 23 25  1  0  0  0  0
 25 26  1  6  0  0  0
 25 27  1  0  0  0  0
 27 28  1  1  0  0  0
 27 29  1  0  0  0  0
 29 30  1  0  0  0  0
 29 31  1  6  0  0  0
 31 32  1  0  0  0  0
M  CHG  5   4   1  11   1  13   1  16   1  26   1
M  END
>  <CHROM.1>
-167.69064027,-144.70392710,133.92332207,52.38592437,-75.27576030,24.05374147
-177.20331156,81.10026669,-56.90404254,107.43529331,-148.83447593,115.27623092
7.02837784,68.11286454,178.67157252,81.39403684,-12.00728117,7.30421177,17.70387270
-0.60229126,0.83122644,-2.21680546

>  <Name>
1lc4

>  <RI>
0

>  <Rbt.Current_Directory>
/home/afrankz/demos/rdock_decoys_rna/rnas/1lc4

>  <Rbt.Executable>
rbdock ($Id: //depot/dev/client3/rdock/2013.1/src/exe/rbdock.cxx#4 $)

>  <Rbt.Library>
libRbt.so (2013.1, Build901 2013/11/27)

>  <Rbt.Parameter_File>
/export/apps/rDock/src/rDock_2013.1_src/data/scripts/dock_solv.prm

>  <Rbt.Receptor>
prm/pocket_docking_7.prm

>  <SCORE>
-68.4847

>  <SCORE.INTER>
-57.0225

>  <SCORE.INTER.CONST>
1

>  <SCORE.INTER.POLAR>
-8.60687

>  <SCORE.INTER.ROT>
6

>  <SCORE.INTER.SOLV>
23.453

>  <SCORE.INTER.VDW>
-24.7431

>  <SCORE.INTER.norm>
-1.78195

>  <SCORE.INTRA>
-11.4622

>  <SCORE.INTRA.DIHEDRAL>
-8.09925

>  <SCORE.INTRA.DIHEDRAL.0>
44.2576

>  <SCORE.INTRA.POLAR>
-1.45579

>  <SCORE.INTRA.POLAR.0>
-0.381556

>  <SCORE.INTRA.REPUL>
0

>  <SCORE.INTRA.REPUL.0>
0

>  <SCORE.INTRA.SOLV>
0.677876

>  <SCORE.INTRA.SOLV.lig_0>
-134.592

>  <SCORE.INTRA.VDW>
-2.80184

>  <SCORE.INTRA.VDW.0>
-1.01417

>  <SCORE.INTRA.norm>
-0.358194

>  <SCORE.RESTR>
0

>  <SCORE.RESTR.CAVITY>
0

>  <SCORE.RESTR.norm>
0

>  <SCORE.SYSTEM>
0

>  <SCORE.SYSTEM.CONST>
0

>  <SCORE.SYSTEM.DIHEDRAL>
0

>  <SCORE.SYSTEM.SOLV>
0

>  <SCORE.SYSTEM.norm>
0

>  <SCORE.heavy>
32

>  <SCORE.norm>
-2.14015

>  <RMSD>
0.911

$$$$
1lc4
 OpenBabel02141814113D
libRbt.so/2013.1/901 2013/11/27
 32 34  0  0  0  0  0  0  0  0999 V2000
   -9.7901    6.1019   19.5703 C   0  0  2  0  0  0  0  0  0  0  0  0
  -11.0392    6.6884   19.8386 O   0  0  0  0  0  0  0  0  0  0  0  0
   -9.8161    4.6537   20.1003 C   0  0  2  0  0  0  0  0  0  0  0  0
  -10.9031    3.8991   19.4689 N   0  3  0  0  0  0  0  0  0  0  0  0
   -9.9502    4.6534   21.6413 C   0  0  0  0  0  0  0  0  0  0  0  0
   -8.7504    5.4306   22.2105 C   0  0  2  0  0  0  0  0  0  0  0  0
   -8.7870    5.4275   23.6415 O   0  0  0  0  0  0  0  0  0  0  0  0
   -8.7646    6.8749   21.6507 C   0  0  2  0  0  0  0  0  0  0  0  0
   -8.7275    6.8551   20.1953 O   0  0  0  0  0  0  0  0  0  0  0  0
   -7.5797    7.7190   22.1137 C   0  0  0  0  0  0  0  0  0  0  0  0
   -7.7699    8.1939   23.5094 N   0  3  0  0  0  0  0  0  0  0  0  0
  -13.4465   10.0191   18.8039 C   0  0  2  0  0  0  0  0  0  0  0  0
  -13.8920   11.3442   18.3355 N   0  3  0  0  0  0  0  0  0  0  0  0
  -12.5087   10.1790   19.9927 C   0  0  0  0  0  0  0  0  0  0  0  0
  -12.0353    8.8075   20.4869 C   0  0  2  0  0  0  0  0  0  0  0  0
  -11.2233    9.0058   21.7132 N   0  3  0  0  0  0  0  0  0  0  0  0
  -11.3047    8.0213   19.3575 C   0  0  2  0  0  0  0  0  0  0  0  0
  -12.2356    7.9071   18.1230 C   0  0  2  0  0  0  0  0  0  0  0  0
  -11.5210    7.3446   17.0492 O   0  0  0  0  0  0  0  0  0  0  0  0
  -12.7204    9.2946   17.6722 C   0  0  1  0  0  0  0  0  0  0  0  0
  -13.5971    9.1375   16.5571 O   0  0  0  0  0  0  0  0  0  0  0  0
  -13.3678    9.9413   15.4514 C   0  0  2  0  0  0  0  0  0  0  0  0
  -14.6987   10.5782   15.0163 C   0  0  2  0  0  0  0  0  0  0  0  0
  -15.2083   11.3490   16.0971 O   0  0  0  0  0  0  0  0  0  0  0  0
  -15.6983    9.4701   14.6414 C   0  0  1  0  0  0  0  0  0  0  0  0
  -17.0187   10.0284   14.2303 N   0  3  0  0  0  0  0  0  0  0  0  0
  -15.0971    8.6019   13.5092 C   0  0  2  0  0  0  0  0  0  0  0  0
  -15.9919    7.5492   13.1574 O   0  0  0  0  0  0  0  0  0  0  0  0
  -13.7337    8.0319   13.9429 C   0  0  2  0  0  0  0  0  0  0  0  0
  -12.8373    9.1165   14.3816 O   0  0  0  0  0  0  0  0  0  0  0  0
  -13.0341    7.3061   12.8152 C   0  0  0  0  0  0  0  0  0  0  0  0
  -11.6328    7.1917   13.0530 O   0  0  0  0  0  0  0  0  0  0  0  0
  1  2  1  1  0  0  0
  1  3  1  0  0  0  0
  1  9  1  0  0  0  0
  3  4  1  6  0  0  0
  3  5  1  0  0  0  0
  5  6  1  0  0  0  0
  6  7  1  1  0  0  0
  6  8  1  0  0  0  0
  8  9  1  0  0  0  0
  8 10  1  1  0  0  0
 10 11  1  0  0  0  0
 12 13  1  6  0  0  0
 12 14  1  0  0  0  0
 12 20  1  0  0  0  0
 14 15  1  0  0  0  0
 15 16  1  1  0  0  0
 15 17  1  0  0  0  0
 17  2  1  1  0  0  0
 17 18  1  0  0  0  0
 18 19  1  6  0  0  0
 18 20  1  0  0  0  0
 20 21  1  6  0  0  0
 22 21  1  1  0  0  0
 22 23  1  0  0  0  0
 22 30  1  0  0  0  0
 23 24  1  1  0  0  0
 23 25  1  0  0  0  0
 25 26  1  6  0  0  0
 25 27  1  0  0  0  0
 27 28  1  1  0  0  0
 27 29  1  0  0  0  0
 29 30  1  0  0  0  0
 29 31  1  6  0  0  0
 31 32  1  0  0  0  0
M  CHG  5   4   1  11   1  13   1  16   1  26   1
M  END
>  <CHROM.1>
-175.80224152,-137.70103288,178.96611460,74.60938933,-77.52988720,33.25168642
-36.98645609,-179.56992920,76.38424072,106.63854680,-131.65211973,-107.98817191
-0.03274537,-166.05625286,159.72688312,-172.12040360,-12.03248613,8.02065021
18.07042509,-0.43666344,0.88727426,-2.25016784

>  <Name>
1lc4

>  <RI>
0

>  <Rbt.Current_Directory>
/home/afrankz/demos/rdock_decoys_rna/rnas/1lc4

>  <Rbt.Executable>
rbdock ($Id: //depot/dev/client3/rdock/2013.1/src/exe/rbdock.cxx#4 $)

>  <Rbt.Library>
libRbt.so (2013.1, Build901 2013/11/27)

>  <Rbt.Parameter_File>
/export/apps/rDock/src/rDock_2013.1_src/data/scripts/dock_solv.prm

>  <Rbt.Receptor>
prm/blind_docking_40.prm

>  <SCORE>
-47.8804

>  <SCORE.INTER>
-47.7619

>  <SCORE.INTER.CONST>
1

>  <SCORE.INTER.POLAR>
-6.8575

>  <SCORE.INTER.ROT>
6

>  <SCORE.INTER.SOLV>
34.2575

>  <SCORE.INTER.VDW>
-28.0021

>  <SCORE.INTER.norm>
-1.49256

>  <SCORE.INTRA>
-6.58228

>  <SCORE.INTRA.DIHEDRAL>
-6.84123

>  <SCORE.INTRA.DIHEDRAL.0>
44.2576

>  <SCORE.INTRA.POLAR>
-1.07903

>  <SCORE.INTRA.POLAR.0>
-0.381556

>  <SCORE.INTRA.REPUL>
0.263872

>  <SCORE.INTRA.REPUL.0>
0

>  <SCORE.INTRA.SOLV>
3.10075

>  <SCORE.INTRA.SOLV.lig_0>
-134.592

>  <SCORE.INTRA.VDW>
-2.3627

>  <SCORE.INTRA.VDW.0>
-1.01417

>  <SCORE.INTRA.norm>
-0.205696

>  <SCORE.RESTR>
6.46387

>  <SCORE.RESTR.CAVITY>
6.46387

>  <SCORE.RESTR.norm>
0.201996

>  <SCORE.SYSTEM>
0

>  <SCORE.SYSTEM.CONST>
0

>  <SCORE.SYSTEM.DIHEDRAL>
0

>  <SCORE.SYSTEM.SOLV>
0

>  <SCORE.SYSTEM.norm>
0

>  <SCORE.heavy>
32

>  <SCORE.norm>
-1.49626

>  <RMSD>
0.931

$$$$
1lc4
 OpenBabel02141814113D
libRbt.so/2013.1/901 2013/11/27
 32 34  0  0  0  0  0  0  0  0999 V2000
   -9.6972    6.1602   19.5860 C   0  0  2  0  0  0  0  0  0  0  0  0
  -10.9385    6.7444   19.8925 O   0  0  0  0  0  0  0  0  0  0  0  0
   -9.7008    4.7151   20.1248 C   0  0  2  0  0  0  0  0  0  0  0  0
  -10.8057    3.9535   19.5342 N   0  3  0  0  0  0  0  0  0  0  0  0
   -9.7834    4.7233   21.6693 C   0  0  0  0  0  0  0  0  0  0  0  0
   -8.5678    5.5074   22.1938 C   0  0  2  0  0  0  0  0  0  0  0  0
   -8.5567    5.5124   23.6252 O   0  0  0  0  0  0  0  0  0  0  0  0
   -8.6054    6.9484   21.6267 C   0  0  2  0  0  0  0  0  0  0  0  0
   -8.6168    6.9203   20.1709 O   0  0  0  0  0  0  0  0  0  0  0  0
   -7.4085    7.7989   22.0450 C   0  0  0  0  0  0  0  0  0  0  0  0
   -6.2109    7.4840   21.2227 N   0  3  0  0  0  0  0  0  0  0  0  0
  -13.6610    9.4658   18.1198 C   0  0  2  0  0  0  0  0  0  0  0  0
  -14.2352   10.6304   17.4214 N   0  3  0  0  0  0  0  0  0  0  0  0
  -12.9396    9.9227   19.3805 C   0  0  0  0  0  0  0  0  0  0  0  0
  -12.3346    8.7206   20.1142 C   0  0  2  0  0  0  0  0  0  0  0  0
  -11.7475    9.1977   21.3910 N   0  3  0  0  0  0  0  0  0  0  0  0
  -11.3364    7.9462   19.2025 C   0  0  2  0  0  0  0  0  0  0  0  0
  -12.0514    7.5299   17.8913 C   0  0  2  0  0  0  0  0  0  0  0  0
  -11.1116    6.9780   17.0013 O   0  0  0  0  0  0  0  0  0  0  0  0
  -12.6763    8.7507   17.1967 C   0  0  1  0  0  0  0  0  0  0  0  0
  -13.3490    8.3158   16.0156 O   0  0  0  0  0  0  0  0  0  0  0  0
  -13.3081    9.1579   14.9154 C   0  0  2  0  0  0  0  0  0  0  0  0
  -14.7193    9.2529   14.3106 C   0  0  2  0  0  0  0  0  0  0  0  0
  -15.6038    9.7651   15.2992 O   0  0  0  0  0  0  0  0  0  0  0  0
  -15.1803    7.8544   13.8641 C   0  0  1  0  0  0  0  0  0  0  0  0
  -16.5552    7.8803   13.2870 N   0  3  0  0  0  0  0  0  0  0  0  0
  -14.1690    7.2869   12.8383 C   0  0  2  0  0  0  0  0  0  0  0  0
  -14.5571    5.9789   12.4246 O   0  0  0  0  0  0  0  0  0  0  0  0
  -12.7528    7.2661   13.4431 C   0  0  2  0  0  0  0  0  0  0  0  0
  -12.3855    8.6035   13.9420 O   0  0  0  0  0  0  0  0  0  0  0  0
  -11.7048    6.8675   12.4279 C   0  0  0  0  0  0  0  0  0  0  0  0
  -12.1567    5.8005   11.5968 O   0  0  0  0  0  0  0  0  0  0  0  0
  1  2  1  1  0  0  0
  1  3  1  0  0  0  0
  1  9  1  0  0  0  0
  3  4  1  6  0  0  0
  3  5  1  0  0  0  0
  5  6  1  0  0  0  0
  6  7  1  1  0  0  0
  6  8  1  0  0  0  0
  8  9  1  0  0  0  0
  8 10  1  6  0  0  0
 10 11  1  0  0  0  0
 12 13  1  6  0  0  0
 12 14  1  0  0  0  0
 12 20  1  0  0  0  0
 14 15  1  0  0  0  0
 15 16  1  1  0  0  0
 15 17  1  0  0  0  0
 17  2  1  1  0  0  0
 17 18  1  0  0  0  0
 18 19  1  6  0  0  0
 18 20  1  0  0  0  0
 20 21  1  6  0  0  0
 22 21  1  1  0  0  0
 22 23  1  0  0  0  0
 22 30  1  0  0  0  0
 23 24  1  1  0  0  0
 23 25  1  0  0  0  0
 25 26  1  6  0  0  0
 25 27  1  0  0  0  0
 27 28  1  1  0  0  0
 27 29  1  0  0  0  0
 29 30  1  0  0  0  0
 29 31  1  6  0  0  0
 31 32  1  0  0  0  0
M  CHG  5   4   1  11   1  13   1  16   1  26   1
M  END
>  <CHROM.1>
-163.48305815,-154.33947978,-93.50987391,-52.46339426,79.31464411,78.62717479
-62.62898234,170.71213882,-46.17343193,94.04921313,-134.64202239,-80.16607284
47.03035999,65.78392412,-41.04874074,-169.48286102,-11.80449733,7.47758941
17.59526242,-0.71739709,0.75085792,-2.05800776

>  <Name>
1lc4

>  <RI>
0

>  <Rbt.Current_Directory>
/home/afrankz/demos/rdock_decoys_rna/rnas/1lc4

>  <Rbt.Executable>
rbdock ($Id: //depot/dev/client3/rdock/2013.1/src/exe/rbdock.cxx#4 $)

>  <Rbt.Library>
libRbt.so (2013.1, Build901 2013/11/27)

>  <Rbt.Parameter_File>
/export/apps/rDock/src/rDock_2013.1_src/data/scripts/dock_solv.prm

>  <Rbt.Receptor>
prm/blind_docking_80.prm

>  <SCORE>
-53.8542

>  <SCORE.INTER>
-46.3362

>  <SCORE.INTER.CONST>
1

>  <SCORE.INTER.POLAR>
-7.63896

>  <SCORE.INTER.ROT>
6

>  <SCORE.INTER.SOLV>
32.7955

>  <SCORE.INTER.VDW>
-23.9595

>  <SCORE.INTER.norm>
-1.44801

>  <SCORE.INTRA>
-11.5825

>  <SCORE.INTRA.DIHEDRAL>
-19.8832

>  <SCORE.INTRA.DIHEDRAL.0>
44.2576

>  <SCORE.INTRA.POLAR>
-0.31203

>  <SCORE.INTRA.POLAR.0>
-0.381556

>  <SCORE.INTRA.REPUL>
0

>  <SCORE.INTRA.REPUL.0>
0

>  <SCORE.INTRA.SOLV>
1.09603

>  <SCORE.INTRA.SOLV.lig_0>
-134.592

>  <SCORE.INTRA.VDW>
-1.12802

>  <SCORE.INTRA.VDW.0>
-1.01417

>  <SCORE.INTRA.norm>
-0.361954

>  <SCORE.RESTR>
4.06456

>  <SCORE.RESTR.CAVITY>
4.06456

>  <SCORE.RESTR.norm>
0.127018

>  <SCORE.SYSTEM>
0

>  <SCORE.SYSTEM.CONST>
0

>  <SCORE.SYSTEM.DIHEDRAL>
0

>  <SCORE.SYSTEM.SOLV>
0

>  <SCORE.SYSTEM.norm>
0

>  <SCORE.heavy>
32

>  <SCORE.norm>
-1.68294

>  <RMSD>
0.932

$$$$
1lc4
 OpenBabel02141814113D
libRbt.so/2013.1/901 2013/11/27
 32 34  0  0  0  0  0  0  0  0999 V2000
   -9.6157    6.1307   19.6969 C   0  0  2  0  0  0  0  0  0  0  0  0
  -10.8576    6.7128   20.0050 O   0  0  0  0  0  0  0  0  0  0  0  0
   -9.6010    4.6993   20.2713 C   0  0  2  0  0  0  0  0  0  0  0  0
  -10.7074    3.9150   19.7142 N   0  3  0  0  0  0  0  0  0  0  0  0
   -9.6638    4.7452   21.8161 C   0  0  0  0  0  0  0  0  0  0  0  0
   -8.4478    5.5513   22.3051 C   0  0  2  0  0  0  0  0  0  0  0  0
   -8.4183    5.5919   23.7357 O   0  0  0  0  0  0  0  0  0  0  0  0
   -8.5040    6.9775   21.7031 C   0  0  2  0  0  0  0  0  0  0  0  0
   -8.5339    6.9132   20.2488 O   0  0  0  0  0  0  0  0  0  0  0  0
   -7.3087    7.8470   22.0847 C   0  0  0  0  0  0  0  0  0  0  0  0
   -6.0439    7.0666   22.0543 N   0  3  0  0  0  0  0  0  0  0  0  0
  -13.3580    9.9442   18.8799 C   0  0  2  0  0  0  0  0  0  0  0  0
  -13.8400   11.2457   18.3822 N   0  3  0  0  0  0  0  0  0  0  0  0
  -12.4421   10.1554   20.0778 C   0  0  0  0  0  0  0  0  0  0  0  0
  -11.9311    8.8090   20.6025 C   0  0  2  0  0  0  0  0  0  0  0  0
  -11.1427    9.0551   21.8356 N   0  3  0  0  0  0  0  0  0  0  0  0
  -11.1599    8.0278   19.4969 C   0  0  2  0  0  0  0  0  0  0  0  0
  -12.0696    7.8616   18.2525 C   0  0  2  0  0  0  0  0  0  0  0  0
  -11.3224    7.3044   17.1984 O   0  0  0  0  0  0  0  0  0  0  0  0
  -12.5932    9.2244   17.7708 C   0  0  1  0  0  0  0  0  0  0  0  0
  -13.4491    9.0193   16.6474 O   0  0  0  0  0  0  0  0  0  0  0  0
  -13.1814    9.7544   15.5031 C   0  0  2  0  0  0  0  0  0  0  0  0
  -14.4808   10.4294   15.0318 C   0  0  2  0  0  0  0  0  0  0  0  0
  -14.9552   11.2769   16.0705 O   0  0  0  0  0  0  0  0  0  0  0  0
  -15.5305    9.3513   14.7101 C   0  0  1  0  0  0  0  0  0  0  0  0
  -16.8230    9.9487   14.2668 N   0  3  0  0  0  0  0  0  0  0  0  0
  -14.9690    8.3998   13.6254 C   0  0  2  0  0  0  0  0  0  0  0  0
  -15.9115    7.3733   13.3243 O   0  0  0  0  0  0  0  0  0  0  0  0
  -13.6341    7.7899   14.0921 C   0  0  2  0  0  0  0  0  0  0  0  0
  -12.6887    8.8527   14.4783 O   0  0  0  0  0  0  0  0  0  0  0  0
  -12.9678    6.9762   13.0050 C   0  0  0  0  0  0  0  0  0  0  0  0
  -12.6017    7.7871   11.8907 O   0  0  0  0  0  0  0  0  0  0  0  0
  1  2  1  1  0  0  0
  1  3  1  0  0  0  0
  1  9  1  0  0  0  0
  3  4  1  6  0  0  0
  3  5  1  0  0  0  0
  5  6  1  0  0  0  0
  6  7  1  1  0  0  0
  6  8  1  0  0  0  0
  8  9  1  0  0  0  0
  8 10  1  6  0  0  0
 10 11  1  0  0  0  0
 12 13  1  6  0  0  0
 12 14  1  0  0  0  0
 12 20  1  0  0  0  0
 14 15  1  0  0  0  0
 15 16  1  1  0  0  0
 15 17  1  0  0  0  0
 17  2  1  1  0  0  0
 17 18  1  0  0  0  0
 18 19  1  6  0  0  0
 18 20  1  0  0  0  0
 20 21  1  6  0  0  0
 22 21  1  1  0  0  0
 22 23  1  0  0  0  0
 22 30  1  0  0  0  0
 23 24  1  1  0  0  0
 23 25  1  0  0  0  0
 25 26  1  6  0  0  0
 25 27  1  0  0  0  0
 27 28  1  1  0  0  0
 27 29  1  0  0  0  0
 29 30  1  0  0  0  0
 29 31  1  6  0  0  0
 31 32  1  0  0  0  0
M  CHG  5   4   1  11   1  13   1  16   1  26   1
M  END
>  <CHROM.1>
-175.81746557,-141.41620832,-124.27889756,-52.40260963,40.42184597,-41.79092199
-159.55675992,179.39298915,-44.46625203,110.35783715,-129.65684572,73.00969615
-119.82127902,-58.31462331,63.91174176,-176.07619337,-11.84233406,7.96396263
18.07119028,-0.45918137,0.84165477,-2.20985032

>  <Name>
1lc4

>  <RI>
0

>  <Rbt.Current_Directory>
/home/afrankz/demos/rdock_decoys_rna/rnas/1lc4

>  <Rbt.Executable>
rbdock ($Id: //depot/dev/client3/rdock/2013.1/src/exe/rbdock.cxx#4 $)

>  <Rbt.Library>
libRbt.so (2013.1, Build901 2013/11/27)

>  <Rbt.Parameter_File>
/export/apps/rDock/src/rDock_2013.1_src/data/scripts/dock_solv.prm

>  <Rbt.Receptor>
prm/blind_docking_40.prm

>  <SCORE>
-53.5543

>  <SCORE.INTER>
-50.4861

>  <SCORE.INTER.CONST>
1

>  <SCORE.INTER.POLAR>
-7.69767

>  <SCORE.INTER.ROT>
6

>  <SCORE.INTER.SOLV>
40.0824

>  <SCORE.INTER.VDW>
-28.9593

>  <SCORE.INTER.norm>
-1.57769

>  <SCORE.INTRA>
-7.92843

>  <SCORE.INTRA.DIHEDRAL>
-12.9964

>  <SCORE.INTRA.DIHEDRAL.0>
44.2576

>  <SCORE.INTRA.POLAR>
-0.330397

>  <SCORE.INTRA.POLAR.0>
-0.381556

>  <SCORE.INTRA.REPUL>
0

>  <SCORE.INTRA.REPUL.0>
0

>  <SCORE.INTRA.SOLV>
2.59168

>  <SCORE.INTRA.SOLV.lig_0>
-134.592

>  <SCORE.INTRA.VDW>
-1.60273

>  <SCORE.INTRA.VDW.0>
-1.01417

>  <SCORE.INTRA.norm>
-0.247764

>  <SCORE.RESTR>
4.86016

>  <SCORE.RESTR.CAVITY>
4.86016

>  <SCORE.RESTR.norm>
0.15188

>  <SCORE.SYSTEM>
0

>  <SCORE.SYSTEM.CONST>
0

>  <SCORE.SYSTEM.DIHEDRAL>
0

>  <SCORE.SYSTEM.SOLV>
0

>  <SCORE.SYSTEM.norm>
0

>  <SCORE.heavy>
32

>  <SCORE.norm>
-1.67357

>  <RMSD>
0.951

$$$$
1lc4
 OpenBabel02141814113D
libRbt.so/2013.1/901 2013/11/27
 32 34  0  0  0  0  0  0  0  0999 V2000
  -10.1305    5.5315   19.6439 C   0  0  2  0  0  0  0  0  0  0  0  0
  -11.1456    6.3841   20.1117 O   0  0  0  0  0  0  0  0  0  0  0  0
  -10.2151    4.2078   20.4310 C   0  0  2  0  0  0  0  0  0  0  0  0
  -11.5384    3.5989   20.2639 N   0  3  0  0  0  0  0  0  0  0  0  0
   -9.8922    4.4546   21.9234 C   0  0  0  0  0  0  0  0  0  0  0  0
   -8.4771    5.0544   21.9978 C   0  0  2  0  0  0  0  0  0  0  0  0
   -8.0946    5.2635   23.3613 O   0  0  0  0  0  0  0  0  0  0  0  0
   -8.4398    6.3779   21.1939 C   0  0  2  0  0  0  0  0  0  0  0  0
   -8.8324    6.1429   19.8116 O   0  0  0  0  0  0  0  0  0  0  0  0
   -7.0600    7.0303   21.1588 C   0  0  0  0  0  0  0  0  0  0  0  0
   -6.6465    7.4879   22.5113 N   0  3  0  0  0  0  0  0  0  0  0  0
  -13.4641    9.6496   18.7257 C   0  0  2  0  0  0  0  0  0  0  0  0
  -13.8843   10.9008   18.0687 N   0  3  0  0  0  0  0  0  0  0  0  0
  -12.3942    9.9464   19.7676 C   0  0  0  0  0  0  0  0  0  0  0  0
  -11.9461    8.6522   20.4557 C   0  0  2  0  0  0  0  0  0  0  0  0
  -10.9948    9.0027   21.5396 N   0  3  0  0  0  0  0  0  0  0  0  0
  -11.3882    7.6275   19.4232 C   0  0  2  0  0  0  0  0  0  0  0  0
  -12.4536    7.3669   18.3275 C   0  0  2  0  0  0  0  0  0  0  0  0
  -11.8931    6.5727   17.3100 O   0  0  0  0  0  0  0  0  0  0  0  0
  -12.9075    8.6853   17.6801 C   0  0  1  0  0  0  0  0  0  0  0  0
  -13.9085    8.3997   16.7038 O   0  0  0  0  0  0  0  0  0  0  0  0
  -13.5813    8.6227   15.3755 C   0  0  2  0  0  0  0  0  0  0  0  0
  -14.6178    9.5803   14.7631 C   0  0  2  0  0  0  0  0  0  0  0  0
  -14.5973   10.7998   15.4942 O   0  0  0  0  0  0  0  0  0  0  0  0
  -16.0153    8.9411   14.8427 C   0  0  1  0  0  0  0  0  0  0  0  0
  -17.0683    9.8357   14.2814 N   0  3  0  0  0  0  0  0  0  0  0  0
  -15.9990    7.5839   14.0979 C   0  0  2  0  0  0  0  0  0  0  0  0
  -17.2762    6.9551   14.1764 O   0  0  0  0  0  0  0  0  0  0  0  0
  -14.9076    6.6688   14.6837 C   0  0  2  0  0  0  0  0  0  0  0  0
  -13.6017    7.3523   14.6741 O   0  0  0  0  0  0  0  0  0  0  0  0
  -14.7465    5.3921   13.8887 C   0  0  0  0  0  0  0  0  0  0  0  0
  -14.2416    5.6478   12.5798 O   0  0  0  0  0  0  0  0  0  0  0  0
  1  2  1  1  0  0  0
  1  3  1  0  0  0  0
  1  9  1  0  0  0  0
  3  4  1  1  0  0  0
  3  5  1  0  0  0  0
  5  6  1  0  0  0  0
  6  7  1  1  0  0  0
  6  8  1  0  0  0  0
  8  9  1  0  0  0  0
  8 10  1  6  0  0  0
 10 11  1  0  0  0  0
 12 13  1  6  0  0  0
 12 14  1  0  0  0  0
 12 20  1  0  0  0  0
 14 15  1  0  0  0  0
 15 16  1  1  0  0  0
 15 17  1  0  0  0  0
 17  2  1  1  0  0  0
 17 18  1  0  0  0  0
 18 19  1  6  0  0  0
 18 20  1  0  0  0  0
 20 21  1  6  0  0  0
 22 21  1  1  0  0  0
 22 23  1  0  0  0  0
 22 30  1  0  0  0  0
 23 24  1  1  0  0  0
 23 25  1  0  0  0  0
 25 26  1  6  0  0  0
 25 27  1  0  0  0  0
 27 28  1  1  0  0  0
 27 29  1  0  0  0  0
 29 30  1  0  0  0  0
 29 31  1  6  0  0  0
 31 32  1  0  0  0  0
M  CHG  5   4   1  11   1  13   1  16   1  26   1
M  END
>  <CHROM.1>
-172.39677970,-151.04734467,178.13463407,68.07710881,-66.06152777,-70.96868052
178.11519719,-58.89407378,-171.84205587,125.46602485,-124.17095563,177.22363280
-144.66867144,-178.61352514,66.45798365,66.36170524,-12.27391779,7.37517441
18.09163916,-0.06407045,0.84316442,-2.76183743

>  <Name>
1lc4

>  <RI>
0

>  <Rbt.Current_Directory>
/home/afrankz/demos/rdock_decoys_rna/rnas/1lc4

>  <Rbt.Executable>
rbdock ($Id: //depot/dev/client3/rdock/2013.1/src/exe/rbdock.cxx#4 $)

>  <Rbt.Library>
libRbt.so (2013.1, Build901 2013/11/27)

>  <Rbt.Parameter_File>
/export/apps/rDock/src/rDock_2013.1_src/data/scripts/dock_solv.prm

>  <Rbt.Receptor>
prm/pocket_docking_2.prm

>  <SCORE>
-66.7621

>  <SCORE.INTER>
-48.3886

>  <SCORE.INTER.CONST>
1

>  <SCORE.INTER.POLAR>
-6.33726

>  <SCORE.INTER.ROT>
6

>  <SCORE.INTER.SOLV>
28.5796

>  <SCORE.INTER.VDW>
-28.2614

>  <SCORE.INTER.norm>
-1.51214

>  <SCORE.INTRA>
-19.068

>  <SCORE.INTRA.DIHEDRAL>
-22.5555

>  <SCORE.INTRA.DIHEDRAL.0>
44.2576

>  <SCORE.INTRA.POLAR>
-1.49756

>  <SCORE.INTRA.POLAR.0>
-0.381556

>  <SCORE.INTRA.REPUL>
0

>  <SCORE.INTRA.REPUL.0>
0

>  <SCORE.INTRA.SOLV>
0.735131

>  <SCORE.INTRA.SOLV.lig_0>
-134.592

>  <SCORE.INTRA.VDW>
-3.06611

>  <SCORE.INTRA.VDW.0>
-1.01417

>  <SCORE.INTRA.norm>
-0.595875

>  <SCORE.RESTR>
0.694522

>  <SCORE.RESTR.CAVITY>
0.694522

>  <SCORE.RESTR.norm>
0.0217038

>  <SCORE.SYSTEM>
0

>  <SCORE.SYSTEM.CONST>
0

>  <SCORE.SYSTEM.DIHEDRAL>
0

>  <SCORE.SYSTEM.SOLV>
0

>  <SCORE.SYSTEM.norm>
0

>  <SCORE.heavy>
32

>  <SCORE.norm>
-2.08632

>  <RMSD>
0.955

$$$$
1lc4
 OpenBabel02141814113D
libRbt.so/2013.1/901 2013/11/27
 32 34  0  0  0  0  0  0  0  0999 V2000
  -10.4126    5.5517   19.1383 C   0  0  2  0  0  0  0  0  0  0  0  0
  -11.5730    6.2663   19.4829 O   0  0  0  0  0  0  0  0  0  0  0  0
  -10.5795    4.0994   19.6303 C   0  0  2  0  0  0  0  0  0  0  0  0
  -11.7732    3.4928   19.0330 N   0  3  0  0  0  0  0  0  0  0  0  0
  -10.6423    4.0651   21.1754 C   0  0  0  0  0  0  0  0  0  0  0  0
   -9.3369    4.6834   21.7057 C   0  0  2  0  0  0  0  0  0  0  0  0
   -9.3083    4.6387   23.1362 O   0  0  0  0  0  0  0  0  0  0  0  0
   -9.2117    6.1373   21.1859 C   0  0  2  0  0  0  0  0  0  0  0  0
   -9.2436    6.1599   19.7304 O   0  0  0  0  0  0  0  0  0  0  0  0
   -7.9184    6.8272   21.6125 C   0  0  0  0  0  0  0  0  0  0  0  0
   -7.7419    6.7751   23.0876 N   0  3  0  0  0  0  0  0  0  0  0  0
  -13.8960    9.5919   18.2563 C   0  0  2  0  0  0  0  0  0  0  0  0
  -14.3155   10.8781   17.6702 N   0  3  0  0  0  0  0  0  0  0  0  0
  -12.8501    9.8322   19.3365 C   0  0  0  0  0  0  0  0  0  0  0  0
  -12.4028    8.5014   19.9514 C   0  0  2  0  0  0  0  0  0  0  0  0
  -11.4769    8.7915   21.0744 N   0  3  0  0  0  0  0  0  0  0  0  0
  -11.8143    7.5482   18.8686 C   0  0  2  0  0  0  0  0  0  0  0  0
  -12.8550    7.3475   17.7371 C   0  0  2  0  0  0  0  0  0  0  0  0
  -12.2664    6.6235   16.6838 O   0  0  0  0  0  0  0  0  0  0  0  0
  -13.3090    8.6999   17.1642 C   0  0  1  0  0  0  0  0  0  0  0  0
  -14.2874    8.4672   16.1516 O   0  0  0  0  0  0  0  0  0  0  0  0
  -14.3731    9.3963   15.1265 C   0  0  2  0  0  0  0  0  0  0  0  0
  -15.8384    9.4970   14.6693 C   0  0  2  0  0  0  0  0  0  0  0  0
  -16.6333    9.9007   15.7771 O   0  0  0  0  0  0  0  0  0  0  0  0
  -16.3094    8.1258   14.1540 C   0  0  1  0  0  0  0  0  0  0  0  0
  -17.7344    8.1565   13.7151 N   0  3  0  0  0  0  0  0  0  0  0  0
  -15.3908    7.6738   12.9926 C   0  0  2  0  0  0  0  0  0  0  0  0
  -15.7881    6.3922   12.5104 O   0  0  0  0  0  0  0  0  0  0  0  0
  -13.9222    7.6471   13.4555 C   0  0  2  0  0  0  0  0  0  0  0  0
  -13.5378    8.9504   14.0266 O   0  0  0  0  0  0  0  0  0  0  0  0
  -12.9698    7.3637   12.3151 C   0  0  0  0  0  0  0  0  0  0  0  0
  -13.1638    6.0560   11.7805 O   0  0  0  0  0  0  0  0  0  0  0  0
  1  2  1  1  0  0  0
  1  3  1  0  0  0  0
  1  9  1  0  0  0  0
  3  4  1  6  0  0  0
  3  5  1  0  0  0  0
  5  6  1  0  0  0  0
  6  7  1  1  0  0  0
  6  8  1  0  0  0  0
  8  9  1  0  0  0  0
  8 10  1  6  0  0  0
 10 11  1  0  0  0  0
 12 13  1  6  0  0  0
 12 14  1  0  0  0  0
 12 20  1  0  0  0  0
 14 15  1  0  0  0  0
 15 16  1  1  0  0  0
 15 17  1  0  0  0  0
 17  2  1  1  0  0  0
 17 18  1  0  0  0  0
 18 19  1  6  0  0  0
 18 20  1  0  0  0  0
 20 21  1  6  0  0  0
 22 21  1  1  0  0  0
 22 23  1  0  0  0  0
 22 30  1  0  0  0  0
 23 24  1  1  0  0  0
 23 25  1  0  0  0  0
 25 26  1  6  0  0  0
 25 27  1  0  0  0  0
 27 28  1  1  0  0  0
 27 29  1  0  0  0  0
 29 30  1  0  0  0  0
 29 31  1  6  0  0  0
 31 32  1  0  0  0  0
M  CHG  5   4   1  11   1  13   1  16   1  26   1
M  END
>  <CHROM.1>
-165.36897112,-140.62260556,65.58608602,33.82060477,-54.14940383,-179.03589009
-173.15563986,96.11056848,-54.16558425,87.15139447,-146.98161227,-70.53870773
179.57829262,68.19922149,-64.86580132,-175.04550588,-12.60523260,7.30436433
17.56623078,-0.43033145,0.87569436,-2.29513005

>  <Name>
1lc4

>  <RI>
0

>  <Rbt.Current_Directory>
/home/afrankz/demos/rdock_decoys_rna/rnas/1lc4

>  <Rbt.Executable>
rbdock ($Id: //depot/dev/client3/rdock/2013.1/src/exe/rbdock.cxx#4 $)

>  <Rbt.Library>
libRbt.so (2013.1, Build901 2013/11/27)

>  <Rbt.Parameter_File>
/export/apps/rDock/src/rDock_2013.1_src/data/scripts/dock_solv.prm

>  <Rbt.Receptor>
prm/pocket_docking_2.prm

>  <SCORE>
-62.4735

>  <SCORE.INTER>
-47.2721

>  <SCORE.INTER.CONST>
1

>  <SCORE.INTER.POLAR>
-5.98061

>  <SCORE.INTER.ROT>
6

>  <SCORE.INTER.SOLV>
21.4243

>  <SCORE.INTER.VDW>
-26.3208

>  <SCORE.INTER.norm>
-1.47725

>  <SCORE.INTRA>
-15.2014

>  <SCORE.INTRA.DIHEDRAL>
-23.8804

>  <SCORE.INTRA.DIHEDRAL.0>
44.2576

>  <SCORE.INTRA.POLAR>
-0.541518

>  <SCORE.INTRA.POLAR.0>
-0.381556

>  <SCORE.INTRA.REPUL>
0

>  <SCORE.INTRA.REPUL.0>
0

>  <SCORE.INTRA.SOLV>
1.83106

>  <SCORE.INTRA.SOLV.lig_0>
-134.592

>  <SCORE.INTRA.VDW>
-2.33555

>  <SCORE.INTRA.VDW.0>
-1.01417

>  <SCORE.INTRA.norm>
-0.475044

>  <SCORE.RESTR>
0

>  <SCORE.RESTR.CAVITY>
0

>  <SCORE.RESTR.norm>
0

>  <SCORE.SYSTEM>
0

>  <SCORE.SYSTEM.CONST>
0

>  <SCORE.SYSTEM.DIHEDRAL>
0

>  <SCORE.SYSTEM.SOLV>
0

>  <SCORE.SYSTEM.norm>
0

>  <SCORE.heavy>
32

>  <SCORE.norm>
-1.9523

>  <RMSD>
0.969

$$$$
1lc4
 OpenBabel02141814113D
libRbt.so/2013.1/901 2013/11/27
 32 34  0  0  0  0  0  0  0  0999 V2000
   -9.9910    5.7865   19.7103 C   0  0  2  0  0  0  0  0  0  0  0  0
  -11.1012    6.5362   20.1363 O   0  0  0  0  0  0  0  0  0  0  0  0
  -10.1100    4.3701   20.3091 C   0  0  2  0  0  0  0  0  0  0  0  0
  -11.3667    3.7428   19.8887 N   0  3  0  0  0  0  0  0  0  0  0  0
   -9.9991    4.4331   21.8507 C   0  0  0  0  0  0  0  0  0  0  0  0
   -8.6388    5.0666   22.1914 C   0  0  2  0  0  0  0  0  0  0  0  0
   -8.4501    5.1109   23.6097 O   0  0  0  0  0  0  0  0  0  0  0  0
   -8.5644    6.4834   21.5696 C   0  0  2  0  0  0  0  0  0  0  0  0
   -8.7594    6.4155   20.1283 O   0  0  0  0  0  0  0  0  0  0  0  0
   -7.2274    7.1819   21.8044 C   0  0  0  0  0  0  0  0  0  0  0  0
   -7.3684    8.6589   21.7133 N   0  3  0  0  0  0  0  0  0  0  0  0
  -13.4016    9.9299   19.0634 C   0  0  2  0  0  0  0  0  0  0  0  0
  -13.8200   11.2303   18.5086 N   0  3  0  0  0  0  0  0  0  0  0  0
  -12.2878   10.1357   20.0810 C   0  0  0  0  0  0  0  0  0  0  0  0
  -11.8412    8.7898   20.6627 C   0  0  2  0  0  0  0  0  0  0  0  0
  -10.8433    9.0485   21.7302 N   0  3  0  0  0  0  0  0  0  0  0  0
  -11.3435    7.8277   19.5429 C   0  0  2  0  0  0  0  0  0  0  0  0
  -12.4541    7.6615   18.4739 C   0  0  2  0  0  0  0  0  0  0  0  0
  -11.9484    6.9283   17.3846 O   0  0  0  0  0  0  0  0  0  0  0  0
  -12.9043    9.0289   17.9347 C   0  0  1  0  0  0  0  0  0  0  0  0
  -13.9466    8.8286   16.9807 O   0  0  0  0  0  0  0  0  0  0  0  0
  -13.5929    8.8488   15.6406 C   0  0  2  0  0  0  0  0  0  0  0  0
  -14.6163    9.7002   14.8700 C   0  0  2  0  0  0  0  0  0  0  0  0
  -14.6096   11.0164   15.4084 O   0  0  0  0  0  0  0  0  0  0  0  0
  -16.0155    9.0772   15.0176 C   0  0  1  0  0  0  0  0  0  0  0  0
  -17.0566    9.8740   14.3067 N   0  3  0  0  0  0  0  0  0  0  0  0
  -15.9853    7.6229   14.4873 C   0  0  2  0  0  0  0  0  0  0  0  0
  -17.2642    7.0102   14.6347 O   0  0  0  0  0  0  0  0  0  0  0  0
  -14.9064    6.8096   15.2262 C   0  0  2  0  0  0  0  0  0  0  0  0
  -13.6001    7.4869   15.1392 O   0  0  0  0  0  0  0  0  0  0  0  0
  -14.7302    5.4277   14.6369 C   0  0  0  0  0  0  0  0  0  0  0  0
  -14.2366    5.4850   13.3004 O   0  0  0  0  0  0  0  0  0  0  0  0
  1  2  1  1  0  0  0
  1  3  1  0  0  0  0
  1  9  1  0  0  0  0
  3  4  1  1  0  0  0
  3  5  1  0  0  0  0
  5  6  1  0  0  0  0
  6  7  1  1  0  0  0
  6  8  1  0  0  0  0
  8  9  1  0  0  0  0
  8 10  1  6  0  0  0
 10 11  1  0  0  0  0
 12 13  1  6  0  0  0
 12 14  1  0  0  0  0
 12 20  1  0  0  0  0
 14 15  1  0  0  0  0
 15 16  1  1  0  0  0
 15 17  1  0  0  0  0
 17  2  1  1  0  0  0
 17 18  1  0  0  0  0
 18 19  1  6  0  0  0
 18 20  1  0  0  0  0
 20 21  1  6  0  0  0
 22 21  1  1  0  0  0
 22 23  1  0  0  0  0
 22 30  1  0  0  0  0
 23 24  1  1  0  0  0
 23 25  1  0  0  0  0
 25 26  1  6  0  0  0
 25 27  1  0  0  0  0
 27 28  1  1  0  0  0
 27 29  1  0  0  0  0
 29 30  1  0  0  0  0
 29 31  1  6  0  0  0
 31 32  1  0  0  0  0
M  CHG  5   4   1  11   1  13   1  16   1  26   1
M  END
>  <CHROM.1>
-170.06622050,-141.30379100,60.81120133,55.32396150,-156.58747335,-73.71219068
-48.41764174,179.09298648,-58.91748465,139.25899284,-135.03303540,54.88425892
-32.66186424,64.04058228,64.72609420,-177.64537174,-12.29501709,7.56221859
18.29113397,0.00998887,0.83766064,-2.85480757

>  <Name>
1lc4

>  <RI>
0

>  <Rbt.Current_Directory>
/home/afrankz/demos/rdock_decoys_rna/rnas/1lc4

>  <Rbt.Executable>
rbdock ($Id: //depot/dev/client3/rdock/2013.1/src/exe/rbdock.cxx#4 $)

>  <Rbt.Library>
libRbt.so (2013.1, Build901 2013/11/27)

>  <Rbt.Parameter_File>
/export/apps/rDock/src/rDock_2013.1_src/data/scripts/dock_solv.prm

>  <Rbt.Receptor>
prm/pocket_docking_5.prm

>  <SCORE>
-71.8673

>  <SCORE.INTER>
-58.1081

>  <SCORE.INTER.CONST>
1

>  <SCORE.INTER.POLAR>
-8.28525

>  <SCORE.INTER.ROT>
6

>  <SCORE.INTER.SOLV>
31.3384

>  <SCORE.INTER.VDW>
-29.1674

>  <SCORE.INTER.norm>
-1.81588

>  <SCORE.INTRA>
-13.7591

>  <SCORE.INTRA.DIHEDRAL>
-22.3523

>  <SCORE.INTRA.DIHEDRAL.0>
44.2576

>  <SCORE.INTRA.POLAR>
0.362357

>  <SCORE.INTRA.POLAR.0>
-0.381556

>  <SCORE.INTRA.REPUL>
0

>  <SCORE.INTRA.REPUL.0>
0

>  <SCORE.INTRA.SOLV>
2.05056

>  <SCORE.INTRA.SOLV.lig_0>
-134.592

>  <SCORE.INTRA.VDW>
-4.84026

>  <SCORE.INTRA.VDW.0>
-1.01417

>  <SCORE.INTRA.norm>
-0.429973

>  <SCORE.RESTR>
0

>  <SCORE.RESTR.CAVITY>
0

>  <SCORE.RESTR.norm>
0

>  <SCORE.SYSTEM>
0

>  <SCORE.SYSTEM.CONST>
0

>  <SCORE.SYSTEM.DIHEDRAL>
0

>  <SCORE.SYSTEM.SOLV>
0

>  <SCORE.SYSTEM.norm>
0

>  <SCORE.heavy>
32

>  <SCORE.norm>
-2.24585

>  <RMSD>
0.973

$$$$
1lc4
 OpenBabel02141814113D
libRbt.so/2013.1/901 2013/11/27
 32 34  0  0  0  0  0  0  0  0999 V2000
  -10.0008    5.7715   19.6944 C   0  0  2  0  0  0  0  0  0  0  0  0
  -11.0490    6.5670   20.1886 O   0  0  0  0  0  0  0  0  0  0  0  0
  -10.1838    4.3416   20.2429 C   0  0  2  0  0  0  0  0  0  0  0  0
  -11.4894    3.8061   19.8449 N   0  3  0  0  0  0  0  0  0  0  0  0
  -10.0169    4.3362   21.7807 C   0  0  0  0  0  0  0  0  0  0  0  0
   -8.6104    4.8750   22.0955 C   0  0  2  0  0  0  0  0  0  0  0  0
   -8.3711    4.8514   23.5067 O   0  0  0  0  0  0  0  0  0  0  0  0
   -8.4726    6.3088   21.5257 C   0  0  2  0  0  0  0  0  0  0  0  0
   -8.7203    6.3102   20.0908 O   0  0  0  0  0  0  0  0  0  0  0  0
   -7.0890    6.9180   21.7381 C   0  0  0  0  0  0  0  0  0  0  0  0
   -7.1208    8.3954   21.5762 N   0  3  0  0  0  0  0  0  0  0  0  0
  -13.5123    9.7773   18.9289 C   0  0  2  0  0  0  0  0  0  0  0  0
  -13.9919   11.0254   18.3076 N   0  3  0  0  0  0  0  0  0  0  0  0
  -12.4246   10.0909   19.9471 C   0  0  0  0  0  0  0  0  0  0  0  0
  -11.9148    8.8001   20.5978 C   0  0  2  0  0  0  0  0  0  0  0  0
  -10.9462    9.1625   21.6622 N   0  3  0  0  0  0  0  0  0  0  0  0
  -11.3518    7.8139   19.5311 C   0  0  2  0  0  0  0  0  0  0  0  0
  -12.4378    7.5377   18.4596 C   0  0  2  0  0  0  0  0  0  0  0  0
  -11.8794    6.7817   17.4123 O   0  0  0  0  0  0  0  0  0  0  0  0
  -12.9529    8.8517   17.8502 C   0  0  1  0  0  0  0  0  0  0  0  0
  -13.9704    8.5504   16.8959 O   0  0  0  0  0  0  0  0  0  0  0  0
  -13.6244    8.6214   15.5556 C   0  0  2  0  0  0  0  0  0  0  0  0
  -14.6196    9.5465   14.8345 C   0  0  2  0  0  0  0  0  0  0  0  0
  -14.5598   10.8342   15.4347 O   0  0  0  0  0  0  0  0  0  0  0  0
  -16.0404    8.9699   14.9634 C   0  0  1  0  0  0  0  0  0  0  0  0
  -17.0549    9.8383   14.2995 N   0  3  0  0  0  0  0  0  0  0  0  0
  -16.0684    7.5426   14.3644 C   0  0  2  0  0  0  0  0  0  0  0  0
  -17.3687    6.9719   14.4926 O   0  0  0  0  0  0  0  0  0  0  0  0
  -15.0166    6.6550   15.0553 C   0  0  2  0  0  0  0  0  0  0  0  0
  -13.6862    7.2862   14.9902 O   0  0  0  0  0  0  0  0  0  0  0  0
  -14.8965    5.2972   14.3996 C   0  0  0  0  0  0  0  0  0  0  0  0
  -14.4144    5.4002   13.0616 O   0  0  0  0  0  0  0  0  0  0  0  0
  1  2  1  1  0  0  0
  1  3  1  0  0  0  0
  1  9  1  0  0  0  0
  3  4  1  1  0  0  0
  3  5  1  0  0  0  0
  5  6  1  0  0  0  0
  6  7  1  1  0  0  0
  6  8  1  0  0  0  0
  8  9  1  0  0  0  0
  8 10  1  6  0  0  0
 10 11  1  0  0  0  0
 12 13  1  6  0  0  0
 12 14  1  0  0  0  0
 12 20  1  0  0  0  0
 14 15  1  0  0  0  0
 15 16  1  1  0  0  0
 15 17  1  0  0  0  0
 17  2  1  1  0  0  0
 17 18  1  0  0  0  0
 18 19  1  6  0  0  0
 18 20  1  0  0  0  0
 20 21  1  6  0  0  0
 22 21  1  1  0  0  0
 22 23  1  0  0  0  0
 22 30  1  0  0  0  0
 23 24  1  1  0  0  0
 23 25  1  0  0  0  0
 25 26  1  6  0  0  0
 25 27  1  0  0  0  0
 27 28  1  1  0  0  0
 27 29  1  0  0  0  0
 29 30  1  0  0  0  0
 29 31  1  6  0  0  0
 31 32  1  0  0  0  0
M  CHG  5   4   1  11   1  13   1  16   1  26   1
M  END
>  <CHROM.1>
-161.51792399,-149.70839101,-51.56311926,178.30600401,-162.14846824,-65.48354548
-63.67152525,-60.51182385,179.83337769,134.67622681,-126.46043418,60.06524910
89.00491659,61.42508274,64.48919505,-62.90488804,-12.32419166,7.45132146
18.20755025,-0.00978624,0.82786826,-2.83481676

>  <Name>
1lc4

>  <RI>
0

>  <Rbt.Current_Directory>
/home/afrankz/demos/rdock_decoys_rna/rnas/1lc4

>  <Rbt.Executable>
rbdock ($Id: //depot/dev/client3/rdock/2013.1/src/exe/rbdock.cxx#4 $)

>  <Rbt.Library>
libRbt.so (2013.1, Build901 2013/11/27)

>  <Rbt.Parameter_File>
/export/apps/rDock/src/rDock_2013.1_src/data/scripts/dock_solv.prm

>  <Rbt.Receptor>
prm/pocket_docking_5.prm

>  <SCORE>
-75.5516

>  <SCORE.INTER>
-56.6384

>  <SCORE.INTER.CONST>
1

>  <SCORE.INTER.POLAR>
-8.28549

>  <SCORE.INTER.ROT>
6

>  <SCORE.INTER.SOLV>
31.3214

>  <SCORE.INTER.VDW>
-28.1811

>  <SCORE.INTER.norm>
-1.76995

>  <SCORE.INTRA>
-18.9132

>  <SCORE.INTRA.DIHEDRAL>
-22.5745

>  <SCORE.INTRA.DIHEDRAL.0>
44.2576

>  <SCORE.INTRA.POLAR>
-0.963234

>  <SCORE.INTRA.POLAR.0>
-0.381556

>  <SCORE.INTRA.REPUL>
0

>  <SCORE.INTRA.REPUL.0>
0

>  <SCORE.INTRA.SOLV>
0.575196

>  <SCORE.INTRA.SOLV.lig_0>
-134.592

>  <SCORE.INTRA.VDW>
-4.63853

>  <SCORE.INTRA.VDW.0>
-1.01417

>  <SCORE.INTRA.norm>
-0.591037

>  <SCORE.RESTR>
0

>  <SCORE.RESTR.CAVITY>
0

>  <SCORE.RESTR.norm>
0

>  <SCORE.SYSTEM>
0

>  <SCORE.SYSTEM.CONST>
0

>  <SCORE.SYSTEM.DIHEDRAL>
0

>  <SCORE.SYSTEM.SOLV>
0

>  <SCORE.SYSTEM.norm>
0

>  <SCORE.heavy>
32

>  <SCORE.norm>
-2.36099

>  <RMSD>
0.980

$$$$
1lc4
 OpenBabel02141814113D
libRbt.so/2013.1/901 2013/11/27
 32 34  0  0  0  0  0  0  0  0999 V2000
  -10.1375    5.6899   19.6644 C   0  0  2  0  0  0  0  0  0  0  0  0
  -11.1649    6.5192   20.1469 O   0  0  0  0  0  0  0  0  0  0  0  0
  -10.3513    4.2757   20.2416 C   0  0  2  0  0  0  0  0  0  0  0  0
  -11.6706    3.7630   19.8592 N   0  3  0  0  0  0  0  0  0  0  0  0
  -10.1780    4.2965   21.7785 C   0  0  0  0  0  0  0  0  0  0  0  0
   -8.7580    4.8084   22.0774 C   0  0  2  0  0  0  0  0  0  0  0  0
   -8.5133    4.8069   23.4878 O   0  0  0  0  0  0  0  0  0  0  0  0
   -8.5894    6.2272   21.4790 C   0  0  2  0  0  0  0  0  0  0  0  0
   -8.8431    6.2063   20.0453 O   0  0  0  0  0  0  0  0  0  0  0  0
   -7.1912    6.8081   21.6741 C   0  0  0  0  0  0  0  0  0  0  0  0
   -7.1826    8.2775   21.4490 N   0  3  0  0  0  0  0  0  0  0  0  0
  -13.5665    9.7508   18.8245 C   0  0  2  0  0  0  0  0  0  0  0  0
  -14.0226   10.9949   18.1779 N   0  3  0  0  0  0  0  0  0  0  0  0
  -12.4700   10.0640   19.8335 C   0  0  0  0  0  0  0  0  0  0  0  0
  -11.9845    8.7774   20.5103 C   0  0  2  0  0  0  0  0  0  0  0  0
  -11.0059    9.1428   21.5646 N   0  3  0  0  0  0  0  0  0  0  0  0
  -11.4443    7.7576   19.4636 C   0  0  2  0  0  0  0  0  0  0  0  0
  -12.5384    7.4805   18.4007 C   0  0  2  0  0  0  0  0  0  0  0  0
  -11.9982    6.6914   17.3685 O   0  0  0  0  0  0  0  0  0  0  0  0
  -13.0287    8.7914   17.7646 C   0  0  1  0  0  0  0  0  0  0  0  0
  -14.0546    8.4905   16.8193 O   0  0  0  0  0  0  0  0  0  0  0  0
  -13.7346    8.6102   15.4759 C   0  0  2  0  0  0  0  0  0  0  0  0
  -14.8929    9.3166   14.7510 C   0  0  2  0  0  0  0  0  0  0  0  0
  -15.0804   10.5990   15.3361 O   0  0  0  0  0  0  0  0  0  0  0  0
  -16.1750    8.4782   14.8960 C   0  0  1  0  0  0  0  0  0  0  0  0
  -17.3410    9.1258   14.2289 N   0  3  0  0  0  0  0  0  0  0  0  0
  -15.9293    7.0649   14.3134 C   0  0  2  0  0  0  0  0  0  0  0  0
  -17.0942    6.2555   14.4568 O   0  0  0  0  0  0  0  0  0  0  0  0
  -14.7228    6.4059   15.0073 C   0  0  2  0  0  0  0  0  0  0  0  0
  -13.5397    7.2813   14.9262 O   0  0  0  0  0  0  0  0  0  0  0  0
  -14.3455    5.0888   14.3664 C   0  0  0  0  0  0  0  0  0  0  0  0
  -13.2276    4.4885   15.0170 O   0  0  0  0  0  0  0  0  0  0  0  0
  1  2  1  1  0  0  0
  1  3  1  0  0  0  0
  1  9  1  0  0  0  0
  3  4  1  1  0  0  0
  3  5  1  0  0  0  0
  5  6  1  0  0  0  0
  6  7  1  1  0  0  0
  6  8  1  0  0  0  0
  8  9  1  0  0  0  0
  8 10  1  6  0  0  0
 10 11  1  0  0  0  0
 12 13  1  6  0  0  0
 12 14  1  0  0  0  0
 12 20  1  0  0  0  0
 14 15  1  0  0  0  0
 15 16  1  1  0  0  0
 15 17  1  0  0  0  0
 17  2  1  1  0  0  0
 17 18  1  0  0  0  0
 18 19  1  6  0  0  0
 18 20  1  0  0  0  0
 20 21  1  6  0  0  0
 22 21  1  1  0  0  0
 22 23  1  0  0  0  0
 22 30  1  0  0  0  0
 23 24  1  1  0  0  0
 23 25  1  0  0  0  0
 25 26  1  6  0  0  0
 25 27  1  0  0  0  0
 27 28  1  1  0  0  0
 27 29  1  0  0  0  0
 29 30  1  0  0  0  0
 29 31  1  6  0  0  0
 31 32  1  0  0  0  0
M  CHG  5   4   1  11   1  13   1  16   1  26   1
M  END
>  <CHROM.1>
-161.32046803,-149.94568240,53.44383973,-58.39068528,-163.60869360,173.64533791
-66.90535412,-60.96469907,179.78165799,130.60188503,-136.35501295,161.89220775
-54.68984011,-59.19637144,179.99025835,176.21382649,-12.35376510,7.26909533
18.22200255,0.00075406,0.82162531,-2.85386026

>  <Name>
1lc4

>  <RI>
0

>  <Rbt.Current_Directory>
/home/afrankz/demos/rdock_decoys_rna/rnas/1lc4

>  <Rbt.Executable>
rbdock ($Id: //depot/dev/client3/rdock/2013.1/src/exe/rbdock.cxx#4 $)

>  <Rbt.Library>
libRbt.so (2013.1, Build901 2013/11/27)

>  <Rbt.Parameter_File>
/export/apps/rDock/src/rDock_2013.1_src/data/scripts/dock_solv.prm

>  <Rbt.Receptor>
prm/pocket_docking_4.prm

>  <SCORE>
-77.9379

>  <SCORE.INTER>
-57.3642

>  <SCORE.INTER.CONST>
1

>  <SCORE.INTER.POLAR>
-8.51836

>  <SCORE.INTER.ROT>
6

>  <SCORE.INTER.SOLV>
29.088

>  <SCORE.INTER.VDW>
-27.1443

>  <SCORE.INTER.norm>
-1.79263

>  <SCORE.INTRA>
-20.5737

>  <SCORE.INTRA.DIHEDRAL>
-23.4552

>  <SCORE.INTRA.DIHEDRAL.0>
44.2576

>  <SCORE.INTRA.POLAR>
-1.12084

>  <SCORE.INTRA.POLAR.0>
-0.381556

>  <SCORE.INTRA.REPUL>
0

>  <SCORE.INTRA.REPUL.0>
0

>  <SCORE.INTRA.SOLV>
-0.0604689

>  <SCORE.INTRA.SOLV.lig_0>
-134.592

>  <SCORE.INTRA.VDW>
-5.00498

>  <SCORE.INTRA.VDW.0>
-1.01417

>  <SCORE.INTRA.norm>
-0.642927

>  <SCORE.RESTR>
0

>  <SCORE.RESTR.CAVITY>
0

>  <SCORE.RESTR.norm>
0

>  <SCORE.SYSTEM>
0

>  <SCORE.SYSTEM.CONST>
0

>  <SCORE.SYSTEM.DIHEDRAL>
0

>  <SCORE.SYSTEM.SOLV>
0

>  <SCORE.SYSTEM.norm>
0

>  <SCORE.heavy>
32

>  <SCORE.norm>
-2.43556

>  <RMSD>
0.981

$$$$
1lc4
 OpenBabel02141814113D
libRbt.so/2013.1/901 2013/11/27
 32 34  0  0  0  0  0  0  0  0999 V2000
  -10.3855    6.0834   19.2885 C   0  0  2  0  0  0  0  0  0  0  0  0
  -11.4948    6.8293   19.7237 O   0  0  0  0  0  0  0  0  0  0  0  0
  -10.4901    4.6693   19.8954 C   0  0  2  0  0  0  0  0  0  0  0  0
  -11.7482    4.0333   19.4923 N   0  3  0  0  0  0  0  0  0  0  0  0
  -10.3619    4.7403   21.4352 C   0  0  0  0  0  0  0  0  0  0  0  0
   -9.0012    5.3825   21.7573 C   0  0  2  0  0  0  0  0  0  0  0  0
   -8.7965    5.4347   23.1731 O   0  0  0  0  0  0  0  0  0  0  0  0
   -8.9415    6.7967   21.1280 C   0  0  2  0  0  0  0  0  0  0  0  0
   -9.1526    6.7209   19.6893 O   0  0  0  0  0  0  0  0  0  0  0  0
   -7.6056    7.5034   21.3442 C   0  0  0  0  0  0  0  0  0  0  0  0
   -7.8031    8.9418   21.6631 N   0  3  0  0  0  0  0  0  0  0  0  0
  -14.1590    9.6399   18.0026 C   0  0  2  0  0  0  0  0  0  0  0  0
  -14.7068   10.8062   17.2859 N   0  3  0  0  0  0  0  0  0  0  0  0
  -13.3226   10.1061   19.1864 C   0  0  0  0  0  0  0  0  0  0  0  0
  -12.7441    8.9021   19.9380 C   0  0  2  0  0  0  0  0  0  0  0  0
  -12.0390    9.3982   21.1460 N   0  3  0  0  0  0  0  0  0  0  0  0
  -11.8640    8.0213   19.0016 C   0  0  2  0  0  0  0  0  0  0  0  0
  -12.6951    7.5927   17.7649 C   0  0  2  0  0  0  0  0  0  0  0  0
  -11.8574    6.9386   16.8427 O   0  0  0  0  0  0  0  0  0  0  0  0
  -13.2894    8.8186   17.0527 C   0  0  1  0  0  0  0  0  0  0  0  0
  -14.0703    8.3747   15.9437 O   0  0  0  0  0  0  0  0  0  0  0  0
  -13.7075    8.8347   14.6875 C   0  0  2  0  0  0  0  0  0  0  0  0
  -14.9308    8.7567   13.7581 C   0  0  2  0  0  0  0  0  0  0  0  0
  -15.9684    9.5611   14.3044 O   0  0  0  0  0  0  0  0  0  0  0  0
  -15.3987    7.2949   13.6492 C   0  0  1  0  0  0  0  0  0  0  0  0
  -16.5993    7.1593   12.7749 N   0  3  0  0  0  0  0  0  0  0  0  0
  -14.2346    6.4246   13.1158 C   0  0  2  0  0  0  0  0  0  0  0  0
  -14.6314    5.0580   13.0280 O   0  0  0  0  0  0  0  0  0  0  0  0
  -13.0000    6.5731   14.0243 C   0  0  2  0  0  0  0  0  0  0  0  0
  -12.6401    7.9943   14.1771 O   0  0  0  0  0  0  0  0  0  0  0  0
  -11.7879    5.8662   13.4595 C   0  0  0  0  0  0  0  0  0  0  0  0
  -10.9885    5.2887   14.4894 O   0  0  0  0  0  0  0  0  0  0  0  0
  1  2  1  1  0  0  0
  1  3  1  0  0  0  0
  1  9  1  0  0  0  0
  3  4  1  1  0  0  0
  3  5  1  0  0  0  0
  5  6  1  0  0  0  0
  6  7  1  1  0  0  0
  6  8  1  0  0  0  0
  8  9  1  0  0  0  0
  8 10  1  6  0  0  0
 10 11  1  0  0  0  0
 12 13  1  6  0  0  0
 12 14  1  0  0  0  0
 12 20  1  0  0  0  0
 14 15  1  0  0  0  0
 15 16  1  1  0  0  0
 15 17  1  0  0  0  0
 17  2  1  1  0  0  0
 17 18  1  0  0  0  0
 18 19  1  6  0  0  0
 18 20  1  0  0  0  0
 20 21  1  6  0  0  0
 22 21  1  1  0  0  0
 22 23  1  0  0  0  0
 22 30  1  0  0  0  0
 23 24  1  1  0  0  0
 23 25  1  0  0  0  0
 25 26  1  6  0  0  0
 25 27  1  0  0  0  0
 27 28  1  1  0  0  0
 27 29  1  0  0  0  0
 29 30  1  0  0  0  0
 29 31  1  6  0  0  0
 31 32  1  0  0  0  0
M  CHG  5   4   1  11   1  13   1  16   1  26   1
M  END
>  <CHROM.1>
-161.24024695,-160.00935514,64.51290527,-63.32649943,-139.16196071,72.44768284
45.93831683,46.76414379,-53.53343639,116.94149635,-156.66597977,70.83496994
105.09460972,174.17229280,-144.10347533,-43.82945424,-12.20689860,7.33387368
17.56361223,-0.53716742,0.84576596,-2.33764043

>  <Name>
1lc4

>  <RI>
0

>  <Rbt.Current_Directory>
/home/afrankz/demos/rdock_decoys_rna/rnas/1lc4

>  <Rbt.Executable>
rbdock ($Id: //depot/dev/client3/rdock/2013.1/src/exe/rbdock.cxx#4 $)

>  <Rbt.Library>
libRbt.so (2013.1, Build901 2013/11/27)

>  <Rbt.Parameter_File>
/export/apps/rDock/src/rDock_2013.1_src/data/scripts/dock_solv.prm

>  <Rbt.Receptor>
prm/pocket_docking_4.prm

>  <SCORE>
-72.9164

>  <SCORE.INTER>
-56.8453

>  <SCORE.INTER.CONST>
1

>  <SCORE.INTER.POLAR>
-8.49485

>  <SCORE.INTER.ROT>
6

>  <SCORE.INTER.SOLV>
23.4011

>  <SCORE.INTER.VDW>
-24.981

>  <SCORE.INTER.norm>
-1.77641

>  <SCORE.INTRA>
-16.0712

>  <SCORE.INTRA.DIHEDRAL>
-17.1827

>  <SCORE.INTRA.DIHEDRAL.0>
44.2576

>  <SCORE.INTRA.POLAR>
-0.59315

>  <SCORE.INTRA.POLAR.0>
-0.381556

>  <SCORE.INTRA.REPUL>
0

>  <SCORE.INTRA.REPUL.0>
0

>  <SCORE.INTRA.SOLV>
-3.19179

>  <SCORE.INTRA.SOLV.lig_0>
-134.592

>  <SCORE.INTRA.VDW>
-3.86725

>  <SCORE.INTRA.VDW.0>
-1.01417

>  <SCORE.INTRA.norm>
-0.502224

>  <SCORE.RESTR>
0

>  <SCORE.RESTR.CAVITY>
0

>  <SCORE.RESTR.norm>
0

>  <SCORE.SYSTEM>
0

>  <SCORE.SYSTEM.CONST>
0

>  <SCORE.SYSTEM.DIHEDRAL>
0

>  <SCORE.SYSTEM.SOLV>
0

>  <SCORE.SYSTEM.norm>
0

>  <SCORE.heavy>
32

>  <SCORE.norm>
-2.27864

>  <RMSD>
1.002

$$$$
1lc4
 OpenBabel02141814113D
libRbt.so/2013.1/901 2013/11/27
 32 34  0  0  0  0  0  0  0  0999 V2000
  -10.0202    5.7536   19.7048 C   0  0  2  0  0  0  0  0  0  0  0  0
  -11.0686    6.5544   20.1900 O   0  0  0  0  0  0  0  0  0  0  0  0
  -10.2185    4.3232   20.2466 C   0  0  2  0  0  0  0  0  0  0  0  0
  -11.5231    3.7975   19.8325 N   0  3  0  0  0  0  0  0  0  0  0  0
  -10.0686    4.3118   21.7860 C   0  0  0  0  0  0  0  0  0  0  0  0
   -8.6621    4.8403   22.1181 C   0  0  2  0  0  0  0  0  0  0  0  0
   -8.4386    4.8106   23.5317 O   0  0  0  0  0  0  0  0  0  0  0  0
   -8.5088    6.2750   21.5545 C   0  0  2  0  0  0  0  0  0  0  0  0
   -8.7406    6.2826   20.1170 O   0  0  0  0  0  0  0  0  0  0  0  0
   -7.1236    6.8745   21.7840 C   0  0  0  0  0  0  0  0  0  0  0  0
   -7.1174    8.3356   21.5101 N   0  3  0  0  0  0  0  0  0  0  0  0
  -13.4968    9.7781   18.8973 C   0  0  2  0  0  0  0  0  0  0  0  0
  -13.9598   11.0319   18.2746 N   0  3  0  0  0  0  0  0  0  0  0  0
  -12.4332   10.0821   19.9436 C   0  0  0  0  0  0  0  0  0  0  0  0
  -11.9408    8.7856   20.5960 C   0  0  2  0  0  0  0  0  0  0  0  0
  -10.9973    9.1382   21.6860 N   0  3  0  0  0  0  0  0  0  0  0  0
  -11.3539    7.8068   19.5353 C   0  0  2  0  0  0  0  0  0  0  0  0
  -12.4145    7.5406   18.4362 C   0  0  2  0  0  0  0  0  0  0  0  0
  -11.8324    6.7920   17.3966 O   0  0  0  0  0  0  0  0  0  0  0  0
  -12.9132    8.8602   17.8251 C   0  0  1  0  0  0  0  0  0  0  0  0
  -13.9081    8.5679   16.8445 O   0  0  0  0  0  0  0  0  0  0  0  0
  -13.5484    8.7100   15.5135 C   0  0  2  0  0  0  0  0  0  0  0  0
  -14.5674    9.6300   14.8196 C   0  0  2  0  0  0  0  0  0  0  0  0
  -14.5616   10.8913   15.4761 O   0  0  0  0  0  0  0  0  0  0  0  0
  -15.9680    8.9982   14.9035 C   0  0  1  0  0  0  0  0  0  0  0  0
  -17.0049    9.8583   14.2640 N   0  3  0  0  0  0  0  0  0  0  0  0
  -15.9370    7.5985   14.2425 C   0  0  2  0  0  0  0  0  0  0  0  0
  -17.2172    6.9768   14.3277 O   0  0  0  0  0  0  0  0  0  0  0  0
  -14.8623    6.7193   14.9087 C   0  0  2  0  0  0  0  0  0  0  0  0
  -13.5549    7.3997   14.8897 O   0  0  0  0  0  0  0  0  0  0  0  0
  -14.6851    5.3969   14.1962 C   0  0  0  0  0  0  0  0  0  0  0  0
  -13.6254    4.6308   14.7651 O   0  0  0  0  0  0  0  0  0  0  0  0
  1  2  1  1  0  0  0
  1  3  1  0  0  0  0
  1  9  1  0  0  0  0
  3  4  1  1  0  0  0
  3  5  1  0  0  0  0
  5  6  1  0  0  0  0
  6  7  1  1  0  0  0
  6  8  1  0  0  0  0
  8  9  1  0  0  0  0
  8 10  1  6  0  0  0
 10 11  1  0  0  0  0
 12 13  1  6  0  0  0
 12 14  1  0  0  0  0
 12 20  1  0  0  0  0
 14 15  1  0  0  0  0
 15 16  1  1  0  0  0
 15 17  1  0  0  0  0
 17  2  1  1  0  0  0
 17 18  1  0  0  0  0
 18 19  1  6  0  0  0
 18 20  1  0  0  0  0
 20 21  1  6  0  0  0
 22 21  1  1  0  0  0
 22 23  1  0  0  0  0
 22 30  1  0  0  0  0
 23 24  1  1  0  0  0
 23 25  1  0  0  0  0
 25 26  1  6  0  0  0
 25 27  1  0  0  0  0
 27 28  1  1  0  0  0
 27 29  1  0  0  0  0
 29 30  1  0  0  0  0
 29 31  1  6  0  0  0
 31 32  1  0  0  0  0
M  CHG  5   4   1  11   1  13   1  16   1  26   1
M  END
>  <CHROM.1>
-161.66315580,-150.45794155,58.07071735,170.38014703,-167.14218871,-64.47795167
57.10055447,-179.77556578,-177.35687251,131.70309654,-126.58877152,62.36376038
-27.14697404,-55.07254565,175.97960673,-178.49393453,-12.26902159,7.42743350
18.24362126,0.03062918,0.83459602,-2.85745003

>  <Name>
1lc4

>  <RI>
0

>  <Rbt.Current_Directory>
/home/afrankz/demos/rdock_decoys_rna/rnas/1lc4

>  <Rbt.Executable>
rbdock ($Id: //depot/dev/client3/rdock/2013.1/src/exe/rbdock.cxx#4 $)

>  <Rbt.Library>
libRbt.so (2013.1, Build901 2013/11/27)

>  <Rbt.Parameter_File>
/export/apps/rDock/src/rDock_2013.1_src/data/scripts/dock_solv.prm

>  <Rbt.Receptor>
prm/pocket_docking_7.prm

>  <SCORE>
-75.2478

>  <SCORE.INTER>
-56.3089

>  <SCORE.INTER.CONST>
1

>  <SCORE.INTER.POLAR>
-8.24847

>  <SCORE.INTER.ROT>
6

>  <SCORE.INTER.SOLV>
32.1249

>  <SCORE.INTER.VDW>
-28.3527

>  <SCORE.INTER.norm>
-1.75965

>  <SCORE.INTRA>
-18.9389

>  <SCORE.INTRA.DIHEDRAL>
-22.1724

>  <SCORE.INTRA.DIHEDRAL.0>
44.2576

>  <SCORE.INTRA.POLAR>
-0.913678

>  <SCORE.INTRA.POLAR.0>
-0.381556

>  <SCORE.INTRA.REPUL>
0

>  <SCORE.INTRA.REPUL.0>
0

>  <SCORE.INTRA.SOLV>
-0.0687207

>  <SCORE.INTRA.SOLV.lig_0>
-134.592

>  <SCORE.INTRA.VDW>
-4.71185

>  <SCORE.INTRA.VDW.0>
-1.01417

>  <SCORE.INTRA.norm>
-0.591841

>  <SCORE.RESTR>
0

>  <SCORE.RESTR.CAVITY>
0

>  <SCORE.RESTR.norm>
0

>  <SCORE.SYSTEM>
0

>  <SCORE.SYSTEM.CONST>
0

>  <SCORE.SYSTEM.DIHEDRAL>
0

>  <SCORE.SYSTEM.SOLV>
0

>  <SCORE.SYSTEM.norm>
0

>  <SCORE.heavy>
32

>  <SCORE.norm>
-2.35149

>  <RMSD>
1.029

$$$$
1lc4
 OpenBabel02141814113D
libRbt.so/2013.1/901 2013/11/27
 32 34  0  0  0  0  0  0  0  0999 V2000
  -10.0980    5.7808   19.1348 C   0  0  2  0  0  0  0  0  0  0  0  0
  -11.4257    6.2306   19.2394 O   0  0  0  0  0  0  0  0  0  0  0  0
  -10.0665    4.2860   19.5134 C   0  0  2  0  0  0  0  0  0  0  0  0
  -10.9570    3.5192   18.6367 N   0  3  0  0  0  0  0  0  0  0  0  0
  -10.4478    4.1059   21.0016 C   0  0  0  0  0  0  0  0  0  0  0  0
   -9.4386    4.9111   21.8387 C   0  0  2  0  0  0  0  0  0  0  0  0
   -9.7060    4.7481   23.2355 O   0  0  0  0  0  0  0  0  0  0  0  0
   -9.5044    6.4021   21.4238 C   0  0  2  0  0  0  0  0  0  0  0  0
   -9.2303    6.5451   20.0009 O   0  0  0  0  0  0  0  0  0  0  0  0
   -8.4993    7.2841   22.1604 C   0  0  0  0  0  0  0  0  0  0  0  0
   -7.1983    7.3322   21.4430 N   0  3  0  0  0  0  0  0  0  0  0  0
  -14.0576    9.3343   18.0560 C   0  0  2  0  0  0  0  0  0  0  0  0
  -14.6039   10.5691   17.4637 N   0  3  0  0  0  0  0  0  0  0  0  0
  -12.9851    9.6818   19.0793 C   0  0  0  0  0  0  0  0  0  0  0  0
  -12.4064    8.4054   19.7000 C   0  0  2  0  0  0  0  0  0  0  0  0
  -11.4552    8.7943   20.7708 N   0  3  0  0  0  0  0  0  0  0  0  0
  -11.7954    7.4742   18.6105 C   0  0  2  0  0  0  0  0  0  0  0  0
  -12.8683    7.1653   17.5348 C   0  0  2  0  0  0  0  0  0  0  0  0
  -12.2739    6.4633   16.4699 O   0  0  0  0  0  0  0  0  0  0  0  0
  -13.4534    8.4637   16.9560 C   0  0  1  0  0  0  0  0  0  0  0  0
  -14.4563    8.1308   15.9968 O   0  0  0  0  0  0  0  0  0  0  0  0
  -14.3192    8.6632   14.7244 C   0  0  2  0  0  0  0  0  0  0  0  0
  -15.7110    9.0502   14.1958 C   0  0  2  0  0  0  0  0  0  0  0  0
  -16.2825   10.0071   15.0789 O   0  0  0  0  0  0  0  0  0  0  0  0
  -16.6004    7.7963   14.1296 C   0  0  1  0  0  0  0  0  0  0  0  0
  -17.9737    8.1141   13.6426 N   0  3  0  0  0  0  0  0  0  0  0  0
  -15.9287    6.7416   13.2167 C   0  0  2  0  0  0  0  0  0  0  0  0
  -16.7191    5.5566   13.1561 O   0  0  0  0  0  0  0  0  0  0  0  0
  -14.5112    6.4219   13.7270 C   0  0  2  0  0  0  0  0  0  0  0  0
  -13.7214    7.6589   13.8641 O   0  0  0  0  0  0  0  0  0  0  0  0
  -13.7555    5.5151   12.7812 C   0  0  0  0  0  0  0  0  0  0  0  0
  -12.4497    5.2163   13.2701 O   0  0  0  0  0  0  0  0  0  0  0  0
  1  2  1  1  0  0  0
  1  3  1  0  0  0  0
  1  9  1  0  0  0  0
  3  4  1  6  0  0  0
  3  5  1  0  0  0  0
  5  6  1  0  0  0  0
  6  7  1  1  0  0  0
  6  8  1  0  0  0  0
  8  9  1  0  0  0  0
  8 10  1  1  0  0  0
 10 11  1  0  0  0  0
 12 13  1  6  0  0  0
 12 14  1  0  0  0  0
 12 20  1  0  0  0  0
 14 15  1  0  0  0  0
 15 16  1  1  0  0  0
 15 17  1  0  0  0  0
 17  2  1  1  0  0  0
 17 18  1  0  0  0  0
 18 19  1  6  0  0  0
 18 20  1  0  0  0  0
 20 21  1  6  0  0  0
 22 21  1  1  0  0  0
 22 23  1  0  0  0  0
 22 30  1  0  0  0  0
 23 24  1  1  0  0  0
 23 25  1  0  0  0  0
 25 26  1  6  0  0  0
 25 27  1  0  0  0  0
 27 28  1  1  0  0  0
 27 29  1  0  0  0  0
 29 30  1  0  0  0  0
 29 31  1  6  0  0  0
 31 32  1  0  0  0  0
M  CHG  5   4   1  11   1  13   1  16   1  26   1
M  END
>  <CHROM.1>
-163.65505124,-123.83654528,-82.09961393,-145.83625596,88.58280043,-167.21816602
44.43575429,-17.11315689,-179.14310829,112.94760106,-141.70211127,108.51468512
171.42688591,81.99510160,-179.45865355,-176.48987989,-12.65986512,7.07295432
17.48443843,-0.34701559,0.82415349,-2.46046381

>  <Name>
1lc4

>  <RI>
0

>  <Rbt.Current_Directory>
/home/afrankz/demos/rdock_decoys_rna/rnas/1lc4

>  <Rbt.Executable>
rbdock ($Id: //depot/dev/client3/rdock/2013.1/src/exe/rbdock.cxx#4 $)

>  <Rbt.Library>
libRbt.so (2013.1, Build901 2013/11/27)

>  <Rbt.Parameter_File>
/export/apps/rDock/src/rDock_2013.1_src/data/scripts/dock_solv.prm

>  <Rbt.Receptor>
prm/pocket_docking_5.prm

>  <SCORE>
-65.7625

>  <SCORE.INTER>
-60.5203

>  <SCORE.INTER.CONST>
1

>  <SCORE.INTER.POLAR>
-9.71224

>  <SCORE.INTER.ROT>
6

>  <SCORE.INTER.SOLV>
25.9123

>  <SCORE.INTER.VDW>
-24.2102

>  <SCORE.INTER.norm>
-1.89126

>  <SCORE.INTRA>
-5.24213

>  <SCORE.INTRA.DIHEDRAL>
-3.09679

>  <SCORE.INTRA.DIHEDRAL.0>
44.2576

>  <SCORE.INTRA.POLAR>
-0.834422

>  <SCORE.INTRA.POLAR.0>
-0.381556

>  <SCORE.INTRA.REPUL>
0

>  <SCORE.INTRA.REPUL.0>
0

>  <SCORE.INTRA.SOLV>
1.81921

>  <SCORE.INTRA.SOLV.lig_0>
-134.592

>  <SCORE.INTRA.VDW>
-1.76631

>  <SCORE.INTRA.VDW.0>
-1.01417

>  <SCORE.INTRA.norm>
-0.163817

>  <SCORE.RESTR>
0

>  <SCORE.RESTR.CAVITY>
0

>  <SCORE.RESTR.norm>
0

>  <SCORE.SYSTEM>
0

>  <SCORE.SYSTEM.CONST>
0

>  <SCORE.SYSTEM.DIHEDRAL>
0

>  <SCORE.SYSTEM.SOLV>
0

>  <SCORE.SYSTEM.norm>
0

>  <SCORE.heavy>
32

>  <SCORE.norm>
-2.05508

>  <RMSD>
1.031

$$$$
1lc4
 OpenBabel02141814113D
libRbt.so/2013.1/901 2013/11/27
 32 34  0  0  0  0  0  0  0  0999 V2000
  -10.0102    5.7111   19.7957 C   0  0  2  0  0  0  0  0  0  0  0  0
  -11.0729    6.5202   20.2340 O   0  0  0  0  0  0  0  0  0  0  0  0
  -10.1598    4.3243   20.4539 C   0  0  2  0  0  0  0  0  0  0  0  0
  -11.4554    3.7323   20.1068 N   0  3  0  0  0  0  0  0  0  0  0  0
   -9.9853    4.4410   21.9863 C   0  0  0  0  0  0  0  0  0  0  0  0
   -8.5892    5.0319   22.2496 C   0  0  2  0  0  0  0  0  0  0  0  0
   -8.3426    5.1223   23.6568 O   0  0  0  0  0  0  0  0  0  0  0  0
   -8.4850    6.4201   21.5702 C   0  0  2  0  0  0  0  0  0  0  0  0
   -8.7397    6.3057   20.1411 O   0  0  0  0  0  0  0  0  0  0  0  0
   -7.1138    7.0730   21.7260 C   0  0  0  0  0  0  0  0  0  0  0  0
   -7.1985    8.5481   21.5632 N   0  3  0  0  0  0  0  0  0  0  0  0
  -13.3783    9.8347   18.9459 C   0  0  2  0  0  0  0  0  0  0  0  0
  -13.7953   11.1028   18.3199 N   0  3  0  0  0  0  0  0  0  0  0  0
  -12.2915   10.1003   19.9787 C   0  0  0  0  0  0  0  0  0  0  0  0
  -11.8466    8.7884   20.6344 C   0  0  2  0  0  0  0  0  0  0  0  0
  -10.8773    9.1079   21.7119 N   0  3  0  0  0  0  0  0  0  0  0  0
  -11.3128    7.7794   19.5741 C   0  0  2  0  0  0  0  0  0  0  0  0
  -12.3956    7.5510   18.4881 C   0  0  2  0  0  0  0  0  0  0  0  0
  -11.8568    6.7722   17.4474 O   0  0  0  0  0  0  0  0  0  0  0  0
  -12.8454    8.8864   17.8736 C   0  0  1  0  0  0  0  0  0  0  0  0
  -13.8623    8.6300   16.9058 O   0  0  0  0  0  0  0  0  0  0  0  0
  -13.5146    8.7598   15.5703 C   0  0  2  0  0  0  0  0  0  0  0  0
  -14.5524    9.6552   14.8720 C   0  0  2  0  0  0  0  0  0  0  0  0
  -14.5606   10.9251   15.5118 O   0  0  0  0  0  0  0  0  0  0  0  0
  -15.9426    9.0038   14.9749 C   0  0  1  0  0  0  0  0  0  0  0  0
  -16.9971    9.8398   14.3319 N   0  3  0  0  0  0  0  0  0  0  0  0
  -15.8956    7.5960   14.3322 C   0  0  2  0  0  0  0  0  0  0  0  0
  -17.1657    6.9566   14.4352 O   0  0  0  0  0  0  0  0  0  0  0  0
  -14.8030    6.7419   15.0017 C   0  0  2  0  0  0  0  0  0  0  0  0
  -13.5061    7.4413   14.9638 O   0  0  0  0  0  0  0  0  0  0  0  0
  -14.6113    5.4128   14.3054 C   0  0  0  0  0  0  0  0  0  0  0  0
  -13.6305    4.6121   14.9614 O   0  0  0  0  0  0  0  0  0  0  0  0
  1  2  1  1  0  0  0
  1  3  1  0  0  0  0
  1  9  1  0  0  0  0
  3  4  1  1  0  0  0
  3  5  1  0  0  0  0
  5  6  1  0  0  0  0
  6  7  1  1  0  0  0
  6  8  1  0  0  0  0
  8  9  1  0  0  0  0
  8 10  1  6  0  0  0
 10 11  1  0  0  0  0
 12 13  1  6  0  0  0
 12 14  1  0  0  0  0
 12 20  1  0  0  0  0
 14 15  1  0  0  0  0
 15 16  1  1  0  0  0
 15 17  1  0  0  0  0
 17  2  1  1  0  0  0
 17 18  1  0  0  0  0
 18 19  1  6  0  0  0
 18 20  1  0  0  0  0
 20 21  1  6  0  0  0
 22 21  1  1  0  0  0
 22 23  1  0  0  0  0
 22 30  1  0  0  0  0
 23 24  1  1  0  0  0
 23 25  1  0  0  0  0
 25 26  1  6  0  0  0
 25 27  1  0  0  0  0
 27 28  1  1  0  0  0
 27 29  1  0  0  0  0
 29 30  1  0  0  0  0
 29 31  1  6  0  0  0
 31 32  1  0  0  0  0
M  CHG  5   4   1  11   1  13   1  16   1  26   1
M  END
>  <CHROM.1>
-168.26875155,-146.51459315,-171.83027358,68.28418203,-157.38967966,49.31897741
-57.23843385,-58.66127141,-55.75279749,131.16931465,-129.59171226,61.97879157
91.83732080,-59.69339595,-177.97359317,-53.83087421,-12.22064748,7.47212624
18.32571230,0.05817371,0.83493522,-2.90509493

>  <Name>
1lc4

>  <RI>
0

>  <Rbt.Current_Directory>
/home/afrankz/demos/rdock_decoys_rna/rnas/1lc4

>  <Rbt.Executable>
rbdock ($Id: //depot/dev/client3/rdock/2013.1/src/exe/rbdock.cxx#4 $)

>  <Rbt.Library>
libRbt.so (2013.1, Build901 2013/11/27)

>  <Rbt.Parameter_File>
/export/apps/rDock/src/rDock_2013.1_src/data/scripts/dock_solv.prm

>  <Rbt.Receptor>
prm/pocket_docking_3.prm

>  <SCORE>
-73.588

>  <SCORE.INTER>
-57.1304

>  <SCORE.INTER.CONST>
1

>  <SCORE.INTER.POLAR>
-8.21774

>  <SCORE.INTER.ROT>
6

>  <SCORE.INTER.SOLV>
32.1368

>  <SCORE.INTER.VDW>
-29.0067

>  <SCORE.INTER.norm>
-1.78532

>  <SCORE.INTRA>
-16.4576

>  <SCORE.INTRA.DIHEDRAL>
-21.1855

>  <SCORE.INTRA.DIHEDRAL.0>
44.2576

>  <SCORE.INTRA.POLAR>
-0.372645

>  <SCORE.INTRA.POLAR.0>
-0.381556

>  <SCORE.INTRA.REPUL>
0

>  <SCORE.INTRA.REPUL.0>
0

>  <SCORE.INTRA.SOLV>
0.689801

>  <SCORE.INTRA.SOLV.lig_0>
-134.592

>  <SCORE.INTRA.VDW>
-4.94277

>  <SCORE.INTRA.VDW.0>
-1.01417

>  <SCORE.INTRA.norm>
-0.5143

>  <SCORE.RESTR>
0

>  <SCORE.RESTR.CAVITY>
0

>  <SCORE.RESTR.norm>
0

>  <SCORE.SYSTEM>
0

>  <SCORE.SYSTEM.CONST>
0

>  <SCORE.SYSTEM.DIHEDRAL>
0

>  <SCORE.SYSTEM.SOLV>
0

>  <SCORE.SYSTEM.norm>
0

>  <SCORE.heavy>
32

>  <SCORE.norm>
-2.29962

>  <RMSD>
1.055

$$$$
1lc4
 OpenBabel02141814113D
libRbt.so/2013.1/901 2013/11/27
 32 34  0  0  0  0  0  0  0  0999 V2000
  -10.0453    5.7304   19.6721 C   0  0  2  0  0  0  0  0  0  0  0  0
  -11.1293    6.5070   20.1169 O   0  0  0  0  0  0  0  0  0  0  0  0
  -10.2195    4.3014   20.2257 C   0  0  2  0  0  0  0  0  0  0  0  0
  -11.4963    3.7344   19.7809 N   0  3  0  0  0  0  0  0  0  0  0  0
  -10.1142    4.3122   21.7689 C   0  0  0  0  0  0  0  0  0  0  0  0
   -8.7332    4.8840   22.1346 C   0  0  2  0  0  0  0  0  0  0  0  0
   -8.5502    4.8772   23.5544 O   0  0  0  0  0  0  0  0  0  0  0  0
   -8.6035    6.3158   21.5578 C   0  0  2  0  0  0  0  0  0  0  0  0
   -8.7935    6.3001   20.1143 O   0  0  0  0  0  0  0  0  0  0  0  0
   -7.2429    6.9568   21.8197 C   0  0  0  0  0  0  0  0  0  0  0  0
   -7.2827    8.4226   21.5761 N   0  3  0  0  0  0  0  0  0  0  0  0
  -13.5301    9.7608   18.8485 C   0  0  2  0  0  0  0  0  0  0  0  0
  -13.9839   11.0199   18.2300 N   0  3  0  0  0  0  0  0  0  0  0  0
  -12.4512   10.0518   19.8827 C   0  0  0  0  0  0  0  0  0  0  0  0
  -11.9683    8.7494   20.5307 C   0  0  2  0  0  0  0  0  0  0  0  0
  -11.0084    9.0906   21.6099 N   0  3  0  0  0  0  0  0  0  0  0  0
  -11.4058    7.7625   19.4644 C   0  0  2  0  0  0  0  0  0  0  0  0
  -12.4818    7.5092   18.3772 C   0  0  2  0  0  0  0  0  0  0  0  0
  -11.9209    6.7525   17.3319 O   0  0  0  0  0  0  0  0  0  0  0  0
  -12.9702    8.8347   17.7706 C   0  0  1  0  0  0  0  0  0  0  0  0
  -13.9796    8.5546   16.8013 O   0  0  0  0  0  0  0  0  0  0  0  0
  -13.6346    8.6974   15.4665 C   0  0  2  0  0  0  0  0  0  0  0  0
  -14.6510    9.6322   14.7886 C   0  0  2  0  0  0  0  0  0  0  0  0
  -14.6219   10.8909   15.4497 O   0  0  0  0  0  0  0  0  0  0  0  0
  -16.0579    9.0170   14.8876 C   0  0  1  0  0  0  0  0  0  0  0  0
  -17.0923    9.8919   14.2642 N   0  3  0  0  0  0  0  0  0  0  0  0
  -16.0520    7.6195   14.2211 C   0  0  2  0  0  0  0  0  0  0  0  0
  -17.3385    7.0130   14.3199 O   0  0  0  0  0  0  0  0  0  0  0  0
  -14.9798    6.7250   14.8707 C   0  0  2  0  0  0  0  0  0  0  0  0
  -13.6647    7.3897   14.8380 O   0  0  0  0  0  0  0  0  0  0  0  0
  -14.8274    5.4032   14.1512 C   0  0  0  0  0  0  0  0  0  0  0  0
  -14.0932    4.4617   14.9308 O   0  0  0  0  0  0  0  0  0  0  0  0
  1  2  1  1  0  0  0
  1  3  1  0  0  0  0
  1  9  1  0  0  0  0
  3  4  1  1  0  0  0
  3  5  1  0  0  0  0
  5  6  1  0  0  0  0
  6  7  1  1  0  0  0
  6  8  1  0  0  0  0
  8  9  1  0  0  0  0
  8 10  1  6  0  0  0
 10 11  1  0  0  0  0
 12 13  1  6  0  0  0
 12 14  1  0  0  0  0
 12 20  1  0  0  0  0
 14 15  1  0  0  0  0
 15 16  1  1  0  0  0
 15 17  1  0  0  0  0
 17  2  1  1  0  0  0
 17 18  1  0  0  0  0
 18 19  1  6  0  0  0
 18 20  1  0  0  0  0
 20 21  1  6  0  0  0
 22 21  1  1  0  0  0
 22 23  1  0  0  0  0
 22 30  1  0  0  0  0
 23 24  1  1  0  0  0
 23 25  1  0  0  0  0
 25 26  1  6  0  0  0
 25 27  1  0  0  0  0
 27 28  1  1  0  0  0
 27 29  1  0  0  0  0
 29 30  1  0  0  0  0
 29 31  1  6  0  0  0
 31 32  1  0  0  0  0
M  CHG  5   4   1  11   1  13   1  16   1  26   1
M  END
>  <CHROM.1>
-163.50174431,-146.63783173,-178.17162733,-57.22157184,-165.04257541,55.55772789
177.58687638,-60.21916501,75.78786532,131.40004619,-126.42029534,62.27651072
-27.81166611,70.61406700,-165.52141153,-171.40497632,-12.35659056,7.42134106
18.22052952,0.05576978,0.83262264,-2.89911002

>  <Name>
1lc4

>  <RI>
0

>  <Rbt.Current_Directory>
/home/afrankz/demos/rdock_decoys_rna/rnas/1lc4

>  <Rbt.Executable>
rbdock ($Id: //depot/dev/client3/rdock/2013.1/src/exe/rbdock.cxx#4 $)

>  <Rbt.Library>
libRbt.so (2013.1, Build901 2013/11/27)

>  <Rbt.Parameter_File>
/export/apps/rDock/src/rDock_2013.1_src/data/scripts/dock_solv.prm

>  <Rbt.Receptor>
prm/pocket_docking_7.prm

>  <SCORE>
-77.2843

>  <SCORE.INTER>
-61.6179

>  <SCORE.INTER.CONST>
1

>  <SCORE.INTER.POLAR>
-9.11946

>  <SCORE.INTER.ROT>
6

>  <SCORE.INTER.SOLV>
31.3087

>  <SCORE.INTER.VDW>
-28.7166

>  <SCORE.INTER.norm>
-1.92556

>  <SCORE.INTRA>
-15.6664

>  <SCORE.INTRA.DIHEDRAL>
-19.4087

>  <SCORE.INTRA.DIHEDRAL.0>
44.2576

>  <SCORE.INTRA.POLAR>
-0.396918

>  <SCORE.INTRA.POLAR.0>
-0.381556

>  <SCORE.INTRA.REPUL>
0

>  <SCORE.INTRA.REPUL.0>
0

>  <SCORE.INTRA.SOLV>
1.41269

>  <SCORE.INTRA.SOLV.lig_0>
-134.592

>  <SCORE.INTRA.VDW>
-5.31883

>  <SCORE.INTRA.VDW.0>
-1.01417

>  <SCORE.INTRA.norm>
-0.489574

>  <SCORE.RESTR>
0

>  <SCORE.RESTR.CAVITY>
0

>  <SCORE.RESTR.norm>
0

>  <SCORE.SYSTEM>
0

>  <SCORE.SYSTEM.CONST>
0

>  <SCORE.SYSTEM.DIHEDRAL>
0

>  <SCORE.SYSTEM.SOLV>
0

>  <SCORE.SYSTEM.norm>
0

>  <SCORE.heavy>
32

>  <SCORE.norm>
-2.41513

>  <RMSD>
1.072

$$$$
1lc4
 OpenBabel02141814113D
libRbt.so/2013.1/901 2013/11/27
 32 34  0  0  0  0  0  0  0  0999 V2000
  -10.6813    5.4471   18.9857 C   0  0  2  0  0  0  0  0  0  0  0  0
  -11.7937    6.1986   19.4027 O   0  0  0  0  0  0  0  0  0  0  0  0
  -10.9117    3.9790   19.3988 C   0  0  2  0  0  0  0  0  0  0  0  0
  -12.1501    3.4697   18.8017 N   0  3  0  0  0  0  0  0  0  0  0  0
  -10.9376    3.8580   20.9407 C   0  0  0  0  0  0  0  0  0  0  0  0
   -9.5886    4.3772   21.4684 C   0  0  2  0  0  0  0  0  0  0  0  0
   -9.5267    4.2479   22.8928 O   0  0  0  0  0  0  0  0  0  0  0  0
   -9.4005    5.8506   21.0288 C   0  0  2  0  0  0  0  0  0  0  0  0
   -9.4675    5.9595   19.5784 O   0  0  0  0  0  0  0  0  0  0  0  0
   -8.0625    6.4478   21.4576 C   0  0  0  0  0  0  0  0  0  0  0  0
   -7.9125    6.4257   22.9364 N   0  3  0  0  0  0  0  0  0  0  0  0
  -13.9877    9.7086   18.4941 C   0  0  2  0  0  0  0  0  0  0  0  0
  -14.3751   11.0331   17.9750 N   0  3  0  0  0  0  0  0  0  0  0  0
  -12.8072    9.8508   19.4452 C   0  0  0  0  0  0  0  0  0  0  0  0
  -12.3922    8.4792   19.9891 C   0  0  2  0  0  0  0  0  0  0  0  0
  -11.3217    8.6791   20.9974 N   0  3  0  0  0  0  0  0  0  0  0  0
  -12.0082    7.5062   18.8345 C   0  0  2  0  0  0  0  0  0  0  0  0
  -13.1867    7.4041   17.8323 C   0  0  2  0  0  0  0  0  0  0  0  0
  -12.7820    6.6590   16.7093 O   0  0  0  0  0  0  0  0  0  0  0  0
  -13.6017    8.7969   17.3310 C   0  0  1  0  0  0  0  0  0  0  0  0
  -14.7070    8.6561   16.4392 O   0  0  0  0  0  0  0  0  0  0  0  0
  -14.6423    9.3406   15.2356 C   0  0  2  0  0  0  0  0  0  0  0  0
  -16.0549    9.4159   14.6311 C   0  0  2  0  0  0  0  0  0  0  0  0
  -16.9053   10.0945   15.5467 O   0  0  0  0  0  0  0  0  0  0  0  0
  -16.5806    7.9919   14.3792 C   0  0  1  0  0  0  0  0  0  0  0  0
  -17.9596    8.0009   13.8114 N   0  3  0  0  0  0  0  0  0  0  0  0
  -15.6064    7.2479   13.4335 C   0  0  2  0  0  0  0  0  0  0  0  0
  -16.0551    5.9146   13.2015 O   0  0  0  0  0  0  0  0  0  0  0  0
  -14.1857    7.2458   14.0279 C   0  0  2  0  0  0  0  0  0  0  0  0
  -13.7555    8.6205   14.3405 O   0  0  0  0  0  0  0  0  0  0  0  0
  -13.1674    6.6688   13.0698 C   0  0  0  0  0  0  0  0  0  0  0  0
  -12.9822    7.5073   11.9314 O   0  0  0  0  0  0  0  0  0  0  0  0
  1  2  1  1  0  0  0
  1  3  1  0  0  0  0
  1  9  1  0  0  0  0
  3  4  1  6  0  0  0
  3  5  1  0  0  0  0
  5  6  1  0  0  0  0
  6  7  1  1  0  0  0
  6  8  1  0  0  0  0
  8  9  1  0  0  0  0
  8 10  1  6  0  0  0
 10 11  1  0  0  0  0
 12 13  1  6  0  0  0
 12 14  1  0  0  0  0
 12 20  1  0  0  0  0
 14 15  1  0  0  0  0
 15 16  1  1  0  0  0
 15 17  1  0  0  0  0
 17  2  1  1  0  0  0
 17 18  1  0  0  0  0
 18 19  1  6  0  0  0
 18 20  1  0  0  0  0
 20 21  1  6  0  0  0
 22 21  1  1  0  0  0
 22 23  1  0  0  0  0
 22 30  1  0  0  0  0
 23 24  1  1  0  0  0
 23 25  1  0  0  0  0
 25 26  1  6  0  0  0
 25 27  1  0  0  0  0
 27 28  1  1  0  0  0
 27 29  1  0  0  0  0
 29 30  1  0  0  0  0
 29 31  1  6  0  0  0
 31 32  1  0  0  0  0
M  CHG  5   4   1  11   1  13   1  16   1  26   1
M  END
>  <CHROM.1>
-163.23553030,-136.01011727,-170.78954645,-55.26666053,-59.90960034,-58.06101639
-57.78595875,101.61100635,61.60728496,105.46390437,-162.86883241,63.90906021
-65.03735238,-64.66721354,67.58608174,-60.88198593,-12.81306707,7.22057076
17.63668706,-0.26651896,0.88982244,-2.44248464

>  <Name>
1lc4

>  <RI>
0

>  <Rbt.Current_Directory>
/home/afrankz/demos/rdock_decoys_rna/rnas/1lc4

>  <Rbt.Executable>
rbdock ($Id: //depot/dev/client3/rdock/2013.1/src/exe/rbdock.cxx#4 $)

>  <Rbt.Library>
libRbt.so (2013.1, Build901 2013/11/27)

>  <Rbt.Parameter_File>
/export/apps/rDock/src/rDock_2013.1_src/data/scripts/dock_solv.prm

>  <Rbt.Receptor>
prm/pocket_docking_2.prm

>  <SCORE>
-62.4635

>  <SCORE.INTER>
-46.2671

>  <SCORE.INTER.CONST>
1

>  <SCORE.INTER.POLAR>
-6.16185

>  <SCORE.INTER.ROT>
6

>  <SCORE.INTER.SOLV>
21.2346

>  <SCORE.INTER.VDW>
-24.9834

>  <SCORE.INTER.norm>
-1.44585

>  <SCORE.INTRA>
-16.1964

>  <SCORE.INTRA.DIHEDRAL>
-25.7302

>  <SCORE.INTRA.DIHEDRAL.0>
44.2576

>  <SCORE.INTRA.POLAR>
-0.00861392

>  <SCORE.INTRA.POLAR.0>
-0.381556

>  <SCORE.INTRA.REPUL>
0

>  <SCORE.INTRA.REPUL.0>
0

>  <SCORE.INTRA.SOLV>
1.19531

>  <SCORE.INTRA.SOLV.lig_0>
-134.592

>  <SCORE.INTRA.VDW>
-3.89966

>  <SCORE.INTRA.VDW.0>
-1.01417

>  <SCORE.INTRA.norm>
-0.506137

>  <SCORE.RESTR>
0

>  <SCORE.RESTR.CAVITY>
0

>  <SCORE.RESTR.norm>
0

>  <SCORE.SYSTEM>
0

>  <SCORE.SYSTEM.CONST>
0

>  <SCORE.SYSTEM.DIHEDRAL>
0

>  <SCORE.SYSTEM.SOLV>
0

>  <SCORE.SYSTEM.norm>
0

>  <SCORE.heavy>
32

>  <SCORE.norm>
-1.95198

>  <RMSD>
1.073

$$$$
1lc4
 OpenBabel02141814113D
libRbt.so/2013.1/901 2013/11/27
 32 34  0  0  0  0  0  0  0  0999 V2000
  -10.1324    5.6600   19.6090 C   0  0  2  0  0  0  0  0  0  0  0  0
  -11.1777    6.4707   20.0846 O   0  0  0  0  0  0  0  0  0  0  0  0
  -10.3699    4.2234   20.1176 C   0  0  2  0  0  0  0  0  0  0  0  0
  -11.6732    3.7301   19.6618 N   0  3  0  0  0  0  0  0  0  0  0  0
  -10.2579    4.1796   21.6597 C   0  0  0  0  0  0  0  0  0  0  0  0
   -8.8506    4.6753   22.0359 C   0  0  2  0  0  0  0  0  0  0  0  0
   -8.6623    4.6142   23.4537 O   0  0  0  0  0  0  0  0  0  0  0  0
   -8.6575    6.1175   21.5046 C   0  0  2  0  0  0  0  0  0  0  0  0
   -8.8539    6.1571   20.0624 O   0  0  0  0  0  0  0  0  0  0  0  0
   -7.2677    6.6866   21.7793 C   0  0  0  0  0  0  0  0  0  0  0  0
   -7.2264    8.1509   21.5272 N   0  3  0  0  0  0  0  0  0  0  0  0
  -13.5724    9.7265   18.8096 C   0  0  2  0  0  0  0  0  0  0  0  0
  -14.0261   10.9801   18.1801 N   0  3  0  0  0  0  0  0  0  0  0  0
  -12.4723   10.0234   19.8196 C   0  0  0  0  0  0  0  0  0  0  0  0
  -11.9892    8.7267   20.4788 C   0  0  2  0  0  0  0  0  0  0  0  0
  -11.0068    9.0756   21.5351 N   0  3  0  0  0  0  0  0  0  0  0  0
  -11.4549    7.7186   19.4178 C   0  0  2  0  0  0  0  0  0  0  0  0
  -12.5526    7.4586   18.3543 C   0  0  2  0  0  0  0  0  0  0  0  0
  -12.0175    6.6809   17.3108 O   0  0  0  0  0  0  0  0  0  0  0  0
  -13.0403    8.7790   17.7362 C   0  0  1  0  0  0  0  0  0  0  0  0
  -14.0696    8.4933   16.7898 O   0  0  0  0  0  0  0  0  0  0  0  0
  -13.7537    8.6326   15.4473 C   0  0  2  0  0  0  0  0  0  0  0  0
  -14.9151    9.3475   14.7359 C   0  0  2  0  0  0  0  0  0  0  0  0
  -15.1027   10.6212   15.3398 O   0  0  0  0  0  0  0  0  0  0  0  0
  -16.1956    8.5053   14.8727 C   0  0  1  0  0  0  0  0  0  0  0  0
  -17.3645    9.1607   14.2183 N   0  3  0  0  0  0  0  0  0  0  0  0
  -15.9497    7.1008   14.2693 C   0  0  2  0  0  0  0  0  0  0  0  0
  -17.1130    6.2878   14.4046 O   0  0  0  0  0  0  0  0  0  0  0  0
  -14.7402    6.4337   14.9503 C   0  0  2  0  0  0  0  0  0  0  0  0
  -13.5586    7.3119   14.8782 O   0  0  0  0  0  0  0  0  0  0  0  0
  -14.3629    5.1264   14.2896 C   0  0  0  0  0  0  0  0  0  0  0  0
  -15.3564    4.1253   14.4993 O   0  0  0  0  0  0  0  0  0  0  0  0
  1  2  1  1  0  0  0
  1  3  1  0  0  0  0
  1  9  1  0  0  0  0
  3  4  1  1  0  0  0
  3  5  1  0  0  0  0
  5  6  1  0  0  0  0
  6  7  1  1  0  0  0
  6  8  1  0  0  0  0
  8  9  1  0  0  0  0
  8 10  1  6  0  0  0
 10 11  1  0  0  0  0
 12 13  1  6  0  0  0
 12 14  1  0  0  0  0
 12 20  1  0  0  0  0
 14 15  1  0  0  0  0
 15 16  1  1  0  0  0
 15 17  1  0  0  0  0
 17  2  1  1  0  0  0
 17 18  1  0  0  0  0
 18 19  1  6  0  0  0
 18 20  1  0  0  0  0
 20 21  1  6  0  0  0
 22 21  1  1  0  0  0
 22 23  1  0  0  0  0
 22 30  1  0  0  0  0
 23 24  1  1  0  0  0
 23 25  1  0  0  0  0
 25 26  1  6  0  0  0
 25 27  1  0  0  0  0
 27 28  1  1  0  0  0
 27 29  1  0  0  0  0
 29 30  1  0  0  0  0
 29 31  1  6  0  0  0
 31 32  1  0  0  0  0
M  CHG  5   4   1  11   1  13   1  16   1  26   1
M  END
>  <CHROM.1>
-159.46556222,-148.38439248,59.21528254,176.65948574,-167.45668375,54.88532408
54.84448812,-61.82341350,-176.12632491,130.43306012,-136.51037136,161.12300359
66.11431378,-60.41718204,-68.38899388,-179.30683594,-12.45268409,7.22438132
18.17004503,0.04392594,0.81692655,-2.92755057

>  <Name>
1lc4

>  <RI>
0

>  <Rbt.Current_Directory>
/home/afrankz/demos/rdock_decoys_rna/rnas/1lc4

>  <Rbt.Executable>
rbdock ($Id: //depot/dev/client3/rdock/2013.1/src/exe/rbdock.cxx#4 $)

>  <Rbt.Library>
libRbt.so (2013.1, Build901 2013/11/27)

>  <Rbt.Parameter_File>
/export/apps/rDock/src/rDock_2013.1_src/data/scripts/dock_solv.prm

>  <Rbt.Receptor>
prm/pocket_docking_5.prm

>  <SCORE>
-73.2784

>  <SCORE.INTER>
-53.3133

>  <SCORE.INTER.CONST>
1

>  <SCORE.INTER.POLAR>
-7.72733

>  <SCORE.INTER.ROT>
6

>  <SCORE.INTER.SOLV>
28.6672

>  <SCORE.INTER.VDW>
-26.9401

>  <SCORE.INTER.norm>
-1.66604

>  <SCORE.INTRA>
-19.9652

>  <SCORE.INTRA.DIHEDRAL>
-22.9839

>  <SCORE.INTRA.DIHEDRAL.0>
44.2576

>  <SCORE.INTRA.POLAR>
-1.12557

>  <SCORE.INTRA.POLAR.0>
-0.381556

>  <SCORE.INTRA.REPUL>
0

>  <SCORE.INTRA.REPUL.0>
0

>  <SCORE.INTRA.SOLV>
0.410286

>  <SCORE.INTRA.SOLV.lig_0>
-134.592

>  <SCORE.INTRA.VDW>
-4.8514

>  <SCORE.INTRA.VDW.0>
-1.01417

>  <SCORE.INTRA.norm>
-0.623911

>  <SCORE.RESTR>
0

>  <SCORE.RESTR.CAVITY>
0

>  <SCORE.RESTR.norm>
0

>  <SCORE.SYSTEM>
0

>  <SCORE.SYSTEM.CONST>
0

>  <SCORE.SYSTEM.DIHEDRAL>
0

>  <SCORE.SYSTEM.SOLV>
0

>  <SCORE.SYSTEM.norm>
0

>  <SCORE.heavy>
32

>  <SCORE.norm>
-2.28995

>  <RMSD>
1.082

$$$$
1lc4
 OpenBabel02141814113D
libRbt.so/2013.1/901 2013/11/27
 32 34  0  0  0  0  0  0  0  0999 V2000
  -10.0718    6.4778   19.3687 C   0  0  2  0  0  0  0  0  0  0  0  0
  -11.2389    7.1353   19.7951 O   0  0  0  0  0  0  0  0  0  0  0  0
  -10.1265    5.0235   19.8794 C   0  0  2  0  0  0  0  0  0  0  0  0
  -11.3282    4.3512   19.3760 N   0  3  0  0  0  0  0  0  0  0  0  0
  -10.0727    5.0000   21.4251 C   0  0  0  0  0  0  0  0  0  0  0  0
   -8.7652    5.6892   21.8532 C   0  0  2  0  0  0  0  0  0  0  0  0
   -8.6283    5.6590   23.2779 O   0  0  0  0  0  0  0  0  0  0  0  0
   -8.7542    7.1427   21.3179 C   0  0  2  0  0  0  0  0  0  0  0  0
   -8.8951    7.1505   19.8687 O   0  0  0  0  0  0  0  0  0  0  0  0
   -7.4702    7.9018   21.6433 C   0  0  0  0  0  0  0  0  0  0  0  0
   -6.3055    7.3221   20.9242 N   0  3  0  0  0  0  0  0  0  0  0  0
  -14.0889    9.6727   17.9516 C   0  0  2  0  0  0  0  0  0  0  0  0
  -14.7183   10.7875   17.2201 N   0  3  0  0  0  0  0  0  0  0  0  0
  -13.3852   10.2012   19.1942 C   0  0  0  0  0  0  0  0  0  0  0  0
  -12.7234    9.0515   19.9619 C   0  0  2  0  0  0  0  0  0  0  0  0
  -12.1547    9.5945   21.2206 N   0  3  0  0  0  0  0  0  0  0  0  0
  -11.6936    8.2955   19.0700 C   0  0  2  0  0  0  0  0  0  0  0  0
  -12.3931    7.8063   17.7757 C   0  0  2  0  0  0  0  0  0  0  0  0
  -11.4318    7.2705   16.8989 O   0  0  0  0  0  0  0  0  0  0  0  0
  -13.0755    8.9750   17.0465 C   0  0  1  0  0  0  0  0  0  0  0  0
  -13.7313    8.4731   15.8826 O   0  0  0  0  0  0  0  0  0  0  0  0
  -13.3429    8.9974   14.6596 C   0  0  2  0  0  0  0  0  0  0  0  0
  -14.5643    9.0344   13.7252 C   0  0  2  0  0  0  0  0  0  0  0  0
  -15.5678    9.8469   14.3211 O   0  0  0  0  0  0  0  0  0  0  0  0
  -15.0960    7.6050   13.5205 C   0  0  1  0  0  0  0  0  0  0  0  0
  -16.2974    7.5801   12.6372 N   0  3  0  0  0  0  0  0  0  0  0  0
  -13.9691    6.7205   12.9333 C   0  0  2  0  0  0  0  0  0  0  0  0
  -14.4255    5.3815   12.7559 O   0  0  0  0  0  0  0  0  0  0  0  0
  -12.7332    6.7545   13.8515 C   0  0  2  0  0  0  0  0  0  0  0  0
  -12.3115    8.1454   14.0972 O   0  0  0  0  0  0  0  0  0  0  0  0
  -11.5510    6.0328   13.2437 C   0  0  0  0  0  0  0  0  0  0  0  0
  -10.3945    6.1270   14.0726 O   0  0  0  0  0  0  0  0  0  0  0  0
  1  2  1  1  0  0  0
  1  3  1  0  0  0  0
  1  9  1  0  0  0  0
  3  4  1  1  0  0  0
  3  5  1  0  0  0  0
  5  6  1  0  0  0  0
  6  7  1  1  0  0  0
  6  8  1  0  0  0  0
  8  9  1  0  0  0  0
  8 10  1  6  0  0  0
 10 11  1  0  0  0  0
 12 13  1  6  0  0  0
 12 14  1  0  0  0  0
 12 20  1  0  0  0  0
 14 15  1  0  0  0  0
 15 16  1  1  0  0  0
 15 17  1  0  0  0  0
 17  2  1  1  0  0  0
 17 18  1  0  0  0  0
 18 19  1  6  0  0  0
 18 20  1  0  0  0  0
 20 21  1  6  0  0  0
 22 21  1  1  0  0  0
 22 23  1  0  0  0  0
 22 30  1  0  0  0  0
 23 24  1  1  0  0  0
 23 25  1  0  0  0  0
 25 26  1  6  0  0  0
 25 27  1  0  0  0  0
 27 28  1  1  0  0  0
 27 29  1  0  0  0  0
 29 30  1  0  0  0  0
 29 31  1  6  0  0  0
 31 32  1  0  0  0  0
M  CHG  5   4   1  11   1  13   1  16   1  26   1
M  END
>  <CHROM.1>
-156.70662140,-163.91100174,-52.68312408,-52.89278956,66.73869709,-37.06024028
168.16602586,47.68461880,175.47551312,117.07811734,-146.79565896,169.25987557
103.74819756,63.67400629,177.13693719,-179.14318381,-11.91940832,7.52794645
17.50442669,-0.68543964,0.73882944,-2.09691984

>  <Name>
1lc4

>  <RI>
0

>  <Rbt.Current_Directory>
/home/afrankz/demos/rdock_decoys_rna/rnas/1lc4

>  <Rbt.Executable>
rbdock ($Id: //depot/dev/client3/rdock/2013.1/src/exe/rbdock.cxx#4 $)

>  <Rbt.Library>
libRbt.so (2013.1, Build901 2013/11/27)

>  <Rbt.Parameter_File>
/export/apps/rDock/src/rDock_2013.1_src/data/scripts/dock_solv.prm

>  <Rbt.Receptor>
prm/blind_docking_80.prm

>  <SCORE>
-67.1687

>  <SCORE.INTER>
-55.2625

>  <SCORE.INTER.CONST>
1

>  <SCORE.INTER.POLAR>
-9.38116

>  <SCORE.INTER.ROT>
6

>  <SCORE.INTER.SOLV>
32.7525

>  <SCORE.INTER.VDW>
-24.0886

>  <SCORE.INTER.norm>
-1.72695

>  <SCORE.INTRA>
-17.5287

>  <SCORE.INTRA.DIHEDRAL>
-23.1342

>  <SCORE.INTRA.DIHEDRAL.0>
44.2576

>  <SCORE.INTRA.POLAR>
-0.799356

>  <SCORE.INTRA.POLAR.0>
-0.381556

>  <SCORE.INTRA.REPUL>
0

>  <SCORE.INTRA.REPUL.0>
0

>  <SCORE.INTRA.SOLV>
-0.682099

>  <SCORE.INTRA.SOLV.lig_0>
-134.592

>  <SCORE.INTRA.VDW>
-2.90274

>  <SCORE.INTRA.VDW.0>
-1.01417

>  <SCORE.INTRA.norm>
-0.547772

>  <SCORE.RESTR>
5.62244

>  <SCORE.RESTR.CAVITY>
5.62244

>  <SCORE.RESTR.norm>
0.175701

>  <SCORE.SYSTEM>
0

>  <SCORE.SYSTEM.CONST>
0

>  <SCORE.SYSTEM.DIHEDRAL>
0

>  <SCORE.SYSTEM.SOLV>
0

>  <SCORE.SYSTEM.norm>
0

>  <SCORE.heavy>
32

>  <SCORE.norm>
-2.09902

>  <RMSD>
1.092

$$$$
1lc4
 OpenBabel02141814113D
libRbt.so/2013.1/901 2013/11/27
 32 34  0  0  0  0  0  0  0  0999 V2000
  -10.1834    5.8654   19.3676 C   0  0  2  0  0  0  0  0  0  0  0  0
  -11.2965    6.6258   19.7660 O   0  0  0  0  0  0  0  0  0  0  0  0
  -10.3860    4.4201   19.8667 C   0  0  2  0  0  0  0  0  0  0  0  0
  -11.6298    3.8636   19.3257 N   0  3  0  0  0  0  0  0  0  0  0  0
  -10.3780    4.3852   21.4130 C   0  0  0  0  0  0  0  0  0  0  0  0
   -9.0252    4.9491   21.8818 C   0  0  2  0  0  0  0  0  0  0  0  0
   -8.9318    4.9004   23.3095 O   0  0  0  0  0  0  0  0  0  0  0  0
   -8.8655    6.3978   21.3569 C   0  0  2  0  0  0  0  0  0  0  0  0
   -8.9643    6.4246   19.9045 O   0  0  0  0  0  0  0  0  0  0  0  0
   -7.5268    7.0338   21.7228 C   0  0  0  0  0  0  0  0  0  0  0  0
   -7.5623    8.5081   21.5355 N   0  3  0  0  0  0  0  0  0  0  0  0
  -13.8790    9.4562   17.9550 C   0  0  2  0  0  0  0  0  0  0  0  0
  -14.3930   10.6240   17.2163 N   0  3  0  0  0  0  0  0  0  0  0  0
  -13.0698    9.9204   19.1584 C   0  0  0  0  0  0  0  0  0  0  0  0
  -12.5264    8.7146   19.9331 C   0  0  2  0  0  0  0  0  0  0  0  0
  -11.8487    9.2103   21.1568 N   0  3  0  0  0  0  0  0  0  0  0  0
  -11.6316    7.8173   19.0266 C   0  0  2  0  0  0  0  0  0  0  0  0
  -12.4336    7.3904   17.7704 C   0  0  2  0  0  0  0  0  0  0  0  0
  -11.5790    6.7204   16.8756 O   0  0  0  0  0  0  0  0  0  0  0  0
  -12.9936    8.6184   17.0345 C   0  0  1  0  0  0  0  0  0  0  0  0
  -13.7491    8.1764   15.9073 O   0  0  0  0  0  0  0  0  0  0  0  0
  -13.2556    8.4891   14.6504 C   0  0  2  0  0  0  0  0  0  0  0  0
  -14.4347    8.6067   13.6695 C   0  0  2  0  0  0  0  0  0  0  0  0
  -15.3095    9.6283   14.1311 O   0  0  0  0  0  0  0  0  0  0  0  0
  -15.1815    7.2630   13.6031 C   0  0  1  0  0  0  0  0  0  0  0  0
  -16.3519    7.3226   12.6806 N   0  3  0  0  0  0  0  0  0  0  0  0
  -14.1964    6.1527   13.1631 C   0  0  2  0  0  0  0  0  0  0  0  0
  -14.8553    4.8892   13.1169 O   0  0  0  0  0  0  0  0  0  0  0  0
  -12.9914    6.1007   14.1206 C   0  0  2  0  0  0  0  0  0  0  0  0
  -12.3601    7.4283   14.2275 O   0  0  0  0  0  0  0  0  0  0  0  0
  -11.9254    5.1391   13.6443 C   0  0  0  0  0  0  0  0  0  0  0  0
  -12.4368    3.8156   13.5016 O   0  0  0  0  0  0  0  0  0  0  0  0
  1  2  1  1  0  0  0
  1  3  1  0  0  0  0
  1  9  1  0  0  0  0
  3  4  1  1  0  0  0
  3  5  1  0  0  0  0
  5  6  1  0  0  0  0
  6  7  1  1  0  0  0
  6  8  1  0  0  0  0
  8  9  1  0  0  0  0
  8 10  1  6  0  0  0
 10 11  1  0  0  0  0
 12 13  1  6  0  0  0
 12 14  1  0  0  0  0
 12 20  1  0  0  0  0
 14 15  1  0  0  0  0
 15 16  1  1  0  0  0
 15 17  1  0  0  0  0
 17  2  1  1  0  0  0
 17 18  1  0  0  0  0
 18 19  1  6  0  0  0
 18 20  1  0  0  0  0
 20 21  1  6  0  0  0
 22 21  1  1  0  0  0
 22 23  1  0  0  0  0
 22 30  1  0  0  0  0
 23 24  1  1  0  0  0
 23 25  1  0  0  0  0
 25 26  1  6  0  0  0
 25 27  1  0  0  0  0
 27 28  1  1  0  0  0
 27 29  1  0  0  0  0
 29 30  1  0  0  0  0
 29 31  1  6  0  0  0
 31 32  1  0  0  0  0
M  CHG  5   4   1  11   1  13   1  16   1  26   1
M  END
>  <CHROM.1>
-155.96197573,-159.90030491,-56.23728124,-62.55036643,-164.39195767,170.29802974
163.25870864,-76.99490795,65.52690367,124.51761071,-151.28924616,169.53753745
-27.24286348,69.84779861,-58.44040592,-179.23405224,-12.08514488,7.02275701
17.54454197,-0.44597920,0.91534645,-2.47911042

>  <Name>
1lc4

>  <RI>
0

>  <Rbt.Current_Directory>
/home/afrankz/demos/rdock_decoys_rna/rnas/1lc4

>  <Rbt.Executable>
rbdock ($Id: //depot/dev/client3/rdock/2013.1/src/exe/rbdock.cxx#4 $)

>  <Rbt.Library>
libRbt.so (2013.1, Build901 2013/11/27)

>  <Rbt.Parameter_File>
/export/apps/rDock/src/rDock_2013.1_src/data/scripts/dock_solv.prm

>  <Rbt.Receptor>
prm/pocket_docking_4.prm

>  <SCORE>
-75.9709

>  <SCORE.INTER>
-59.864

>  <SCORE.INTER.CONST>
1

>  <SCORE.INTER.POLAR>
-9.27064

>  <SCORE.INTER.ROT>
6

>  <SCORE.INTER.SOLV>
23.9775

>  <SCORE.INTER.VDW>
-24.5997

>  <SCORE.INTER.norm>
-1.87075

>  <SCORE.INTRA>
-16.1069

>  <SCORE.INTRA.DIHEDRAL>
-23.7598

>  <SCORE.INTRA.DIHEDRAL.0>
44.2576

>  <SCORE.INTRA.POLAR>
-0.16238

>  <SCORE.INTRA.POLAR.0>
-0.381556

>  <SCORE.INTRA.REPUL>
0

>  <SCORE.INTRA.REPUL.0>
0

>  <SCORE.INTRA.SOLV>
-1.46191

>  <SCORE.INTRA.SOLV.lig_0>
-134.592

>  <SCORE.INTRA.VDW>
-2.94394

>  <SCORE.INTRA.VDW.0>
-1.01417

>  <SCORE.INTRA.norm>
-0.50334

>  <SCORE.RESTR>
0

>  <SCORE.RESTR.CAVITY>
0

>  <SCORE.RESTR.norm>
0

>  <SCORE.SYSTEM>
0

>  <SCORE.SYSTEM.CONST>
0

>  <SCORE.SYSTEM.DIHEDRAL>
0

>  <SCORE.SYSTEM.SOLV>
0

>  <SCORE.SYSTEM.norm>
0

>  <SCORE.heavy>
32

>  <SCORE.norm>
-2.37409

>  <RMSD>
1.102

$$$$
1lc4
 OpenBabel02141814113D
libRbt.so/2013.1/901 2013/11/27
 32 34  0  0  0  0  0  0  0  0999 V2000
  -10.5658    6.1195   19.1738 C   0  0  2  0  0  0  0  0  0  0  0  0
  -11.5567    6.9463   19.7309 O   0  0  0  0  0  0  0  0  0  0  0  0
  -11.0529    4.6589   19.2641 C   0  0  2  0  0  0  0  0  0  0  0  0
  -12.3303    4.5031   18.5616 N   0  3  0  0  0  0  0  0  0  0  0  0
  -11.1671    4.2266   20.7449 C   0  0  0  0  0  0  0  0  0  0  0  0
   -9.7760    4.3875   21.3826 C   0  0  2  0  0  0  0  0  0  0  0  0
   -9.7998    3.9567   22.7476 O   0  0  0  0  0  0  0  0  0  0  0  0
   -9.3285    5.8660   21.2673 C   0  0  2  0  0  0  0  0  0  0  0  0
   -9.3119    6.2834   19.8724 O   0  0  0  0  0  0  0  0  0  0  0  0
   -7.9309    6.1244   21.8248 C   0  0  0  0  0  0  0  0  0  0  0  0
   -7.7115    5.3808   23.0931 N   0  3  0  0  0  0  0  0  0  0  0  0
  -14.1308   10.0253   18.3694 C   0  0  2  0  0  0  0  0  0  0  0  0
  -14.6487   11.2493   17.7310 N   0  3  0  0  0  0  0  0  0  0  0  0
  -13.1101   10.3914   19.4383 C   0  0  0  0  0  0  0  0  0  0  0  0
  -12.5612    9.1264   20.1073 C   0  0  2  0  0  0  0  0  0  0  0  0
  -11.6641    9.5345   21.2170 N   0  3  0  0  0  0  0  0  0  0  0  0
  -11.8964    8.1788   19.0645 C   0  0  2  0  0  0  0  0  0  0  0  0
  -12.9150    7.8504   17.9427 C   0  0  2  0  0  0  0  0  0  0  0  0
  -12.2683    7.1323   16.9198 O   0  0  0  0  0  0  0  0  0  0  0  0
  -13.4724    9.1381   17.3147 C   0  0  1  0  0  0  0  0  0  0  0  0
  -14.4267    8.7877   16.3131 O   0  0  0  0  0  0  0  0  0  0  0  0
  -14.4725    9.5788   15.1758 C   0  0  2  0  0  0  0  0  0  0  0  0
  -15.9263    9.6483   14.6779 C   0  0  2  0  0  0  0  0  0  0  0  0
  -16.7330   10.2063   15.7075 O   0  0  0  0  0  0  0  0  0  0  0  0
  -16.4176    8.2316   14.3325 C   0  0  1  0  0  0  0  0  0  0  0  0
  -17.8330    8.2333   13.8627 N   0  3  0  0  0  0  0  0  0  0  0  0
  -15.4873    7.6165   13.2586 C   0  0  2  0  0  0  0  0  0  0  0  0
  -15.9035    6.2915   12.9361 O   0  0  0  0  0  0  0  0  0  0  0  0
  -14.0287    7.6211   13.7526 C   0  0  2  0  0  0  0  0  0  0  0  0
  -13.6266    8.9793   14.1604 O   0  0  0  0  0  0  0  0  0  0  0  0
  -13.0613    7.1751   12.6788 C   0  0  0  0  0  0  0  0  0  0  0  0
  -11.7531    6.9623   13.2049 O   0  0  0  0  0  0  0  0  0  0  0  0
  1  2  1  1  0  0  0
  1  3  1  0  0  0  0
  1  9  1  0  0  0  0
  3  4  1  1  0  0  0
  3  5  1  0  0  0  0
  5  6  1  0  0  0  0
  6  7  1  1  0  0  0
  6  8  1  0  0  0  0
  8  9  1  0  0  0  0
  8 10  1  6  0  0  0
 10 11  1  0  0  0  0
 12 13  1  6  0  0  0
 12 14  1  0  0  0  0
 12 20  1  0  0  0  0
 14 15  1  0  0  0  0
 15 16  1  1  0  0  0
 15 17  1  0  0  0  0
 17  2  1  1  0  0  0
 17 18  1  0  0  0  0
 18 19  1  6  0  0  0
 18 20  1  0  0  0  0
 20 21  1  6  0  0  0
 22 21  1  1  0  0  0
 22 23  1  0  0  0  0
 22 30  1  0  0  0  0
 23 24  1  1  0  0  0
 23 25  1  0  0  0  0
 25 26  1  6  0  0  0
 25 27  1  0  0  0  0
 27 28  1  1  0  0  0
 27 29  1  0  0  0  0
 29 30  1  0  0  0  0
 29 31  1  6  0  0  0
 31 32  1  0  0  0  0
M  CHG  5   4   1  11   1  13   1  16   1  26   1
M  END
>  <CHROM.1>
-137.35633606,-158.45691227,-90.20167247,29.19402827,-41.24611472,-137.25457955
-45.90597549,-78.13242406,-52.97846162,94.49788855,-146.32946181,-80.52807545
-64.68224490,-177.27848735,-169.97445214,-176.73358396,-12.72062975,7.49785591
17.67848562,-0.37488968,0.87558619,-2.27697439

>  <Name>
1lc4

>  <RI>
0

>  <Rbt.Current_Directory>
/home/afrankz/demos/rdock_decoys_rna/rnas/1lc4

>  <Rbt.Executable>
rbdock ($Id: //depot/dev/client3/rdock/2013.1/src/exe/rbdock.cxx#4 $)

>  <Rbt.Library>
libRbt.so (2013.1, Build901 2013/11/27)

>  <Rbt.Parameter_File>
/export/apps/rDock/src/rDock_2013.1_src/data/scripts/dock_solv.prm

>  <Rbt.Receptor>
prm/pocket_docking_2.prm

>  <SCORE>
-66.7872

>  <SCORE.INTER>
-52.0524

>  <SCORE.INTER.CONST>
1

>  <SCORE.INTER.POLAR>
-7.22942

>  <SCORE.INTER.ROT>
6

>  <SCORE.INTER.SOLV>
27.1933

>  <SCORE.INTER.VDW>
-27.268

>  <SCORE.INTER.norm>
-1.62664

>  <SCORE.INTRA>
-15.4826

>  <SCORE.INTRA.DIHEDRAL>
-14.0888

>  <SCORE.INTRA.DIHEDRAL.0>
44.2576

>  <SCORE.INTRA.POLAR>
-2.18394

>  <SCORE.INTRA.POLAR.0>
-0.381556

>  <SCORE.INTRA.REPUL>
0.0179732

>  <SCORE.INTRA.REPUL.0>
0

>  <SCORE.INTRA.SOLV>
1.47669

>  <SCORE.INTRA.SOLV.lig_0>
-134.592

>  <SCORE.INTRA.VDW>
-1.84102

>  <SCORE.INTRA.VDW.0>
-1.01417

>  <SCORE.INTRA.norm>
-0.483832

>  <SCORE.RESTR>
0.747863

>  <SCORE.RESTR.CAVITY>
0.747863

>  <SCORE.RESTR.norm>
0.0233707

>  <SCORE.SYSTEM>
0

>  <SCORE.SYSTEM.CONST>
0

>  <SCORE.SYSTEM.DIHEDRAL>
0

>  <SCORE.SYSTEM.SOLV>
0

>  <SCORE.SYSTEM.norm>
0

>  <SCORE.heavy>
32

>  <SCORE.norm>
-2.0871

>  <RMSD>
1.130

$$$$
1lc4
 OpenBabel02141814113D
libRbt.so/2013.1/901 2013/11/27
 32 34  0  0  0  0  0  0  0  0999 V2000
  -10.2368    5.6436   19.2192 C   0  0  2  0  0  0  0  0  0  0  0  0
  -11.4298    6.3237   19.5194 O   0  0  0  0  0  0  0  0  0  0  0  0
  -10.3415    4.2152   19.7915 C   0  0  2  0  0  0  0  0  0  0  0  0
  -11.5036    3.5231   19.2255 N   0  3  0  0  0  0  0  0  0  0  0  0
  -10.4114    4.2646   21.3359 C   0  0  0  0  0  0  0  0  0  0  0  0
   -9.1378    4.9696   21.8346 C   0  0  2  0  0  0  0  0  0  0  0  0
   -9.1154    5.0064   23.2654 O   0  0  0  0  0  0  0  0  0  0  0  0
   -9.0747    6.3962   21.2343 C   0  0  2  0  0  0  0  0  0  0  0  0
   -9.0994    6.3359   19.7797 O   0  0  0  0  0  0  0  0  0  0  0  0
   -7.8159    7.1663   21.6255 C   0  0  0  0  0  0  0  0  0  0  0  0
   -7.6775    7.2565   23.1028 N   0  3  0  0  0  0  0  0  0  0  0  0
  -13.8443    9.4910   18.0710 C   0  0  2  0  0  0  0  0  0  0  0  0
  -14.2925   10.7457   17.4395 N   0  3  0  0  0  0  0  0  0  0  0  0
  -12.9101    9.8013   19.2326 C   0  0  0  0  0  0  0  0  0  0  0  0
  -12.4340    8.5040   19.8955 C   0  0  2  0  0  0  0  0  0  0  0  0
  -11.6258    8.8567   21.0892 N   0  3  0  0  0  0  0  0  0  0  0  0
  -11.6981    7.5851   18.8749 C   0  0  2  0  0  0  0  0  0  0  0  0
  -12.6253    7.3144   17.6622 C   0  0  2  0  0  0  0  0  0  0  0  0
  -11.9062    6.6245   16.6688 O   0  0  0  0  0  0  0  0  0  0  0  0
  -13.1130    8.6331   17.0404 C   0  0  1  0  0  0  0  0  0  0  0  0
  -13.9864    8.3350   15.9517 O   0  0  0  0  0  0  0  0  0  0  0  0
  -13.6205    8.8011   14.6987 C   0  0  2  0  0  0  0  0  0  0  0  0
  -14.8465    8.7457   13.7713 C   0  0  2  0  0  0  0  0  0  0  0  0
  -15.8732    9.5580   14.3264 O   0  0  0  0  0  0  0  0  0  0  0  0
  -15.3323    7.2906   13.6510 C   0  0  1  0  0  0  0  0  0  0  0  0
  -16.5361    7.1769   12.7780 N   0  3  0  0  0  0  0  0  0  0  0  0
  -14.1798    6.4110   13.1079 C   0  0  2  0  0  0  0  0  0  0  0  0
  -14.5932    5.0500   13.0095 O   0  0  0  0  0  0  0  0  0  0  0  0
  -12.9417    6.5369   14.0151 C   0  0  2  0  0  0  0  0  0  0  0  0
  -12.5644    7.9522   14.1791 O   0  0  0  0  0  0  0  0  0  0  0  0
  -11.7393    5.8202   13.4418 C   0  0  0  0  0  0  0  0  0  0  0  0
  -10.5436    6.1558   14.1426 O   0  0  0  0  0  0  0  0  0  0  0  0
  1  2  1  1  0  0  0
  1  3  1  0  0  0  0
  1  9  1  0  0  0  0
  3  4  1  6  0  0  0
  3  5  1  0  0  0  0
  5  6  1  0  0  0  0
  6  7  1  1  0  0  0
  6  8  1  0  0  0  0
  8  9  1  0  0  0  0
  8 10  1  6  0  0  0
 10 11  1  0  0  0  0
 12 13  1  6  0  0  0
 12 14  1  0  0  0  0
 12 20  1  0  0  0  0
 14 15  1  0  0  0  0
 15 16  1  1  0  0  0
 15 17  1  0  0  0  0
 17  2  1  1  0  0  0
 17 18  1  0  0  0  0
 18 19  1  6  0  0  0
 18 20  1  0  0  0  0
 20 21  1  6  0  0  0
 22 21  1  1  0  0  0
 22 23  1  0  0  0  0
 22 30  1  0  0  0  0
 23 24  1  1  0  0  0
 23 25  1  0  0  0  0
 25 26  1  6  0  0  0
 25 27  1  0  0  0  0
 27 28  1  1  0  0  0
 27 29  1  0  0  0  0
 29 30  1  0  0  0  0
 29 31  1  6  0  0  0
 31 32  1  0  0  0  0
M  CHG  5   4   1  11   1  13   1  16   1  26   1
M  END
>  <CHROM.1>
-167.95070928,-144.34729447,-178.03562380,57.43362006,-56.65918377,-165.75253187
-69.40391332,78.82989620,-51.96386106,117.96527719,-163.64617009,160.60795253
111.39015341,177.22861314,168.55574261,-171.13547821,-12.09748206,7.07114064
17.58897173,-0.51887297,0.89221211,-2.30455108

>  <Name>
1lc4

>  <RI>
0

>  <Rbt.Current_Directory>
/home/afrankz/demos/rdock_decoys_rna/rnas/1lc4

>  <Rbt.Executable>
rbdock ($Id: //depot/dev/client3/rdock/2013.1/src/exe/rbdock.cxx#4 $)

>  <Rbt.Library>
libRbt.so (2013.1, Build901 2013/11/27)

>  <Rbt.Parameter_File>
/export/apps/rDock/src/rDock_2013.1_src/data/scripts/dock_solv.prm

>  <Rbt.Receptor>
prm/pocket_docking_6.prm

>  <SCORE>
-67.8717

>  <SCORE.INTER>
-54.386

>  <SCORE.INTER.CONST>
1

>  <SCORE.INTER.POLAR>
-7.9477

>  <SCORE.INTER.ROT>
6

>  <SCORE.INTER.SOLV>
21.0358

>  <SCORE.INTER.VDW>
-24.377

>  <SCORE.INTER.norm>
-1.69956

>  <SCORE.INTRA>
-13.4857

>  <SCORE.INTRA.DIHEDRAL>
-22.5476

>  <SCORE.INTRA.DIHEDRAL.0>
44.2576

>  <SCORE.INTRA.POLAR>
0.257666

>  <SCORE.INTRA.POLAR.0>
-0.381556

>  <SCORE.INTRA.REPUL>
0.0552217

>  <SCORE.INTRA.REPUL.0>
0

>  <SCORE.INTRA.SOLV>
0.12592

>  <SCORE.INTRA.SOLV.lig_0>
-134.592

>  <SCORE.INTRA.VDW>
-3.42698

>  <SCORE.INTRA.VDW.0>
-1.01417

>  <SCORE.INTRA.norm>
-0.421427

>  <SCORE.RESTR>
0

>  <SCORE.RESTR.CAVITY>
0

>  <SCORE.RESTR.norm>
0

>  <SCORE.SYSTEM>
0

>  <SCORE.SYSTEM.CONST>
0

>  <SCORE.SYSTEM.DIHEDRAL>
0

>  <SCORE.SYSTEM.SOLV>
0

>  <SCORE.SYSTEM.norm>
0

>  <SCORE.heavy>
32

>  <SCORE.norm>
-2.12099

>  <RMSD>
1.130

$$$$
1lc4
 OpenBabel02141814113D
libRbt.so/2013.1/901 2013/11/27
 32 34  0  0  0  0  0  0  0  0999 V2000
  -10.1420    5.6305   19.6575 C   0  0  2  0  0  0  0  0  0  0  0  0
  -11.1507    6.4800   20.1443 O   0  0  0  0  0  0  0  0  0  0  0  0
  -10.2250    4.2966   20.4274 C   0  0  2  0  0  0  0  0  0  0  0  0
  -11.5515    3.6942   20.2622 N   0  3  0  0  0  0  0  0  0  0  0  0
   -9.8900    4.5224   21.9205 C   0  0  0  0  0  0  0  0  0  0  0  0
   -8.4724    5.1166   21.9921 C   0  0  2  0  0  0  0  0  0  0  0  0
   -8.0789    5.3062   23.3554 O   0  0  0  0  0  0  0  0  0  0  0  0
   -8.4369    6.4507   21.2058 C   0  0  2  0  0  0  0  0  0  0  0  0
   -8.8407    6.2355   19.8235 O   0  0  0  0  0  0  0  0  0  0  0  0
   -7.0552    7.0992   21.1690 C   0  0  0  0  0  0  0  0  0  0  0  0
   -6.6453    7.5694   22.5182 N   0  3  0  0  0  0  0  0  0  0  0  0
  -13.4337    9.8177   18.8766 C   0  0  2  0  0  0  0  0  0  0  0  0
  -13.8441   11.0888   18.2521 N   0  3  0  0  0  0  0  0  0  0  0  0
  -12.3299   10.0736   19.8936 C   0  0  0  0  0  0  0  0  0  0  0  0
  -11.8918    8.7585   20.5476 C   0  0  2  0  0  0  0  0  0  0  0  0
  -10.9041    9.0698   21.6108 N   0  3  0  0  0  0  0  0  0  0  0  0
  -11.3845    7.7399   19.4835 C   0  0  2  0  0  0  0  0  0  0  0  0
  -12.4846    7.5210   18.4131 C   0  0  2  0  0  0  0  0  0  0  0  0
  -11.9693    6.7325   17.3677 O   0  0  0  0  0  0  0  0  0  0  0  0
  -12.9268    8.8598   17.8003 C   0  0  1  0  0  0  0  0  0  0  0  0
  -13.9598    8.6125   16.8472 O   0  0  0  0  0  0  0  0  0  0  0  0
  -13.6238    8.7146   15.5063 C   0  0  2  0  0  0  0  0  0  0  0  0
  -14.6465    9.6260   14.8065 C   0  0  2  0  0  0  0  0  0  0  0  0
  -14.6158   10.9046   15.4281 O   0  0  0  0  0  0  0  0  0  0  0  0
  -16.0514    9.0114   14.9337 C   0  0  1  0  0  0  0  0  0  0  0  0
  -17.0917    9.8646   14.2902 N   0  3  0  0  0  0  0  0  0  0  0  0
  -16.0468    7.5940   14.3108 C   0  0  2  0  0  0  0  0  0  0  0  0
  -17.3313    6.9883   14.4367 O   0  0  0  0  0  0  0  0  0  0  0  0
  -14.9686    6.7221   14.9807 C   0  0  2  0  0  0  0  0  0  0  0  0
  -13.6551    7.3880   14.9188 O   0  0  0  0  0  0  0  0  0  0  0  0
  -14.8180    5.3790   14.3015 C   0  0  0  0  0  0  0  0  0  0  0  0
  -13.9566    4.5119   15.0360 O   0  0  0  0  0  0  0  0  0  0  0  0
  1  2  1  1  0  0  0
  1  3  1  0  0  0  0
  1  9  1  0  0  0  0
  3  4  1  1  0  0  0
  3  5  1  0  0  0  0
  5  6  1  0  0  0  0
  6  7  1  1  0  0  0
  6  8  1  0  0  0  0
  8  9  1  0  0  0  0
  8 10  1  6  0  0  0
 10 11  1  0  0  0  0
 12 13  1  6  0  0  0
 12 14  1  0  0  0  0
 12 20  1  0  0  0  0
 14 15  1  0  0  0  0
 15 16  1  1  0  0  0
 15 17  1  0  0  0  0
 17  2  1  1  0  0  0
 17 18  1  0  0  0  0
 18 19  1  6  0  0  0
 18 20  1  0  0  0  0
 20 21  1  6  0  0  0
 22 21  1  1  0  0  0
 22 23  1  0  0  0  0
 22 30  1  0  0  0  0
 23 24  1  1  0  0  0
 23 25  1  0  0  0  0
 25 26  1  6  0  0  0
 25 27  1  0  0  0  0
 27 28  1  1  0  0  0
 27 29  1  0  0  0  0
 29 30  1  0  0  0  0
 29 31  1  6  0  0  0
 31 32  1  0  0  0  0
M  CHG  5   4   1  11   1  13   1  16   1  26   1
M  END
>  <CHROM.1>
-173.07719073,-149.27953280,-61.46884725,-51.80177314,-67.55431125,53.08728121
-58.48843781,-177.24232919,69.23554244,132.09296536,-129.45165829,59.10865857
-29.72949277,-62.60176181,-171.86594407,-178.73486233,-12.27333006,7.42101748
18.27030611,0.05580491,0.81205614,-2.89986523

>  <Name>
1lc4

>  <RI>
0

>  <Rbt.Current_Directory>
/home/afrankz/demos/rdock_decoys_rna/rnas/1lc4

>  <Rbt.Executable>
rbdock ($Id: //depot/dev/client3/rdock/2013.1/src/exe/rbdock.cxx#4 $)

>  <Rbt.Library>
libRbt.so (2013.1, Build901 2013/11/27)

>  <Rbt.Parameter_File>
/export/apps/rDock/src/rDock_2013.1_src/data/scripts/dock_solv.prm

>  <Rbt.Receptor>
prm/pocket_docking_5.prm

>  <SCORE>
-75.1284

>  <SCORE.INTER>
-55.8848

>  <SCORE.INTER.CONST>
1

>  <SCORE.INTER.POLAR>
-7.87795

>  <SCORE.INTER.ROT>
6

>  <SCORE.INTER.SOLV>
28.9568

>  <SCORE.INTER.VDW>
-28.249

>  <SCORE.INTER.norm>
-1.7464

>  <SCORE.INTRA>
-19.2436

>  <SCORE.INTRA.DIHEDRAL>
-23.7425

>  <SCORE.INTRA.DIHEDRAL.0>
44.2576

>  <SCORE.INTRA.POLAR>
-0.814255

>  <SCORE.INTRA.POLAR.0>
-0.381556

>  <SCORE.INTRA.REPUL>
0

>  <SCORE.INTRA.REPUL.0>
0

>  <SCORE.INTRA.SOLV>
0.16919

>  <SCORE.INTRA.SOLV.lig_0>
-134.592

>  <SCORE.INTRA.VDW>
-4.68854

>  <SCORE.INTRA.VDW.0>
-1.01417

>  <SCORE.INTRA.norm>
-0.601364

>  <SCORE.RESTR>
0

>  <SCORE.RESTR.CAVITY>
0

>  <SCORE.RESTR.norm>
0

>  <SCORE.SYSTEM>
0

>  <SCORE.SYSTEM.CONST>
0

>  <SCORE.SYSTEM.DIHEDRAL>
0

>  <SCORE.SYSTEM.SOLV>
0

>  <SCORE.SYSTEM.norm>
0

>  <SCORE.heavy>
32

>  <SCORE.norm>
-2.34776

>  <RMSD>
1.134

$$$$
1lc4
 OpenBabel02141814113D
libRbt.so/2013.1/901 2013/11/27
 32 34  0  0  0  0  0  0  0  0999 V2000
  -10.6043    5.3689   19.9964 C   0  0  2  0  0  0  0  0  0  0  0  0
  -11.4507    6.3895   20.4633 O   0  0  0  0  0  0  0  0  0  0  0  0
  -10.6356    4.2142   21.0185 C   0  0  2  0  0  0  0  0  0  0  0  0
  -12.0070    3.7268   21.1952 N   0  3  0  0  0  0  0  0  0  0  0  0
  -10.0236    4.6762   22.3618 C   0  0  0  0  0  0  0  0  0  0  0  0
   -8.5801    5.1293   22.0813 C   0  0  2  0  0  0  0  0  0  0  0  0
   -7.9364    5.5262   23.2968 O   0  0  0  0  0  0  0  0  0  0  0  0
   -8.5983    6.2859   21.0510 C   0  0  2  0  0  0  0  0  0  0  0  0
   -9.2572    5.8615   19.8239 O   0  0  0  0  0  0  0  0  0  0  0  0
   -7.2060    6.7757   20.6609 C   0  0  0  0  0  0  0  0  0  0  0  0
   -6.4137    7.1561   21.8597 N   0  3  0  0  0  0  0  0  0  0  0  0
  -13.5872    9.6630   18.8263 C   0  0  2  0  0  0  0  0  0  0  0  0
  -13.9446   10.8692   18.0575 N   0  3  0  0  0  0  0  0  0  0  0  0
  -12.4555    9.9825   19.7936 C   0  0  0  0  0  0  0  0  0  0  0  0
  -12.0720    8.7346   20.5967 C   0  0  2  0  0  0  0  0  0  0  0  0
  -11.0529    9.1205   21.6043 N   0  3  0  0  0  0  0  0  0  0  0  0
  -11.6331    7.5713   19.6579 C   0  0  2  0  0  0  0  0  0  0  0  0
  -12.7600    7.2820   18.6332 C   0  0  2  0  0  0  0  0  0  0  0  0
  -12.3014    6.3487   17.6852 O   0  0  0  0  0  0  0  0  0  0  0  0
  -13.1457    8.5584   17.8681 C   0  0  1  0  0  0  0  0  0  0  0  0
  -14.2052    8.2515   16.9626 O   0  0  0  0  0  0  0  0  0  0  0  0
  -13.9198    8.3136   15.6076 C   0  0  2  0  0  0  0  0  0  0  0  0
  -15.0904    9.0020   14.8850 C   0  0  2  0  0  0  0  0  0  0  0  0
  -15.2505   10.3088   15.4223 O   0  0  0  0  0  0  0  0  0  0  0  0
  -16.3758    8.1833   15.0973 C   0  0  1  0  0  0  0  0  0  0  0  0
  -17.5531    8.8155   14.4352 N   0  3  0  0  0  0  0  0  0  0  0  0
  -16.1586    6.7453   14.5664 C   0  0  2  0  0  0  0  0  0  0  0  0
  -17.3267    5.9543   14.7729 O   0  0  0  0  0  0  0  0  0  0  0  0
  -14.9403    6.1024   15.2548 C   0  0  2  0  0  0  0  0  0  0  0  0
  -13.7518    6.9617   15.1073 O   0  0  0  0  0  0  0  0  0  0  0  0
  -14.5922    4.7567   14.6582 C   0  0  0  0  0  0  0  0  0  0  0  0
  -14.1449    4.8791   13.3098 O   0  0  0  0  0  0  0  0  0  0  0  0
  1  2  1  1  0  0  0
  1  3  1  0  0  0  0
  1  9  1  0  0  0  0
  3  4  1  1  0  0  0
  3  5  1  0  0  0  0
  5  6  1  0  0  0  0
  6  7  1  1  0  0  0
  6  8  1  0  0  0  0
  8  9  1  0  0  0  0
  8 10  1  6  0  0  0
 10 11  1  0  0  0  0
 12 13  1  6  0  0  0
 12 14  1  0  0  0  0
 12 20  1  0  0  0  0
 14 15  1  0  0  0  0
 15 16  1  1  0  0  0
 15 17  1  0  0  0  0
 17  2  1  1  0  0  0
 17 18  1  0  0  0  0
 18 19  1  6  0  0  0
 18 20  1  0  0  0  0
 20 21  1  6  0  0  0
 22 21  1  1  0  0  0
 22 23  1  0  0  0  0
 22 30  1  0  0  0  0
 23 24  1  1  0  0  0
 23 25  1  0  0  0  0
 25 26  1  6  0  0  0
 25 27  1  0  0  0  0
 27 28  1  1  0  0  0
 27 29  1  0  0  0  0
 29 30  1  0  0  0  0
 29 31  1  6  0  0  0
 31 32  1  0  0  0  0
M  CHG  5   4   1  11   1  13   1  16   1  26   1
M  END
>  <CHROM.1>
-177.87686566,-156.32361771,-48.09802227,-47.92972777,-54.52900093,-78.40653280
176.83639692,-55.56707064,-58.93590632,125.45014644,-137.36229486,159.29056474
-63.63640167,172.64263325,66.04763217,-73.01258529,-12.47954184,7.11770741
18.31821795,-0.04079904,0.80068372,-2.85418699

>  <Name>
1lc4

>  <RI>
0

>  <Rbt.Current_Directory>
/home/afrankz/demos/rdock_decoys_rna/rnas/1lc4

>  <Rbt.Executable>
rbdock ($Id: //depot/dev/client3/rdock/2013.1/src/exe/rbdock.cxx#4 $)

>  <Rbt.Library>
libRbt.so (2013.1, Build901 2013/11/27)

>  <Rbt.Parameter_File>
/export/apps/rDock/src/rDock_2013.1_src/data/scripts/dock_solv.prm

>  <Rbt.Receptor>
prm/pocket_docking_4.prm

>  <SCORE>
-79.5564

>  <SCORE.INTER>
-58.5854

>  <SCORE.INTER.CONST>
1

>  <SCORE.INTER.POLAR>
-8.98402

>  <SCORE.INTER.ROT>
6

>  <SCORE.INTER.SOLV>
28.4233

>  <SCORE.INTER.VDW>
-26.1847

>  <SCORE.INTER.norm>
-1.8308

>  <SCORE.INTRA>
-20.9709

>  <SCORE.INTRA.DIHEDRAL>
-23.7063

>  <SCORE.INTRA.DIHEDRAL.0>
44.2576

>  <SCORE.INTRA.POLAR>
-1.55524

>  <SCORE.INTRA.POLAR.0>
-0.381556

>  <SCORE.INTRA.REPUL>
0

>  <SCORE.INTRA.REPUL.0>
0

>  <SCORE.INTRA.SOLV>
0.17561

>  <SCORE.INTRA.SOLV.lig_0>
-134.592

>  <SCORE.INTRA.VDW>
-3.91774

>  <SCORE.INTRA.VDW.0>
-1.01417

>  <SCORE.INTRA.norm>
-0.655341

>  <SCORE.RESTR>
0

>  <SCORE.RESTR.CAVITY>
0

>  <SCORE.RESTR.norm>
0

>  <SCORE.SYSTEM>
0

>  <SCORE.SYSTEM.CONST>
0

>  <SCORE.SYSTEM.DIHEDRAL>
0

>  <SCORE.SYSTEM.SOLV>
0

>  <SCORE.SYSTEM.norm>
0

>  <SCORE.heavy>
32

>  <SCORE.norm>
-2.48614

>  <RMSD>
1.166

$$$$
1lc4
 OpenBabel02141814113D
libRbt.so/2013.1/901 2013/11/27
 32 34  0  0  0  0  0  0  0  0999 V2000
  -10.1923    5.5934   19.3986 C   0  0  2  0  0  0  0  0  0  0  0  0
  -11.2780    6.4255   19.7221 O   0  0  0  0  0  0  0  0  0  0  0  0
  -10.4933    4.1801   19.9379 C   0  0  2  0  0  0  0  0  0  0  0  0
  -11.7421    3.6703   19.3632 N   0  3  0  0  0  0  0  0  0  0  0  0
  -10.5511    4.2016   21.4835 C   0  0  0  0  0  0  0  0  0  0  0  0
   -9.1903    4.7103   21.9906 C   0  0  2  0  0  0  0  0  0  0  0  0
   -9.1588    4.7091   23.4218 O   0  0  0  0  0  0  0  0  0  0  0  0
   -8.9308    6.1282   21.4235 C   0  0  2  0  0  0  0  0  0  0  0  0
   -8.9679    6.1069   19.9681 O   0  0  0  0  0  0  0  0  0  0  0  0
   -7.5758    6.7059   21.8248 C   0  0  0  0  0  0  0  0  0  0  0  0
   -7.6737    7.4781   23.0912 N   0  3  0  0  0  0  0  0  0  0  0  0
  -13.6697    9.2537   17.6627 C   0  0  2  0  0  0  0  0  0  0  0  0
  -14.1062   10.4003   16.8451 N   0  3  0  0  0  0  0  0  0  0  0  0
  -12.8924    9.7486   18.8749 C   0  0  0  0  0  0  0  0  0  0  0  0
  -12.4296    8.5649   19.7315 C   0  0  2  0  0  0  0  0  0  0  0  0
  -11.7832    9.0974   20.9568 N   0  3  0  0  0  0  0  0  0  0  0  0
  -11.5349    7.5889   18.9103 C   0  0  2  0  0  0  0  0  0  0  0  0
  -12.3014    7.1281   17.6439 C   0  0  2  0  0  0  0  0  0  0  0  0
  -11.4382    6.3810   16.8211 O   0  0  0  0  0  0  0  0  0  0  0  0
  -12.7815    8.3367   16.8240 C   0  0  1  0  0  0  0  0  0  0  0  0
  -13.5074    7.8657   15.6891 O   0  0  0  0  0  0  0  0  0  0  0  0
  -13.4985    8.6624   14.5548 C   0  0  2  0  0  0  0  0  0  0  0  0
  -14.9127    8.6803   13.9499 C   0  0  2  0  0  0  0  0  0  0  0  0
  -15.8146    9.2002   14.9186 O   0  0  0  0  0  0  0  0  0  0  0  0
  -15.3223    7.2484   13.5629 C   0  0  1  0  0  0  0  0  0  0  0  0
  -16.6977    7.1998   12.9886 N   0  3  0  0  0  0  0  0  0  0  0  0
  -14.2916    6.6764   12.5591 C   0  0  2  0  0  0  0  0  0  0  0  0
  -14.6317    5.3389   12.2010 O   0  0  0  0  0  0  0  0  0  0  0  0
  -12.8752    6.7327   13.1609 C   0  0  2  0  0  0  0  0  0  0  0  0
  -12.5569    8.1023   13.6031 O   0  0  0  0  0  0  0  0  0  0  0  0
  -11.8140    6.3311   12.1606 C   0  0  0  0  0  0  0  0  0  0  0  0
  -11.9360    4.9605   11.7864 O   0  0  0  0  0  0  0  0  0  0  0  0
  1  2  1  1  0  0  0
  1  3  1  0  0  0  0
  1  9  1  0  0  0  0
  3  4  1  6  0  0  0
  3  5  1  0  0  0  0
  5  6  1  0  0  0  0
  6  7  1  1  0  0  0
  6  8  1  0  0  0  0
  8  9  1  0  0  0  0
  8 10  1  6  0  0  0
 10 11  1  0  0  0  0
 12 13  1  6  0  0  0
 12 14  1  0  0  0  0
 12 20  1  0  0  0  0
 14 15  1  0  0  0  0
 15 16  1  1  0  0  0
 15 17  1  0  0  0  0
 17  2  1  1  0  0  0
 17 18  1  0  0  0  0
 18 19  1  6  0  0  0
 18 20  1  0  0  0  0
 20 21  1  6  0  0  0
 22 21  1  1  0  0  0
 22 23  1  0  0  0  0
 22 30  1  0  0  0  0
 23 24  1  1  0  0  0
 23 25  1  0  0  0  0
 25 26  1  6  0  0  0
 25 27  1  0  0  0  0
 27 28  1  1  0  0  0
 27 29  1  0  0  0  0
 29 30  1  0  0  0  0
 29 31  1  6  0  0  0
 31 32  1  0  0  0  0
M  CHG  5   4   1  11   1  13   1  16   1  26   1
M  END
>  <CHROM.1>
-154.59948745,-160.81407983,-176.91974925,171.00560399,-90.55115898,33.29200254
-42.32863764,164.24328560,178.96893712,86.76492898,-138.35043422,-74.59495102
167.35187393,-61.91381555,-65.61267576,-179.05733256,-12.09224219,6.97084590
17.40090688,-0.63489794,0.89844124,-2.22516034

>  <Name>
1lc4

>  <RI>
0

>  <Rbt.Current_Directory>
/home/afrankz/demos/rdock_decoys_rna/rnas/1lc4

>  <Rbt.Executable>
rbdock ($Id: //depot/dev/client3/rdock/2013.1/src/exe/rbdock.cxx#4 $)

>  <Rbt.Library>
libRbt.so (2013.1, Build901 2013/11/27)

>  <Rbt.Parameter_File>
/export/apps/rDock/src/rDock_2013.1_src/data/scripts/dock_solv.prm

>  <Rbt.Receptor>
prm/pocket_docking_3.prm

>  <SCORE>
-60.1342

>  <SCORE.INTER>
-43.2161

>  <SCORE.INTER.CONST>
1

>  <SCORE.INTER.POLAR>
-5.55757

>  <SCORE.INTER.ROT>
6

>  <SCORE.INTER.SOLV>
19.2726

>  <SCORE.INTER.VDW>
-24.3097

>  <SCORE.INTER.norm>
-1.3505

>  <SCORE.INTRA>
-16.918

>  <SCORE.INTRA.DIHEDRAL>
-23.6872

>  <SCORE.INTRA.DIHEDRAL.0>
44.2576

>  <SCORE.INTRA.POLAR>
-0.381114

>  <SCORE.INTRA.POLAR.0>
-0.381556

>  <SCORE.INTRA.REPUL>
0

>  <SCORE.INTRA.REPUL.0>
0

>  <SCORE.INTRA.SOLV>
-0.428217

>  <SCORE.INTRA.SOLV.lig_0>
-134.592

>  <SCORE.INTRA.VDW>
-3.56457

>  <SCORE.INTRA.VDW.0>
-1.01417

>  <SCORE.INTRA.norm>
-0.528689

>  <SCORE.RESTR>
0

>  <SCORE.RESTR.CAVITY>
0

>  <SCORE.RESTR.norm>
0

>  <SCORE.SYSTEM>
0

>  <SCORE.SYSTEM.CONST>
0

>  <SCORE.SYSTEM.DIHEDRAL>
0

>  <SCORE.SYSTEM.SOLV>
0

>  <SCORE.SYSTEM.norm>
0

>  <SCORE.heavy>
32

>  <SCORE.norm>
-1.87919

>  <RMSD>
1.184

$$$$
1lc4
 OpenBabel02141814113D
libRbt.so/2013.1/901 2013/11/27
 32 34  0  0  0  0  0  0  0  0999 V2000
   -9.8633    6.0897   19.3803 C   0  0  2  0  0  0  0  0  0  0  0  0
  -11.1563    6.6101   19.5631 O   0  0  0  0  0  0  0  0  0  0  0  0
   -9.8683    4.6184   19.8430 C   0  0  2  0  0  0  0  0  0  0  0  0
  -10.8615    3.8494   19.0868 N   0  3  0  0  0  0  0  0  0  0  0  0
  -10.1338    4.5402   21.3648 C   0  0  0  0  0  0  0  0  0  0  0  0
   -9.0240    5.3394   22.0700 C   0  0  2  0  0  0  0  0  0  0  0  0
   -9.1829    5.2675   23.4909 O   0  0  0  0  0  0  0  0  0  0  0  0
   -9.0563    6.8065   21.5740 C   0  0  2  0  0  0  0  0  0  0  0  0
   -8.8938    6.8566   20.1279 O   0  0  0  0  0  0  0  0  0  0  0  0
   -7.9554    7.6768   22.1750 C   0  0  0  0  0  0  0  0  0  0  0  0
   -7.7812    8.9344   21.4019 N   0  3  0  0  0  0  0  0  0  0  0  0
  -13.8165    9.4413   17.8698 C   0  0  2  0  0  0  0  0  0  0  0  0
  -14.3631   10.6274   17.1854 N   0  3  0  0  0  0  0  0  0  0  0  0
  -13.0341    9.8705   19.1034 C   0  0  0  0  0  0  0  0  0  0  0  0
  -12.4573    8.6458   19.8221 C   0  0  2  0  0  0  0  0  0  0  0  0
  -11.8075    9.1010   21.0763 N   0  3  0  0  0  0  0  0  0  0  0  0
  -11.5248    7.8258   18.8811 C   0  0  2  0  0  0  0  0  0  0  0  0
  -12.3009    7.4366   17.5966 C   0  0  2  0  0  0  0  0  0  0  0  0
  -11.4163    6.8416   16.6782 O   0  0  0  0  0  0  0  0  0  0  0  0
  -12.8954    8.6812   16.9176 C   0  0  1  0  0  0  0  0  0  0  0  0
  -13.6256    8.2720   15.7617 O   0  0  0  0  0  0  0  0  0  0  0  0
  -13.2459    8.8173   14.5453 C   0  0  2  0  0  0  0  0  0  0  0  0
  -14.4686    8.8488   13.6123 C   0  0  2  0  0  0  0  0  0  0  0  0
  -15.4830    9.6391   14.2193 O   0  0  0  0  0  0  0  0  0  0  0  0
  -14.9798    7.4147   13.3897 C   0  0  1  0  0  0  0  0  0  0  0  0
  -16.1816    7.3837   12.5071 N   0  3  0  0  0  0  0  0  0  0  0  0
  -13.8409    6.5540   12.7904 C   0  0  2  0  0  0  0  0  0  0  0  0
  -14.2782    5.2110   12.5962 O   0  0  0  0  0  0  0  0  0  0  0  0
  -12.6048    6.5940   13.7080 C   0  0  2  0  0  0  0  0  0  0  0  0
  -12.2029    7.9875   13.9712 O   0  0  0  0  0  0  0  0  0  0  0  0
  -11.4129    5.8972   13.0901 C   0  0  0  0  0  0  0  0  0  0  0  0
  -10.3090    5.8448   13.9913 O   0  0  0  0  0  0  0  0  0  0  0  0
  1  2  1  1  0  0  0
  1  3  1  0  0  0  0
  1  9  1  0  0  0  0
  3  4  1  6  0  0  0
  3  5  1  0  0  0  0
  5  6  1  0  0  0  0
  6  7  1  1  0  0  0
  6  8  1  0  0  0  0
  8  9  1  0  0  0  0
  8 10  1  1  0  0  0
 10 11  1  0  0  0  0
 12 13  1  6  0  0  0
 12 14  1  0  0  0  0
 12 20  1  0  0  0  0
 14 15  1  0  0  0  0
 15 16  1  1  0  0  0
 15 17  1  0  0  0  0
 17  2  1  1  0  0  0
 17 18  1  0  0  0  0
 18 19  1  6  0  0  0
 18 20  1  0  0  0  0
 20 21  1  6  0  0  0
 22 21  1  1  0  0  0
 22 23  1  0  0  0  0
 22 30  1  0  0  0  0
 23 24  1  1  0  0  0
 23 25  1  0  0  0  0
 25 26  1  6  0  0  0
 25 27  1  0  0  0  0
 27 28  1  1  0  0  0
 27 29  1  0  0  0  0
 29 30  1  0  0  0  0
 29 31  1  6  0  0  0
 31 32  1  0  0  0  0
M  CHG  5   4   1  11   1  13   1  16   1  26   1
M  END
>  <CHROM.1>
-162.96645252,-144.08646684,-101.54048601,64.46586564,163.82765268,-67.99579474
45.45145302,57.42551180,37.79012808,115.58871857,-152.19454743,170.19124916
99.76021216,-58.58569239,-175.22510379,-101.03930370,-11.88153492,7.29712168
17.46759611,-0.64148004,0.87252399,-2.22728211

>  <Name>
1lc4

>  <RI>
0

>  <Rbt.Current_Directory>
/home/afrankz/demos/rdock_decoys_rna/rnas/1lc4

>  <Rbt.Executable>
rbdock ($Id: //depot/dev/client3/rdock/2013.1/src/exe/rbdock.cxx#4 $)

>  <Rbt.Library>
libRbt.so (2013.1, Build901 2013/11/27)

>  <Rbt.Parameter_File>
/export/apps/rDock/src/rDock_2013.1_src/data/scripts/dock_solv.prm

>  <Rbt.Receptor>
prm/blind_docking_80.prm

>  <SCORE>
-58.1222

>  <SCORE.INTER>
-56.144

>  <SCORE.INTER.CONST>
1

>  <SCORE.INTER.POLAR>
-9.47082

>  <SCORE.INTER.ROT>
6

>  <SCORE.INTER.SOLV>
28.615

>  <SCORE.INTER.VDW>
-22.9982

>  <SCORE.INTER.norm>
-1.7545

>  <SCORE.INTRA>
-8.35493

>  <SCORE.INTRA.DIHEDRAL>
-12.4287

>  <SCORE.INTRA.DIHEDRAL.0>
44.2576

>  <SCORE.INTRA.POLAR>
-0.306246

>  <SCORE.INTRA.POLAR.0>
-0.381556

>  <SCORE.INTRA.REPUL>
0.264301

>  <SCORE.INTRA.REPUL.0>
0

>  <SCORE.INTRA.SOLV>
0.762091

>  <SCORE.INTRA.SOLV.lig_0>
-134.592

>  <SCORE.INTRA.VDW>
-2.8019

>  <SCORE.INTRA.VDW.0>
-1.01417

>  <SCORE.INTRA.norm>
-0.261092

>  <SCORE.RESTR>
6.37675

>  <SCORE.RESTR.CAVITY>
6.37675

>  <SCORE.RESTR.norm>
0.199273

>  <SCORE.SYSTEM>
0

>  <SCORE.SYSTEM.CONST>
0

>  <SCORE.SYSTEM.DIHEDRAL>
0

>  <SCORE.SYSTEM.SOLV>
0

>  <SCORE.SYSTEM.norm>
0

>  <SCORE.heavy>
32

>  <SCORE.norm>
-1.81632

>  <RMSD>
1.189

$$$$
1lc4
 OpenBabel02141814113D
libRbt.so/2013.1/901 2013/11/27
 32 34  0  0  0  0  0  0  0  0999 V2000
  -10.1100    5.8458   19.1903 C   0  0  2  0  0  0  0  0  0  0  0  0
  -11.4038    6.3769   19.3318 O   0  0  0  0  0  0  0  0  0  0  0  0
  -10.1637    4.3479   19.5542 C   0  0  2  0  0  0  0  0  0  0  0  0
  -11.1217    3.6480   18.6928 N   0  3  0  0  0  0  0  0  0  0  0  0
  -10.5196    4.1762   21.0497 C   0  0  0  0  0  0  0  0  0  0  0  0
   -9.4417    4.9074   21.8690 C   0  0  2  0  0  0  0  0  0  0  0  0
   -9.6852    4.7466   23.2704 O   0  0  0  0  0  0  0  0  0  0  0  0
   -9.4234    6.4040   21.4695 C   0  0  2  0  0  0  0  0  0  0  0  0
   -9.1752    6.5447   20.0417 O   0  0  0  0  0  0  0  0  0  0  0  0
   -8.3473    7.2131   22.1891 C   0  0  0  0  0  0  0  0  0  0  0  0
   -6.9910    6.6719   21.9112 N   0  3  0  0  0  0  0  0  0  0  0  0
  -13.9282    9.4901   17.9549 C   0  0  2  0  0  0  0  0  0  0  0  0
  -14.4216   10.7358   17.3396 N   0  3  0  0  0  0  0  0  0  0  0  0
  -12.9738    9.8188   19.0948 C   0  0  0  0  0  0  0  0  0  0  0  0
  -12.4507    8.5311   19.7408 C   0  0  2  0  0  0  0  0  0  0  0  0
  -11.6225    8.8990   20.9160 N   0  3  0  0  0  0  0  0  0  0  0  0
  -11.7179    7.6338   18.6991 C   0  0  2  0  0  0  0  0  0  0  0  0
  -12.6675    7.3450   17.5080 C   0  0  2  0  0  0  0  0  0  0  0  0
  -11.9563    6.6760   16.4948 O   0  0  0  0  0  0  0  0  0  0  0  0
  -13.2017    8.6536   16.9035 C   0  0  1  0  0  0  0  0  0  0  0  0
  -14.0937    8.3383   15.8351 O   0  0  0  0  0  0  0  0  0  0  0  0
  -13.8297    8.9072   14.5990 C   0  0  2  0  0  0  0  0  0  0  0  0
  -15.0864    8.7893   13.7198 C   0  0  2  0  0  0  0  0  0  0  0  0
  -16.1569    9.4685   14.3640 O   0  0  0  0  0  0  0  0  0  0  0  0
  -15.4418    7.3042   13.5310 C   0  0  1  0  0  0  0  0  0  0  0  0
  -16.6687    7.1273   12.7017 N   0  3  0  0  0  0  0  0  0  0  0  0
  -14.2395    6.5691   12.8897 C   0  0  2  0  0  0  0  0  0  0  0  0
  -14.5306    5.1831   12.7254 O   0  0  0  0  0  0  0  0  0  0  0  0
  -12.9781    6.7593   13.7524 C   0  0  2  0  0  0  0  0  0  0  0  0
  -12.7250    8.1923   13.9868 O   0  0  0  0  0  0  0  0  0  0  0  0
  -11.7425    6.1928   13.0889 C   0  0  0  0  0  0  0  0  0  0  0  0
  -11.0133    5.3440   13.9728 O   0  0  0  0  0  0  0  0  0  0  0  0
  1  2  1  1  0  0  0
  1  3  1  0  0  0  0
  1  9  1  0  0  0  0
  3  4  1  6  0  0  0
  3  5  1  0  0  0  0
  5  6  1  0  0  0  0
  6  7  1  1  0  0  0
  6  8  1  0  0  0  0
  8  9  1  0  0  0  0
  8 10  1  1  0  0  0
 10 11  1  0  0  0  0
 12 13  1  6  0  0  0
 12 14  1  0  0  0  0
 12 20  1  0  0  0  0
 14 15  1  0  0  0  0
 15 16  1  1  0  0  0
 15 17  1  0  0  0  0
 17  2  1  1  0  0  0
 17 18  1  0  0  0  0
 18 19  1  6  0  0  0
 18 20  1  0  0  0  0
 20 21  1  6  0  0  0
 22 21  1  1  0  0  0
 22 23  1  0  0  0  0
 22 30  1  0  0  0  0
 23 24  1  1  0  0  0
 23 25  1  0  0  0  0
 25 26  1  6  0  0  0
 25 27  1  0  0  0  0
 27 28  1  1  0  0  0
 27 29  1  0  0  0  0
 29 30  1  0  0  0  0
 29 31  1  6  0  0  0
 31 32  1  0  0  0  0
M  CHG  5   4   1  11   1  13   1  16   1  26   1
M  END
>  <CHROM.1>
-162.30398602,-133.01551119,-177.95852468,-135.24477865,59.24491184,165.82192550
-73.38076780,92.24020267,96.39922516,112.82838703,-163.72533656,73.04316857
111.93086224,68.69988599,-130.01192248,-46.21722604,-12.18444589,7.07655541
17.43960224,-0.54193321,0.87183142,-2.25557362

>  <Name>
1lc4

>  <RI>
0

>  <Rbt.Current_Directory>
/home/afrankz/demos/rdock_decoys_rna/rnas/1lc4

>  <Rbt.Executable>
rbdock ($Id: //depot/dev/client3/rdock/2013.1/src/exe/rbdock.cxx#4 $)

>  <Rbt.Library>
libRbt.so (2013.1, Build901 2013/11/27)

>  <Rbt.Parameter_File>
/export/apps/rDock/src/rDock_2013.1_src/data/scripts/dock_solv.prm

>  <Rbt.Receptor>
prm/pocket_docking_3.prm

>  <SCORE>
-57.0075

>  <SCORE.INTER>
-50.8362

>  <SCORE.INTER.CONST>
1

>  <SCORE.INTER.POLAR>
-7.30692

>  <SCORE.INTER.ROT>
6

>  <SCORE.INTER.SOLV>
25.6094

>  <SCORE.INTER.VDW>
-25.6708

>  <SCORE.INTER.norm>
-1.58863

>  <SCORE.INTRA>
-6.17711

>  <SCORE.INTRA.DIHEDRAL>
-3.98206

>  <SCORE.INTRA.DIHEDRAL.0>
44.2576

>  <SCORE.INTRA.POLAR>
-0.541402

>  <SCORE.INTRA.POLAR.0>
-0.381556

>  <SCORE.INTRA.REPUL>
0

>  <SCORE.INTRA.REPUL.0>
0

>  <SCORE.INTRA.SOLV>
1.11957

>  <SCORE.INTRA.SOLV.lig_0>
-134.592

>  <SCORE.INTRA.VDW>
-2.90509

>  <SCORE.INTRA.VDW.0>
-1.01417

>  <SCORE.INTRA.norm>
-0.193035

>  <SCORE.RESTR>
0.00580601

>  <SCORE.RESTR.CAVITY>
0.00580601

>  <SCORE.RESTR.norm>
0.000181438

>  <SCORE.SYSTEM>
0

>  <SCORE.SYSTEM.CONST>
0

>  <SCORE.SYSTEM.DIHEDRAL>
0

>  <SCORE.SYSTEM.SOLV>
0

>  <SCORE.SYSTEM.norm>
0

>  <SCORE.heavy>
32

>  <SCORE.norm>
-1.78148

>  <RMSD>
1.209

$$$$
1lc4
 OpenBabel02141814113D
libRbt.so/2013.1/901 2013/11/27
 32 34  0  0  0  0  0  0  0  0999 V2000
   -9.8754    7.1765   19.6196 C   0  0  2  0  0  0  0  0  0  0  0  0
  -11.2343    7.5000   19.7768 O   0  0  0  0  0  0  0  0  0  0  0  0
   -9.7425    5.6400   19.6392 C   0  0  2  0  0  0  0  0  0  0  0  0
  -10.5562    5.0442   18.5750 N   0  3  0  0  0  0  0  0  0  0  0  0
  -10.1402    5.0892   21.0288 C   0  0  0  0  0  0  0  0  0  0  0  0
   -9.2101    5.7394   22.0680 C   0  0  2  0  0  0  0  0  0  0  0  0
   -9.4937    5.2344   23.3771 O   0  0  0  0  0  0  0  0  0  0  0  0
   -9.3762    7.2785   22.0108 C   0  0  2  0  0  0  0  0  0  0  0  0
   -9.0839    7.7707   20.6720 O   0  0  0  0  0  0  0  0  0  0  0  0
   -8.4537    8.0265   22.9702 C   0  0  0  0  0  0  0  0  0  0  0  0
   -8.5626    9.4973   22.7845 N   0  3  0  0  0  0  0  0  0  0  0  0
  -14.2780    9.7948   17.9248 C   0  0  2  0  0  0  0  0  0  0  0  0
  -14.9934   10.8497   17.1838 N   0  3  0  0  0  0  0  0  0  0  0  0
  -13.6047   10.3914   19.1533 C   0  0  0  0  0  0  0  0  0  0  0  0
  -12.8539    9.3046   19.9308 C   0  0  2  0  0  0  0  0  0  0  0  0
  -12.3162    9.9060   21.1765 N   0  3  0  0  0  0  0  0  0  0  0  0
  -11.7789    8.6132   19.0400 C   0  0  2  0  0  0  0  0  0  0  0  0
  -12.4512    8.0552   17.7592 C   0  0  2  0  0  0  0  0  0  0  0  0
  -11.4605    7.5786   16.8809 O   0  0  0  0  0  0  0  0  0  0  0  0
  -13.2236    9.1601   17.0202 C   0  0  1  0  0  0  0  0  0  0  0  0
  -13.8504    8.5947   15.8695 O   0  0  0  0  0  0  0  0  0  0  0  0
  -13.4724    9.0920   14.6321 C   0  0  2  0  0  0  0  0  0  0  0  0
  -14.6964    9.0874   13.7004 C   0  0  2  0  0  0  0  0  0  0  0  0
  -15.7097    9.9011   14.2776 O   0  0  0  0  0  0  0  0  0  0  0  0
  -15.2083    7.6458   13.5347 C   0  0  1  0  0  0  0  0  0  0  0  0
  -16.4114    7.5808   12.6557 N   0  3  0  0  0  0  0  0  0  0  0  0
  -14.0705    6.7620   12.9679 C   0  0  2  0  0  0  0  0  0  0  0  0
  -14.5085    5.4125   12.8269 O   0  0  0  0  0  0  0  0  0  0  0  0
  -12.8330    6.8374   13.8814 C   0  0  2  0  0  0  0  0  0  0  0  0
  -12.4304    8.2400   14.0894 O   0  0  0  0  0  0  0  0  0  0  0  0
  -11.6422    6.1166   13.2895 C   0  0  0  0  0  0  0  0  0  0  0  0
  -10.4839    6.2530   14.1099 O   0  0  0  0  0  0  0  0  0  0  0  0
  1  2  1  1  0  0  0
  1  3  1  0  0  0  0
  1  9  1  0  0  0  0
  3  4  1  6  0  0  0
  3  5  1  0  0  0  0
  5  6  1  0  0  0  0
  6  7  1  1  0  0  0
  6  8  1  0  0  0  0
  8  9  1  0  0  0  0
  8 10  1  1  0  0  0
 10 11  1  0  0  0  0
 12 13  1  6  0  0  0
 12 14  1  0  0  0  0
 12 20  1  0  0  0  0
 14 15  1  0  0  0  0
 15 16  1  1  0  0  0
 15 17  1  0  0  0  0
 17  2  1  1  0  0  0
 17 18  1  0  0  0  0
 18 19  1  6  0  0  0
 18 20  1  0  0  0  0
 20 21  1  6  0  0  0
 22 21  1  1  0  0  0
 22 23  1  0  0  0  0
 22 30  1  0  0  0  0
 23 24  1  1  0  0  0
 23 25  1  0  0  0  0
 25 26  1  6  0  0  0
 25 27  1  0  0  0  0
 27 28  1  1  0  0  0
 27 29  1  0  0  0  0
 29 30  1  0  0  0  0
 29 31  1  6  0  0  0
 31 32  1  0  0  0  0
M  CHG  5   4   1  11   1  13   1  16   1  26   1
M  END
>  <CHROM.1>
-142.27311357,-145.18315816,158.24088822,-153.50915006,174.68881271,83.52062216
48.86075339,-79.63695464,178.20872595,119.56538686,-145.23863954,167.36801635
-136.25341685,-53.51076891,176.91372366,-163.57681574,-12.13516134,7.78795925
17.62532772,-0.74061819,0.80961137,-2.16142006

>  <Name>
1lc4

>  <RI>
0

>  <Rbt.Current_Directory>
/home/afrankz/demos/rdock_decoys_rna/rnas/1lc4

>  <Rbt.Executable>
rbdock ($Id: //depot/dev/client3/rdock/2013.1/src/exe/rbdock.cxx#4 $)

>  <Rbt.Library>
libRbt.so (2013.1, Build901 2013/11/27)

>  <Rbt.Parameter_File>
/export/apps/rDock/src/rDock_2013.1_src/data/scripts/dock_solv.prm

>  <Rbt.Receptor>
prm/blind_docking_80.prm

>  <SCORE>
-52.5611

>  <SCORE.INTER>
-44.8009

>  <SCORE.INTER.CONST>
1

>  <SCORE.INTER.POLAR>
-7.84786

>  <SCORE.INTER.ROT>
6

>  <SCORE.INTER.SOLV>
28.74

>  <SCORE.INTER.VDW>
-20.8877

>  <SCORE.INTER.norm>
-1.40003

>  <SCORE.INTRA>
-12.4536

>  <SCORE.INTRA.DIHEDRAL>
-11.3129

>  <SCORE.INTRA.DIHEDRAL.0>
44.2576

>  <SCORE.INTRA.POLAR>
-1.35786

>  <SCORE.INTRA.POLAR.0>
-0.381556

>  <SCORE.INTRA.REPUL>
0

>  <SCORE.INTRA.REPUL.0>
0

>  <SCORE.INTRA.SOLV>
1.16957

>  <SCORE.INTRA.SOLV.lig_0>
-134.592

>  <SCORE.INTRA.VDW>
-2.76517

>  <SCORE.INTRA.VDW.0>
-1.01417

>  <SCORE.INTRA.norm>
-0.389174

>  <SCORE.RESTR>
4.69334

>  <SCORE.RESTR.CAVITY>
4.69334

>  <SCORE.RESTR.norm>
0.146667

>  <SCORE.SYSTEM>
0

>  <SCORE.SYSTEM.CONST>
0

>  <SCORE.SYSTEM.DIHEDRAL>
0

>  <SCORE.SYSTEM.SOLV>
0

>  <SCORE.SYSTEM.norm>
0

>  <SCORE.heavy>
32

>  <SCORE.norm>
-1.64253

>  <RMSD>
1.213

$$$$
1lc4
 OpenBabel02141814113D
libRbt.so/2013.1/901 2013/11/27
 32 34  0  0  0  0  0  0  0  0999 V2000
  -10.5021    6.0937   19.5847 C   0  0  2  0  0  0  0  0  0  0  0  0
  -11.4881    6.9827   20.0471 O   0  0  0  0  0  0  0  0  0  0  0  0
  -10.8254    4.6898   20.1354 C   0  0  2  0  0  0  0  0  0  0  0  0
  -12.1626    4.2691   19.7058 N   0  3  0  0  0  0  0  0  0  0  0  0
  -10.6994    4.6809   21.6770 C   0  0  0  0  0  0  0  0  0  0  0  0
   -9.2592    5.0953   22.0261 C   0  0  2  0  0  0  0  0  0  0  0  0
   -9.0595    5.0610   23.4432 O   0  0  0  0  0  0  0  0  0  0  0  0
   -8.9801    6.5070   21.4529 C   0  0  2  0  0  0  0  0  0  0  0  0
   -9.1895    6.5198   20.0120 O   0  0  0  0  0  0  0  0  0  0  0  0
   -7.5538    6.9929   21.6986 C   0  0  0  0  0  0  0  0  0  0  0  0
   -7.4295    8.4510   21.4376 N   0  3  0  0  0  0  0  0  0  0  0  0
  -14.0189    9.7480   18.0704 C   0  0  2  0  0  0  0  0  0  0  0  0
  -14.5122   10.8912   17.2806 N   0  3  0  0  0  0  0  0  0  0  0  0
  -13.2490   10.2513   19.2838 C   0  0  0  0  0  0  0  0  0  0  0  0
  -12.7274    9.0715   20.1116 C   0  0  2  0  0  0  0  0  0  0  0  0
  -12.0896    9.6065   21.3402 N   0  3  0  0  0  0  0  0  0  0  0  0
  -11.8025    8.1500   19.2615 C   0  0  2  0  0  0  0  0  0  0  0  0
  -12.5638    7.6823   17.9944 C   0  0  2  0  0  0  0  0  0  0  0  0
  -11.6799    6.9881   17.1477 O   0  0  0  0  0  0  0  0  0  0  0  0
  -13.1032    8.8855   17.2041 C   0  0  1  0  0  0  0  0  0  0  0  0
  -13.8219    8.4069   16.0679 O   0  0  0  0  0  0  0  0  0  0  0  0
  -13.1734    8.4473   14.8435 C   0  0  2  0  0  0  0  0  0  0  0  0
  -14.2279    8.5084   13.7252 C   0  0  2  0  0  0  0  0  0  0  0  0
  -15.0194    9.6752   13.9102 O   0  0  0  0  0  0  0  0  0  0  0  0
  -15.1157    7.2532   13.7895 C   0  0  1  0  0  0  0  0  0  0  0  0
  -16.1741    7.2666   12.7389 N   0  3  0  0  0  0  0  0  0  0  0  0
  -14.2278    5.9923   13.6529 C   0  0  2  0  0  0  0  0  0  0  0  0
  -15.0214    4.8107   13.7344 O   0  0  0  0  0  0  0  0  0  0  0  0
  -13.1377    5.9890   14.7408 C   0  0  2  0  0  0  0  0  0  0  0  0
  -12.3699    7.2468   14.7052 O   0  0  0  0  0  0  0  0  0  0  0  0
  -12.1489    4.8597   14.5540 C   0  0  0  0  0  0  0  0  0  0  0  0
  -11.4609    4.5574   15.7659 O   0  0  0  0  0  0  0  0  0  0  0  0
  1  2  1  1  0  0  0
  1  3  1  0  0  0  0
  1  9  1  0  0  0  0
  3  4  1  1  0  0  0
  3  5  1  0  0  0  0
  5  6  1  0  0  0  0
  6  7  1  1  0  0  0
  6  8  1  0  0  0  0
  8  9  1  0  0  0  0
  8 10  1  6  0  0  0
 10 11  1  0  0  0  0
 12 13  1  6  0  0  0
 12 14  1  0  0  0  0
 12 20  1  0  0  0  0
 14 15  1  0  0  0  0
 15 16  1  1  0  0  0
 15 17  1  0  0  0  0
 17  2  1  1  0  0  0
 17 18  1  0  0  0  0
 18 19  1  6  0  0  0
 18 20  1  0  0  0  0
 20 21  1  6  0  0  0
 22 21  1  1  0  0  0
 22 23  1  0  0  0  0
 22 30  1  0  0  0  0
 23 24  1  1  0  0  0
 23 25  1  0  0  0  0
 25 26  1  6  0  0  0
 25 27  1  0  0  0  0
 27 28  1  1  0  0  0
 27 29  1  0  0  0  0
 29 30  1  0  0  0  0
 29 31  1  6  0  0  0
 31 32  1  0  0  0  0
M  CHG  5   4   1  11   1  13   1  16   1  26   1
M  END
>  <CHROM.1>
-152.17765923,-170.27041411,-172.09460373,68.47440867,-166.05248969,-68.04073869
172.76557341,47.24868390,-61.62901045,136.80882899,-155.05951461,175.64364152
-164.69955063,-59.29985774,-158.90756805,-43.31746165,-12.15818714,7.17873195
17.83993841,-0.35605521,0.93342041,-2.56123446

>  <Name>
1lc4

>  <RI>
0

>  <Rbt.Current_Directory>
/home/afrankz/demos/rdock_decoys_rna/rnas/1lc4

>  <Rbt.Executable>
rbdock ($Id: //depot/dev/client3/rdock/2013.1/src/exe/rbdock.cxx#4 $)

>  <Rbt.Library>
libRbt.so (2013.1, Build901 2013/11/27)

>  <Rbt.Parameter_File>
/export/apps/rDock/src/rDock_2013.1_src/data/scripts/dock_solv.prm

>  <Rbt.Receptor>
prm/pocket_docking_4.prm

>  <SCORE>
-73.8246

>  <SCORE.INTER>
-53.5409

>  <SCORE.INTER.CONST>
1

>  <SCORE.INTER.POLAR>
-8.34848

>  <SCORE.INTER.ROT>
6

>  <SCORE.INTER.SOLV>
24.0079

>  <SCORE.INTER.VDW>
-23.4683

>  <SCORE.INTER.norm>
-1.67315

>  <SCORE.INTRA>
-20.2838

>  <SCORE.INTRA.DIHEDRAL>
-26.7219

>  <SCORE.INTRA.DIHEDRAL.0>
44.2576

>  <SCORE.INTRA.POLAR>
-0.61643

>  <SCORE.INTRA.POLAR.0>
-0.381556

>  <SCORE.INTRA.REPUL>
0

>  <SCORE.INTRA.REPUL.0>
0

>  <SCORE.INTRA.SOLV>
-2.84207

>  <SCORE.INTRA.SOLV.lig_0>
-134.592

>  <SCORE.INTRA.VDW>
-3.40592

>  <SCORE.INTRA.VDW.0>
-1.01417

>  <SCORE.INTRA.norm>
-0.633868

>  <SCORE.RESTR>
0

>  <SCORE.RESTR.CAVITY>
0

>  <SCORE.RESTR.norm>
0

>  <SCORE.SYSTEM>
0

>  <SCORE.SYSTEM.CONST>
0

>  <SCORE.SYSTEM.DIHEDRAL>
0

>  <SCORE.SYSTEM.SOLV>
0

>  <SCORE.SYSTEM.norm>
0

>  <SCORE.heavy>
32

>  <SCORE.norm>
-2.30702

>  <RMSD>
1.224

$$$$
1lc4
 OpenBabel02141814113D
libRbt.so/2013.1/901 2013/11/27
 32 34  0  0  0  0  0  0  0  0999 V2000
  -10.2478    5.9035   19.4346 C   0  0  2  0  0  0  0  0  0  0  0  0
  -11.3377    6.6988   19.8290 O   0  0  0  0  0  0  0  0  0  0  0  0
  -10.5442    4.4462   19.8437 C   0  0  2  0  0  0  0  0  0  0  0  0
  -11.7896    3.9854   19.2222 N   0  3  0  0  0  0  0  0  0  0  0  0
  -10.6055    4.3282   21.3848 C   0  0  0  0  0  0  0  0  0  0  0  0
   -9.2479    4.7945   21.9391 C   0  0  2  0  0  0  0  0  0  0  0  0
   -9.2194    4.6646   23.3645 O   0  0  0  0  0  0  0  0  0  0  0  0
   -8.9930    6.2587   21.5027 C   0  0  2  0  0  0  0  0  0  0  0  0
   -9.0268    6.3685   20.0512 O   0  0  0  0  0  0  0  0  0  0  0  0
   -7.6413    6.8032   21.9578 C   0  0  0  0  0  0  0  0  0  0  0  0
   -7.5375    6.8152   23.4407 N   0  3  0  0  0  0  0  0  0  0  0  0
  -13.8883    9.4759   17.8946 C   0  0  2  0  0  0  0  0  0  0  0  0
  -14.3898   10.6271   17.1218 N   0  3  0  0  0  0  0  0  0  0  0  0
  -13.1205    9.9667   19.1145 C   0  0  0  0  0  0  0  0  0  0  0  0
  -12.5905    8.7784   19.9247 C   0  0  2  0  0  0  0  0  0  0  0  0
  -11.9550    9.2998   21.1604 N   0  3  0  0  0  0  0  0  0  0  0  0
  -11.6604    7.8753   19.0606 C   0  0  2  0  0  0  0  0  0  0  0  0
  -12.4198    7.4210   17.7876 C   0  0  2  0  0  0  0  0  0  0  0  0
  -11.5322    6.7449   16.9301 O   0  0  0  0  0  0  0  0  0  0  0  0
  -12.9678    8.6320   17.0152 C   0  0  1  0  0  0  0  0  0  0  0  0
  -13.6845    8.1651   15.8727 O   0  0  0  0  0  0  0  0  0  0  0  0
  -13.2036    8.5360   14.6267 C   0  0  2  0  0  0  0  0  0  0  0  0
  -14.3850    8.6263   13.6457 C   0  0  2  0  0  0  0  0  0  0  0  0
  -15.3074    9.5925   14.1331 O   0  0  0  0  0  0  0  0  0  0  0  0
  -15.0682    7.2517   13.5390 C   0  0  1  0  0  0  0  0  0  0  0  0
  -16.2383    7.2829   12.6148 N   0  3  0  0  0  0  0  0  0  0  0  0
  -14.0316    6.2013   13.0710 C   0  0  2  0  0  0  0  0  0  0  0  0
  -14.6307    4.9103   12.9871 O   0  0  0  0  0  0  0  0  0  0  0  0
  -12.8273    6.1784   14.0306 C   0  0  2  0  0  0  0  0  0  0  0  0
  -12.2588    7.5304   14.1771 O   0  0  0  0  0  0  0  0  0  0  0  0
  -11.7167    5.2813   13.5309 C   0  0  0  0  0  0  0  0  0  0  0  0
  -12.1343    3.9200   13.4546 O   0  0  0  0  0  0  0  0  0  0  0  0
  1  2  1  1  0  0  0
  1  3  1  0  0  0  0
  1  9  1  0  0  0  0
  3  4  1  6  0  0  0
  3  5  1  0  0  0  0
  5  6  1  0  0  0  0
  6  7  1  1  0  0  0
  6  8  1  0  0  0  0
  8  9  1  0  0  0  0
  8 10  1  6  0  0  0
 10 11  1  0  0  0  0
 12 13  1  6  0  0  0
 12 14  1  0  0  0  0
 12 20  1  0  0  0  0
 14 15  1  0  0  0  0
 15 16  1  1  0  0  0
 15 17  1  0  0  0  0
 17  2  1  1  0  0  0
 17 18  1  0  0  0  0
 18 19  1  6  0  0  0
 18 20  1  0  0  0  0
 20 21  1  6  0  0  0
 22 21  1  1  0  0  0
 22 23  1  0  0  0  0
 22 30  1  0  0  0  0
 23 24  1  1  0  0  0
 23 25  1  0  0  0  0
 25 26  1  6  0  0  0
 25 27  1  0  0  0  0
 27 28  1  1  0  0  0
 27 29  1  0  0  0  0
 29 30  1  0  0  0  0
 29 31  1  6  0  0  0
 31 32  1  0  0  0  0
M  CHG  5   4   1  11   1  13   1  16   1  26   1
M  END
>  <CHROM.1>
-149.82990991,-163.21497573,61.61065363,-68.44915493,-61.61510607,-49.65312204
158.56363703,168.50166678,-53.26960673,120.42962019,-150.07122024,169.21376959
-146.02621208,61.08288500,-63.27127626,-52.87190903,-12.08637993,6.97021520
17.60874044,-0.52089223,0.93473167,-2.36627726

>  <Name>
1lc4

>  <RI>
0

>  <Rbt.Current_Directory>
/home/afrankz/demos/rdock_decoys_rna/rnas/1lc4

>  <Rbt.Executable>
rbdock ($Id: //depot/dev/client3/rdock/2013.1/src/exe/rbdock.cxx#4 $)

>  <Rbt.Library>
libRbt.so (2013.1, Build901 2013/11/27)

>  <Rbt.Parameter_File>
/export/apps/rDock/src/rDock_2013.1_src/data/scripts/dock_solv.prm

>  <Rbt.Receptor>
prm/pocket_docking_3.prm

>  <SCORE>
-75.4299

>  <SCORE.INTER>
-58.7843

>  <SCORE.INTER.CONST>
1

>  <SCORE.INTER.POLAR>
-8.79967

>  <SCORE.INTER.ROT>
6

>  <SCORE.INTER.SOLV>
20.3736

>  <SCORE.INTER.VDW>
-24.2485

>  <SCORE.INTER.norm>
-1.83701

>  <SCORE.INTRA>
-16.6456

>  <SCORE.INTRA.DIHEDRAL>
-23.2664

>  <SCORE.INTRA.DIHEDRAL.0>
44.2576

>  <SCORE.INTRA.POLAR>
-0.548136

>  <SCORE.INTRA.POLAR.0>
-0.381556

>  <SCORE.INTRA.REPUL>
0

>  <SCORE.INTRA.REPUL.0>
0

>  <SCORE.INTRA.SOLV>
0.286081

>  <SCORE.INTRA.SOLV.lig_0>
-134.592

>  <SCORE.INTRA.VDW>
-3.2918

>  <SCORE.INTRA.VDW.0>
-1.01417

>  <SCORE.INTRA.norm>
-0.520175

>  <SCORE.RESTR>
0

>  <SCORE.RESTR.CAVITY>
0

>  <SCORE.RESTR.norm>
0

>  <SCORE.SYSTEM>
0

>  <SCORE.SYSTEM.CONST>
0

>  <SCORE.SYSTEM.DIHEDRAL>
0

>  <SCORE.SYSTEM.SOLV>
0

>  <SCORE.SYSTEM.norm>
0

>  <SCORE.heavy>
32

>  <SCORE.norm>
-2.35718

>  <RMSD>
1.243

$$$$
1lc4
 OpenBabel02141814113D
libRbt.so/2013.1/901 2013/11/27
 32 34  0  0  0  0  0  0  0  0999 V2000
  -10.2906    5.9689   19.4209 C   0  0  2  0  0  0  0  0  0  0  0  0
  -11.3597    6.7717   19.8550 O   0  0  0  0  0  0  0  0  0  0  0  0
  -10.6111    4.5048   19.7853 C   0  0  2  0  0  0  0  0  0  0  0  0
  -11.8727    4.0894   19.1645 N   0  3  0  0  0  0  0  0  0  0  0  0
  -10.6565    4.3368   21.3222 C   0  0  0  0  0  0  0  0  0  0  0  0
   -9.2834    4.7578   21.8747 C   0  0  2  0  0  0  0  0  0  0  0  0
   -9.2407    4.5799   23.2945 O   0  0  0  0  0  0  0  0  0  0  0  0
   -9.0046    6.2305   21.4837 C   0  0  2  0  0  0  0  0  0  0  0  0
   -9.0534    6.3891   20.0372 O   0  0  0  0  0  0  0  0  0  0  0  0
   -7.6370    6.7330   21.9397 C   0  0  0  0  0  0  0  0  0  0  0  0
   -7.5148    6.6917   23.4206 N   0  3  0  0  0  0  0  0  0  0  0  0
  -13.9686    9.5273   17.9679 C   0  0  2  0  0  0  0  0  0  0  0  0
  -14.4938   10.6753   17.2063 N   0  3  0  0  0  0  0  0  0  0  0  0
  -13.1874   10.0226   19.1774 C   0  0  0  0  0  0  0  0  0  0  0  0
  -12.6327    8.8377   19.9759 C   0  0  2  0  0  0  0  0  0  0  0  0
  -11.9840    9.3622   21.2034 N   0  3  0  0  0  0  0  0  0  0  0  0
  -11.7065    7.9469   19.0951 C   0  0  2  0  0  0  0  0  0  0  0  0
  -12.4804    7.4882   17.8324 C   0  0  2  0  0  0  0  0  0  0  0  0
  -11.5990    6.8240   16.9595 O   0  0  0  0  0  0  0  0  0  0  0  0
  -13.0528    8.6956   17.0721 C   0  0  1  0  0  0  0  0  0  0  0  0
  -13.7819    8.2244   15.9393 O   0  0  0  0  0  0  0  0  0  0  0  0
  -13.2880    8.5510   14.6860 C   0  0  2  0  0  0  0  0  0  0  0  0
  -14.4632    8.6417   13.6977 C   0  0  2  0  0  0  0  0  0  0  0  0
  -15.3655    9.6410   14.1552 O   0  0  0  0  0  0  0  0  0  0  0  0
  -15.1769    7.2804   13.6245 C   0  0  1  0  0  0  0  0  0  0  0  0
  -16.3424    7.3132   12.6946 N   0  3  0  0  0  0  0  0  0  0  0  0
  -14.1624    6.1949   13.1892 C   0  0  2  0  0  0  0  0  0  0  0  0
  -14.7902    4.9159   13.1369 O   0  0  0  0  0  0  0  0  0  0  0  0
  -12.9626    6.1706   14.1544 C   0  0  2  0  0  0  0  0  0  0  0  0
  -12.3643    7.5129   14.2674 O   0  0  0  0  0  0  0  0  0  0  0  0
  -11.8706    5.2358   13.6836 C   0  0  0  0  0  0  0  0  0  0  0  0
  -10.9559    4.9251   14.7324 O   0  0  0  0  0  0  0  0  0  0  0  0
  1  2  1  1  0  0  0
  1  3  1  0  0  0  0
  1  9  1  0  0  0  0
  3  4  1  6  0  0  0
  3  5  1  0  0  0  0
  5  6  1  0  0  0  0
  6  7  1  1  0  0  0
  6  8  1  0  0  0  0
  8  9  1  0  0  0  0
  8 10  1  6  0  0  0
 10 11  1  0  0  0  0
 12 13  1  6  0  0  0
 12 14  1  0  0  0  0
 12 20  1  0  0  0  0
 14 15  1  0  0  0  0
 15 16  1  1  0  0  0
 15 17  1  0  0  0  0
 17  2  1  1  0  0  0
 17 18  1  0  0  0  0
 18 19  1  6  0  0  0
 18 20  1  0  0  0  0
 20 21  1  6  0  0  0
 22 21  1  1  0  0  0
 22 23  1  0  0  0  0
 22 30  1  0  0  0  0
 23 24  1  1  0  0  0
 23 25  1  0  0  0  0
 25 26  1  6  0  0  0
 25 27  1  0  0  0  0
 27 28  1  1  0  0  0
 27 29  1  0  0  0  0
 29 30  1  0  0  0  0
 29 31  1  6  0  0  0
 31 32  1  0  0  0  0
M  CHG  5   4   1  11   1  13   1  16   1  26   1
M  END
>  <CHROM.1>
-147.05008454,-164.93790983,-170.86150886,-66.60250377,-61.53376000,69.09646996
43.46581893,168.56526150,-54.34041341,123.40142430,-150.60072440,170.86754970
-146.18506040,178.03172068,-163.42843716,-40.85982672,-12.10565927,7.02786787
17.68885072,-0.51130151,0.91211211,-2.33151567

>  <Name>
1lc4

>  <RI>
0

>  <Rbt.Current_Directory>
/home/afrankz/demos/rdock_decoys_rna/rnas/1lc4

>  <Rbt.Executable>
rbdock ($Id: //depot/dev/client3/rdock/2013.1/src/exe/rbdock.cxx#4 $)

>  <Rbt.Library>
libRbt.so (2013.1, Build901 2013/11/27)

>  <Rbt.Parameter_File>
/export/apps/rDock/src/rDock_2013.1_src/data/scripts/dock_solv.prm

>  <Rbt.Receptor>
prm/pocket_docking_5.prm

>  <SCORE>
-77.1944

>  <SCORE.INTER>
-58.8883

>  <SCORE.INTER.CONST>
1

>  <SCORE.INTER.POLAR>
-8.77127

>  <SCORE.INTER.ROT>
6

>  <SCORE.INTER.SOLV>
20.4233

>  <SCORE.INTER.VDW>
-24.429

>  <SCORE.INTER.norm>
-1.84026

>  <SCORE.INTRA>
-18.3061

>  <SCORE.INTRA.DIHEDRAL>
-21.434

>  <SCORE.INTRA.DIHEDRAL.0>
44.2576

>  <SCORE.INTRA.POLAR>
-1.23851

>  <SCORE.INTRA.POLAR.0>
-0.381556

>  <SCORE.INTRA.REPUL>
0

>  <SCORE.INTRA.REPUL.0>
0

>  <SCORE.INTRA.SOLV>
-0.180657

>  <SCORE.INTRA.SOLV.lig_0>
-134.592

>  <SCORE.INTRA.VDW>
-3.28788

>  <SCORE.INTRA.VDW.0>
-1.01417

>  <SCORE.INTRA.norm>
-0.572066

>  <SCORE.RESTR>
0

>  <SCORE.RESTR.CAVITY>
0

>  <SCORE.RESTR.norm>
0

>  <SCORE.SYSTEM>
0

>  <SCORE.SYSTEM.CONST>
0

>  <SCORE.SYSTEM.DIHEDRAL>
0

>  <SCORE.SYSTEM.SOLV>
0

>  <SCORE.SYSTEM.norm>
0

>  <SCORE.heavy>
32

>  <SCORE.norm>
-2.41233

>  <RMSD>
1.243

$$$$
1lc4
 OpenBabel02141814113D
libRbt.so/2013.1/901 2013/11/27
 32 34  0  0  0  0  0  0  0  0999 V2000
  -10.2733    5.8930   19.4681 C   0  0  2  0  0  0  0  0  0  0  0  0
  -11.3044    6.7171   19.9512 O   0  0  0  0  0  0  0  0  0  0  0  0
  -10.5878    4.4400   19.8791 C   0  0  2  0  0  0  0  0  0  0  0  0
  -11.8897    4.0294   19.3443 N   0  3  0  0  0  0  0  0  0  0  0  0
  -10.5409    4.3006   21.4188 C   0  0  0  0  0  0  0  0  0  0  0  0
   -9.1318    4.7141   21.8784 C   0  0  2  0  0  0  0  0  0  0  0  0
   -9.0044    4.5617   23.2961 O   0  0  0  0  0  0  0  0  0  0  0  0
   -8.8605    6.1758   21.4434 C   0  0  2  0  0  0  0  0  0  0  0  0
   -8.9959    6.3086   19.9997 O   0  0  0  0  0  0  0  0  0  0  0  0
   -7.4618    6.6692   21.8055 C   0  0  0  0  0  0  0  0  0  0  0  0
   -7.2936    8.1066   21.4660 N   0  3  0  0  0  0  0  0  0  0  0  0
  -13.8342    9.7252   18.3664 C   0  0  2  0  0  0  0  0  0  0  0  0
  -14.3291   10.9290   17.6737 N   0  3  0  0  0  0  0  0  0  0  0  0
  -12.8953   10.1273   19.4956 C   0  0  0  0  0  0  0  0  0  0  0  0
  -12.3708    8.8835   20.2217 C   0  0  2  0  0  0  0  0  0  0  0  0
  -11.5587    9.3259   21.3825 N   0  3  0  0  0  0  0  0  0  0  0  0
  -11.6199    7.9324   19.2425 C   0  0  2  0  0  0  0  0  0  0  0  0
  -12.5537    7.5672   18.0600 C   0  0  2  0  0  0  0  0  0  0  0  0
  -11.8263    6.8455   17.0956 O   0  0  0  0  0  0  0  0  0  0  0  0
  -13.0899    8.8342   17.3739 C   0  0  1  0  0  0  0  0  0  0  0  0
  -13.9674    8.4501   16.3160 O   0  0  0  0  0  0  0  0  0  0  0  0
  -13.4056    8.2588   15.0634 C   0  0  2  0  0  0  0  0  0  0  0  0
  -14.5007    8.4310   13.9969 C   0  0  2  0  0  0  0  0  0  0  0  0
  -15.0404    9.7419   14.1074 O   0  0  0  0  0  0  0  0  0  0  0  0
  -15.6059    7.3848   14.2241 C   0  0  1  0  0  0  0  0  0  0  0  0
  -16.7093    7.5170   13.2296 N   0  3  0  0  0  0  0  0  0  0  0  0
  -14.9865    5.9671   14.1660 C   0  0  2  0  0  0  0  0  0  0  0  0
  -15.9842    4.9755   14.3987 O   0  0  0  0  0  0  0  0  0  0  0  0
  -13.8475    5.8416   15.1950 C   0  0  2  0  0  0  0  0  0  0  0  0
  -12.8575    6.9164   15.0020 O   0  0  0  0  0  0  0  0  0  0  0  0
  -13.1075    4.5284   15.0696 C   0  0  0  0  0  0  0  0  0  0  0  0
  -12.6348    4.0683   16.3338 O   0  0  0  0  0  0  0  0  0  0  0  0
  1  2  1  1  0  0  0
  1  3  1  0  0  0  0
  1  9  1  0  0  0  0
  3  4  1  1  0  0  0
  3  5  1  0  0  0  0
  5  6  1  0  0  0  0
  6  7  1  1  0  0  0
  6  8  1  0  0  0  0
  8  9  1  0  0  0  0
  8 10  1  6  0  0  0
 10 11  1  0  0  0  0
 12 13  1  6  0  0  0
 12 14  1  0  0  0  0
 12 20  1  0  0  0  0
 14 15  1  0  0  0  0
 15 16  1  1  0  0  0
 15 17  1  0  0  0  0
 17  2  1  1  0  0  0
 17 18  1  0  0  0  0
 18 19  1  6  0  0  0
 18 20  1  0  0  0  0
 20 21  1  6  0  0  0
 22 21  1  1  0  0  0
 22 23  1  0  0  0  0
 22 30  1  0  0  0  0
 23 24  1  1  0  0  0
 23 25  1  0  0  0  0
 25 26  1  6  0  0  0
 25 27  1  0  0  0  0
 27 28  1  1  0  0  0
 27 29  1  0  0  0  0
 29 30  1  0  0  0  0
 29 31  1  6  0  0  0
 31 32  1  0  0  0  0
M  CHG  5   4   1  11   1  13   1  16   1  26   1
M  END
>  <CHROM.1>
-151.38791191,-159.16320475,56.12152408,171.21782714,-175.37596217,178.13692085
58.51287525,44.93626547,-57.83861294,148.09520465,-156.86695312,66.57370191
-33.65298089,-58.93538405,-147.33541332,-178.15006068,-12.25860004,7.00869241
17.99178373,-0.08481132,0.88634699,-2.83480700

>  <Name>
1lc4

>  <RI>
0

>  <Rbt.Current_Directory>
/home/afrankz/demos/rdock_decoys_rna/rnas/1lc4

>  <Rbt.Executable>
rbdock ($Id: //depot/dev/client3/rdock/2013.1/src/exe/rbdock.cxx#4 $)

>  <Rbt.Library>
libRbt.so (2013.1, Build901 2013/11/27)

>  <Rbt.Parameter_File>
/export/apps/rDock/src/rDock_2013.1_src/data/scripts/dock_solv.prm

>  <Rbt.Receptor>
prm/pocket_docking_5.prm

>  <SCORE>
-65.9342

>  <SCORE.INTER>
-46.4677

>  <SCORE.INTER.CONST>
1

>  <SCORE.INTER.POLAR>
-6.64735

>  <SCORE.INTER.ROT>
6

>  <SCORE.INTER.SOLV>
24.8086

>  <SCORE.INTER.VDW>
-24.6902

>  <SCORE.INTER.norm>
-1.45212

>  <SCORE.INTRA>
-19.4665

>  <SCORE.INTRA.DIHEDRAL>
-26.8475

>  <SCORE.INTRA.DIHEDRAL.0>
44.2576

>  <SCORE.INTRA.POLAR>
-0.801452

>  <SCORE.INTRA.POLAR.0>
-0.381556

>  <SCORE.INTRA.REPUL>
0.00194311

>  <SCORE.INTRA.REPUL.0>
0

>  <SCORE.INTRA.SOLV>
-0.821867

>  <SCORE.INTRA.SOLV.lig_0>
-134.592

>  <SCORE.INTRA.VDW>
-2.91661

>  <SCORE.INTRA.VDW.0>
-1.01417

>  <SCORE.INTRA.norm>
-0.608329

>  <SCORE.RESTR>
0

>  <SCORE.RESTR.CAVITY>
0

>  <SCORE.RESTR.norm>
0

>  <SCORE.SYSTEM>
0

>  <SCORE.SYSTEM.CONST>
0

>  <SCORE.SYSTEM.DIHEDRAL>
0

>  <SCORE.SYSTEM.SOLV>
0

>  <SCORE.SYSTEM.norm>
0

>  <SCORE.heavy>
32

>  <SCORE.norm>
-2.06044

>  <RMSD>
1.259

$$$$
1lc4
 OpenBabel02141814113D
libRbt.so/2013.1/901 2013/11/27
 32 34  0  0  0  0  0  0  0  0999 V2000
  -10.2658    5.8472   19.4277 C   0  0  2  0  0  0  0  0  0  0  0  0
  -11.3626    6.6263   19.8352 O   0  0  0  0  0  0  0  0  0  0  0  0
  -10.5225    4.3908   19.8658 C   0  0  2  0  0  0  0  0  0  0  0  0
  -11.7720    3.8950   19.2804 N   0  3  0  0  0  0  0  0  0  0  0  0
  -10.5461    4.2958   21.4095 C   0  0  0  0  0  0  0  0  0  0  0  0
   -9.1861    4.7982   21.9250 C   0  0  2  0  0  0  0  0  0  0  0  0
   -9.1223    4.6913   23.3511 O   0  0  0  0  0  0  0  0  0  0  0  0
   -8.9716    6.2603   21.4605 C   0  0  2  0  0  0  0  0  0  0  0  0
   -9.0409    6.3465   20.0086 O   0  0  0  0  0  0  0  0  0  0  0  0
   -7.6214    6.8393   21.8757 C   0  0  0  0  0  0  0  0  0  0  0  0
   -7.5325    6.9924   23.3516 N   0  3  0  0  0  0  0  0  0  0  0  0
  -13.8929    9.5421   18.0871 C   0  0  2  0  0  0  0  0  0  0  0  0
  -14.3856   10.7280   17.3626 N   0  3  0  0  0  0  0  0  0  0  0  0
  -13.0441    9.9767   19.2742 C   0  0  0  0  0  0  0  0  0  0  0  0
  -12.5226    8.7520   20.0339 C   0  0  2  0  0  0  0  0  0  0  0  0
  -11.8038    9.2222   21.2442 N   0  3  0  0  0  0  0  0  0  0  0  0
  -11.6758    7.8301   19.1063 C   0  0  2  0  0  0  0  0  0  0  0  0
  -12.5174    7.4327   17.8663 C   0  0  2  0  0  0  0  0  0  0  0  0
  -11.7033    6.7392   16.9517 O   0  0  0  0  0  0  0  0  0  0  0  0
  -13.0540    8.6801   17.1457 C   0  0  1  0  0  0  0  0  0  0  0  0
  -13.8468    8.2657   16.0338 O   0  0  0  0  0  0  0  0  0  0  0  0
  -13.2758    8.3661   14.7747 C   0  0  2  0  0  0  0  0  0  0  0  0
  -14.3981    8.4545   13.7265 C   0  0  2  0  0  0  0  0  0  0  0  0
  -15.1929    9.5997   14.0073 O   0  0  0  0  0  0  0  0  0  0  0  0
  -15.2625    7.1833   13.7933 C   0  0  1  0  0  0  0  0  0  0  0  0
  -16.3839    7.2215   12.8108 N   0  3  0  0  0  0  0  0  0  0  0  0
  -14.3671    5.9438   13.5509 C   0  0  2  0  0  0  0  0  0  0  0  0
  -15.1375    4.7469   13.6321 O   0  0  0  0  0  0  0  0  0  0  0  0
  -13.2120    5.9148   14.5690 C   0  0  2  0  0  0  0  0  0  0  0  0
  -12.4656    7.1855   14.5383 O   0  0  0  0  0  0  0  0  0  0  0  0
  -12.2209    4.8104   14.2759 C   0  0  0  0  0  0  0  0  0  0  0  0
  -12.7867    3.5217   14.5049 O   0  0  0  0  0  0  0  0  0  0  0  0
  1  2  1  1  0  0  0
  1  3  1  0  0  0  0
  1  9  1  0  0  0  0
  3  4  1  6  0  0  0
  3  5  1  0  0  0  0
  5  6  1  0  0  0  0
  6  7  1  1  0  0  0
  6  8  1  0  0  0  0
  8  9  1  0  0  0  0
  8 10  1  6  0  0  0
 10 11  1  0  0  0  0
 12 13  1  6  0  0  0
 12 14  1  0  0  0  0
 12 20  1  0  0  0  0
 14 15  1  0  0  0  0
 15 16  1  1  0  0  0
 15 17  1  0  0  0  0
 17  2  1  1  0  0  0
 17 18  1  0  0  0  0
 18 19  1  6  0  0  0
 18 20  1  0  0  0  0
 20 21  1  6  0  0  0
 22 21  1  1  0  0  0
 22 23  1  0  0  0  0
 22 30  1  0  0  0  0
 23 24  1  1  0  0  0
 23 25  1  0  0  0  0
 25 26  1  6  0  0  0
 25 27  1  0  0  0  0
 27 28  1  1  0  0  0
 27 29  1  0  0  0  0
 29 30  1  0  0  0  0
 29 31  1  6  0  0  0
 31 32  1  0  0  0  0
M  CHG  5   4   1  11   1  13   1  16   1  26   1
M  END
>  <CHROM.1>
-153.70395355,-158.60473014,-59.82410938,-66.21665721,-66.81053008,-162.14494831
171.94124393,162.64527594,-58.27723064,134.86349316,-156.52581613,172.61259979
-36.29551017,59.11604697,-68.64423946,45.18989346,-12.17957272,6.90112599
17.77721090,-0.34142480,0.93820917,-2.57555470

>  <Name>
1lc4

>  <RI>
0

>  <Rbt.Current_Directory>
/home/afrankz/demos/rdock_decoys_rna/rnas/1lc4

>  <Rbt.Executable>
rbdock ($Id: //depot/dev/client3/rdock/2013.1/src/exe/rbdock.cxx#4 $)

>  <Rbt.Library>
libRbt.so (2013.1, Build901 2013/11/27)

>  <Rbt.Parameter_File>
/export/apps/rDock/src/rDock_2013.1_src/data/scripts/dock_solv.prm

>  <Rbt.Receptor>
prm/pocket_docking_4.prm

>  <SCORE>
-76.1016

>  <SCORE.INTER>
-58.2354

>  <SCORE.INTER.CONST>
1

>  <SCORE.INTER.POLAR>
-8.91909

>  <SCORE.INTER.ROT>
6

>  <SCORE.INTER.SOLV>
20.0877

>  <SCORE.INTER.VDW>
-23.3892

>  <SCORE.INTER.norm>
-1.81986

>  <SCORE.INTRA>
-17.8661

>  <SCORE.INTRA.DIHEDRAL>
-25.9643

>  <SCORE.INTRA.DIHEDRAL.0>
44.2576

>  <SCORE.INTRA.POLAR>
-0.431119

>  <SCORE.INTRA.POLAR.0>
-0.381556

>  <SCORE.INTRA.REPUL>
0

>  <SCORE.INTRA.REPUL.0>
0

>  <SCORE.INTRA.SOLV>
-0.479057

>  <SCORE.INTRA.SOLV.lig_0>
-134.592

>  <SCORE.INTRA.VDW>
-3.17866

>  <SCORE.INTRA.VDW.0>
-1.01417

>  <SCORE.INTRA.norm>
-0.558317

>  <SCORE.RESTR>
0

>  <SCORE.RESTR.CAVITY>
0

>  <SCORE.RESTR.norm>
0

>  <SCORE.SYSTEM>
0

>  <SCORE.SYSTEM.CONST>
0

>  <SCORE.SYSTEM.DIHEDRAL>
0

>  <SCORE.SYSTEM.SOLV>
0

>  <SCORE.SYSTEM.norm>
0

>  <SCORE.heavy>
32

>  <SCORE.norm>
-2.37817

>  <RMSD>
1.263

$$$$
1lc4
 OpenBabel02141814113D
libRbt.so/2013.1/901 2013/11/27
 32 34  0  0  0  0  0  0  0  0999 V2000
  -10.3177    5.6466   19.2608 C   0  0  2  0  0  0  0  0  0  0  0  0
  -11.3762    6.5016   19.6136 O   0  0  0  0  0  0  0  0  0  0  0  0
  -10.6436    4.2354   19.7912 C   0  0  2  0  0  0  0  0  0  0  0  0
  -11.9152    3.7628   19.2352 N   0  3  0  0  0  0  0  0  0  0  0  0
  -10.6717    4.2417   21.3378 C   0  0  0  0  0  0  0  0  0  0  0  0
   -9.2894    4.7112   21.8240 C   0  0  2  0  0  0  0  0  0  0  0  0
   -9.2309    4.6939   23.2542 O   0  0  0  0  0  0  0  0  0  0  0  0
   -9.0055    6.1284   21.2666 C   0  0  2  0  0  0  0  0  0  0  0  0
   -9.0705    6.1236   19.8121 O   0  0  0  0  0  0  0  0  0  0  0  0
   -7.6292    6.6681   21.6479 C   0  0  0  0  0  0  0  0  0  0  0  0
   -7.5557    8.1400   21.4536 N   0  3  0  0  0  0  0  0  0  0  0  0
  -13.7732    9.3240   17.5523 C   0  0  2  0  0  0  0  0  0  0  0  0
  -14.2120   10.4707   16.7360 N   0  3  0  0  0  0  0  0  0  0  0  0
  -13.0030    9.8194   18.7688 C   0  0  0  0  0  0  0  0  0  0  0  0
  -12.5379    8.6356   19.6241 C   0  0  2  0  0  0  0  0  0  0  0  0
  -11.8988    9.1679   20.8532 N   0  3  0  0  0  0  0  0  0  0  0  0
  -11.6355    7.6660   18.8038 C   0  0  2  0  0  0  0  0  0  0  0  0
  -12.3949    7.2049   17.5332 C   0  0  2  0  0  0  0  0  0  0  0  0
  -11.5251    6.4641   16.7119 O   0  0  0  0  0  0  0  0  0  0  0  0
  -12.8776    8.4134   16.7147 C   0  0  1  0  0  0  0  0  0  0  0  0
  -13.5968    7.9420   15.5758 O   0  0  0  0  0  0  0  0  0  0  0  0
  -13.2878    8.5107   14.3501 C   0  0  2  0  0  0  0  0  0  0  0  0
  -14.5603    8.5510   13.4868 C   0  0  2  0  0  0  0  0  0  0  0  0
  -15.5436    9.3245   14.1627 O   0  0  0  0  0  0  0  0  0  0  0  0
  -15.0758    7.1179   13.2673 C   0  0  1  0  0  0  0  0  0  0  0  0
  -16.3244    7.0950   12.4520 N   0  3  0  0  0  0  0  0  0  0  0  0
  -13.9674    6.2747   12.5910 C   0  0  2  0  0  0  0  0  0  0  0  0
  -14.4080    4.9326   12.3975 O   0  0  0  0  0  0  0  0  0  0  0  0
  -12.6826    6.3062   13.4395 C   0  0  2  0  0  0  0  0  0  0  0  0
  -12.2739    7.6973   13.7047 O   0  0  0  0  0  0  0  0  0  0  0  0
  -11.5232    5.6275   12.7445 C   0  0  0  0  0  0  0  0  0  0  0  0
  -11.0338    6.4068   11.6552 O   0  0  0  0  0  0  0  0  0  0  0  0
  1  2  1  1  0  0  0
  1  3  1  0  0  0  0
  1  9  1  0  0  0  0
  3  4  1  6  0  0  0
  3  5  1  0  0  0  0
  5  6  1  0  0  0  0
  6  7  1  1  0  0  0
  6  8  1  0  0  0  0
  8  9  1  0  0  0  0
  8 10  1  6  0  0  0
 10 11  1  0  0  0  0
 12 13  1  6  0  0  0
 12 14  1  0  0  0  0
 12 20  1  0  0  0  0
 14 15  1  0  0  0  0
 15 16  1  1  0  0  0
 15 17  1  0  0  0  0
 17  2  1  1  0  0  0
 17 18  1  0  0  0  0
 18 19  1  6  0  0  0
 18 20  1  0  0  0  0
 20 21  1  6  0  0  0
 22 21  1  1  0  0  0
 22 23  1  0  0  0  0
 22 30  1  0  0  0  0
 23 24  1  1  0  0  0
 23 25  1  0  0  0  0
 25 26  1  6  0  0  0
 25 27  1  0  0  0  0
 27 28  1  1  0  0  0
 27 29  1  0  0  0  0
 29 30  1  0  0  0  0
 29 31  1  6  0  0  0
 31 32  1  0  0  0  0
M  CHG  5   4   1  11   1  13   1  16   1  26   1
M  END
>  <CHROM.1>
-153.42098656,-163.31080975,-43.17089479,-66.99394036,-163.02582061,-65.85477209
63.63021637,-70.02042701,75.88745110,104.95642655,-147.34151389,167.78726037
-137.04787558,-50.76164069,72.24954264,-55.37595806,-12.04094613,7.00040377
17.21845831,-0.64827538,0.91489865,-2.21979980

>  <Name>
1lc4

>  <RI>
0

>  <Rbt.Current_Directory>
/home/afrankz/demos/rdock_decoys_rna/rnas/1lc4

>  <Rbt.Executable>
rbdock ($Id: //depot/dev/client3/rdock/2013.1/src/exe/rbdock.cxx#4 $)

>  <Rbt.Library>
libRbt.so (2013.1, Build901 2013/11/27)

>  <Rbt.Parameter_File>
/export/apps/rDock/src/rDock_2013.1_src/data/scripts/dock_solv.prm

>  <Rbt.Receptor>
prm/pocket_docking_4.prm

>  <SCORE>
-72.8475

>  <SCORE.INTER>
-55.1311

>  <SCORE.INTER.CONST>
1

>  <SCORE.INTER.POLAR>
-7.82503

>  <SCORE.INTER.ROT>
6

>  <SCORE.INTER.SOLV>
23.324

>  <SCORE.INTER.VDW>
-26.0453

>  <SCORE.INTER.norm>
-1.72285

>  <SCORE.INTRA>
-17.7164

>  <SCORE.INTRA.DIHEDRAL>
-21.6041

>  <SCORE.INTRA.DIHEDRAL.0>
44.2576

>  <SCORE.INTRA.POLAR>
-0.829411

>  <SCORE.INTRA.POLAR.0>
-0.381556

>  <SCORE.INTRA.REPUL>
0

>  <SCORE.INTRA.REPUL.0>
0

>  <SCORE.INTRA.SOLV>
-1.76898

>  <SCORE.INTRA.SOLV.lig_0>
-134.592

>  <SCORE.INTRA.VDW>
-3.20987

>  <SCORE.INTRA.VDW.0>
-1.01417

>  <SCORE.INTRA.norm>
-0.553638

>  <SCORE.RESTR>
0

>  <SCORE.RESTR.CAVITY>
0

>  <SCORE.RESTR.norm>
0

>  <SCORE.SYSTEM>
0

>  <SCORE.SYSTEM.CONST>
0

>  <SCORE.SYSTEM.DIHEDRAL>
0

>  <SCORE.SYSTEM.SOLV>
0

>  <SCORE.SYSTEM.norm>
0

>  <SCORE.heavy>
32

>  <SCORE.norm>
-2.27649

>  <RMSD>
1.264

$$$$
1lc4
 OpenBabel02141814113D
libRbt.so/2013.1/901 2013/11/27
 32 34  0  0  0  0  0  0  0  0999 V2000
  -10.2848    5.9601   19.4426 C   0  0  2  0  0  0  0  0  0  0  0  0
  -11.3716    6.7478   19.8601 O   0  0  0  0  0  0  0  0  0  0  0  0
  -10.5531    4.5041   19.8752 C   0  0  2  0  0  0  0  0  0  0  0  0
  -11.8107    4.0233   19.2948 N   0  3  0  0  0  0  0  0  0  0  0  0
  -10.5687    4.4020   21.4186 C   0  0  0  0  0  0  0  0  0  0  0  0
   -9.2009    4.8887   21.9285 C   0  0  2  0  0  0  0  0  0  0  0  0
   -9.1300    4.7744   23.3537 O   0  0  0  0  0  0  0  0  0  0  0  0
   -8.9750    6.3509   21.4697 C   0  0  2  0  0  0  0  0  0  0  0  0
   -9.0518    6.4447   20.0187 O   0  0  0  0  0  0  0  0  0  0  0  0
   -7.6168    6.9148   21.8799 C   0  0  0  0  0  0  0  0  0  0  0  0
   -7.5313    7.0945   23.3530 N   0  3  0  0  0  0  0  0  0  0  0  0
  -13.9102    9.6137   18.0429 C   0  0  2  0  0  0  0  0  0  0  0  0
  -14.4063   10.7920   17.3085 N   0  3  0  0  0  0  0  0  0  0  0  0
  -13.1128   10.0609   19.2605 C   0  0  0  0  0  0  0  0  0  0  0  0
  -12.5881    8.8441   20.0308 C   0  0  2  0  0  0  0  0  0  0  0  0
  -11.9222    9.3236   21.2674 N   0  3  0  0  0  0  0  0  0  0  0  0
  -11.6886    7.9484   19.1275 C   0  0  2  0  0  0  0  0  0  0  0  0
  -12.4780    7.5388   17.8575 C   0  0  2  0  0  0  0  0  0  0  0  0
  -11.6171    6.8706   16.9673 O   0  0  0  0  0  0  0  0  0  0  0  0
  -13.0196    8.7777   17.1259 C   0  0  1  0  0  0  0  0  0  0  0  0
  -13.7641    8.3515   15.9854 O   0  0  0  0  0  0  0  0  0  0  0  0
  -13.1311    8.4161   14.7539 C   0  0  2  0  0  0  0  0  0  0  0  0
  -14.1995    8.5060   13.6509 C   0  0  2  0  0  0  0  0  0  0  0  0
  -14.9833    9.6718   13.8715 O   0  0  0  0  0  0  0  0  0  0  0  0
  -15.0920    7.2535   13.6992 C   0  0  1  0  0  0  0  0  0  0  0  0
  -16.1637    7.2944   12.6628 N   0  3  0  0  0  0  0  0  0  0  0  0
  -14.2115    5.9922   13.5237 C   0  0  2  0  0  0  0  0  0  0  0  0
  -15.0092    4.8124   13.5895 O   0  0  0  0  0  0  0  0  0  0  0  0
  -13.1076    5.9605   14.5970 C   0  0  2  0  0  0  0  0  0  0  0  0
  -12.3348    7.2155   14.5791 O   0  0  0  0  0  0  0  0  0  0  0  0
  -12.1264    4.8314   14.3730 C   0  0  0  0  0  0  0  0  0  0  0  0
  -12.7660    3.5586   14.4362 O   0  0  0  0  0  0  0  0  0  0  0  0
  1  2  1  1  0  0  0
  1  3  1  0  0  0  0
  1  9  1  0  0  0  0
  3  4  1  1  0  0  0
  3  5  1  0  0  0  0
  5  6  1  0  0  0  0
  6  7  1  1  0  0  0
  6  8  1  0  0  0  0
  8  9  1  0  0  0  0
  8 10  1  6  0  0  0
 10 11  1  0  0  0  0
 12 13  1  6  0  0  0
 12 14  1  0  0  0  0
 12 20  1  0  0  0  0
 14 15  1  0  0  0  0
 15 16  1  1  0  0  0
 15 17  1  0  0  0  0
 17  2  1  1  0  0  0
 17 18  1  0  0  0  0
 18 19  1  6  0  0  0
 18 20  1  0  0  0  0
 20 21  1  6  0  0  0
 22 21  1  1  0  0  0
 22 23  1  0  0  0  0
 22 30  1  0  0  0  0
 23 24  1  1  0  0  0
 23 25  1  0  0  0  0
 25 26  1  6  0  0  0
 25 27  1  0  0  0  0
 27 28  1  1  0  0  0
 27 29  1  0  0  0  0
 29 30  1  0  0  0  0
 29 31  1  6  0  0  0
 31 32  1  0  0  0  0
M  CHG  5   4   1  11   1  13   1  16   1  26   1
M  END
>  <CHROM.1>
-152.85654037,-161.90161762,61.96756379,-66.27765732,-68.34712748,-154.69462541
169.65662996,-73.48869145,-49.69374123,137.73303076,-156.25210515,62.50745947
77.94644984,-59.92666056,-61.45544914,-175.86737264,-12.12967819,6.98363811
17.76707002,-0.36801329,0.95142139,-2.55252933

>  <Name>
1lc4

>  <RI>
0

>  <Rbt.Current_Directory>
/home/afrankz/demos/rdock_decoys_rna/rnas/1lc4

>  <Rbt.Executable>
rbdock ($Id: //depot/dev/client3/rdock/2013.1/src/exe/rbdock.cxx#4 $)

>  <Rbt.Library>
libRbt.so (2013.1, Build901 2013/11/27)

>  <Rbt.Parameter_File>
/export/apps/rDock/src/rDock_2013.1_src/data/scripts/dock_solv.prm

>  <Rbt.Receptor>
prm/pocket_docking_5.prm

>  <SCORE>
-69.2484

>  <SCORE.INTER>
-52.4593

>  <SCORE.INTER.CONST>
1

>  <SCORE.INTER.POLAR>
-7.84833

>  <SCORE.INTER.ROT>
6

>  <SCORE.INTER.SOLV>
20.9146

>  <SCORE.INTER.VDW>
-23.3833

>  <SCORE.INTER.norm>
-1.63935

>  <SCORE.INTRA>
-16.789

>  <SCORE.INTRA.DIHEDRAL>
-27.5488

>  <SCORE.INTRA.DIHEDRAL.0>
44.2576

>  <SCORE.INTRA.POLAR>
0.355774

>  <SCORE.INTRA.POLAR.0>
-0.381556

>  <SCORE.INTRA.REPUL>
0

>  <SCORE.INTRA.REPUL.0>
0

>  <SCORE.INTRA.SOLV>
-1.39372

>  <SCORE.INTRA.SOLV.lig_0>
-134.592

>  <SCORE.INTRA.VDW>
-3.52743

>  <SCORE.INTRA.VDW.0>
-1.01417

>  <SCORE.INTRA.norm>
-0.524657

>  <SCORE.RESTR>
0

>  <SCORE.RESTR.CAVITY>
0

>  <SCORE.RESTR.norm>
0

>  <SCORE.SYSTEM>
0

>  <SCORE.SYSTEM.CONST>
0

>  <SCORE.SYSTEM.DIHEDRAL>
0

>  <SCORE.SYSTEM.SOLV>
0

>  <SCORE.SYSTEM.norm>
0

>  <SCORE.heavy>
32

>  <SCORE.norm>
-2.16401

>  <RMSD>
1.269

$$$$
1lc4
 OpenBabel02141814113D
libRbt.so/2013.1/901 2013/11/27
 32 34  0  0  0  0  0  0  0  0999 V2000
  -10.4139    7.0247   19.2467 C   0  0  2  0  0  0  0  0  0  0  0  0
  -11.7025    7.2594   19.7571 O   0  0  0  0  0  0  0  0  0  0  0  0
  -10.0908    5.5277   19.4291 C   0  0  2  0  0  0  0  0  0  0  0  0
  -11.0910    4.7030   18.7440 N   0  3  0  0  0  0  0  0  0  0  0  0
  -10.0085    5.1806   20.9342 C   0  0  0  0  0  0  0  0  0  0  0  0
   -8.9115    6.0640   21.5537 C   0  0  2  0  0  0  0  0  0  0  0  0
   -8.7491    5.7579   22.9426 O   0  0  0  0  0  0  0  0  0  0  0  0
   -9.2771    7.5548   21.3454 C   0  0  2  0  0  0  0  0  0  0  0  0
   -9.4381    7.8441   19.9275 O   0  0  0  0  0  0  0  0  0  0  0  0
   -8.2221    8.5208   21.8787 C   0  0  0  0  0  0  0  0  0  0  0  0
   -8.6513    9.1300   23.1649 N   0  3  0  0  0  0  0  0  0  0  0  0
  -15.3000    9.1157   18.5032 C   0  0  2  0  0  0  0  0  0  0  0  0
  -16.2685   10.0689   17.9312 N   0  3  0  0  0  0  0  0  0  0  0  0
  -14.5343    9.7763   19.6414 C   0  0  0  0  0  0  0  0  0  0  0  0
  -13.5210    8.7959   20.2425 C   0  0  2  0  0  0  0  0  0  0  0  0
  -12.8857    9.4406   21.4186 N   0  3  0  0  0  0  0  0  0  0  0  0
  -12.5119    8.2958   19.1659 C   0  0  2  0  0  0  0  0  0  0  0  0
  -13.2905    7.6747   17.9778 C   0  0  2  0  0  0  0  0  0  0  0  0
  -12.3927    7.3739   16.9368 O   0  0  0  0  0  0  0  0  0  0  0  0
  -14.3214    8.6688   17.4189 C   0  0  1  0  0  0  0  0  0  0  0  0
  -15.0339    8.0439   16.3518 O   0  0  0  0  0  0  0  0  0  0  0  0
  -14.6538    8.3688   15.0591 C   0  0  2  0  0  0  0  0  0  0  0  0
  -15.9090    8.7414   14.2516 C   0  0  2  0  0  0  0  0  0  0  0  0
  -16.5410    9.8495   14.8799 O   0  0  0  0  0  0  0  0  0  0  0  0
  -16.8686    7.5392   14.2130 C   0  0  1  0  0  0  0  0  0  0  0  0
  -18.1175    7.8489   13.4591 N   0  3  0  0  0  0  0  0  0  0  0  0
  -16.1405    6.3248   13.5866 C   0  0  2  0  0  0  0  0  0  0  0  0
  -16.9984    5.1864   13.5605 O   0  0  0  0  0  0  0  0  0  0  0  0
  -14.8520    6.0146   14.3710 C   0  0  2  0  0  0  0  0  0  0  0  0
  -14.0032    7.2160   14.4642 O   0  0  0  0  0  0  0  0  0  0  0  0
  -14.0249    4.9369   13.7059 C   0  0  0  0  0  0  0  0  0  0  0  0
  -13.4612    5.3899   12.4769 O   0  0  0  0  0  0  0  0  0  0  0  0
  1  2  1  1  0  0  0
  1  3  1  0  0  0  0
  1  9  1  0  0  0  0
  3  4  1  1  0  0  0
  3  5  1  0  0  0  0
  5  6  1  0  0  0  0
  6  7  1  1  0  0  0
  6  8  1  0  0  0  0
  8  9  1  0  0  0  0
  8 10  1  6  0  0  0
 10 11  1  0  0  0  0
 12 13  1  6  0  0  0
 12 14  1  0  0  0  0
 12 20  1  0  0  0  0
 14 15  1  0  0  0  0
 15 16  1  1  0  0  0
 15 17  1  0  0  0  0
 17  2  1  1  0  0  0
 17 18  1  0  0  0  0
 18 19  1  6  0  0  0
 18 20  1  0  0  0  0
 20 21  1  6  0  0  0
 22 21  1  1  0  0  0
 22 23  1  0  0  0  0
 22 30  1  0  0  0  0
 23 24  1  1  0  0  0
 23 25  1  0  0  0  0
 25 26  1  6  0  0  0
 25 27  1  0  0  0  0
 27 28  1  1  0  0  0
 27 29  1  0  0  0  0
 29 30  1  0  0  0  0
 29 31  1  6  0  0  0
 31 32  1  0  0  0  0
M  CHG  5   4   1  11   1  13   1  16   1  26   1
M  END
>  <CHROM.1>
-149.08442076,-154.06793828,-53.21452776,-70.14263762,-103.65838626,175.64655021
40.77574463,47.48965351,179.87164224,137.23108654,-130.46294264,88.15494523
45.34152873,84.29673159,68.79962340,60.18366792,-13.08770406,7.48195881,17.75415312
-0.61341616,0.64102345,-2.27774469

>  <Name>
1lc4

>  <RI>
0

>  <Rbt.Current_Directory>
/home/afrankz/demos/rdock_decoys_rna/rnas/1lc4

>  <Rbt.Executable>
rbdock ($Id: //depot/dev/client3/rdock/2013.1/src/exe/rbdock.cxx#4 $)

>  <Rbt.Library>
libRbt.so (2013.1, Build901 2013/11/27)

>  <Rbt.Parameter_File>
/export/apps/rDock/src/rDock_2013.1_src/data/scripts/dock_solv.prm

>  <Rbt.Receptor>
prm/pocket_docking_3.prm

>  <SCORE>
-57.5191

>  <SCORE.INTER>
-41.6981

>  <SCORE.INTER.CONST>
1

>  <SCORE.INTER.POLAR>
-6.74555

>  <SCORE.INTER.ROT>
6

>  <SCORE.INTER.SOLV>
21.5704

>  <SCORE.INTER.VDW>
-20.1037

>  <SCORE.INTER.norm>
-1.30307

>  <SCORE.INTRA>
-15.8549

>  <SCORE.INTRA.DIHEDRAL>
-12.2886

>  <SCORE.INTRA.DIHEDRAL.0>
44.2576

>  <SCORE.INTRA.POLAR>
-1.41108

>  <SCORE.INTRA.POLAR.0>
-0.381556

>  <SCORE.INTRA.REPUL>
0

>  <SCORE.INTRA.REPUL.0>
0

>  <SCORE.INTRA.SOLV>
-1.12723

>  <SCORE.INTRA.SOLV.lig_0>
-134.592

>  <SCORE.INTRA.VDW>
-4.34934

>  <SCORE.INTRA.VDW.0>
-1.01417

>  <SCORE.INTRA.norm>
-0.495466

>  <SCORE.RESTR>
0.0340078

>  <SCORE.RESTR.CAVITY>
0.0340078

>  <SCORE.RESTR.norm>
0.00106275

>  <SCORE.SYSTEM>
0

>  <SCORE.SYSTEM.CONST>
0

>  <SCORE.SYSTEM.DIHEDRAL>
0

>  <SCORE.SYSTEM.SOLV>
0

>  <SCORE.SYSTEM.norm>
0

>  <SCORE.heavy>
32

>  <SCORE.norm>
-1.79747

>  <RMSD>
1.272

$$$$
1lc4
 OpenBabel02141814113D
libRbt.so/2013.1/901 2013/11/27
 32 34  0  0  0  0  0  0  0  0999 V2000
   -9.9575    5.8600   19.6389 C   0  0  2  0  0  0  0  0  0  0  0  0
  -11.1042    6.5685   20.0378 O   0  0  0  0  0  0  0  0  0  0  0  0
  -10.1041    4.4011   20.1176 C   0  0  2  0  0  0  0  0  0  0  0  0
  -11.3195    3.8009   19.5590 N   0  3  0  0  0  0  0  0  0  0  0  0
  -10.1069    4.3461   21.6634 C   0  0  0  0  0  0  0  0  0  0  0  0
   -8.7823    4.9591   22.1508 C   0  0  2  0  0  0  0  0  0  0  0  0
   -8.6983    4.8953   23.5785 O   0  0  0  0  0  0  0  0  0  0  0  0
   -8.6785    6.4198   21.6460 C   0  0  2  0  0  0  0  0  0  0  0  0
   -8.7669    6.4618   20.1933 O   0  0  0  0  0  0  0  0  0  0  0  0
   -7.3702    7.1057   22.0314 C   0  0  0  0  0  0  0  0  0  0  0  0
   -6.4672    7.2403   20.8582 N   0  3  0  0  0  0  0  0  0  0  0  0
  -13.3687   10.0390   19.1504 C   0  0  2  0  0  0  0  0  0  0  0  0
  -13.7782   11.3648   18.6521 N   0  3  0  0  0  0  0  0  0  0  0  0
  -12.2195   10.1898   20.1379 C   0  0  0  0  0  0  0  0  0  0  0  0
  -11.7820    8.8171   20.6607 C   0  0  2  0  0  0  0  0  0  0  0  0
  -10.7458    9.0211   21.7035 N   0  3  0  0  0  0  0  0  0  0  0  0
  -11.3391    7.8833   19.4948 C   0  0  2  0  0  0  0  0  0  0  0  0
  -12.4860    7.7739   18.4573 C   0  0  2  0  0  0  0  0  0  0  0  0
  -12.0296    7.0677   17.3289 O   0  0  0  0  0  0  0  0  0  0  0  0
  -12.9254    9.1668   17.9776 C   0  0  1  0  0  0  0  0  0  0  0  0
  -14.0011    9.0180   17.0516 O   0  0  0  0  0  0  0  0  0  0  0  0
  -13.6745    8.6709   15.7499 C   0  0  2  0  0  0  0  0  0  0  0  0
  -14.5244    9.5136   14.7836 C   0  0  2  0  0  0  0  0  0  0  0  0
  -14.2495   10.8889   15.0179 O   0  0  0  0  0  0  0  0  0  0  0  0
  -16.0159    9.2247   15.0283 C   0  0  1  0  0  0  0  0  0  0  0  0
  -16.8927   10.0318   14.1318 N   0  3  0  0  0  0  0  0  0  0  0  0
  -16.2815    7.7120   14.8333 C   0  0  2  0  0  0  0  0  0  0  0  0
  -17.6530    7.4095   15.0787 O   0  0  0  0  0  0  0  0  0  0  0  0
  -15.3703    6.8879   15.7619 C   0  0  2  0  0  0  0  0  0  0  0  0
  -13.9583    7.2602   15.5619 O   0  0  0  0  0  0  0  0  0  0  0  0
  -15.4799    5.4027   15.4973 C   0  0  0  0  0  0  0  0  0  0  0  0
  -15.0577    5.0713   14.1762 O   0  0  0  0  0  0  0  0  0  0  0  0
  1  2  1  1  0  0  0
  1  3  1  0  0  0  0
  1  9  1  0  0  0  0
  3  4  1  1  0  0  0
  3  5  1  0  0  0  0
  5  6  1  0  0  0  0
  6  7  1  1  0  0  0
  6  8  1  0  0  0  0
  8  9  1  0  0  0  0
  8 10  1  6  0  0  0
 10 11  1  0  0  0  0
 12 13  1  6  0  0  0
 12 14  1  0  0  0  0
 12 20  1  0  0  0  0
 14 15  1  0  0  0  0
 15 16  1  1  0  0  0
 15 17  1  0  0  0  0
 17  2  1  1  0  0  0
 17 18  1  0  0  0  0
 18 19  1  6  0  0  0
 18 20  1  0  0  0  0
 20 21  1  6  0  0  0
 22 21  1  1  0  0  0
 22 23  1  0  0  0  0
 22 30  1  0  0  0  0
 23 24  1  1  0  0  0
 23 25  1  0  0  0  0
 25 26  1  6  0  0  0
 25 27  1  0  0  0  0
 27 28  1  1  0  0  0
 27 29  1  0  0  0  0
 29 30  1  0  0  0  0
 29 31  1  6  0  0  0
 31 32  1  0  0  0  0
M  CHG  5   4   1  11   1  13   1  16   1  26   1
M  END
>  <CHROM.1>
-168.08394465,-135.76023207,59.89274178,-60.89668081,106.22793504,76.94747528
-155.90489493,-64.47080596,60.98334810,158.32121755,-137.38484792,83.04318703
-168.80506475,-59.91165218,62.44599565,-176.20603926,-12.36021359,7.51858338
18.34354589,0.14585546,0.78495978,-2.99090876

>  <Name>
1lc4

>  <RI>
0

>  <Rbt.Current_Directory>
/home/afrankz/demos/rdock_decoys_rna/rnas/1lc4

>  <Rbt.Executable>
rbdock ($Id: //depot/dev/client3/rdock/2013.1/src/exe/rbdock.cxx#4 $)

>  <Rbt.Library>
libRbt.so (2013.1, Build901 2013/11/27)

>  <Rbt.Parameter_File>
/export/apps/rDock/src/rDock_2013.1_src/data/scripts/dock_solv.prm

>  <Rbt.Receptor>
prm/pocket_docking_3.prm

>  <SCORE>
-71.136

>  <SCORE.INTER>
-58.5032

>  <SCORE.INTER.CONST>
1

>  <SCORE.INTER.POLAR>
-9.34239

>  <SCORE.INTER.ROT>
6

>  <SCORE.INTER.SOLV>
40.2546

>  <SCORE.INTER.VDW>
-28.879

>  <SCORE.INTER.norm>
-1.82822

>  <SCORE.INTRA>
-12.7277

>  <SCORE.INTRA.DIHEDRAL>
-20.2531

>  <SCORE.INTRA.DIHEDRAL.0>
44.2576

>  <SCORE.INTRA.POLAR>
0.381556

>  <SCORE.INTRA.POLAR.0>
-0.381556

>  <SCORE.INTRA.REPUL>
0

>  <SCORE.INTRA.REPUL.0>
0

>  <SCORE.INTRA.SOLV>
-1.22931

>  <SCORE.INTRA.SOLV.lig_0>
-134.592

>  <SCORE.INTRA.VDW>
-3.28375

>  <SCORE.INTRA.VDW.0>
-1.01417

>  <SCORE.INTRA.norm>
-0.39774

>  <SCORE.RESTR>
0.094835

>  <SCORE.RESTR.CAVITY>
0.094835

>  <SCORE.RESTR.norm>
0.00296359

>  <SCORE.SYSTEM>
0

>  <SCORE.SYSTEM.CONST>
0

>  <SCORE.SYSTEM.DIHEDRAL>
0

>  <SCORE.SYSTEM.SOLV>
0

>  <SCORE.SYSTEM.norm>
0

>  <SCORE.heavy>
32

>  <SCORE.norm>
-2.223

>  <RMSD>
1.364

$$$$
1lc4
 OpenBabel02141814113D
libRbt.so/2013.1/901 2013/11/27
 32 34  0  0  0  0  0  0  0  0999 V2000
  -10.2410    5.6590   19.4471 C   0  0  2  0  0  0  0  0  0  0  0  0
  -11.4103    6.3754   19.7563 O   0  0  0  0  0  0  0  0  0  0  0  0
  -10.3601    4.2536   20.0711 C   0  0  2  0  0  0  0  0  0  0  0  0
  -11.5521    3.5688   19.5614 N   0  3  0  0  0  0  0  0  0  0  0  0
  -10.3854    4.3569   21.6142 C   0  0  0  0  0  0  0  0  0  0  0  0
   -9.0835    5.0499   22.0532 C   0  0  2  0  0  0  0  0  0  0  0  0
   -9.0200    5.1347   23.4808 O   0  0  0  0  0  0  0  0  0  0  0  0
   -9.0069    6.4535   21.4025 C   0  0  2  0  0  0  0  0  0  0  0  0
   -9.0738    6.3444   19.9520 O   0  0  0  0  0  0  0  0  0  0  0  0
   -7.7214    7.2081   21.7322 C   0  0  0  0  0  0  0  0  0  0  0  0
   -7.7196    7.6777   23.1426 N   0  3  0  0  0  0  0  0  0  0  0  0
  -13.8587    9.4431   18.1580 C   0  0  2  0  0  0  0  0  0  0  0  0
  -14.3211   10.6570   17.4605 N   0  3  0  0  0  0  0  0  0  0  0  0
  -12.9110    9.8244   19.2870 C   0  0  0  0  0  0  0  0  0  0  0  0
  -12.4200    8.5698   20.0180 C   0  0  2  0  0  0  0  0  0  0  0  0
  -11.5980    8.9948   21.1783 N   0  3  0  0  0  0  0  0  0  0  0  0
  -11.6930    7.5960   19.0430 C   0  0  2  0  0  0  0  0  0  0  0  0
  -12.6347    7.2513   17.8605 C   0  0  2  0  0  0  0  0  0  0  0  0
  -11.9253    6.5075   16.8996 O   0  0  0  0  0  0  0  0  0  0  0  0
  -13.1368    8.5295   17.1695 C   0  0  1  0  0  0  0  0  0  0  0  0
  -14.0228    8.1648   16.1118 O   0  0  0  0  0  0  0  0  0  0  0  0
  -13.4683    7.9793   14.8550 C   0  0  2  0  0  0  0  0  0  0  0  0
  -14.5577    8.2084   13.7933 C   0  0  2  0  0  0  0  0  0  0  0  0
  -15.0536    9.5341   13.9299 O   0  0  0  0  0  0  0  0  0  0  0  0
  -15.6968    7.1951   14.0016 C   0  0  1  0  0  0  0  0  0  0  0  0
  -16.7958    7.3831   13.0112 N   0  3  0  0  0  0  0  0  0  0  0  0
  -15.1247    5.7590   13.9153 C   0  0  2  0  0  0  0  0  0  0  0  0
  -16.1546    4.7968   14.1299 O   0  0  0  0  0  0  0  0  0  0  0  0
  -13.9900    5.5761   14.9403 C   0  0  2  0  0  0  0  0  0  0  0  0
  -12.9650    6.6210   14.7669 O   0  0  0  0  0  0  0  0  0  0  0  0
  -13.2939    4.2417   14.7886 C   0  0  0  0  0  0  0  0  0  0  0  0
  -12.7491    3.7891   16.0261 O   0  0  0  0  0  0  0  0  0  0  0  0
  1  2  1  1  0  0  0
  1  3  1  0  0  0  0
  1  9  1  0  0  0  0
  3  4  1  6  0  0  0
  3  5  1  0  0  0  0
  5  6  1  0  0  0  0
  6  7  1  1  0  0  0
  6  8  1  0  0  0  0
  8  9  1  0  0  0  0
  8 10  1  6  0  0  0
 10 11  1  0  0  0  0
 12 13  1  6  0  0  0
 12 14  1  0  0  0  0
 12 20  1  0  0  0  0
 14 15  1  0  0  0  0
 15 16  1  1  0  0  0
 15 17  1  0  0  0  0
 17  2  1  1  0  0  0
 17 18  1  0  0  0  0
 18 19  1  6  0  0  0
 18 20  1  0  0  0  0
 20 21  1  6  0  0  0
 22 21  1  1  0  0  0
 22 23  1  0  0  0  0
 22 30  1  0  0  0  0
 23 24  1  1  0  0  0
 23 25  1  0  0  0  0
 25 26  1  6  0  0  0
 25 27  1  0  0  0  0
 27 28  1  1  0  0  0
 27 29  1  0  0  0  0
 29 30  1  0  0  0  0
 29 31  1  6  0  0  0
 31 32  1  0  0  0  0
M  CHG  5   4   1  11   1  13   1  16   1  26   1
M  END
>  <CHROM.1>
-165.80791435,-146.55528522,179.89050244,61.52471053,-72.52665152,-99.98443389
-66.84034441,90.36123289,-60.19283648,146.90174492,-155.44877311,-76.52188324
-157.75003559,63.83064179,-151.67551988,-168.03264586,-12.32371368,6.82966726
17.92602764,-0.16509164,0.91055407,-2.80480950

>  <Name>
1lc4

>  <RI>
0

>  <Rbt.Current_Directory>
/home/afrankz/demos/rdock_decoys_rna/rnas/1lc4

>  <Rbt.Executable>
rbdock ($Id: //depot/dev/client3/rdock/2013.1/src/exe/rbdock.cxx#4 $)

>  <Rbt.Library>
libRbt.so (2013.1, Build901 2013/11/27)

>  <Rbt.Parameter_File>
/export/apps/rDock/src/rDock_2013.1_src/data/scripts/dock_solv.prm

>  <Rbt.Receptor>
prm/pocket_docking_7.prm

>  <SCORE>
-55.3943

>  <SCORE.INTER>
-40.9434

>  <SCORE.INTER.CONST>
1

>  <SCORE.INTER.POLAR>
-5.74016

>  <SCORE.INTER.ROT>
6

>  <SCORE.INTER.SOLV>
19.4969

>  <SCORE.INTER.VDW>
-22.2607

>  <SCORE.INTER.norm>
-1.27948

>  <SCORE.INTRA>
-14.4509

>  <SCORE.INTRA.DIHEDRAL>
-21.5193

>  <SCORE.INTRA.DIHEDRAL.0>
44.2576

>  <SCORE.INTRA.POLAR>
-0.336114

>  <SCORE.INTRA.POLAR.0>
-0.381556

>  <SCORE.INTRA.REPUL>
0

>  <SCORE.INTRA.REPUL.0>
0

>  <SCORE.INTRA.SOLV>
0.399662

>  <SCORE.INTRA.SOLV.lig_0>
-134.592

>  <SCORE.INTRA.VDW>
-2.74826

>  <SCORE.INTRA.VDW.0>
-1.01417

>  <SCORE.INTRA.norm>
-0.45159

>  <SCORE.RESTR>
0

>  <SCORE.RESTR.CAVITY>
0

>  <SCORE.RESTR.norm>
0

>  <SCORE.SYSTEM>
0

>  <SCORE.SYSTEM.CONST>
0

>  <SCORE.SYSTEM.DIHEDRAL>
0

>  <SCORE.SYSTEM.SOLV>
0

>  <SCORE.SYSTEM.norm>
0

>  <SCORE.heavy>
32

>  <SCORE.norm>
-1.73107

>  <RMSD>
1.364

$$$$
1lc4
 OpenBabel02141814113D
libRbt.so/2013.1/901 2013/11/27
 32 34  0  0  0  0  0  0  0  0999 V2000
  -10.5707    5.3543   20.0115 C   0  0  2  0  0  0  0  0  0  0  0  0
  -11.4106    6.3799   20.4795 O   0  0  0  0  0  0  0  0  0  0  0  0
  -10.5892    4.2097   21.0452 C   0  0  2  0  0  0  0  0  0  0  0  0
  -11.9585    3.7247   21.2443 N   0  3  0  0  0  0  0  0  0  0  0  0
   -9.9598    4.6843   22.3760 C   0  0  0  0  0  0  0  0  0  0  0  0
   -8.5198    5.1340   22.0725 C   0  0  2  0  0  0  0  0  0  0  0  0
   -7.8603    5.5423   23.2757 O   0  0  0  0  0  0  0  0  0  0  0  0
   -8.5508    6.2805   21.0313 C   0  0  2  0  0  0  0  0  0  0  0  0
   -9.2257    5.8446   19.8170 O   0  0  0  0  0  0  0  0  0  0  0  0
   -7.1635    6.7658   20.6185 C   0  0  0  0  0  0  0  0  0  0  0  0
   -6.3601    7.1692   21.8024 N   0  3  0  0  0  0  0  0  0  0  0  0
  -13.6210    9.5939   18.8230 C   0  0  2  0  0  0  0  0  0  0  0  0
  -14.0099   10.7788   18.0365 N   0  3  0  0  0  0  0  0  0  0  0  0
  -12.4696    9.9465   19.7548 C   0  0  0  0  0  0  0  0  0  0  0  0
  -12.0533    8.7210   20.5759 C   0  0  2  0  0  0  0  0  0  0  0  0
  -11.0142    9.1398   21.5492 N   0  3  0  0  0  0  0  0  0  0  0  0
  -11.6250    7.5414   19.6527 C   0  0  2  0  0  0  0  0  0  0  0  0
  -12.7735    7.2176   18.6627 C   0  0  2  0  0  0  0  0  0  0  0  0
  -12.3281    6.2679   17.7246 O   0  0  0  0  0  0  0  0  0  0  0  0
  -13.1913    8.4725   17.8791 C   0  0  1  0  0  0  0  0  0  0  0  0
  -14.2691    8.1346   17.0069 O   0  0  0  0  0  0  0  0  0  0  0  0
  -13.9840    8.0372   15.6539 C   0  0  2  0  0  0  0  0  0  0  0  0
  -15.0630    8.7968   14.8634 C   0  0  2  0  0  0  0  0  0  0  0  0
  -15.0572   10.1569   15.2785 O   0  0  0  0  0  0  0  0  0  0  0  0
  -16.4393    8.1668   15.1401 C   0  0  1  0  0  0  0  0  0  0  0  0
  -17.5317    8.8773   14.4148 N   0  3  0  0  0  0  0  0  0  0  0  0
  -16.4047    6.6706   14.7436 C   0  0  2  0  0  0  0  0  0  0  0  0
  -17.6612    6.0528   15.0128 O   0  0  0  0  0  0  0  0  0  0  0  0
  -15.2728    5.9469   15.4963 C   0  0  2  0  0  0  0  0  0  0  0  0
  -13.9874    6.6349   15.2799 O   0  0  0  0  0  0  0  0  0  0  0  0
  -15.0971    4.5197   15.0271 C   0  0  0  0  0  0  0  0  0  0  0  0
  -14.6826    4.4616   13.6639 O   0  0  0  0  0  0  0  0  0  0  0  0
  1  2  1  1  0  0  0
  1  3  1  0  0  0  0
  1  9  1  0  0  0  0
  3  4  1  1  0  0  0
  3  5  1  0  0  0  0
  5  6  1  0  0  0  0
  6  7  1  1  0  0  0
  6  8  1  0  0  0  0
  8  9  1  0  0  0  0
  8 10  1  6  0  0  0
 10 11  1  0  0  0  0
 12 13  1  6  0  0  0
 12 14  1  0  0  0  0
 12 20  1  0  0  0  0
 14 15  1  0  0  0  0
 15 16  1  1  0  0  0
 15 17  1  0  0  0  0
 17  2  1  1  0  0  0
 17 18  1  0  0  0  0
 18 19  1  6  0  0  0
 18 20  1  0  0  0  0
 20 21  1  6  0  0  0
 22 21  1  1  0  0  0
 22 23  1  0  0  0  0
 22 30  1  0  0  0  0
 23 24  1  1  0  0  0
 23 25  1  0  0  0  0
 25 26  1  6  0  0  0
 25 27  1  0  0  0  0
 27 28  1  1  0  0  0
 27 29  1  0  0  0  0
 29 30  1  0  0  0  0
 29 31  1  6  0  0  0
 31 32  1  0  0  0  0
M  CHG  5   4   1  11   1  13   1  16   1  26   1
M  END
>  <CHROM.1>
-176.58634320,-156.66299946,67.38766003,65.03895157,-55.05396055,-80.65237580
169.49211137,-53.88106314,-60.97660471,131.79892524,-133.49638795,168.56502974
-69.93545662,-59.01413703,64.28901769,57.72683708,-12.52968765,7.04640510
18.36618596,0.02377336,0.77134836,-2.95671266

>  <Name>
1lc4

>  <RI>
0

>  <Rbt.Current_Directory>
/home/afrankz/demos/rdock_decoys_rna/rnas/1lc4

>  <Rbt.Executable>
rbdock ($Id: //depot/dev/client3/rdock/2013.1/src/exe/rbdock.cxx#4 $)

>  <Rbt.Library>
libRbt.so (2013.1, Build901 2013/11/27)

>  <Rbt.Parameter_File>
/export/apps/rDock/src/rDock_2013.1_src/data/scripts/dock_solv.prm

>  <Rbt.Receptor>
prm/pocket_docking_5.prm

>  <SCORE>
-77.0796

>  <SCORE.INTER>
-54.0858

>  <SCORE.INTER.CONST>
1

>  <SCORE.INTER.POLAR>
-8.12307

>  <SCORE.INTER.ROT>
6

>  <SCORE.INTER.SOLV>
28.8515

>  <SCORE.INTER.VDW>
-26.1974

>  <SCORE.INTER.norm>
-1.69018

>  <SCORE.INTRA>
-22.9939

>  <SCORE.INTRA.DIHEDRAL>
-26.2416

>  <SCORE.INTRA.DIHEDRAL.0>
44.2576

>  <SCORE.INTRA.POLAR>
-1.75187

>  <SCORE.INTRA.POLAR.0>
-0.381556

>  <SCORE.INTRA.REPUL>
0

>  <SCORE.INTRA.REPUL.0>
0

>  <SCORE.INTRA.SOLV>
0.0162802

>  <SCORE.INTRA.SOLV.lig_0>
-134.592

>  <SCORE.INTRA.VDW>
-3.92486

>  <SCORE.INTRA.VDW.0>
-1.01417

>  <SCORE.INTRA.norm>
-0.718559

>  <SCORE.RESTR>
0

>  <SCORE.RESTR.CAVITY>
0

>  <SCORE.RESTR.norm>
0

>  <SCORE.SYSTEM>
0

>  <SCORE.SYSTEM.CONST>
0

>  <SCORE.SYSTEM.DIHEDRAL>
0

>  <SCORE.SYSTEM.SOLV>
0

>  <SCORE.SYSTEM.norm>
0

>  <SCORE.heavy>
32

>  <SCORE.norm>
-2.40874

>  <RMSD>
1.368

$$$$
1lc4
 OpenBabel02141814113D
libRbt.so/2013.1/901 2013/11/27
 32 34  0  0  0  0  0  0  0  0999 V2000
  -10.3676    5.5530   19.2048 C   0  0  2  0  0  0  0  0  0  0  0  0
  -11.3883    6.4468   19.5727 O   0  0  0  0  0  0  0  0  0  0  0  0
  -10.6370    4.2037   19.9018 C   0  0  2  0  0  0  0  0  0  0  0  0
  -11.9560    3.6882   19.5220 N   0  3  0  0  0  0  0  0  0  0  0  0
  -10.5138    4.3631   21.4354 C   0  0  0  0  0  0  0  0  0  0  0  0
   -9.0915    4.8679   21.7355 C   0  0  2  0  0  0  0  0  0  0  0  0
   -8.8934    4.9916   23.1479 O   0  0  0  0  0  0  0  0  0  0  0  0
   -8.8665    6.2208   21.0154 C   0  0  2  0  0  0  0  0  0  0  0  0
   -9.0734    6.0727   19.5818 O   0  0  0  0  0  0  0  0  0  0  0  0
   -7.4607    6.7851   21.2052 C   0  0  0  0  0  0  0  0  0  0  0  0
   -7.3810    7.6327   22.4238 N   0  3  0  0  0  0  0  0  0  0  0  0
  -13.7491    9.2846   17.4908 C   0  0  2  0  0  0  0  0  0  0  0  0
  -14.1731   10.4297   16.6645 N   0  3  0  0  0  0  0  0  0  0  0  0
  -12.9676    9.7803   18.6999 C   0  0  0  0  0  0  0  0  0  0  0  0
  -12.5176    8.5981   19.5655 C   0  0  2  0  0  0  0  0  0  0  0  0
  -11.8666    9.1328   20.7874 N   0  3  0  0  0  0  0  0  0  0  0  0
  -11.6326    7.6069   18.7522 C   0  0  2  0  0  0  0  0  0  0  0  0
  -12.4029    7.1448   17.4885 C   0  0  2  0  0  0  0  0  0  0  0  0
  -11.5470    6.3828   16.6719 O   0  0  0  0  0  0  0  0  0  0  0  0
  -12.8699    8.3523   16.6595 C   0  0  1  0  0  0  0  0  0  0  0  0
  -13.5999    7.8806   15.5276 O   0  0  0  0  0  0  0  0  0  0  0  0
  -13.1957    8.3294   14.2799 C   0  0  2  0  0  0  0  0  0  0  0  0
  -14.4285    8.4290   13.3652 C   0  0  2  0  0  0  0  0  0  0  0  0
  -15.3540    9.3380   13.9474 O   0  0  0  0  0  0  0  0  0  0  0  0
  -15.0733    7.0393   13.2218 C   0  0  1  0  0  0  0  0  0  0  0  0
  -16.2899    7.0773   12.3601 N   0  3  0  0  0  0  0  0  0  0  0  0
  -14.0301    6.0491   12.6488 C   0  0  2  0  0  0  0  0  0  0  0  0
  -14.5924    4.7445   12.5283 O   0  0  0  0  0  0  0  0  0  0  0  0
  -12.7777    6.0186   13.5445 C   0  0  2  0  0  0  0  0  0  0  0  0
  -12.2446    7.3800   13.7321 O   0  0  0  0  0  0  0  0  0  0  0  0
  -11.6671    5.1856   12.9441 C   0  0  0  0  0  0  0  0  0  0  0  0
  -12.0084    3.8016   12.9081 O   0  0  0  0  0  0  0  0  0  0  0  0
  1  2  1  1  0  0  0
  1  3  1  0  0  0  0
  1  9  1  0  0  0  0
  3  4  1  1  0  0  0
  3  5  1  0  0  0  0
  5  6  1  0  0  0  0
  6  7  1  1  0  0  0
  6  8  1  0  0  0  0
  8  9  1  0  0  0  0
  8 10  1  6  0  0  0
 10 11  1  0  0  0  0
 12 13  1  6  0  0  0
 12 14  1  0  0  0  0
 12 20  1  0  0  0  0
 14 15  1  0  0  0  0
 15 16  1  1  0  0  0
 15 17  1  0  0  0  0
 17  2  1  1  0  0  0
 17 18  1  0  0  0  0
 18 19  1  6  0  0  0
 18 20  1  0  0  0  0
 20 21  1  6  0  0  0
 22 21  1  1  0  0  0
 22 23  1  0  0  0  0
 22 30  1  0  0  0  0
 23 24  1  1  0  0  0
 23 25  1  0  0  0  0
 25 26  1  6  0  0  0
 25 27  1  0  0  0  0
 27 28  1  1  0  0  0
 27 29  1  0  0  0  0
 29 30  1  0  0  0  0
 29 31  1  6  0  0  0
 31 32  1  0  0  0  0
M  CHG  5   4   1  11   1  13   1  16   1  26   1
M  END
>  <CHROM.1>
-159.94105207,-165.02165902,-57.06308674,168.04727914,-88.68342138,-176.27212684
-57.79493231,166.81764289,75.62580604,111.37526328,-147.84929686,171.22366719
-148.50898687,-51.56931556,-67.51356115,55.30330132,-12.03455161,6.82920714
17.26082564,-0.52473119,0.92960097,-2.39697073

>  <Name>
1lc4

>  <RI>
0

>  <Rbt.Current_Directory>
/home/afrankz/demos/rdock_decoys_rna/rnas/1lc4

>  <Rbt.Executable>
rbdock ($Id: //depot/dev/client3/rdock/2013.1/src/exe/rbdock.cxx#4 $)

>  <Rbt.Library>
libRbt.so (2013.1, Build901 2013/11/27)

>  <Rbt.Parameter_File>
/export/apps/rDock/src/rDock_2013.1_src/data/scripts/dock_solv.prm

>  <Rbt.Receptor>
prm/pocket_docking_4.prm

>  <SCORE>
-64.129

>  <SCORE.INTER>
-44.9607

>  <SCORE.INTER.CONST>
1

>  <SCORE.INTER.POLAR>
-6.048

>  <SCORE.INTER.ROT>
6

>  <SCORE.INTER.SOLV>
18.8954

>  <SCORE.INTER.VDW>
-23.7123

>  <SCORE.INTER.norm>
-1.40502

>  <SCORE.INTRA>
-19.1683

>  <SCORE.INTRA.DIHEDRAL>
-22.7752

>  <SCORE.INTRA.DIHEDRAL.0>
44.2576

>  <SCORE.INTRA.POLAR>
-1.21399

>  <SCORE.INTRA.POLAR.0>
-0.381556

>  <SCORE.INTRA.REPUL>
0

>  <SCORE.INTRA.REPUL.0>
0

>  <SCORE.INTRA.SOLV>
-1.28811

>  <SCORE.INTRA.SOLV.lig_0>
-134.592

>  <SCORE.INTRA.VDW>
-3.00908

>  <SCORE.INTRA.VDW.0>
-1.01417

>  <SCORE.INTRA.norm>
-0.59901

>  <SCORE.RESTR>
0

>  <SCORE.RESTR.CAVITY>
0

>  <SCORE.RESTR.norm>
0

>  <SCORE.SYSTEM>
0

>  <SCORE.SYSTEM.CONST>
0

>  <SCORE.SYSTEM.DIHEDRAL>
0

>  <SCORE.SYSTEM.SOLV>
0

>  <SCORE.SYSTEM.norm>
0

>  <SCORE.heavy>
32

>  <SCORE.norm>
-2.00403

>  <RMSD>
1.387

$$$$
1lc4
 OpenBabel02141814113D
libRbt.so/2013.1/901 2013/11/27
 32 34  0  0  0  0  0  0  0  0999 V2000
  -10.6409    5.4223   20.0047 C   0  0  2  0  0  0  0  0  0  0  0  0
  -11.4654    6.4543   20.4855 O   0  0  0  0  0  0  0  0  0  0  0  0
  -10.6812    4.2629   21.0212 C   0  0  2  0  0  0  0  0  0  0  0  0
  -12.0587    3.7974   21.2093 N   0  3  0  0  0  0  0  0  0  0  0  0
  -10.0480    4.7074   22.3606 C   0  0  0  0  0  0  0  0  0  0  0  0
   -8.6000    5.1380   22.0678 C   0  0  2  0  0  0  0  0  0  0  0  0
   -7.9376    5.5176   23.2787 O   0  0  0  0  0  0  0  0  0  0  0  0
   -8.6093    6.3001   21.0437 C   0  0  2  0  0  0  0  0  0  0  0  0
   -9.2876    5.8934   19.8212 O   0  0  0  0  0  0  0  0  0  0  0  0
   -7.2130    6.7688   20.6419 C   0  0  0  0  0  0  0  0  0  0  0  0
   -6.4065    7.1409   21.8339 N   0  3  0  0  0  0  0  0  0  0  0  0
  -13.6089    9.7252   18.8524 C   0  0  2  0  0  0  0  0  0  0  0  0
  -13.9694   10.9305   18.0836 N   0  3  0  0  0  0  0  0  0  0  0  0
  -12.4742   10.0461   19.8157 C   0  0  0  0  0  0  0  0  0  0  0  0
  -12.0874    8.7993   20.6188 C   0  0  2  0  0  0  0  0  0  0  0  0
  -11.0653    9.1866   21.6226 N   0  3  0  0  0  0  0  0  0  0  0  0
  -11.6510    7.6353   19.6796 C   0  0  2  0  0  0  0  0  0  0  0  0
  -12.7811    7.3444   18.6588 C   0  0  2  0  0  0  0  0  0  0  0  0
  -12.3250    6.4105   17.7101 O   0  0  0  0  0  0  0  0  0  0  0  0
  -13.1700    8.6200   17.8938 C   0  0  1  0  0  0  0  0  0  0  0  0
  -14.2322    8.3116   16.9920 O   0  0  0  0  0  0  0  0  0  0  0  0
  -13.9466    8.3558   15.6363 C   0  0  2  0  0  0  0  0  0  0  0  0
  -15.0991    9.0696   14.9094 C   0  0  2  0  0  0  0  0  0  0  0  0
  -15.2239   10.3843   15.4368 O   0  0  0  0  0  0  0  0  0  0  0  0
  -16.4057    8.2870   15.1290 C   0  0  1  0  0  0  0  0  0  0  0  0
  -17.5664    8.9452   14.4630 N   0  3  0  0  0  0  0  0  0  0  0  0
  -16.2274    6.8397   14.6089 C   0  0  2  0  0  0  0  0  0  0  0  0
  -17.4160    6.0817   14.8224 O   0  0  0  0  0  0  0  0  0  0  0  0
  -15.0259    6.1699   15.3013 C   0  0  2  0  0  0  0  0  0  0  0  0
  -13.8151    6.9961   15.1463 O   0  0  0  0  0  0  0  0  0  0  0  0
  -14.7144    4.8109   14.7148 C   0  0  0  0  0  0  0  0  0  0  0  0
  -15.7785    3.8873   14.9334 O   0  0  0  0  0  0  0  0  0  0  0  0
  1  2  1  1  0  0  0
  1  3  1  0  0  0  0
  1  9  1  0  0  0  0
  3  4  1  1  0  0  0
  3  5  1  0  0  0  0
  5  6  1  0  0  0  0
  6  7  1  1  0  0  0
  6  8  1  0  0  0  0
  8  9  1  0  0  0  0
  8 10  1  6  0  0  0
 10 11  1  0  0  0  0
 12 13  1  6  0  0  0
 12 14  1  0  0  0  0
 12 20  1  0  0  0  0
 14 15  1  0  0  0  0
 15 16  1  1  0  0  0
 15 17  1  0  0  0  0
 17  2  1  1  0  0  0
 17 18  1  0  0  0  0
 18 19  1  6  0  0  0
 18 20  1  0  0  0  0
 20 21  1  6  0  0  0
 22 21  1  1  0  0  0
 22 23  1  0  0  0  0
 22 30  1  0  0  0  0
 23 24  1  1  0  0  0
 23 25  1  0  0  0  0
 25 26  1  6  0  0  0
 25 27  1  0  0  0  0
 27 28  1  1  0  0  0
 27 29  1  0  0  0  0
 29 30  1  0  0  0  0
 29 31  1  6  0  0  0
 31 32  1  0  0  0  0
M  CHG  5   4   1  11   1  13   1  16   1  26   1
M  END
>  <CHROM.1>
-177.01681848,-157.56927049,65.01504747,-43.01148012,-55.02839927,160.87892348
55.08277120,-176.36658255,-52.92959492,126.26439996,-136.29786259,159.02990518
-64.59090920,-54.92394832,-64.49405776,178.27979113,-12.56497932,7.13515104
18.39768153,0.08273520,0.76897296,-3.02586232

>  <Name>
1lc4

>  <RI>
0

>  <Rbt.Current_Directory>
/home/afrankz/demos/rdock_decoys_rna/rnas/1lc4

>  <Rbt.Executable>
rbdock ($Id: //depot/dev/client3/rdock/2013.1/src/exe/rbdock.cxx#4 $)

>  <Rbt.Library>
libRbt.so (2013.1, Build901 2013/11/27)

>  <Rbt.Parameter_File>
/export/apps/rDock/src/rDock_2013.1_src/data/scripts/dock_solv.prm

>  <Rbt.Receptor>
prm/pocket_docking_3.prm

>  <SCORE>
-79.5125

>  <SCORE.INTER>
-58.3545

>  <SCORE.INTER.CONST>
1

>  <SCORE.INTER.POLAR>
-9.03991

>  <SCORE.INTER.ROT>
6

>  <SCORE.INTER.SOLV>
29.1673

>  <SCORE.INTER.VDW>
-26.0924

>  <SCORE.INTER.norm>
-1.82358

>  <SCORE.INTRA>
-21.1707

>  <SCORE.INTRA.DIHEDRAL>
-24.0654

>  <SCORE.INTRA.DIHEDRAL.0>
44.2576

>  <SCORE.INTRA.POLAR>
-1.60621

>  <SCORE.INTRA.POLAR.0>
-0.381556

>  <SCORE.INTRA.REPUL>
0

>  <SCORE.INTRA.REPUL.0>
0

>  <SCORE.INTRA.SOLV>
0.234521

>  <SCORE.INTRA.SOLV.lig_0>
-134.592

>  <SCORE.INTRA.VDW>
-3.79411

>  <SCORE.INTRA.VDW.0>
-1.01417

>  <SCORE.INTRA.norm>
-0.661584

>  <SCORE.RESTR>
0.01269

>  <SCORE.RESTR.CAVITY>
0.01269

>  <SCORE.RESTR.norm>
0.000396562

>  <SCORE.SYSTEM>
0

>  <SCORE.SYSTEM.CONST>
0

>  <SCORE.SYSTEM.DIHEDRAL>
0

>  <SCORE.SYSTEM.SOLV>
0

>  <SCORE.SYSTEM.norm>
0

>  <SCORE.heavy>
32

>  <SCORE.norm>
-2.48477

>  <RMSD>
1.396

$$$$
1lc4
 OpenBabel02141814113D
libRbt.so/2013.1/901 2013/11/27
 32 34  0  0  0  0  0  0  0  0999 V2000
  -10.7339    5.6688   19.4686 C   0  0  2  0  0  0  0  0  0  0  0  0
  -11.5338    6.6846   20.0201 O   0  0  0  0  0  0  0  0  0  0  0  0
  -10.8933    4.4061   20.3399 C   0  0  2  0  0  0  0  0  0  0  0  0
  -12.3011    4.0006   20.3971 N   0  3  0  0  0  0  0  0  0  0  0  0
  -10.3215    4.6601   21.7544 C   0  0  0  0  0  0  0  0  0  0  0  0
   -8.8388    5.0388   21.5932 C   0  0  2  0  0  0  0  0  0  0  0  0
   -8.2331    5.2413   22.8744 O   0  0  0  0  0  0  0  0  0  0  0  0
   -8.7281    6.3080   20.7120 C   0  0  2  0  0  0  0  0  0  0  0  0
   -9.3502    6.0807   19.4153 O   0  0  0  0  0  0  0  0  0  0  0  0
   -7.2885    6.7397   20.4443 C   0  0  0  0  0  0  0  0  0  0  0  0
   -6.5707    7.0355   21.7120 N   0  3  0  0  0  0  0  0  0  0  0  0
  -13.9495    9.7339   18.3389 C   0  0  2  0  0  0  0  0  0  0  0  0
  -14.4040   10.9139   17.5806 N   0  3  0  0  0  0  0  0  0  0  0  0
  -12.9227   10.1533   19.3821 C   0  0  0  0  0  0  0  0  0  0  0  0
  -12.4393    8.9340   20.1751 C   0  0  2  0  0  0  0  0  0  0  0  0
  -11.5345    9.4046   21.2532 N   0  3  0  0  0  0  0  0  0  0  0  0
  -11.8098    7.8624   19.2356 C   0  0  2  0  0  0  0  0  0  0  0  0
  -12.8321    7.4753   18.1362 C   0  0  2  0  0  0  0  0  0  0  0  0
  -12.2102    6.6347   17.1946 O   0  0  0  0  0  0  0  0  0  0  0  0
  -13.3233    8.7215   17.3818 C   0  0  1  0  0  0  0  0  0  0  0  0
  -14.2836    8.3212   16.4049 O   0  0  0  0  0  0  0  0  0  0  0  0
  -13.7991    7.8472   15.1958 C   0  0  2  0  0  0  0  0  0  0  0  0
  -14.8629    8.0802   14.1094 C   0  0  2  0  0  0  0  0  0  0  0  0
  -15.1314    9.4743   14.0280 O   0  0  0  0  0  0  0  0  0  0  0  0
  -16.1469    7.3164   14.4777 C   0  0  1  0  0  0  0  0  0  0  0  0
  -17.2251    7.5225   13.4682 N   0  3  0  0  0  0  0  0  0  0  0  0
  -15.8200    5.8104   14.6267 C   0  0  2  0  0  0  0  0  0  0  0  0
  -16.9878    5.0792   14.9932 O   0  0  0  0  0  0  0  0  0  0  0  0
  -14.7049    5.6088   15.6695 C   0  0  2  0  0  0  0  0  0  0  0  0
  -13.5274    6.4279   15.3303 O   0  0  0  0  0  0  0  0  0  0  0  0
  -14.2408    4.1708   15.7376 C   0  0  0  0  0  0  0  0  0  0  0  0
  -13.5515    3.7839   14.5508 O   0  0  0  0  0  0  0  0  0  0  0  0
  1  2  1  1  0  0  0
  1  3  1  0  0  0  0
  1  9  1  0  0  0  0
  3  4  1  1  0  0  0
  3  5  1  0  0  0  0
  5  6  1  0  0  0  0
  6  7  1  1  0  0  0
  6  8  1  0  0  0  0
  8  9  1  0  0  0  0
  8 10  1  6  0  0  0
 10 11  1  0  0  0  0
 12 13  1  6  0  0  0
 12 14  1  0  0  0  0
 12 20  1  0  0  0  0
 14 15  1  0  0  0  0
 15 16  1  1  0  0  0
 15 17  1  0  0  0  0
 17  2  1  1  0  0  0
 17 18  1  0  0  0  0
 18 19  1  6  0  0  0
 18 20  1  0  0  0  0
 20 21  1  6  0  0  0
 22 21  1  1  0  0  0
 22 23  1  0  0  0  0
 22 30  1  0  0  0  0
 23 24  1  1  0  0  0
 23 25  1  0  0  0  0
 25 26  1  6  0  0  0
 25 27  1  0  0  0  0
 27 28  1  1  0  0  0
 27 29  1  0  0  0  0
 29 30  1  0  0  0  0
 29 31  1  6  0  0  0
 31 32  1  0  0  0  0
M  CHG  5   4   1  11   1  13   1  16   1  26   1
M  END
>  <CHROM.1>
-165.76285663,-167.97139344,178.22494330,63.96998131,-59.64165293,-79.96598446
58.08649906,-71.42980473,-59.66898078,155.53768962,-154.34837324,171.95854826
-39.25804575,176.56314295,68.38855287,-175.54237798,-12.52156977,6.90369192
17.98953942,-0.05709427,0.79813098,-2.90728290

>  <Name>
1lc4

>  <RI>
0

>  <Rbt.Current_Directory>
/home/afrankz/demos/rdock_decoys_rna/rnas/1lc4

>  <Rbt.Executable>
rbdock ($Id: //depot/dev/client3/rdock/2013.1/src/exe/rbdock.cxx#4 $)

>  <Rbt.Library>
libRbt.so (2013.1, Build901 2013/11/27)

>  <Rbt.Parameter_File>
/export/apps/rDock/src/rDock_2013.1_src/data/scripts/dock_solv.prm

>  <Rbt.Receptor>
prm/pocket_docking_4.prm

>  <SCORE>
-68.4201

>  <SCORE.INTER>
-47.9786

>  <SCORE.INTER.CONST>
1

>  <SCORE.INTER.POLAR>
-7.63076

>  <SCORE.INTER.ROT>
6

>  <SCORE.INTER.SOLV>
24.5906

>  <SCORE.INTER.VDW>
-22.3467

>  <SCORE.INTER.norm>
-1.49933

>  <SCORE.INTRA>
-20.4415

>  <SCORE.INTRA.DIHEDRAL>
-34.1637

>  <SCORE.INTRA.DIHEDRAL.0>
44.2576

>  <SCORE.INTRA.POLAR>
-0.555306

>  <SCORE.INTRA.POLAR.0>
-0.381556

>  <SCORE.INTRA.REPUL>
0

>  <SCORE.INTRA.REPUL.0>
0

>  <SCORE.INTRA.SOLV>
-2.35824

>  <SCORE.INTRA.SOLV.lig_0>
-134.592

>  <SCORE.INTRA.VDW>
-0.292528

>  <SCORE.INTRA.VDW.0>
-1.01417

>  <SCORE.INTRA.norm>
-0.638798

>  <SCORE.RESTR>
0

>  <SCORE.RESTR.CAVITY>
0

>  <SCORE.RESTR.norm>
0

>  <SCORE.SYSTEM>
0

>  <SCORE.SYSTEM.CONST>
0

>  <SCORE.SYSTEM.DIHEDRAL>
0

>  <SCORE.SYSTEM.SOLV>
0

>  <SCORE.SYSTEM.norm>
0

>  <SCORE.heavy>
32

>  <SCORE.norm>
-2.13813

>  <RMSD>
1.398

$$$$
1lc4
 OpenBabel02141814113D
libRbt.so/2013.1/901 2013/11/27
 32 34  0  0  0  0  0  0  0  0999 V2000
  -10.0981    5.6417   19.4314 C   0  0  2  0  0  0  0  0  0  0  0  0
  -11.1114    6.5439   19.7991 O   0  0  0  0  0  0  0  0  0  0  0  0
  -10.5235    4.2307   19.8863 C   0  0  2  0  0  0  0  0  0  0  0  0
  -11.8063    3.8642   19.2784 N   0  3  0  0  0  0  0  0  0  0  0  0
  -10.5923    4.1677   21.4303 C   0  0  0  0  0  0  0  0  0  0  0  0
   -9.1973    4.5274   21.9709 C   0  0  2  0  0  0  0  0  0  0  0  0
   -9.1781    4.4408   23.3997 O   0  0  0  0  0  0  0  0  0  0  0  0
   -8.8127    5.9483   21.4884 C   0  0  2  0  0  0  0  0  0  0  0  0
   -8.8392    6.0144   20.0341 O   0  0  0  0  0  0  0  0  0  0  0  0
   -7.4168    6.3833   21.9274 C   0  0  0  0  0  0  0  0  0  0  0  0
   -6.8939    7.4705   21.0590 N   0  3  0  0  0  0  0  0  0  0  0  0
  -13.6118    9.1415   17.5720 C   0  0  2  0  0  0  0  0  0  0  0  0
  -14.0934   10.2222   16.6921 N   0  3  0  0  0  0  0  0  0  0  0  0
  -12.8761    9.7353   18.7655 C   0  0  0  0  0  0  0  0  0  0  0  0
  -12.3670    8.6210   19.6866 C   0  0  2  0  0  0  0  0  0  0  0  0
  -11.7640    9.2463   20.8899 N   0  3  0  0  0  0  0  0  0  0  0  0
  -11.4145    7.6505   18.9261 C   0  0  2  0  0  0  0  0  0  0  0  0
  -12.1404    7.0886   17.6767 C   0  0  2  0  0  0  0  0  0  0  0  0
  -11.2306    6.3448   16.9027 O   0  0  0  0  0  0  0  0  0  0  0  0
  -12.6685    8.2287   16.7910 C   0  0  1  0  0  0  0  0  0  0  0  0
  -13.3551    7.6654   15.6739 O   0  0  0  0  0  0  0  0  0  0  0  0
  -13.4242    8.4302   14.5199 C   0  0  2  0  0  0  0  0  0  0  0  0
  -14.7995    8.2166   13.8647 C   0  0  2  0  0  0  0  0  0  0  0  0
  -15.8080    8.6107   14.7864 O   0  0  0  0  0  0  0  0  0  0  0  0
  -14.9684    6.7309   13.5014 C   0  0  1  0  0  0  0  0  0  0  0  0
  -16.2964    6.4583   12.8799 N   0  3  0  0  0  0  0  0  0  0  0  0
  -13.8234    6.3045   12.5506 C   0  0  2  0  0  0  0  0  0  0  0  0
  -13.9394    4.9234   12.2161 O   0  0  0  0  0  0  0  0  0  0  0  0
  -12.4573    6.5917   13.2008 C   0  0  2  0  0  0  0  0  0  0  0  0
  -12.3710    8.0028   13.6176 O   0  0  0  0  0  0  0  0  0  0  0  0
  -11.3085    6.3384   12.2500 C   0  0  0  0  0  0  0  0  0  0  0  0
  -11.3784    7.1835   11.1037 O   0  0  0  0  0  0  0  0  0  0  0  0
  1  2  1  1  0  0  0
  1  3  1  0  0  0  0
  1  9  1  0  0  0  0
  3  4  1  6  0  0  0
  3  5  1  0  0  0  0
  5  6  1  0  0  0  0
  6  7  1  1  0  0  0
  6  8  1  0  0  0  0
  8  9  1  0  0  0  0
  8 10  1  6  0  0  0
 10 11  1  0  0  0  0
 12 13  1  6  0  0  0
 12 14  1  0  0  0  0
 12 20  1  0  0  0  0
 14 15  1  0  0  0  0
 15 16  1  1  0  0  0
 15 17  1  0  0  0  0
 17  2  1  1  0  0  0
 17 18  1  0  0  0  0
 18 19  1  6  0  0  0
 18 20  1  0  0  0  0
 20 21  1  6  0  0  0
 22 21  1  1  0  0  0
 22 23  1  0  0  0  0
 22 30  1  0  0  0  0
 23 24  1  1  0  0  0
 23 25  1  0  0  0  0
 25 26  1  6  0  0  0
 25 27  1  0  0  0  0
 27 28  1  1  0  0  0
 27 29  1  0  0  0  0
 29 30  1  0  0  0  0
 29 31  1  6  0  0  0
 31 32  1  0  0  0  0
M  CHG  5   4   1  11   1  13   1  16   1  26   1
M  END
>  <CHROM.1>
-143.95675155,-169.59590526,-174.63504460,-71.40199757,158.58287772,-21.38176237
74.24305866,166.02473457,-54.70420813,83.82035992,-142.84342449,174.57021705
64.48216582,71.51957073,61.44452077,-178.31481220,-11.90289956,6.90988944
17.27757182,-0.75191013,0.84059675,-2.07654943

>  <Name>
1lc4

>  <RI>
0

>  <Rbt.Current_Directory>
/home/afrankz/demos/rdock_decoys_rna/rnas/1lc4

>  <Rbt.Executable>
rbdock ($Id: //depot/dev/client3/rdock/2013.1/src/exe/rbdock.cxx#4 $)

>  <Rbt.Library>
libRbt.so (2013.1, Build901 2013/11/27)

>  <Rbt.Parameter_File>
/export/apps/rDock/src/rDock_2013.1_src/data/scripts/dock_solv.prm

>  <Rbt.Receptor>
prm/pocket_docking_7.prm

>  <SCORE>
-66.3129

>  <SCORE.INTER>
-47.1914

>  <SCORE.INTER.CONST>
1

>  <SCORE.INTER.POLAR>
-5.84522

>  <SCORE.INTER.ROT>
6

>  <SCORE.INTER.SOLV>
26.5669

>  <SCORE.INTER.VDW>
-28.4325

>  <SCORE.INTER.norm>
-1.47473

>  <SCORE.INTRA>
-19.1215

>  <SCORE.INTRA.DIHEDRAL>
-24.8716

>  <SCORE.INTRA.DIHEDRAL.0>
44.2576

>  <SCORE.INTRA.POLAR>
-1.10977

>  <SCORE.INTRA.POLAR.0>
-0.381556

>  <SCORE.INTRA.REPUL>
0

>  <SCORE.INTRA.REPUL.0>
0

>  <SCORE.INTRA.SOLV>
-0.413919

>  <SCORE.INTRA.SOLV.lig_0>
-134.592

>  <SCORE.INTRA.VDW>
-2.70549

>  <SCORE.INTRA.VDW.0>
-1.01417

>  <SCORE.INTRA.norm>
-0.597546

>  <SCORE.RESTR>
0

>  <SCORE.RESTR.CAVITY>
0

>  <SCORE.RESTR.norm>
0

>  <SCORE.SYSTEM>
0

>  <SCORE.SYSTEM.CONST>
0

>  <SCORE.SYSTEM.DIHEDRAL>
0

>  <SCORE.SYSTEM.SOLV>
0

>  <SCORE.SYSTEM.norm>
0

>  <SCORE.heavy>
32

>  <SCORE.norm>
-2.07228

>  <RMSD>
1.415

$$$$
1lc4
 OpenBabel02141814113D
libRbt.so/2013.1/901 2013/11/27
 32 34  0  0  0  0  0  0  0  0999 V2000
  -10.0741    5.7556   19.7289 C   0  0  2  0  0  0  0  0  0  0  0  0
  -11.1201    6.5537   20.2239 O   0  0  0  0  0  0  0  0  0  0  0  0
  -10.2587    4.3267   20.2794 C   0  0  2  0  0  0  0  0  0  0  0  0
  -11.5659    3.7931   19.8843 N   0  3  0  0  0  0  0  0  0  0  0  0
  -10.0892    4.3229   21.8169 C   0  0  0  0  0  0  0  0  0  0  0  0
   -8.6811    4.8596   22.1287 C   0  0  2  0  0  0  0  0  0  0  0  0
   -8.4395    4.8373   23.5395 O   0  0  0  0  0  0  0  0  0  0  0  0
   -8.5418    6.2924   21.5568 C   0  0  2  0  0  0  0  0  0  0  0  0
   -8.7919    6.2925   20.1224 O   0  0  0  0  0  0  0  0  0  0  0  0
   -7.1567    6.8995   21.7661 C   0  0  0  0  0  0  0  0  0  0  0  0
   -7.1779    8.3717   21.5616 N   0  3  0  0  0  0  0  0  0  0  0  0
  -13.3730    9.9983   19.2148 C   0  0  2  0  0  0  0  0  0  0  0  0
  -13.7777   11.3077   18.6711 N   0  3  0  0  0  0  0  0  0  0  0  0
  -12.2257   10.1792   20.1994 C   0  0  0  0  0  0  0  0  0  0  0  0
  -11.7931    8.8237   20.7692 C   0  0  2  0  0  0  0  0  0  0  0  0
  -10.7589    9.0600   21.8071 N   0  3  0  0  0  0  0  0  0  0  0  0
  -11.3501    7.8501   19.6365 C   0  0  2  0  0  0  0  0  0  0  0  0
  -12.4948    7.7088   18.6004 C   0  0  2  0  0  0  0  0  0  0  0  0
  -12.0377    6.9639   17.4975 O   0  0  0  0  0  0  0  0  0  0  0  0
  -12.9293    9.0860   18.0730 C   0  0  1  0  0  0  0  0  0  0  0  0
  -14.0032    8.9090   17.1499 O   0  0  0  0  0  0  0  0  0  0  0  0
  -13.6691    8.6453   15.8307 C   0  0  2  0  0  0  0  0  0  0  0  0
  -14.5691    9.4898   14.9126 C   0  0  2  0  0  0  0  0  0  0  0  0
  -14.3642   10.8641   15.2147 O   0  0  0  0  0  0  0  0  0  0  0  0
  -16.0416    9.1114   15.1500 C   0  0  1  0  0  0  0  0  0  0  0  0
  -16.9661    9.9156   14.2999 N   0  3  0  0  0  0  0  0  0  0  0  0
  -16.2297    7.5985   14.8802 C   0  0  2  0  0  0  0  0  0  0  0  0
  -17.5817    7.2128   15.1169 O   0  0  0  0  0  0  0  0  0  0  0  0
  -15.2698    6.7776   15.7612 C   0  0  2  0  0  0  0  0  0  0  0  0
  -13.8806    7.2328   15.5730 O   0  0  0  0  0  0  0  0  0  0  0  0
  -15.3040    5.3039   15.4225 C   0  0  0  0  0  0  0  0  0  0  0  0
  -16.6057    4.7519   15.6074 O   0  0  0  0  0  0  0  0  0  0  0  0
  1  2  1  1  0  0  0
  1  3  1  0  0  0  0
  1  9  1  0  0  0  0
  3  4  1  1  0  0  0
  3  5  1  0  0  0  0
  5  6  1  0  0  0  0
  6  7  1  1  0  0  0
  6  8  1  0  0  0  0
  8  9  1  0  0  0  0
  8 10  1  6  0  0  0
 10 11  1  0  0  0  0
 12 13  1  6  0  0  0
 12 14  1  0  0  0  0
 12 20  1  0  0  0  0
 14 15  1  0  0  0  0
 15 16  1  1  0  0  0
 15 17  1  0  0  0  0
 17  2  1  1  0  0  0
 17 18  1  0  0  0  0
 18 19  1  6  0  0  0
 18 20  1  0  0  0  0
 20 21  1  6  0  0  0
 22 21  1  1  0  0  0
 22 23  1  0  0  0  0
 22 30  1  0  0  0  0
 23 24  1  1  0  0  0
 23 25  1  0  0  0  0
 25 26  1  6  0  0  0
 25 27  1  0  0  0  0
 27 28  1  1  0  0  0
 27 29  1  0  0  0  0
 29 30  1  0  0  0  0
 29 31  1  6  0  0  0
 31 32  1  0  0  0  0
M  CHG  5   4   1  11   1  13   1  16   1  26   1
M  END
>  <CHROM.1>
-166.63614003,-143.91154303,62.95480122,-56.04581959,-163.88184823,172.02655701
81.96300831,-179.01524148,-57.61185600,152.20049296,-136.51608902,-60.14241420
-41.36227356,-172.51840004,-60.22148818,-177.99040994,-12.43452546,7.48248039
18.49038826,0.22076535,0.75180828,-3.13258562

>  <Name>
1lc4

>  <RI>
0

>  <Rbt.Current_Directory>
/home/afrankz/demos/rdock_decoys_rna/rnas/1lc4

>  <Rbt.Executable>
rbdock ($Id: //depot/dev/client3/rdock/2013.1/src/exe/rbdock.cxx#4 $)

>  <Rbt.Library>
libRbt.so (2013.1, Build901 2013/11/27)

>  <Rbt.Parameter_File>
/export/apps/rDock/src/rDock_2013.1_src/data/scripts/dock_solv.prm

>  <Rbt.Receptor>
prm/pocket_docking_3.prm

>  <SCORE>
-73.5683

>  <SCORE.INTER>
-56.0458

>  <SCORE.INTER.CONST>
1

>  <SCORE.INTER.POLAR>
-8.28354

>  <SCORE.INTER.ROT>
6

>  <SCORE.INTER.SOLV>
31.7261

>  <SCORE.INTER.VDW>
-27.9274

>  <SCORE.INTER.norm>
-1.75143

>  <SCORE.INTRA>
-17.5225

>  <SCORE.INTRA.DIHEDRAL>
-26.1455

>  <SCORE.INTRA.DIHEDRAL.0>
44.2576

>  <SCORE.INTRA.POLAR>
-0.316107

>  <SCORE.INTRA.POLAR.0>
-0.381556

>  <SCORE.INTRA.REPUL>
0

>  <SCORE.INTRA.REPUL.0>
0

>  <SCORE.INTRA.SOLV>
0.567851

>  <SCORE.INTRA.SOLV.lig_0>
-134.592

>  <SCORE.INTRA.VDW>
-3.65892

>  <SCORE.INTRA.VDW.0>
-1.01417

>  <SCORE.INTRA.norm>
-0.547579

>  <SCORE.RESTR>
0

>  <SCORE.RESTR.CAVITY>
0

>  <SCORE.RESTR.norm>
0

>  <SCORE.SYSTEM>
0

>  <SCORE.SYSTEM.CONST>
0

>  <SCORE.SYSTEM.DIHEDRAL>
0

>  <SCORE.SYSTEM.SOLV>
0

>  <SCORE.SYSTEM.norm>
0

>  <SCORE.heavy>
32

>  <SCORE.norm>
-2.29901

>  <RMSD>
1.506

$$$$
1lc4
 OpenBabel02141814113D
libRbt.so/2013.1/901 2013/11/27
 32 34  0  0  0  0  0  0  0  0999 V2000
  -10.3506    5.3229   20.1065 C   0  0  2  0  0  0  0  0  0  0  0  0
  -11.2062    6.3587   20.5200 O   0  0  0  0  0  0  0  0  0  0  0  0
  -10.3553    4.2323   21.1972 C   0  0  2  0  0  0  0  0  0  0  0  0
  -11.7179    3.7384   21.4184 N   0  3  0  0  0  0  0  0  0  0  0  0
   -9.7360    4.7833   22.5031 C   0  0  0  0  0  0  0  0  0  0  0  0
   -8.3019    5.2376   22.1797 C   0  0  2  0  0  0  0  0  0  0  0  0
   -7.6514    5.7163   23.3616 O   0  0  0  0  0  0  0  0  0  0  0  0
   -8.3468    6.3290   21.0813 C   0  0  2  0  0  0  0  0  0  0  0  0
   -9.0123    5.8220   19.8896 O   0  0  0  0  0  0  0  0  0  0  0  0
   -6.9655    6.8126   20.6467 C   0  0  0  0  0  0  0  0  0  0  0  0
   -6.3620    7.7068   21.6693 N   0  3  0  0  0  0  0  0  0  0  0  0
  -13.5226    9.2987   18.5322 C   0  0  2  0  0  0  0  0  0  0  0  0
  -13.9368   10.4175   17.6659 N   0  3  0  0  0  0  0  0  0  0  0  0
  -12.5072    9.7862   19.5568 C   0  0  0  0  0  0  0  0  0  0  0  0
  -12.0656    8.6306   20.4618 C   0  0  2  0  0  0  0  0  0  0  0  0
  -11.1716    9.1746   21.5141 N   0  3  0  0  0  0  0  0  0  0  0  0
  -11.4415    7.4695   19.6314 C   0  0  2  0  0  0  0  0  0  0  0  0
  -12.4507    7.0093   18.5481 C   0  0  2  0  0  0  0  0  0  0  0  0
  -11.8291    6.0781   17.6957 O   0  0  0  0  0  0  0  0  0  0  0  0
  -12.9003    8.1951   17.6792 C   0  0  1  0  0  0  0  0  0  0  0  0
  -13.8501    7.7309   16.7204 O   0  0  0  0  0  0  0  0  0  0  0  0
  -13.6677    8.1254   15.4042 C   0  0  2  0  0  0  0  0  0  0  0  0
  -14.9042    7.7136   14.5870 C   0  0  2  0  0  0  0  0  0  0  0  0
  -16.0488    8.3470   15.1444 O   0  0  0  0  0  0  0  0  0  0  0  0
  -15.0683    6.1846   14.6419 C   0  0  1  0  0  0  0  0  0  0  0  0
  -16.2673    5.7267   13.8824 N   0  3  0  0  0  0  0  0  0  0  0  0
  -13.7858    5.5135   14.0927 C   0  0  2  0  0  0  0  0  0  0  0  0
  -13.8986    4.0935   14.1547 O   0  0  0  0  0  0  0  0  0  0  0  0
  -12.5540    5.9941   14.8822 C   0  0  2  0  0  0  0  0  0  0  0  0
  -12.4844    7.4664   14.8831 O   0  0  0  0  0  0  0  0  0  0  0  0
  -11.2600    5.4886   14.2839 C   0  0  0  0  0  0  0  0  0  0  0  0
  -10.7125    6.4192   13.3524 O   0  0  0  0  0  0  0  0  0  0  0  0
  1  2  1  1  0  0  0
  1  3  1  0  0  0  0
  1  9  1  0  0  0  0
  3  4  1  1  0  0  0
  3  5  1  0  0  0  0
  5  6  1  0  0  0  0
  6  7  1  1  0  0  0
  6  8  1  0  0  0  0
  8  9  1  0  0  0  0
  8 10  1  6  0  0  0
 10 11  1  0  0  0  0
 12 13  1  6  0  0  0
 12 14  1  0  0  0  0
 12 20  1  0  0  0  0
 14 15  1  0  0  0  0
 15 16  1  1  0  0  0
 15 17  1  0  0  0  0
 17  2  1  1  0  0  0
 17 18  1  0  0  0  0
 18 19  1  6  0  0  0
 18 20  1  0  0  0  0
 20 21  1  6  0  0  0
 22 21  1  1  0  0  0
 22 23  1  0  0  0  0
 22 30  1  0  0  0  0
 23 24  1  1  0  0  0
 23 25  1  0  0  0  0
 25 26  1  6  0  0  0
 25 27  1  0  0  0  0
 27 28  1  1  0  0  0
 27 29  1  0  0  0  0
 29 30  1  0  0  0  0
 29 31  1  6  0  0  0
 31 32  1  0  0  0  0
M  CHG  5   4   1  11   1  13   1  16   1  26   1
M  END
>  <CHROM.1>
-176.22380580,-164.03388505,71.74928079,167.91584343,-75.07643911,18.23045400
-67.78920674,-59.57075386,-56.64863934,105.47191774,-171.03399941,178.21412975
-66.55079172,178.72255113,92.45019746,-64.73935014,-11.75972121,6.77927381
18.16803479,-0.55065911,0.77452790,-2.33365461

>  <Name>
1lc4

>  <RI>
0

>  <Rbt.Current_Directory>
/home/afrankz/demos/rdock_decoys_rna/rnas/1lc4

>  <Rbt.Executable>
rbdock ($Id: //depot/dev/client3/rdock/2013.1/src/exe/rbdock.cxx#4 $)

>  <Rbt.Library>
libRbt.so (2013.1, Build901 2013/11/27)

>  <Rbt.Parameter_File>
/export/apps/rDock/src/rDock_2013.1_src/data/scripts/dock_solv.prm

>  <Rbt.Receptor>
prm/pocket_docking_5.prm

>  <SCORE>
-60.6769

>  <SCORE.INTER>
-43.6749

>  <SCORE.INTER.CONST>
1

>  <SCORE.INTER.POLAR>
-6.16767

>  <SCORE.INTER.ROT>
6

>  <SCORE.INTER.SOLV>
24.8634

>  <SCORE.INTER.VDW>
-24.4455

>  <SCORE.INTER.norm>
-1.36484

>  <SCORE.INTRA>
-17.002

>  <SCORE.INTRA.DIHEDRAL>
-28.2498

>  <SCORE.INTRA.DIHEDRAL.0>
44.2576

>  <SCORE.INTRA.POLAR>
0.342587

>  <SCORE.INTRA.POLAR.0>
-0.381556

>  <SCORE.INTRA.REPUL>
0

>  <SCORE.INTRA.REPUL.0>
0

>  <SCORE.INTRA.SOLV>
-2.30765

>  <SCORE.INTRA.SOLV.lig_0>
-134.592

>  <SCORE.INTRA.VDW>
-2.88809

>  <SCORE.INTRA.VDW.0>
-1.01417

>  <SCORE.INTRA.norm>
-0.531312

>  <SCORE.RESTR>
0

>  <SCORE.RESTR.CAVITY>
0

>  <SCORE.RESTR.norm>
0

>  <SCORE.SYSTEM>
0

>  <SCORE.SYSTEM.CONST>
0

>  <SCORE.SYSTEM.DIHEDRAL>
0

>  <SCORE.SYSTEM.SOLV>
0

>  <SCORE.SYSTEM.norm>
0

>  <SCORE.heavy>
32

>  <SCORE.norm>
-1.89615

>  <RMSD>
1.509

$$$$
1lc4
 OpenBabel02141814113D
libRbt.so/2013.1/901 2013/11/27
 32 34  0  0  0  0  0  0  0  0999 V2000
  -10.5773    5.4013   19.9387 C   0  0  2  0  0  0  0  0  0  0  0  0
  -11.3621    6.4379   20.4732 O   0  0  0  0  0  0  0  0  0  0  0  0
  -10.6049    4.2190   20.9287 C   0  0  2  0  0  0  0  0  0  0  0  0
  -11.9841    3.7768   21.1564 N   0  3  0  0  0  0  0  0  0  0  0  0
   -9.9146    4.6185   22.2540 C   0  0  0  0  0  0  0  0  0  0  0  0
   -8.4695    5.0269   21.9184 C   0  0  2  0  0  0  0  0  0  0  0  0
   -7.7558    5.3641   23.1127 O   0  0  0  0  0  0  0  0  0  0  0  0
   -8.4915    6.2132   20.9226 C   0  0  2  0  0  0  0  0  0  0  0  0
   -9.2219    5.8495   19.7167 O   0  0  0  0  0  0  0  0  0  0  0  0
   -7.1012    6.6633   20.4809 C   0  0  0  0  0  0  0  0  0  0  0  0
   -6.6023    7.7787   21.3275 N   0  3  0  0  0  0  0  0  0  0  0  0
  -13.5185    9.7402   18.9227 C   0  0  2  0  0  0  0  0  0  0  0  0
  -13.8822   10.9662   18.1888 N   0  3  0  0  0  0  0  0  0  0  0  0
  -12.3963   10.0403   19.9072 C   0  0  0  0  0  0  0  0  0  0  0  0
  -12.0064    8.7719   20.6743 C   0  0  2  0  0  0  0  0  0  0  0  0
  -10.9977    9.1361   21.7002 N   0  3  0  0  0  0  0  0  0  0  0  0
  -11.5502    7.6422   19.7032 C   0  0  2  0  0  0  0  0  0  0  0  0
  -12.6676    7.3740   18.6624 C   0  0  2  0  0  0  0  0  0  0  0  0
  -12.1939    6.4747   17.6893 O   0  0  0  0  0  0  0  0  0  0  0  0
  -13.0603    8.6698   17.9342 C   0  0  1  0  0  0  0  0  0  0  0  0
  -14.1108    8.3811   17.0123 O   0  0  0  0  0  0  0  0  0  0  0  0
  -13.7747    8.3093   15.6695 C   0  0  2  0  0  0  0  0  0  0  0  0
  -14.6696    9.2811   14.8814 C   0  0  2  0  0  0  0  0  0  0  0  0
  -14.4604   10.5966   15.3792 O   0  0  0  0  0  0  0  0  0  0  0  0
  -16.1440    8.8783   15.0593 C   0  0  1  0  0  0  0  0  0  0  0  0
  -17.0637    9.8004   14.3327 N   0  3  0  0  0  0  0  0  0  0  0  0
  -16.3371    7.4210   14.5734 C   0  0  2  0  0  0  0  0  0  0  0  0
  -17.6910    7.0104   14.7498 O   0  0  0  0  0  0  0  0  0  0  0  0
  -15.3821    6.4777   15.3283 C   0  0  2  0  0  0  0  0  0  0  0  0
  -13.9908    6.9498   15.2101 O   0  0  0  0  0  0  0  0  0  0  0  0
  -15.4210    5.0684   14.7802 C   0  0  0  0  0  0  0  0  0  0  0  0
  -16.6779    4.4422   15.0281 O   0  0  0  0  0  0  0  0  0  0  0  0
  1  2  1  1  0  0  0
  1  3  1  0  0  0  0
  1  9  1  0  0  0  0
  3  4  1  1  0  0  0
  3  5  1  0  0  0  0
  5  6  1  0  0  0  0
  6  7  1  1  0  0  0
  6  8  1  0  0  0  0
  8  9  1  0  0  0  0
  8 10  1  6  0  0  0
 10 11  1  0  0  0  0
 12 13  1  6  0  0  0
 12 14  1  0  0  0  0
 12 20  1  0  0  0  0
 14 15  1  0  0  0  0
 15 16  1  1  0  0  0
 15 17  1  0  0  0  0
 17  2  1  1  0  0  0
 17 18  1  0  0  0  0
 18 19  1  6  0  0  0
 18 20  1  0  0  0  0
 20 21  1  6  0  0  0
 22 21  1  1  0  0  0
 22 23  1  0  0  0  0
 22 30  1  0  0  0  0
 23 24  1  1  0  0  0
 23 25  1  0  0  0  0
 25 26  1  6  0  0  0
 25 27  1  0  0  0  0
 27 28  1  1  0  0  0
 27 29  1  0  0  0  0
 29 30  1  0  0  0  0
 29 31  1  6  0  0  0
 31 32  1  0  0  0  0
M  CHG  5   4   1  11   1  13   1  16   1  26   1
M  END
>  <CHROM.1>
-177.11513548,-160.69843538,68.40253350,175.04403834,-93.98205727,148.20876842
-66.03421023,63.83317527,-177.81752936,133.97911526,-125.08140371,60.50545326
85.01763507,-58.61817571,-67.35789371,-178.51646541,-12.51878841,7.28497084
18.35702393,0.20500276,0.74264346,3.13333474

>  <Name>
1lc4

>  <RI>
0

>  <Rbt.Current_Directory>
/home/afrankz/demos/rdock_decoys_rna/rnas/1lc4

>  <Rbt.Executable>
rbdock ($Id: //depot/dev/client3/rdock/2013.1/src/exe/rbdock.cxx#4 $)

>  <Rbt.Library>
libRbt.so (2013.1, Build901 2013/11/27)

>  <Rbt.Parameter_File>
/export/apps/rDock/src/rDock_2013.1_src/data/scripts/dock_solv.prm

>  <Rbt.Receptor>
prm/pocket_docking_8.prm

>  <SCORE>
-71.9172

>  <SCORE.INTER>
-52.5545

>  <SCORE.INTER.CONST>
1

>  <SCORE.INTER.POLAR>
-8.27186

>  <SCORE.INTER.ROT>
6

>  <SCORE.INTER.SOLV>
33.4684

>  <SCORE.INTER.VDW>
-26.2196

>  <SCORE.INTER.norm>
-1.64233

>  <SCORE.INTRA>
-19.3627

>  <SCORE.INTRA.DIHEDRAL>
-21.9692

>  <SCORE.INTRA.DIHEDRAL.0>
44.2576

>  <SCORE.INTRA.POLAR>
-1.01485

>  <SCORE.INTRA.POLAR.0>
-0.381556

>  <SCORE.INTRA.REPUL>
0

>  <SCORE.INTRA.REPUL.0>
0

>  <SCORE.INTRA.SOLV>
-1.7297

>  <SCORE.INTRA.SOLV.lig_0>
-134.592

>  <SCORE.INTRA.VDW>
-4.0627

>  <SCORE.INTRA.VDW.0>
-1.01417

>  <SCORE.INTRA.norm>
-0.605083

>  <SCORE.RESTR>
0

>  <SCORE.RESTR.CAVITY>
0

>  <SCORE.RESTR.norm>
0

>  <SCORE.SYSTEM>
0

>  <SCORE.SYSTEM.CONST>
0

>  <SCORE.SYSTEM.DIHEDRAL>
0

>  <SCORE.SYSTEM.SOLV>
0

>  <SCORE.SYSTEM.norm>
0

>  <SCORE.heavy>
32

>  <SCORE.norm>
-2.24741

>  <RMSD>
1.522

$$$$
1lc4
 OpenBabel02141814113D
libRbt.so/2013.1/901 2013/11/27
 32 34  0  0  0  0  0  0  0  0999 V2000
  -10.2740    5.6938   19.3612 C   0  0  2  0  0  0  0  0  0  0  0  0
  -11.3629    6.5288   19.6664 O   0  0  0  0  0  0  0  0  0  0  0  0
  -10.5646    4.2947   19.9418 C   0  0  2  0  0  0  0  0  0  0  0  0
  -11.8132    3.7621   19.3878 N   0  3  0  0  0  0  0  0  0  0  0  0
  -10.6152    4.3597   21.4864 C   0  0  0  0  0  0  0  0  0  0  0  0
   -9.2548    4.8899   21.9722 C   0  0  2  0  0  0  0  0  0  0  0  0
   -9.2165    4.9295   23.4027 O   0  0  0  0  0  0  0  0  0  0  0  0
   -9.0060    6.2926   21.3640 C   0  0  2  0  0  0  0  0  0  0  0  0
   -9.0498    6.2299   19.9100 O   0  0  0  0  0  0  0  0  0  0  0  0
   -7.6524    6.8888   21.7421 C   0  0  0  0  0  0  0  0  0  0  0  0
   -6.7602    6.9926   20.5577 N   0  3  0  0  0  0  0  0  0  0  0  0
  -13.8054    9.1894   17.4494 C   0  0  2  0  0  0  0  0  0  0  0  0
  -14.2638   10.2913   16.5837 N   0  3  0  0  0  0  0  0  0  0  0  0
  -13.0871    9.7533   18.6678 C   0  0  0  0  0  0  0  0  0  0  0  0
  -12.6021    8.6167   19.5745 C   0  0  2  0  0  0  0  0  0  0  0  0
  -12.0165    9.2128   20.8010 N   0  3  0  0  0  0  0  0  0  0  0  0
  -11.6428    7.6553   18.8112 C   0  0  2  0  0  0  0  0  0  0  0  0
  -12.3501    7.1243   17.5378 C   0  0  2  0  0  0  0  0  0  0  0  0
  -11.4317    6.3901   16.7648 O   0  0  0  0  0  0  0  0  0  0  0  0
  -12.8545    8.2861   16.6666 C   0  0  1  0  0  0  0  0  0  0  0  0
  -13.5249    7.7507   15.5261 O   0  0  0  0  0  0  0  0  0  0  0  0
  -13.2340    8.3174   14.2950 C   0  0  2  0  0  0  0  0  0  0  0  0
  -14.4807    8.2238   13.3987 C   0  0  2  0  0  0  0  0  0  0  0  0
  -15.5475    8.9206   14.0300 O   0  0  0  0  0  0  0  0  0  0  0  0
  -14.8599    6.7456   13.2017 C   0  0  1  0  0  0  0  0  0  0  0  0
  -16.0783    6.5924   12.3555 N   0  3  0  0  0  0  0  0  0  0  0  0
  -13.6623    5.9906   12.5749 C   0  0  2  0  0  0  0  0  0  0  0  0
  -13.9757    4.6103   12.4035 O   0  0  0  0  0  0  0  0  0  0  0  0
  -12.4095    6.1565   13.4550 C   0  0  2  0  0  0  0  0  0  0  0  0
  -12.1340    7.5843   13.6961 O   0  0  0  0  0  0  0  0  0  0  0  0
  -11.1753    5.5694   12.8069 C   0  0  0  0  0  0  0  0  0  0  0  0
  -11.2978    4.1607   12.6224 O   0  0  0  0  0  0  0  0  0  0  0  0
  1  2  1  1  0  0  0
  1  3  1  0  0  0  0
  1  9  1  0  0  0  0
  3  4  1  6  0  0  0
  3  5  1  0  0  0  0
  5  6  1  0  0  0  0
  6  7  1  1  0  0  0
  6  8  1  0  0  0  0
  8  9  1  0  0  0  0
  8 10  1  6  0  0  0
 10 11  1  0  0  0  0
 12 13  1  6  0  0  0
 12 14  1  0  0  0  0
 12 20  1  0  0  0  0
 14 15  1  0  0  0  0
 15 16  1  1  0  0  0
 15 17  1  0  0  0  0
 17  2  1  1  0  0  0
 17 18  1  0  0  0  0
 18 19  1  6  0  0  0
 18 20  1  0  0  0  0
 20 21  1  6  0  0  0
 22 21  1  1  0  0  0
 22 23  1  0  0  0  0
 22 30  1  0  0  0  0
 23 24  1  1  0  0  0
 23 25  1  0  0  0  0
 25 26  1  6  0  0  0
 25 27  1  0  0  0  0
 27 28  1  1  0  0  0
 27 29  1  0  0  0  0
 29 30  1  0  0  0  0
 29 31  1  6  0  0  0
 31 32  1  0  0  0  0
M  CHG  5   4   1  11   1  13   1  16   1  26   1
M  END
>  <CHROM.1>
-153.63238493,-164.05947689,-160.12845028,-66.80069300,112.57024894,92.42822768
-61.35514321,48.49473374,-57.79705317,103.04989144,-149.01757067,163.20561755
62.50243922,72.73090763,-63.11265619,178.54891440,-11.94454537,6.80137710
17.22394997,-0.71483778,0.85863649,-2.17159742

>  <Name>
1lc4

>  <RI>
0

>  <Rbt.Current_Directory>
/home/afrankz/demos/rdock_decoys_rna/rnas/1lc4

>  <Rbt.Executable>
rbdock ($Id: //depot/dev/client3/rdock/2013.1/src/exe/rbdock.cxx#4 $)

>  <Rbt.Library>
libRbt.so (2013.1, Build901 2013/11/27)

>  <Rbt.Parameter_File>
/export/apps/rDock/src/rDock_2013.1_src/data/scripts/dock_solv.prm

>  <Rbt.Receptor>
prm/pocket_docking_5.prm

>  <SCORE>
-68.2917

>  <SCORE.INTER>
-51.37

>  <SCORE.INTER.CONST>
1

>  <SCORE.INTER.POLAR>
-7.46539

>  <SCORE.INTER.ROT>
6

>  <SCORE.INTER.SOLV>
28.9358

>  <SCORE.INTER.VDW>
-26.6073

>  <SCORE.INTER.norm>
-1.60531

>  <SCORE.INTRA>
-16.9217

>  <SCORE.INTRA.DIHEDRAL>
-19.7271

>  <SCORE.INTRA.DIHEDRAL.0>
44.2576

>  <SCORE.INTRA.POLAR>
-0.936745

>  <SCORE.INTRA.POLAR.0>
-0.381556

>  <SCORE.INTRA.REPUL>
0

>  <SCORE.INTRA.REPUL.0>
0

>  <SCORE.INTRA.SOLV>
-1.02352

>  <SCORE.INTRA.SOLV.lig_0>
-134.592

>  <SCORE.INTRA.VDW>
-3.36141

>  <SCORE.INTRA.VDW.0>
-1.01417

>  <SCORE.INTRA.norm>
-0.528802

>  <SCORE.RESTR>
0

>  <SCORE.RESTR.CAVITY>
0

>  <SCORE.RESTR.norm>
0

>  <SCORE.SYSTEM>
0

>  <SCORE.SYSTEM.CONST>
0

>  <SCORE.SYSTEM.DIHEDRAL>
0

>  <SCORE.SYSTEM.SOLV>
0

>  <SCORE.SYSTEM.norm>
0

>  <SCORE.heavy>
32

>  <SCORE.norm>
-2.13411

>  <RMSD>
1.533

$$$$
1lc4
 OpenBabel02141814113D
libRbt.so/2013.1/901 2013/11/27
 32 34  0  0  0  0  0  0  0  0999 V2000
  -10.5371    5.3357   20.0266 C   0  0  2  0  0  0  0  0  0  0  0  0
  -11.3707    6.3994   20.4135 O   0  0  0  0  0  0  0  0  0  0  0  0
  -10.6017    4.2523   21.1225 C   0  0  2  0  0  0  0  0  0  0  0  0
  -11.9837    3.8012   21.3127 N   0  3  0  0  0  0  0  0  0  0  0  0
   -9.9980    4.7920   22.4404 C   0  0  0  0  0  0  0  0  0  0  0  0
   -8.5432    5.2007   22.1499 C   0  0  2  0  0  0  0  0  0  0  0  0
   -7.9075    5.6665   23.3449 O   0  0  0  0  0  0  0  0  0  0  0  0
   -8.5280    6.2863   21.0450 C   0  0  2  0  0  0  0  0  0  0  0  0
   -9.1794    5.7927   19.8400 O   0  0  0  0  0  0  0  0  0  0  0  0
   -7.1225    6.7253   20.6420 C   0  0  0  0  0  0  0  0  0  0  0  0
   -6.3424    7.1827   21.8218 N   0  3  0  0  0  0  0  0  0  0  0  0
  -13.5947    9.3278   18.3067 C   0  0  2  0  0  0  0  0  0  0  0  0
  -13.9698   10.4393   17.4137 N   0  3  0  0  0  0  0  0  0  0  0  0
  -12.6185    9.8218   19.3657 C   0  0  0  0  0  0  0  0  0  0  0  0
  -12.2178    8.6738   20.2988 C   0  0  2  0  0  0  0  0  0  0  0  0
  -11.3637    9.2250   21.3802 N   0  3  0  0  0  0  0  0  0  0  0  0
  -11.5661    7.5020   19.5053 C   0  0  2  0  0  0  0  0  0  0  0  0
  -12.5337    7.0346   18.3877 C   0  0  2  0  0  0  0  0  0  0  0  0
  -11.8829    6.0926   17.5697 O   0  0  0  0  0  0  0  0  0  0  0  0
  -12.9438    8.2133   17.4899 C   0  0  1  0  0  0  0  0  0  0  0  0
  -13.8569    7.7431   16.4990 O   0  0  0  0  0  0  0  0  0  0  0  0
  -13.5455    8.0045   15.1739 C   0  0  2  0  0  0  0  0  0  0  0  0
  -14.8092    7.8081   14.3191 C   0  0  2  0  0  0  0  0  0  0  0  0
  -15.8141    8.7014   14.7819 O   0  0  0  0  0  0  0  0  0  0  0  0
  -15.2952    6.3540   14.4503 C   0  0  1  0  0  0  0  0  0  0  0  0
  -16.5343    6.1084   13.6575 N   0  3  0  0  0  0  0  0  0  0  0  0
  -14.1639    5.3955   14.0048 C   0  0  2  0  0  0  0  0  0  0  0  0
  -14.5770    4.0376   14.1396 O   0  0  0  0  0  0  0  0  0  0  0  0
  -12.8892    5.6583   14.8280 C   0  0  2  0  0  0  0  0  0  0  0  0
  -12.5096    7.0805   14.7508 O   0  0  0  0  0  0  0  0  0  0  0  0
  -11.7098    4.8559   14.3249 C   0  0  0  0  0  0  0  0  0  0  0  0
  -10.5678    5.0174   15.1634 O   0  0  0  0  0  0  0  0  0  0  0  0
  1  2  1  1  0  0  0
  1  3  1  0  0  0  0
  1  9  1  0  0  0  0
  3  4  1  1  0  0  0
  3  5  1  0  0  0  0
  5  6  1  0  0  0  0
  6  7  1  1  0  0  0
  6  8  1  0  0  0  0
  8  9  1  0  0  0  0
  8 10  1  6  0  0  0
 10 11  1  0  0  0  0
 12 13  1  6  0  0  0
 12 14  1  0  0  0  0
 12 20  1  0  0  0  0
 14 15  1  0  0  0  0
 15 16  1  1  0  0  0
 15 17  1  0  0  0  0
 17  2  1  1  0  0  0
 17 18  1  0  0  0  0
 18 19  1  6  0  0  0
 18 20  1  0  0  0  0
 20 21  1  6  0  0  0
 22 21  1  1  0  0  0
 22 23  1  0  0  0  0
 22 30  1  0  0  0  0
 23 24  1  1  0  0  0
 23 25  1  0  0  0  0
 25 26  1  6  0  0  0
 25 27  1  0  0  0  0
 27 28  1  1  0  0  0
 27 29  1  0  0  0  0
 29 30  1  0  0  0  0
 29 31  1  6  0  0  0
 31 32  1  0  0  0  0
M  CHG  5   4   1  11   1  13   1  16   1  26   1
M  END
>  <CHROM.1>
-175.30419746,-166.04526534,-58.04419504,-50.66172485,-55.05206545,-77.98160156
42.34856950,-62.89213789,-63.10345168,112.06260865,-163.26017923,179.79375726
177.39713330,67.61389142,-174.90221703,-64.73822680,-11.91097988,6.70363949
18.11999926,-0.43301046,0.81915538,-2.47963156

>  <Name>
1lc4

>  <RI>
0

>  <Rbt.Current_Directory>
/home/afrankz/demos/rdock_decoys_rna/rnas/1lc4

>  <Rbt.Executable>
rbdock ($Id: //depot/dev/client3/rdock/2013.1/src/exe/rbdock.cxx#4 $)

>  <Rbt.Library>
libRbt.so (2013.1, Build901 2013/11/27)

>  <Rbt.Parameter_File>
/export/apps/rDock/src/rDock_2013.1_src/data/scripts/dock_solv.prm

>  <Rbt.Receptor>
prm/pocket_docking_5.prm

>  <SCORE>
-70.2707

>  <SCORE.INTER>
-49.2362

>  <SCORE.INTER.CONST>
1

>  <SCORE.INTER.POLAR>
-7.35572

>  <SCORE.INTER.ROT>
6

>  <SCORE.INTER.SOLV>
23.8738

>  <SCORE.INTER.VDW>
-23.863

>  <SCORE.INTER.norm>
-1.53863

>  <SCORE.INTRA>
-21.0345

>  <SCORE.INTRA.DIHEDRAL>
-32.3952

>  <SCORE.INTRA.DIHEDRAL.0>
44.2576

>  <SCORE.INTRA.POLAR>
-0.306896

>  <SCORE.INTRA.POLAR.0>
-0.381556

>  <SCORE.INTRA.REPUL>
0

>  <SCORE.INTRA.REPUL.0>
0

>  <SCORE.INTRA.SOLV>
-0.875855

>  <SCORE.INTRA.SOLV.lig_0>
-134.592

>  <SCORE.INTRA.VDW>
-3.35556

>  <SCORE.INTRA.VDW.0>
-1.01417

>  <SCORE.INTRA.norm>
-0.657329

>  <SCORE.RESTR>
0

>  <SCORE.RESTR.CAVITY>
0

>  <SCORE.RESTR.norm>
0

>  <SCORE.SYSTEM>
0

>  <SCORE.SYSTEM.CONST>
0

>  <SCORE.SYSTEM.DIHEDRAL>
0

>  <SCORE.SYSTEM.SOLV>
0

>  <SCORE.SYSTEM.norm>
0

>  <SCORE.heavy>
32

>  <SCORE.norm>
-2.19596

>  <RMSD>
1.534

$$$$
1lc4
 OpenBabel02141814113D
libRbt.so/2013.1/901 2013/11/27
 32 34  0  0  0  0  0  0  0  0999 V2000
   -9.9767    5.6868   19.7722 C   0  0  2  0  0  0  0  0  0  0  0  0
  -11.0007    6.5523   20.1947 O   0  0  0  0  0  0  0  0  0  0  0  0
  -10.2048    4.3134   20.4359 C   0  0  2  0  0  0  0  0  0  0  0  0
  -11.5256    3.7871   20.0778 N   0  3  0  0  0  0  0  0  0  0  0  0
  -10.0407    4.4298   21.9695 C   0  0  0  0  0  0  0  0  0  0  0  0
   -8.6187    4.9492   22.2449 C   0  0  2  0  0  0  0  0  0  0  0  0
   -8.3827    5.0348   23.6542 O   0  0  0  0  0  0  0  0  0  0  0  0
   -8.4357    6.3262   21.5594 C   0  0  2  0  0  0  0  0  0  0  0  0
   -8.6808    6.2169   20.1283 O   0  0  0  0  0  0  0  0  0  0  0  0
   -7.0343    6.9082   21.7267 C   0  0  0  0  0  0  0  0  0  0  0  0
   -7.0195    8.3668   21.4405 N   0  3  0  0  0  0  0  0  0  0  0  0
  -13.6038    9.3413   18.3494 C   0  0  2  0  0  0  0  0  0  0  0  0
  -14.1290   10.4594   17.5445 N   0  3  0  0  0  0  0  0  0  0  0  0
  -12.6557    9.8722   19.4160 C   0  0  0  0  0  0  0  0  0  0  0  0
  -12.0998    8.7183   20.2578 C   0  0  2  0  0  0  0  0  0  0  0  0
  -11.2787    9.2905   21.3536 N   0  3  0  0  0  0  0  0  0  0  0  0
  -11.3469    7.6829   19.3698 C   0  0  2  0  0  0  0  0  0  0  0  0
  -12.2913    7.1832   18.2463 C   0  0  2  0  0  0  0  0  0  0  0  0
  -11.5656    6.3771   17.3498 O   0  0  0  0  0  0  0  0  0  0  0  0
  -12.8588    8.3642   17.4421 C   0  0  1  0  0  0  0  0  0  0  0  0
  -13.7447    7.8595   16.4436 O   0  0  0  0  0  0  0  0  0  0  0  0
  -13.1726    7.2976   15.3130 C   0  0  2  0  0  0  0  0  0  0  0  0
  -14.0115    7.6906   14.0849 C   0  0  2  0  0  0  0  0  0  0  0  0
  -14.0310    9.1088   13.9829 O   0  0  0  0  0  0  0  0  0  0  0  0
  -15.4441    7.1540   14.2504 C   0  0  1  0  0  0  0  0  0  0  0  0
  -16.3130    7.5237   13.0960 N   0  3  0  0  0  0  0  0  0  0  0  0
  -15.3963    5.6166   14.4266 C   0  0  2  0  0  0  0  0  0  0  0  0
  -16.7099    5.0929   14.6078 O   0  0  0  0  0  0  0  0  0  0  0  0
  -14.4957    5.2456   15.6194 C   0  0  2  0  0  0  0  0  0  0  0  0
  -13.1620    5.8547   15.4677 O   0  0  0  0  0  0  0  0  0  0  0  0
  -14.2909    3.7516   15.7366 C   0  0  0  0  0  0  0  0  0  0  0  0
  -13.4983    3.2438   14.6654 O   0  0  0  0  0  0  0  0  0  0  0  0
  1  2  1  1  0  0  0
  1  3  1  0  0  0  0
  1  9  1  0  0  0  0
  3  4  1  1  0  0  0
  3  5  1  0  0  0  0
  5  6  1  0  0  0  0
  6  7  1  1  0  0  0
  6  8  1  0  0  0  0
  8  9  1  0  0  0  0
  8 10  1  6  0  0  0
 10 11  1  0  0  0  0
 12 13  1  6  0  0  0
 12 14  1  0  0  0  0
 12 20  1  0  0  0  0
 14 15  1  0  0  0  0
 15 16  1  1  0  0  0
 15 17  1  0  0  0  0
 17  2  1  1  0  0  0
 17 18  1  0  0  0  0
 18 19  1  6  0  0  0
 18 20  1  0  0  0  0
 20 21  1  6  0  0  0
 22 21  1  1  0  0  0
 22 23  1  0  0  0  0
 22 30  1  0  0  0  0
 23 24  1  1  0  0  0
 23 25  1  0  0  0  0
 25 26  1  6  0  0  0
 25 27  1  0  0  0  0
 27 28  1  1  0  0  0
 27 29  1  0  0  0  0
 29 30  1  0  0  0  0
 29 31  1  6  0  0  0
 31 32  1  0  0  0  0
M  CHG  5   4   1  11   1  13   1  16   1  26   1
M  END
>  <CHROM.1>
-155.82603136,-160.14567886,-54.61978888,-54.99702778,-162.27768877,176.79291976
170.62243035,169.67686035,160.80814902,160.81289496,-141.55903468,56.34989430
-172.07414217,174.01207205,68.88233677,63.73953240,-12.10500698,6.73386659
18.11149604,-0.06820992,0.86364018,-2.99609707

>  <Name>
1lc4

>  <RI>
0

>  <Rbt.Current_Directory>
/home/afrankz/demos/rdock_decoys_rna/rnas/1lc4

>  <Rbt.Executable>
rbdock ($Id: //depot/dev/client3/rdock/2013.1/src/exe/rbdock.cxx#4 $)

>  <Rbt.Library>
libRbt.so (2013.1, Build901 2013/11/27)

>  <Rbt.Parameter_File>
/export/apps/rDock/src/rDock_2013.1_src/data/scripts/dock_solv.prm

>  <Rbt.Receptor>
prm/pocket_docking_7.prm

>  <SCORE>
-67.6027

>  <SCORE.INTER>
-47.435

>  <SCORE.INTER.CONST>
1

>  <SCORE.INTER.POLAR>
-7.01345

>  <SCORE.INTER.ROT>
6

>  <SCORE.INTER.SOLV>
25.9534

>  <SCORE.INTER.VDW>
-24.4963

>  <SCORE.INTER.norm>
-1.48234

>  <SCORE.INTRA>
-20.1677

>  <SCORE.INTRA.DIHEDRAL>
-28.8864

>  <SCORE.INTRA.DIHEDRAL.0>
44.2576

>  <SCORE.INTRA.POLAR>
-0.435775

>  <SCORE.INTRA.POLAR.0>
-0.381556

>  <SCORE.INTRA.REPUL>
0

>  <SCORE.INTRA.REPUL.0>
0

>  <SCORE.INTRA.SOLV>
-4.12544

>  <SCORE.INTRA.SOLV.lig_0>
-134.592

>  <SCORE.INTRA.VDW>
-2.18017

>  <SCORE.INTRA.VDW.0>
-1.01417

>  <SCORE.INTRA.norm>
-0.630241

>  <SCORE.RESTR>
0

>  <SCORE.RESTR.CAVITY>
0

>  <SCORE.RESTR.norm>
0

>  <SCORE.SYSTEM>
0

>  <SCORE.SYSTEM.CONST>
0

>  <SCORE.SYSTEM.DIHEDRAL>
0

>  <SCORE.SYSTEM.SOLV>
0

>  <SCORE.SYSTEM.norm>
0

>  <SCORE.heavy>
32

>  <SCORE.norm>
-2.11258

>  <RMSD>
1.550

$$$$
1lc4
 OpenBabel02141814113D
libRbt.so/2013.1/901 2013/11/27
 32 34  0  0  0  0  0  0  0  0999 V2000
  -10.3992    5.9558   19.1151 C   0  0  2  0  0  0  0  0  0  0  0  0
  -11.6558    6.5268   19.3814 O   0  0  0  0  0  0  0  0  0  0  0  0
  -10.4476    4.4722   19.5342 C   0  0  2  0  0  0  0  0  0  0  0  0
  -11.5127    3.7722   18.8095 N   0  3  0  0  0  0  0  0  0  0  0  0
  -10.6373    4.3577   21.0650 C   0  0  0  0  0  0  0  0  0  0  0  0
   -9.4571    5.0844   21.7334 C   0  0  2  0  0  0  0  0  0  0  0  0
   -9.5456    4.9747   23.1580 O   0  0  0  0  0  0  0  0  0  0  0  0
   -9.4479    6.5664   21.2830 C   0  0  2  0  0  0  0  0  0  0  0  0
   -9.3582    6.6551   19.8325 O   0  0  0  0  0  0  0  0  0  0  0  0
   -8.2787    7.3678   21.8500 C   0  0  0  0  0  0  0  0  0  0  0  0
   -8.1326    8.6728   21.1533 N   0  3  0  0  0  0  0  0  0  0  0  0
  -14.5045    9.1586   17.6731 C   0  0  2  0  0  0  0  0  0  0  0  0
  -15.1331   10.2421   16.8955 N   0  3  0  0  0  0  0  0  0  0  0  0
  -13.5321    9.7462   18.6868 C   0  0  0  0  0  0  0  0  0  0  0  0
  -12.8688    8.6287   19.4995 C   0  0  2  0  0  0  0  0  0  0  0  0
  -12.0238    9.2507   20.5491 N   0  3  0  0  0  0  0  0  0  0  0  0
  -12.1077    7.6326   18.5743 C   0  0  2  0  0  0  0  0  0  0  0  0
  -13.0812    7.0762   17.5036 C   0  0  2  0  0  0  0  0  0  0  0  0
  -12.3605    6.3076   16.5709 O   0  0  0  0  0  0  0  0  0  0  0  0
  -13.7555    8.2202   16.7289 C   0  0  1  0  0  0  0  0  0  0  0  0
  -14.6638    7.6626   15.7798 O   0  0  0  0  0  0  0  0  0  0  0  0
  -14.3106    7.7406   14.4418 C   0  0  2  0  0  0  0  0  0  0  0  0
  -15.5627    8.0860   13.6175 C   0  0  2  0  0  0  0  0  0  0  0  0
  -16.0765    9.3315   14.0720 O   0  0  0  0  0  0  0  0  0  0  0  0
  -16.6178    6.9813   13.8017 C   0  0  1  0  0  0  0  0  0  0  0  0
  -17.8666    7.2729   13.0404 N   0  3  0  0  0  0  0  0  0  0  0  0
  -16.0169    5.6232   13.3639 C   0  0  2  0  0  0  0  0  0  0  0  0
  -16.9651    4.5744   13.5475 O   0  0  0  0  0  0  0  0  0  0  0  0
  -14.7276    5.3325   14.1544 C   0  0  2  0  0  0  0  0  0  0  0  0
  -13.7806    6.4548   14.0271 O   0  0  0  0  0  0  0  0  0  0  0  0
  -14.0184    4.0940   13.6534 C   0  0  0  0  0  0  0  0  0  0  0  0
  -14.7585    2.9104   13.9442 O   0  0  0  0  0  0  0  0  0  0  0  0
  1  2  1  1  0  0  0
  1  3  1  0  0  0  0
  1  9  1  0  0  0  0
  3  4  1  6  0  0  0
  3  5  1  0  0  0  0
  5  6  1  0  0  0  0
  6  7  1  1  0  0  0
  6  8  1  0  0  0  0
  8  9  1  0  0  0  0
  8 10  1  1  0  0  0
 10 11  1  0  0  0  0
 12 13  1  6  0  0  0
 12 14  1  0  0  0  0
 12 20  1  0  0  0  0
 14 15  1  0  0  0  0
 15 16  1  1  0  0  0
 15 17  1  0  0  0  0
 17  2  1  1  0  0  0
 17 18  1  0  0  0  0
 18 19  1  6  0  0  0
 18 20  1  0  0  0  0
 20 21  1  6  0  0  0
 22 21  1  1  0  0  0
 22 23  1  0  0  0  0
 22 30  1  0  0  0  0
 23 24  1  1  0  0  0
 23 25  1  0  0  0  0
 25 26  1  6  0  0  0
 25 27  1  0  0  0  0
 27 28  1  1  0  0  0
 27 29  1  0  0  0  0
 29 30  1  0  0  0  0
 29 31  1  6  0  0  0
 31 32  1  0  0  0  0
M  CHG  5   4   1  11   1  13   1  16   1  26   1
M  END
>  <CHROM.1>
-151.33538262,-142.35162225,-58.70056130,-177.96983528,166.85129201,51.10163278
50.86136599,-57.76223001,-53.25552453,129.48654249,-139.40237407,161.24502649
5.30532047,72.41794854,-68.72953605,53.00495912,-12.94763605,6.77505275,17.38961799
-0.24724813,0.84073613,-2.79519176

>  <Name>
1lc4

>  <RI>
0

>  <Rbt.Current_Directory>
/home/afrankz/demos/rdock_decoys_rna/rnas/1lc4

>  <Rbt.Executable>
rbdock ($Id: //depot/dev/client3/rdock/2013.1/src/exe/rbdock.cxx#4 $)

>  <Rbt.Library>
libRbt.so (2013.1, Build901 2013/11/27)

>  <Rbt.Parameter_File>
/export/apps/rDock/src/rDock_2013.1_src/data/scripts/dock_solv.prm

>  <Rbt.Receptor>
prm/pocket_docking_4.prm

>  <SCORE>
-66.0546

>  <SCORE.INTER>
-50.1304

>  <SCORE.INTER.CONST>
1

>  <SCORE.INTER.POLAR>
-8.10499

>  <SCORE.INTER.ROT>
6

>  <SCORE.INTER.SOLV>
22.0117

>  <SCORE.INTER.VDW>
-21.3408

>  <SCORE.INTER.norm>
-1.56657

>  <SCORE.INTRA>
-15.9243

>  <SCORE.INTRA.DIHEDRAL>
-15.9652

>  <SCORE.INTRA.DIHEDRAL.0>
44.2576

>  <SCORE.INTRA.POLAR>
-1.42462

>  <SCORE.INTRA.POLAR.0>
-0.381556

>  <SCORE.INTRA.REPUL>
0

>  <SCORE.INTRA.REPUL.0>
0

>  <SCORE.INTRA.SOLV>
1.55467

>  <SCORE.INTRA.SOLV.lig_0>
-134.592

>  <SCORE.INTRA.VDW>
-3.87531

>  <SCORE.INTRA.VDW.0>
-1.01417

>  <SCORE.INTRA.norm>
-0.497634

>  <SCORE.RESTR>
0

>  <SCORE.RESTR.CAVITY>
0

>  <SCORE.RESTR.norm>
0

>  <SCORE.SYSTEM>
0

>  <SCORE.SYSTEM.CONST>
0

>  <SCORE.SYSTEM.DIHEDRAL>
0

>  <SCORE.SYSTEM.SOLV>
0

>  <SCORE.SYSTEM.norm>
0

>  <SCORE.heavy>
32

>  <SCORE.norm>
-2.06421

>  <RMSD>
1.555

$$$$
1lc4
 OpenBabel02141814113D
libRbt.so/2013.1/901 2013/11/27
 32 34  0  0  0  0  0  0  0  0999 V2000
  -10.3850    5.4264   19.3289 C   0  0  2  0  0  0  0  0  0  0  0  0
  -11.3934    6.3463   19.6653 O   0  0  0  0  0  0  0  0  0  0  0  0
  -10.7406    4.0690   19.9690 C   0  0  2  0  0  0  0  0  0  0  0  0
  -12.0528    3.6126   19.5006 N   0  3  0  0  0  0  0  0  0  0  0  0
  -10.6998    4.1811   21.5112 C   0  0  0  0  0  0  0  0  0  0  0  0
   -9.2803    4.6251   21.9057 C   0  0  2  0  0  0  0  0  0  0  0  0
   -9.1591    4.7023   23.3300 O   0  0  0  0  0  0  0  0  0  0  0  0
   -8.9676    5.9885   21.2401 C   0  0  2  0  0  0  0  0  0  0  0  0
   -9.0972    5.8880   19.7933 O   0  0  0  0  0  0  0  0  0  0  0  0
   -7.5562    6.4957   21.5253 C   0  0  0  0  0  0  0  0  0  0  0  0
   -7.4906    7.9786   21.4445 N   0  3  0  0  0  0  0  0  0  0  0  0
  -13.7459    9.1059   17.4722 C   0  0  2  0  0  0  0  0  0  0  0  0
  -14.1666   10.2164   16.5982 N   0  3  0  0  0  0  0  0  0  0  0  0
  -12.9543    9.6490   18.6540 C   0  0  0  0  0  0  0  0  0  0  0  0
  -12.5078    8.5032   19.5688 C   0  0  2  0  0  0  0  0  0  0  0  0
  -11.8464    9.0867   20.7624 N   0  3  0  0  0  0  0  0  0  0  0  0
  -11.6341    7.4706   18.7955 C   0  0  2  0  0  0  0  0  0  0  0  0
  -12.4146    6.9586   17.5576 C   0  0  2  0  0  0  0  0  0  0  0  0
  -11.5685    6.1551   16.7711 O   0  0  0  0  0  0  0  0  0  0  0  0
  -12.8778    8.1316   16.6784 C   0  0  1  0  0  0  0  0  0  0  0  0
  -13.6172    7.6155   15.5722 O   0  0  0  0  0  0  0  0  0  0  0  0
  -13.4774    8.2663   14.3564 C   0  0  2  0  0  0  0  0  0  0  0  0
  -14.7226    7.9864   13.4977 C   0  0  2  0  0  0  0  0  0  0  0  0
  -15.8690    8.4632   14.1908 O   0  0  0  0  0  0  0  0  0  0  0  0
  -14.8461    6.4722   13.2531 C   0  0  1  0  0  0  0  0  0  0  0  0
  -16.0513    6.1369   12.4411 N   0  3  0  0  0  0  0  0  0  0  0  0
  -13.5607    5.9609   12.5580 C   0  0  2  0  0  0  0  0  0  0  0  0
  -13.6356    4.5538   12.3409 O   0  0  0  0  0  0  0  0  0  0  0  0
  -12.3226    6.3136   13.4033 C   0  0  2  0  0  0  0  0  0  0  0  0
  -12.2907    7.7584   13.6932 O   0  0  0  0  0  0  0  0  0  0  0  0
  -11.0312    5.9746   12.6925 C   0  0  0  0  0  0  0  0  0  0  0  0
  -10.9232    4.5760   12.4367 O   0  0  0  0  0  0  0  0  0  0  0  0
  1  2  1  1  0  0  0
  1  3  1  0  0  0  0
  1  9  1  0  0  0  0
  3  4  1  1  0  0  0
  3  5  1  0  0  0  0
  5  6  1  0  0  0  0
  6  7  1  1  0  0  0
  6  8  1  0  0  0  0
  8  9  1  0  0  0  0
  8 10  1  6  0  0  0
 10 11  1  0  0  0  0
 12 13  1  6  0  0  0
 12 14  1  0  0  0  0
 12 20  1  0  0  0  0
 14 15  1  0  0  0  0
 15 16  1  1  0  0  0
 15 17  1  0  0  0  0
 17  2  1  1  0  0  0
 17 18  1  0  0  0  0
 18 19  1  6  0  0  0
 18 20  1  0  0  0  0
 20 21  1  6  0  0  0
 22 21  1  1  0  0  0
 22 23  1  0  0  0  0
 22 30  1  0  0  0  0
 23 24  1  1  0  0  0
 23 25  1  0  0  0  0
 25 26  1  6  0  0  0
 25 27  1  0  0  0  0
 27 28  1  1  0  0  0
 27 29  1  0  0  0  0
 29 30  1  0  0  0  0
 29 31  1  6  0  0  0
 31 32  1  0  0  0  0
M  CHG  5   4   1  11   1  13   1  16   1  26   1
M  END
>  <CHROM.1>
-154.07132982,-165.30994044,53.05682005,175.66276961,-153.62080210,168.51172689
69.98476951,47.55908492,177.48188488,94.00301194,-156.24472248,72.42306871
-55.65011388,-171.74127183,-62.21813969,-179.09810186,-11.96884991,6.70304616
17.24681747,-0.70442820,0.89031396,-2.19936103

>  <Name>
1lc4

>  <RI>
0

>  <Rbt.Current_Directory>
/home/afrankz/demos/rdock_decoys_rna/rnas/1lc4

>  <Rbt.Executable>
rbdock ($Id: //depot/dev/client3/rdock/2013.1/src/exe/rbdock.cxx#4 $)

>  <Rbt.Library>
libRbt.so (2013.1, Build901 2013/11/27)

>  <Rbt.Parameter_File>
/export/apps/rDock/src/rDock_2013.1_src/data/scripts/dock_solv.prm

>  <Rbt.Receptor>
prm/pocket_docking_7.prm

>  <SCORE>
-59.5913

>  <SCORE.INTER>
-38.9364

>  <SCORE.INTER.CONST>
1

>  <SCORE.INTER.POLAR>
-4.77426

>  <SCORE.INTER.ROT>
6

>  <SCORE.INTER.SOLV>
19.6602

>  <SCORE.INTER.VDW>
-24.1968

>  <SCORE.INTER.norm>
-1.21676

>  <SCORE.INTRA>
-20.6603

>  <SCORE.INTRA.DIHEDRAL>
-29.0764

>  <SCORE.INTRA.DIHEDRAL.0>
44.2576

>  <SCORE.INTRA.POLAR>
-0.315237

>  <SCORE.INTRA.POLAR.0>
-0.381556

>  <SCORE.INTRA.REPUL>
0

>  <SCORE.INTRA.REPUL.0>
0

>  <SCORE.INTRA.SOLV>
-3.22057

>  <SCORE.INTRA.SOLV.lig_0>
-134.592

>  <SCORE.INTRA.VDW>
-3.44006

>  <SCORE.INTRA.VDW.0>
-1.01417

>  <SCORE.INTRA.norm>
-0.645635

>  <SCORE.RESTR>
0.00543897

>  <SCORE.RESTR.CAVITY>
0.00543897

>  <SCORE.RESTR.norm>
0.000169968

>  <SCORE.SYSTEM>
0

>  <SCORE.SYSTEM.CONST>
0

>  <SCORE.SYSTEM.DIHEDRAL>
0

>  <SCORE.SYSTEM.SOLV>
0

>  <SCORE.SYSTEM.norm>
0

>  <SCORE.heavy>
32

>  <SCORE.norm>
-1.86223

>  <RMSD>
1.592

$$$$
1lc4
 OpenBabel02141814113D
libRbt.so/2013.1/901 2013/11/27
 32 34  0  0  0  0  0  0  0  0999 V2000
   -9.9423    6.2403   19.4355 C   0  0  2  0  0  0  0  0  0  0  0  0
  -11.2511    6.6527   19.7408 O   0  0  0  0  0  0  0  0  0  0  0  0
   -9.8193    4.7414   19.7778 C   0  0  2  0  0  0  0  0  0  0  0  0
  -10.8095    3.9639   19.0263 N   0  3  0  0  0  0  0  0  0  0  0  0
   -9.9744    4.5293   21.3021 C   0  0  0  0  0  0  0  0  0  0  0  0
   -8.8736    5.3490   21.9978 C   0  0  2  0  0  0  0  0  0  0  0  0
   -8.9299    5.1583   23.4155 O   0  0  0  0  0  0  0  0  0  0  0  0
   -9.0358    6.8436   21.6245 C   0  0  2  0  0  0  0  0  0  0  0  0
   -8.9762    7.0147   20.1798 O   0  0  0  0  0  0  0  0  0  0  0  0
   -7.9556    7.7413   22.2229 C   0  0  0  0  0  0  0  0  0  0  0  0
   -8.4384    9.1395   22.3698 N   0  3  0  0  0  0  0  0  0  0  0  0
  -14.5105    8.7018   17.9697 C   0  0  2  0  0  0  0  0  0  0  0  0
  -15.3164    9.6380   17.1647 N   0  3  0  0  0  0  0  0  0  0  0  0
  -13.6571    9.4768   18.9644 C   0  0  0  0  0  0  0  0  0  0  0  0
  -12.8113    8.5142   19.8053 C   0  0  2  0  0  0  0  0  0  0  0  0
  -12.0894    9.3018   20.8353 N   0  3  0  0  0  0  0  0  0  0  0  0
  -11.8868    7.6408   18.9053 C   0  0  2  0  0  0  0  0  0  0  0  0
  -12.7466    6.8948   17.8527 C   0  0  2  0  0  0  0  0  0  0  0  0
  -11.9013    6.2381   16.9392 O   0  0  0  0  0  0  0  0  0  0  0  0
  -13.6079    7.8826   17.0492 C   0  0  1  0  0  0  0  0  0  0  0  0
  -14.4036    7.1500   16.1181 O   0  0  0  0  0  0  0  0  0  0  0  0
  -13.9113    7.0174   14.8291 C   0  0  2  0  0  0  0  0  0  0  0  0
  -14.9304    7.6163   13.8448 C   0  0  2  0  0  0  0  0  0  0  0  0
  -15.1222    8.9878   14.1678 O   0  0  0  0  0  0  0  0  0  0  0  0
  -16.2630    6.8558   13.9614 C   0  0  1  0  0  0  0  0  0  0  0  0
  -17.3001    7.4076   13.0427 N   0  3  0  0  0  0  0  0  0  0  0  0
  -16.0208    5.3543   13.6714 C   0  0  2  0  0  0  0  0  0  0  0  0
  -17.2355    4.6185   13.7970 O   0  0  0  0  0  0  0  0  0  0  0  0
  -14.9475    4.7950   14.6237 C   0  0  2  0  0  0  0  0  0  0  0  0
  -13.7192    5.6064   14.5497 O   0  0  0  0  0  0  0  0  0  0  0  0
  -14.5626    3.3738   14.2775 C   0  0  0  0  0  0  0  0  0  0  0  0
  -13.9034    3.3001   13.0152 O   0  0  0  0  0  0  0  0  0  0  0  0
  1  2  1  1  0  0  0
  1  3  1  0  0  0  0
  1  9  1  0  0  0  0
  3  4  1  6  0  0  0
  3  5  1  0  0  0  0
  5  6  1  0  0  0  0
  6  7  1  1  0  0  0
  6  8  1  0  0  0  0
  8  9  1  0  0  0  0
  8 10  1  1  0  0  0
 10 11  1  0  0  0  0
 12 13  1  6  0  0  0
 12 14  1  0  0  0  0
 12 20  1  0  0  0  0
 14 15  1  0  0  0  0
 15 16  1  1  0  0  0
 15 17  1  0  0  0  0
 17  2  1  1  0  0  0
 17 18  1  0  0  0  0
 18 19  1  6  0  0  0
 18 20  1  0  0  0  0
 20 21  1  6  0  0  0
 22 21  1  1  0  0  0
 22 23  1  0  0  0  0
 22 30  1  0  0  0  0
 23 24  1  1  0  0  0
 23 25  1  0  0  0  0
 25 26  1  6  0  0  0
 25 27  1  0  0  0  0
 27 28  1  1  0  0  0
 27 29  1  0  0  0  0
 29 30  1  0  0  0  0
 29 31  1  6  0  0  0
 31 32  1  0  0  0  0
M  CHG  5   4   1  11   1  13   1  16   1  26   1
M  END
>  <CHROM.1>
-144.78143002,-146.31373043,23.40991142,-76.92728575,-154.78406334,-51.56880650
35.04312814,158.90030762,-56.96944120,142.81258873,-121.46922705,64.56397871
94.53825577,70.30899334,66.33231482,177.44998480,-12.66921556,6.68913442
17.68205755,-0.42217188,0.80003475,-2.65680443

>  <Name>
1lc4

>  <RI>
0

>  <Rbt.Current_Directory>
/home/afrankz/demos/rdock_decoys_rna/rnas/1lc4

>  <Rbt.Executable>
rbdock ($Id: //depot/dev/client3/rdock/2013.1/src/exe/rbdock.cxx#4 $)

>  <Rbt.Library>
libRbt.so (2013.1, Build901 2013/11/27)

>  <Rbt.Parameter_File>
/export/apps/rDock/src/rDock_2013.1_src/data/scripts/dock_solv.prm

>  <Rbt.Receptor>
prm/pocket_docking_6.prm

>  <SCORE>
-58.6564

>  <SCORE.INTER>
-44.5141

>  <SCORE.INTER.CONST>
1

>  <SCORE.INTER.POLAR>
-7.60813

>  <SCORE.INTER.ROT>
6

>  <SCORE.INTER.SOLV>
21.0587

>  <SCORE.INTER.VDW>
-18.9352

>  <SCORE.INTER.norm>
-1.39106

>  <SCORE.INTRA>
-14.1423

>  <SCORE.INTRA.DIHEDRAL>
-11.9677

>  <SCORE.INTRA.DIHEDRAL.0>
44.2576

>  <SCORE.INTRA.POLAR>
-1.45985

>  <SCORE.INTRA.POLAR.0>
-0.381556

>  <SCORE.INTRA.REPUL>
0.00365791

>  <SCORE.INTRA.REPUL.0>
0

>  <SCORE.INTRA.SOLV>
0.574588

>  <SCORE.INTRA.SOLV.lig_0>
-134.592

>  <SCORE.INTRA.VDW>
-3.50054

>  <SCORE.INTRA.VDW.0>
-1.01417

>  <SCORE.INTRA.norm>
-0.441948

>  <SCORE.RESTR>
0

>  <SCORE.RESTR.CAVITY>
0

>  <SCORE.RESTR.norm>
0

>  <SCORE.SYSTEM>
0

>  <SCORE.SYSTEM.CONST>
0

>  <SCORE.SYSTEM.DIHEDRAL>
0

>  <SCORE.SYSTEM.SOLV>
0

>  <SCORE.SYSTEM.norm>
0

>  <SCORE.heavy>
32

>  <SCORE.norm>
-1.83301

>  <RMSD>
1.623

$$$$
1lc4
 OpenBabel02141814113D
libRbt.so/2013.1/901 2013/11/27
 32 34  0  0  0  0  0  0  0  0999 V2000
  -10.5147    5.3070   19.9928 C   0  0  2  0  0  0  0  0  0  0  0  0
  -11.3522    6.3687   20.3770 O   0  0  0  0  0  0  0  0  0  0  0  0
  -10.5740    4.2269   21.0922 C   0  0  2  0  0  0  0  0  0  0  0  0
  -11.9541    3.7709   21.2850 N   0  3  0  0  0  0  0  0  0  0  0  0
   -9.9714    4.7732   22.4078 C   0  0  0  0  0  0  0  0  0  0  0  0
   -8.5185    5.1869   22.1148 C   0  0  2  0  0  0  0  0  0  0  0  0
   -7.8836    5.6590   23.3078 O   0  0  0  0  0  0  0  0  0  0  0  0
   -8.5086    6.2690   21.0065 C   0  0  2  0  0  0  0  0  0  0  0  0
   -9.1590    5.7689   19.8036 O   0  0  0  0  0  0  0  0  0  0  0  0
   -7.1051    6.7122   20.6009 C   0  0  0  0  0  0  0  0  0  0  0  0
   -6.3354    7.2026   21.7742 N   0  3  0  0  0  0  0  0  0  0  0  0
  -13.6166    9.2166   18.2041 C   0  0  2  0  0  0  0  0  0  0  0  0
  -14.0049   10.3138   17.2989 N   0  3  0  0  0  0  0  0  0  0  0  0
  -12.6877    9.7450   19.2887 C   0  0  0  0  0  0  0  0  0  0  0  0
  -12.2736    8.6124   20.2347 C   0  0  2  0  0  0  0  0  0  0  0  0
  -11.4694    9.1937   21.3382 N   0  3  0  0  0  0  0  0  0  0  0  0
  -11.5603    7.4630   19.4617 C   0  0  2  0  0  0  0  0  0  0  0  0
  -12.4799    6.9615   18.3186 C   0  0  2  0  0  0  0  0  0  0  0  0
  -11.7746    6.0418   17.5207 O   0  0  0  0  0  0  0  0  0  0  0  0
  -12.9053    8.1245   17.4076 C   0  0  1  0  0  0  0  0  0  0  0  0
  -13.7739    7.6222   16.3928 O   0  0  0  0  0  0  0  0  0  0  0  0
  -13.5458    8.0488   15.0939 C   0  0  2  0  0  0  0  0  0  0  0  0
  -14.7642    7.6815   14.2297 C   0  0  2  0  0  0  0  0  0  0  0  0
  -15.9139    8.3200   14.7706 O   0  0  0  0  0  0  0  0  0  0  0  0
  -14.9561    6.1548   14.2377 C   0  0  1  0  0  0  0  0  0  0  0  0
  -16.1396    5.7391   13.4310 N   0  3  0  0  0  0  0  0  0  0  0  0
  -13.6695    5.4758   13.7079 C   0  0  2  0  0  0  0  0  0  0  0  0
  -13.8084    4.0570   13.7274 O   0  0  0  0  0  0  0  0  0  0  0  0
  -12.4537    5.9128   14.5462 C   0  0  2  0  0  0  0  0  0  0  0  0
  -12.3589    7.3830   14.5897 O   0  0  0  0  0  0  0  0  0  0  0  0
  -11.1513    5.4005   13.9723 C   0  0  0  0  0  0  0  0  0  0  0  0
  -10.1479    5.2729   14.9773 O   0  0  0  0  0  0  0  0  0  0  0  0
  1  2  1  1  0  0  0
  1  3  1  0  0  0  0
  1  9  1  0  0  0  0
  3  4  1  1  0  0  0
  3  5  1  0  0  0  0
  5  6  1  0  0  0  0
  6  7  1  1  0  0  0
  6  8  1  0  0  0  0
  8  9  1  0  0  0  0
  8 10  1  6  0  0  0
 10 11  1  0  0  0  0
 12 13  1  6  0  0  0
 12 14  1  0  0  0  0
 12 20  1  0  0  0  0
 14 15  1  0  0  0  0
 15 16  1  1  0  0  0
 15 17  1  0  0  0  0
 17  2  1  1  0  0  0
 17 18  1  0  0  0  0
 18 19  1  6  0  0  0
 18 20  1  0  0  0  0
 20 21  1  6  0  0  0
 22 21  1  1  0  0  0
 22 23  1  0  0  0  0
 22 30  1  0  0  0  0
 23 24  1  1  0  0  0
 23 25  1  0  0  0  0
 25 26  1  6  0  0  0
 25 27  1  0  0  0  0
 27 28  1  1  0  0  0
 27 29  1  0  0  0  0
 29 30  1  0  0  0  0
 29 31  1  6  0  0  0
 31 32  1  0  0  0  0
M  CHG  5   4   1  11   1  13   1  16   1  26   1
M  END
>  <CHROM.1>
-174.87004801,-168.62033339,-175.10931523,-47.58201661,-56.21135677,-79.36690526
152.09426423,57.22349836,168.41279486,103.13206166,-166.40457230,174.09840502
58.97263617,176.91986394,-154.14784334,-56.17778456,-11.79226433,6.68147923
18.01298954,-0.58602547,0.78414687,-2.29405329

>  <Name>
1lc4

>  <RI>
0

>  <Rbt.Current_Directory>
/home/afrankz/demos/rdock_decoys_rna/rnas/1lc4

>  <Rbt.Executable>
rbdock ($Id: //depot/dev/client3/rdock/2013.1/src/exe/rbdock.cxx#4 $)

>  <Rbt.Library>
libRbt.so (2013.1, Build901 2013/11/27)

>  <Rbt.Parameter_File>
/export/apps/rDock/src/rDock_2013.1_src/data/scripts/dock_solv.prm

>  <Rbt.Receptor>
prm/pocket_docking_4.prm

>  <SCORE>
-66.758

>  <SCORE.INTER>
-47.6501

>  <SCORE.INTER.CONST>
1

>  <SCORE.INTER.POLAR>
-7.12485

>  <SCORE.INTER.ROT>
6

>  <SCORE.INTER.SOLV>
23.8894

>  <SCORE.INTER.VDW>
-23.5804

>  <SCORE.INTER.norm>
-1.48906

>  <SCORE.INTRA>
-19.116

>  <SCORE.INTRA.DIHEDRAL>
-30.3231

>  <SCORE.INTRA.DIHEDRAL.0>
44.2576

>  <SCORE.INTRA.POLAR>
-0.367073

>  <SCORE.INTRA.POLAR.0>
-0.381556

>  <SCORE.INTRA.REPUL>
0

>  <SCORE.INTRA.REPUL.0>
0

>  <SCORE.INTRA.SOLV>
-1.65328

>  <SCORE.INTRA.SOLV.lig_0>
-134.592

>  <SCORE.INTRA.VDW>
-1.87981

>  <SCORE.INTRA.VDW.0>
-1.01417

>  <SCORE.INTRA.norm>
-0.597376

>  <SCORE.RESTR>
0.00809249

>  <SCORE.RESTR.CAVITY>
0.00809249

>  <SCORE.RESTR.norm>
0.00025289

>  <SCORE.SYSTEM>
0

>  <SCORE.SYSTEM.CONST>
0

>  <SCORE.SYSTEM.DIHEDRAL>
0

>  <SCORE.SYSTEM.SOLV>
0

>  <SCORE.SYSTEM.norm>
0

>  <SCORE.heavy>
32

>  <SCORE.norm>
-2.08619

>  <RMSD>
1.645

$$$$
1lc4
 OpenBabel02141814113D
libRbt.so/2013.1/901 2013/11/27
 32 34  0  0  0  0  0  0  0  0999 V2000
  -10.5854    5.3834   20.0162 C   0  0  2  0  0  0  0  0  0  0  0  0
  -11.4132    6.4482   20.4122 O   0  0  0  0  0  0  0  0  0  0  0  0
  -10.6603    4.2885   21.1000 C   0  0  2  0  0  0  0  0  0  0  0  0
  -12.0458    3.8444   21.2812 N   0  3  0  0  0  0  0  0  0  0  0  0
  -10.0571    4.8099   22.4255 C   0  0  0  0  0  0  0  0  0  0  0  0
   -8.5988    5.2123   22.1438 C   0  0  2  0  0  0  0  0  0  0  0  0
   -7.9637    5.6608   23.3457 O   0  0  0  0  0  0  0  0  0  0  0  0
   -8.5732    6.3097   21.0509 C   0  0  2  0  0  0  0  0  0  0  0  0
   -9.2242    5.8335   19.8386 O   0  0  0  0  0  0  0  0  0  0  0  0
   -7.1636    6.7438   20.6568 C   0  0  0  0  0  0  0  0  0  0  0  0
   -6.3952    7.2145   21.8390 N   0  3  0  0  0  0  0  0  0  0  0  0
  -13.6641    9.3911   18.3549 C   0  0  2  0  0  0  0  0  0  0  0  0
  -14.0524   10.5020   17.4666 N   0  3  0  0  0  0  0  0  0  0  0  0
  -12.6509    9.8794   19.3813 C   0  0  0  0  0  0  0  0  0  0  0  0
  -12.2362    8.7320   20.3090 C   0  0  2  0  0  0  0  0  0  0  0  0
  -11.3438    9.2790   21.3612 N   0  3  0  0  0  0  0  0  0  0  0  0
  -11.6225    7.5479   19.5036 C   0  0  2  0  0  0  0  0  0  0  0  0
  -12.6285    7.0859   18.4181 C   0  0  2  0  0  0  0  0  0  0  0  0
  -12.0136    6.1314   17.5869 O   0  0  0  0  0  0  0  0  0  0  0  0
  -13.0511    8.2642   17.5258 C   0  0  1  0  0  0  0  0  0  0  0  0
  -13.9990    7.7994   16.5655 O   0  0  0  0  0  0  0  0  0  0  0  0
  -13.5001    7.1872   15.4263 C   0  0  2  0  0  0  0  0  0  0  0  0
  -14.3573    7.6087   14.2206 C   0  0  2  0  0  0  0  0  0  0  0  0
  -14.2985    9.0238   14.0938 O   0  0  0  0  0  0  0  0  0  0  0  0
  -15.8119    7.1593   14.4443 C   0  0  1  0  0  0  0  0  0  0  0  0
  -16.6977    7.5605   13.3137 N   0  3  0  0  0  0  0  0  0  0  0  0
  -15.8466    5.6247   14.6463 C   0  0  2  0  0  0  0  0  0  0  0  0
  -17.1812    5.1814   14.8815 O   0  0  0  0  0  0  0  0  0  0  0  0
  -14.9278    5.2210   15.8144 C   0  0  2  0  0  0  0  0  0  0  0  0
  -13.5674    5.7488   15.6065 O   0  0  0  0  0  0  0  0  0  0  0  0
  -14.8055    3.7196   15.9514 C   0  0  0  0  0  0  0  0  0  0  0  0
  -14.2177    3.1319   14.7927 O   0  0  0  0  0  0  0  0  0  0  0  0
  1  2  1  1  0  0  0
  1  3  1  0  0  0  0
  1  9  1  0  0  0  0
  3  4  1  1  0  0  0
  3  5  1  0  0  0  0
  5  6  1  0  0  0  0
  6  7  1  1  0  0  0
  6  8  1  0  0  0  0
  8  9  1  0  0  0  0
  8 10  1  6  0  0  0
 10 11  1  0  0  0  0
 12 13  1  6  0  0  0
 12 14  1  0  0  0  0
 12 20  1  0  0  0  0
 14 15  1  0  0  0  0
 15 16  1  1  0  0  0
 15 17  1  0  0  0  0
 17  2  1  1  0  0  0
 17 18  1  0  0  0  0
 18 19  1  6  0  0  0
 18 20  1  0  0  0  0
 20 21  1  6  0  0  0
 22 21  1  1  0  0  0
 22 23  1  0  0  0  0
 22 30  1  0  0  0  0
 23 24  1  1  0  0  0
 23 25  1  0  0  0  0
 25 26  1  6  0  0  0
 25 27  1  0  0  0  0
 27 28  1  1  0  0  0
 27 29  1  0  0  0  0
 29 30  1  0  0  0  0
 29 31  1  6  0  0  0
 31 32  1  0  0  0  0
M  CHG  5   4   1  11   1  13   1  16   1  26   1
M  END
>  <CHROM.1>
-173.93493351,-164.94342815,-62.79635310,-44.79250023,-56.43315257,161.07282802
162.45360973,-60.87556730,166.30722211,155.51171409,-141.72451242,-85.35624978
74.06343744,-57.89790919,62.21157582,49.36494202,-12.35880591,6.67753579
18.23345516,0.01387069,0.82409087,-3.09166445

>  <Name>
1lc4

>  <RI>
0

>  <Rbt.Current_Directory>
/home/afrankz/demos/rdock_decoys_rna/rnas/1lc4

>  <Rbt.Executable>
rbdock ($Id: //depot/dev/client3/rdock/2013.1/src/exe/rbdock.cxx#4 $)

>  <Rbt.Library>
libRbt.so (2013.1, Build901 2013/11/27)

>  <Rbt.Parameter_File>
/export/apps/rDock/src/rDock_2013.1_src/data/scripts/dock_solv.prm

>  <Rbt.Receptor>
prm/pocket_docking_7.prm

>  <SCORE>
-69.1944

>  <SCORE.INTER>
-48.5413

>  <SCORE.INTER.CONST>
1

>  <SCORE.INTER.POLAR>
-7.40355

>  <SCORE.INTER.ROT>
6

>  <SCORE.INTER.SOLV>
25.4797

>  <SCORE.INTER.VDW>
-23.7756

>  <SCORE.INTER.norm>
-1.51692

>  <SCORE.INTRA>
-20.6531

>  <SCORE.INTRA.DIHEDRAL>
-27.88

>  <SCORE.INTRA.DIHEDRAL.0>
44.2576

>  <SCORE.INTRA.POLAR>
-1.23405

>  <SCORE.INTRA.POLAR.0>
-0.381556

>  <SCORE.INTRA.REPUL>
0.00883887

>  <SCORE.INTRA.REPUL.0>
0

>  <SCORE.INTRA.SOLV>
-2.0533

>  <SCORE.INTRA.SOLV.lig_0>
-134.592

>  <SCORE.INTRA.VDW>
-1.53484

>  <SCORE.INTRA.VDW.0>
-1.01417

>  <SCORE.INTRA.norm>
-0.645408

>  <SCORE.RESTR>
0

>  <SCORE.RESTR.CAVITY>
0

>  <SCORE.RESTR.norm>
0

>  <SCORE.SYSTEM>
0

>  <SCORE.SYSTEM.CONST>
0

>  <SCORE.SYSTEM.DIHEDRAL>
0

>  <SCORE.SYSTEM.SOLV>
0

>  <SCORE.SYSTEM.norm>
0

>  <SCORE.heavy>
32

>  <SCORE.norm>
-2.16232

>  <RMSD>
1.721

$$$$
1lc4
 OpenBabel02141814113D
libRbt.so/2013.1/901 2013/11/27
 32 34  0  0  0  0  0  0  0  0999 V2000
  -10.5487    5.3808   20.0262 C   0  0  2  0  0  0  0  0  0  0  0  0
  -11.3741    6.4170   20.4965 O   0  0  0  0  0  0  0  0  0  0  0  0
  -10.5626    4.2450   21.0695 C   0  0  2  0  0  0  0  0  0  0  0  0
  -11.9329    3.7728   21.2908 N   0  3  0  0  0  0  0  0  0  0  0  0
   -9.9118    4.7256   22.3879 C   0  0  0  0  0  0  0  0  0  0  0  0
   -8.4725    5.1611   22.0617 C   0  0  2  0  0  0  0  0  0  0  0  0
   -7.7939    5.5740   23.2526 O   0  0  0  0  0  0  0  0  0  0  0  0
   -8.5082    6.2991   21.0114 C   0  0  2  0  0  0  0  0  0  0  0  0
   -9.2026    5.8586   19.8098 O   0  0  0  0  0  0  0  0  0  0  0  0
   -7.1226    6.7697   20.5763 C   0  0  0  0  0  0  0  0  0  0  0  0
   -6.3339    7.2649   21.7349 N   0  3  0  0  0  0  0  0  0  0  0  0
  -13.5497    9.6672   18.8646 C   0  0  2  0  0  0  0  0  0  0  0  0
  -13.9291   10.8561   18.0795 N   0  3  0  0  0  0  0  0  0  0  0  0
  -12.3747   10.0008   19.7738 C   0  0  0  0  0  0  0  0  0  0  0  0
  -11.9682    8.7710   20.5931 C   0  0  2  0  0  0  0  0  0  0  0  0
  -10.9033    9.1732   21.5455 N   0  3  0  0  0  0  0  0  0  0  0  0
  -11.5803    7.5788   19.6681 C   0  0  2  0  0  0  0  0  0  0  0  0
  -12.7528    7.2737   18.7006 C   0  0  2  0  0  0  0  0  0  0  0  0
  -12.3436    6.3111   17.7593 O   0  0  0  0  0  0  0  0  0  0  0  0
  -13.1596    8.5332   17.9186 C   0  0  1  0  0  0  0  0  0  0  0  0
  -14.2597    8.2130   17.0676 O   0  0  0  0  0  0  0  0  0  0  0  0
  -13.9778    7.9596   15.7344 C   0  0  2  0  0  0  0  0  0  0  0  0
  -14.7371    8.9762   14.8648 C   0  0  2  0  0  0  0  0  0  0  0  0
  -14.3158   10.2859   15.2243 O   0  0  0  0  0  0  0  0  0  0  0  0
  -16.2498    8.8249   15.1028 C   0  0  1  0  0  0  0  0  0  0  0  0
  -17.0393    9.8025   14.2997 N   0  3  0  0  0  0  0  0  0  0  0  0
  -16.6765    7.3745   14.7693 C   0  0  2  0  0  0  0  0  0  0  0  0
  -18.0713    7.1969   15.0049 O   0  0  0  0  0  0  0  0  0  0  0  0
  -15.8544    6.3734   15.6022 C   0  0  2  0  0  0  0  0  0  0  0  0
  -14.4116    6.6114   15.4176 O   0  0  0  0  0  0  0  0  0  0  0  0
  -16.1232    4.9403   15.1996 C   0  0  0  0  0  0  0  0  0  0  0  0
  -17.5056    4.6113   15.3181 O   0  0  0  0  0  0  0  0  0  0  0  0
  1  2  1  1  0  0  0
  1  3  1  0  0  0  0
  1  9  1  0  0  0  0
  3  4  1  1  0  0  0
  3  5  1  0  0  0  0
  5  6  1  0  0  0  0
  6  7  1  1  0  0  0
  6  8  1  0  0  0  0
  8  9  1  0  0  0  0
  8 10  1  6  0  0  0
 10 11  1  0  0  0  0
 12 13  1  6  0  0  0
 12 14  1  0  0  0  0
 12 20  1  0  0  0  0
 14 15  1  0  0  0  0
 15 16  1  6  0  0  0
 15 17  1  0  0  0  0
 17  2  1  1  0  0  0
 17 18  1  0  0  0  0
 18 19  1  6  0  0  0
 18 20  1  0  0  0  0
 20 21  1  6  0  0  0
 22 21  1  1  0  0  0
 22 23  1  0  0  0  0
 22 30  1  0  0  0  0
 23 24  1  1  0  0  0
 23 25  1  0  0  0  0
 25 26  1  6  0  0  0
 25 27  1  0  0  0  0
 27 28  1  1  0  0  0
 27 29  1  0  0  0  0
 29 30  1  0  0  0  0
 29 31  1  6  0  0  0
 31 32  1  0  0  0  0
M  CHG  5   4   1  11   1  13   1  16   1  26   1
M  END
>  <CHROM.1>
-177.15481424,-155.79719527,73.69729878,65.00487947,-58.99270929,38.61205710
-71.82989957,67.41475961,-56.32995132,138.68636165,-120.06526029,178.95170723
-164.92654087,-55.69168218,-57.57366517,-175.84473832,-12.62778945,7.22236500
18.44130235,0.26338909,0.69590329,3.01291439

>  <Name>
1lc4

>  <RI>
0

>  <Rbt.Current_Directory>
/home/afrankz/demos/rdock_decoys_rna/rnas/1lc4

>  <Rbt.Executable>
rbdock ($Id: //depot/dev/client3/rdock/2013.1/src/exe/rbdock.cxx#4 $)

>  <Rbt.Library>
libRbt.so (2013.1, Build901 2013/11/27)

>  <Rbt.Parameter_File>
/export/apps/rDock/src/rDock_2013.1_src/data/scripts/dock_solv.prm

>  <Rbt.Receptor>
prm/pocket_docking_6.prm

>  <SCORE>
-75.8183

>  <SCORE.INTER>
-55.6105

>  <SCORE.INTER.CONST>
1

>  <SCORE.INTER.POLAR>
-8.49168

>  <SCORE.INTER.ROT>
6

>  <SCORE.INTER.SOLV>
32.6184

>  <SCORE.INTER.VDW>
-27.2409

>  <SCORE.INTER.norm>
-1.73783

>  <SCORE.INTRA>
-20.5112

>  <SCORE.INTRA.DIHEDRAL>
-25.9388

>  <SCORE.INTRA.DIHEDRAL.0>
44.2576

>  <SCORE.INTRA.POLAR>
-1.38112

>  <SCORE.INTRA.POLAR.0>
-0.381556

>  <SCORE.INTRA.REPUL>
0

>  <SCORE.INTRA.REPUL.0>
0

>  <SCORE.INTRA.SOLV>
0.313441

>  <SCORE.INTRA.SOLV.lig_0>
-134.592

>  <SCORE.INTRA.VDW>
-3.00266

>  <SCORE.INTRA.VDW.0>
-1.01417

>  <SCORE.INTRA.norm>
-0.640974

>  <SCORE.RESTR>
0.303347

>  <SCORE.RESTR.CAVITY>
0.303347

>  <SCORE.RESTR.norm>
0.0094796

>  <SCORE.SYSTEM>
0

>  <SCORE.SYSTEM.CONST>
0

>  <SCORE.SYSTEM.DIHEDRAL>
0

>  <SCORE.SYSTEM.SOLV>
0

>  <SCORE.SYSTEM.norm>
0

>  <SCORE.heavy>
32

>  <SCORE.norm>
-2.36932

>  <RMSD>
1.772

$$$$
1lc4
 OpenBabel02141814113D
libRbt.so/2013.1/901 2013/11/27
 32 34  0  0  0  0  0  0  0  0999 V2000
  -10.2137    5.5847   19.0939 C   0  0  2  0  0  0  0  0  0  0  0  0
  -11.1734    6.5634   19.4054 O   0  0  0  0  0  0  0  0  0  0  0  0
  -10.7635    4.2144   19.5398 C   0  0  2  0  0  0  0  0  0  0  0  0
  -12.0402    3.9363   18.8747 N   0  3  0  0  0  0  0  0  0  0  0  0
  -10.9091    4.1749   21.0792 C   0  0  0  0  0  0  0  0  0  0  0  0
   -9.5181    4.4372   21.6826 C   0  0  2  0  0  0  0  0  0  0  0  0
   -9.5723    4.3664   23.1114 O   0  0  0  0  0  0  0  0  0  0  0  0
   -9.0069    5.8200   21.2071 C   0  0  2  0  0  0  0  0  0  0  0  0
   -8.9602    5.8706   19.7527 O   0  0  0  0  0  0  0  0  0  0  0  0
   -7.6046    6.1560   21.7084 C   0  0  0  0  0  0  0  0  0  0  0  0
   -7.0587    7.3537   21.0175 N   0  3  0  0  0  0  0  0  0  0  0  0
  -13.5301    9.1296   16.9927 C   0  0  2  0  0  0  0  0  0  0  0  0
  -13.9530   10.1766   16.0447 N   0  3  0  0  0  0  0  0  0  0  0  0
  -12.7867    9.7603   18.1623 C   0  0  0  0  0  0  0  0  0  0  0  0
  -12.3382    8.6808   19.1538 C   0  0  2  0  0  0  0  0  0  0  0  0
  -11.7263    9.3490   20.3292 N   0  3  0  0  0  0  0  0  0  0  0  0
  -11.4170    7.6294   18.4658 C   0  0  2  0  0  0  0  0  0  0  0  0
  -12.1485    7.0269   17.2387 C   0  0  2  0  0  0  0  0  0  0  0  0
  -11.2602    6.2026   16.5235 O   0  0  0  0  0  0  0  0  0  0  0  0
  -12.6154    8.1349   16.2807 C   0  0  1  0  0  0  0  0  0  0  0  0
  -13.3094    7.5369   15.1865 O   0  0  0  0  0  0  0  0  0  0  0  0
  -13.0991    8.0799   13.9287 C   0  0  2  0  0  0  0  0  0  0  0  0
  -14.3921    7.9434   13.1067 C   0  0  2  0  0  0  0  0  0  0  0  0
  -15.4349    8.6355   13.7817 O   0  0  0  0  0  0  0  0  0  0  0  0
  -14.7535    6.4544   12.9642 C   0  0  1  0  0  0  0  0  0  0  0  0
  -16.0144    6.2600   12.1920 N   0  3  0  0  0  0  0  0  0  0  0  0
  -13.5788    5.7066   12.2875 C   0  0  2  0  0  0  0  0  0  0  0  0
  -13.8750    4.3173   12.1648 O   0  0  0  0  0  0  0  0  0  0  0  0
  -12.2819    5.9151   13.0914 C   0  0  2  0  0  0  0  0  0  0  0  0
  -12.0207    7.3528   13.2848 O   0  0  0  0  0  0  0  0  0  0  0  0
  -11.0751    5.3352   12.3876 C   0  0  0  0  0  0  0  0  0  0  0  0
  -10.7862    6.0328   11.1780 O   0  0  0  0  0  0  0  0  0  0  0  0
  1  2  1  1  0  0  0
  1  3  1  0  0  0  0
  1  9  1  0  0  0  0
  3  4  1  6  0  0  0
  3  5  1  0  0  0  0
  5  6  1  0  0  0  0
  6  7  1  1  0  0  0
  6  8  1  0  0  0  0
  8  9  1  0  0  0  0
  8 10  1  1  0  0  0
 10 11  1  0  0  0  0
 12 13  1  6  0  0  0
 12 14  1  0  0  0  0
 12 20  1  0  0  0  0
 14 15  1  0  0  0  0
 15 16  1  1  0  0  0
 15 17  1  0  0  0  0
 17  2  1  1  0  0  0
 17 18  1  0  0  0  0
 18 19  1  6  0  0  0
 18 20  1  0  0  0  0
 20 21  1  6  0  0  0
 22 21  1  1  0  0  0
 22 23  1  0  0  0  0
 22 30  1  0  0  0  0
 23 24  1  1  0  0  0
 23 25  1  0  0  0  0
 25 26  1  6  0  0  0
 25 27  1  0  0  0  0
 27 28  1  1  0  0  0
 27 29  1  0  0  0  0
 29 30  1  0  0  0  0
 29 31  1  6  0  0  0
 31 32  1  0  0  0  0
M  CHG  5   4   1  11   1  13   1  16   1  26   1
M  END
>  <CHROM.1>
-139.74235519,-170.90725542,-54.88077151,-179.04057515,168.84994120,91.11226805
59.27917975,65.10591092,-54.27717041,97.10869172,-147.28745727,162.90536390
-60.55349381,-53.30601568,66.37419862,48.48031274,-11.85593442,6.69708372
16.89065506,-0.69830457,0.93085942,-2.21200005

>  <Name>
1lc4

>  <RI>
0

>  <Rbt.Current_Directory>
/home/afrankz/demos/rdock_decoys_rna/rnas/1lc4

>  <Rbt.Executable>
rbdock ($Id: //depot/dev/client3/rdock/2013.1/src/exe/rbdock.cxx#4 $)

>  <Rbt.Library>
libRbt.so (2013.1, Build901 2013/11/27)

>  <Rbt.Parameter_File>
/export/apps/rDock/src/rDock_2013.1_src/data/scripts/dock_solv.prm

>  <Rbt.Receptor>
prm/pocket_docking_8.prm

>  <SCORE>
-61.2777

>  <SCORE.INTER>
-41.3638

>  <SCORE.INTER.CONST>
1

>  <SCORE.INTER.POLAR>
-5.22158

>  <SCORE.INTER.ROT>
6

>  <SCORE.INTER.SOLV>
25.7104

>  <SCORE.INTER.VDW>
-26.3408

>  <SCORE.INTER.norm>
-1.29262

>  <SCORE.INTRA>
-19.9139

>  <SCORE.INTRA.DIHEDRAL>
-24.3253

>  <SCORE.INTRA.DIHEDRAL.0>
44.2576

>  <SCORE.INTRA.POLAR>
-1.09243

>  <SCORE.INTRA.POLAR.0>
-0.381556

>  <SCORE.INTRA.REPUL>
0

>  <SCORE.INTRA.REPUL.0>
0

>  <SCORE.INTRA.SOLV>
-1.06007

>  <SCORE.INTRA.SOLV.lig_0>
-134.592

>  <SCORE.INTRA.VDW>
-3.50694

>  <SCORE.INTRA.VDW.0>
-1.01417

>  <SCORE.INTRA.norm>
-0.622309

>  <SCORE.RESTR>
0

>  <SCORE.RESTR.CAVITY>
0

>  <SCORE.RESTR.norm>
0

>  <SCORE.SYSTEM>
0

>  <SCORE.SYSTEM.CONST>
0

>  <SCORE.SYSTEM.DIHEDRAL>
0

>  <SCORE.SYSTEM.SOLV>
0

>  <SCORE.SYSTEM.norm>
0

>  <SCORE.heavy>
32

>  <SCORE.norm>
-1.91493

>  <RMSD>
1.805

$$$$
1lc4
 OpenBabel02141814113D
libRbt.so/2013.1/901 2013/11/27
 32 34  0  0  0  0  0  0  0  0999 V2000
  -10.7686    6.4605   18.4543 C   0  0  2  0  0  0  0  0  0  0  0  0
  -12.0340    6.9310   18.8462 O   0  0  0  0  0  0  0  0  0  0  0  0
  -10.8055    4.9186   18.4648 C   0  0  2  0  0  0  0  0  0  0  0  0
  -11.8554    4.4277   17.5669 N   0  3  0  0  0  0  0  0  0  0  0  0
  -11.0098    4.4011   19.9080 C   0  0  0  0  0  0  0  0  0  0  0  0
   -9.8445    4.9336   20.7601 C   0  0  2  0  0  0  0  0  0  0  0  0
   -9.9465    4.4496   22.1035 O   0  0  0  0  0  0  0  0  0  0  0  0
   -9.8464    6.4820   20.7186 C   0  0  2  0  0  0  0  0  0  0  0  0
   -9.7427    6.9526   19.3446 O   0  0  0  0  0  0  0  0  0  0  0  0
   -8.6918    7.1134   21.4925 C   0  0  0  0  0  0  0  0  0  0  0  0
   -8.3533    8.4566   20.9533 N   0  3  0  0  0  0  0  0  0  0  0  0
  -15.0676    9.6962   17.7923 C   0  0  2  0  0  0  0  0  0  0  0  0
  -15.7967   10.8228   17.1815 N   0  3  0  0  0  0  0  0  0  0  0  0
  -13.9012   10.2217   18.6180 C   0  0  0  0  0  0  0  0  0  0  0  0
  -13.1325    9.0591   19.2558 C   0  0  2  0  0  0  0  0  0  0  0  0
  -12.0831    9.6211   20.1421 N   0  3  0  0  0  0  0  0  0  0  0  0
  -12.5946    8.0761   18.1733 C   0  0  2  0  0  0  0  0  0  0  0  0
  -13.7719    7.5838   17.2927 C   0  0  2  0  0  0  0  0  0  0  0  0
  -13.2676    6.8293   16.2173 O   0  0  0  0  0  0  0  0  0  0  0  0
  -14.5433    8.7718   16.6952 C   0  0  1  0  0  0  0  0  0  0  0  0
  -15.6335    8.2723   15.9216 O   0  0  0  0  0  0  0  0  0  0  0  0
  -16.1461    9.1027   14.9372 C   0  0  2  0  0  0  0  0  0  0  0  0
  -17.5763    8.6478   14.5995 C   0  0  2  0  0  0  0  0  0  0  0  0
  -18.3674    8.7232   15.7787 O   0  0  0  0  0  0  0  0  0  0  0  0
  -17.5435    7.2004   14.0781 C   0  0  1  0  0  0  0  0  0  0  0  0
  -18.9088    6.6957   13.7532 N   0  3  0  0  0  0  0  0  0  0  0  0
  -16.6246    7.1266   12.8342 C   0  0  2  0  0  0  0  0  0  0  0  0
  -16.5545    5.7900   12.3430 O   0  0  0  0  0  0  0  0  0  0  0  0
  -15.2186    7.6514   13.1797 C   0  0  2  0  0  0  0  0  0  0  0  0
  -15.3013    9.0032   13.7614 O   0  0  0  0  0  0  0  0  0  0  0  0
  -14.3295    7.7465   11.9597 C   0  0  0  0  0  0  0  0  0  0  0  0
  -12.9528    7.5962   12.2993 O   0  0  0  0  0  0  0  0  0  0  0  0
  1  2  1  1  0  0  0
  1  3  1  0  0  0  0
  1  9  1  0  0  0  0
  3  4  1  6  0  0  0
  3  5  1  0  0  0  0
  5  6  1  0  0  0  0
  6  7  1  1  0  0  0
  6  8  1  0  0  0  0
  8  9  1  0  0  0  0
  8 10  1  1  0  0  0
 10 11  1  0  0  0  0
 12 13  1  6  0  0  0
 12 14  1  0  0  0  0
 12 20  1  0  0  0  0
 14 15  1  0  0  0  0
 15 16  1  6  0  0  0
 15 17  1  0  0  0  0
 17  2  1  1  0  0  0
 17 18  1  0  0  0  0
 18 19  1  6  0  0  0
 18 20  1  0  0  0  0
 20 21  1  1  0  0  0
 22 21  1  1  0  0  0
 22 23  1  0  0  0  0
 22 30  1  0  0  0  0
 23 24  1  1  0  0  0
 23 25  1  0  0  0  0
 25 26  1  6  0  0  0
 25 27  1  0  0  0  0
 27 28  1  1  0  0  0
 27 29  1  0  0  0  0
 29 30  1  0  0  0  0
 29 31  1  6  0  0  0
 31 32  1  0  0  0  0
M  CHG  5   4   1  11   1  13   1  16   1  26   1
M  END
>  <CHROM.1>
-140.04347601,-132.80460985,20.43664098,177.87499360,154.00786458,50.52323159
75.38391209,171.81414006,-175.81748429,80.73794307,-158.89490799,70.50149676
160.35254254,74.54407466,-151.97330084,-179.35898112,-13.51439495,7.49138976
17.02848533,-0.39392031,0.71457191,-2.36433481

>  <Name>
1lc4

>  <RI>
0

>  <Rbt.Current_Directory>
/home/afrankz/demos/rdock_decoys_rna/rnas/1lc4

>  <Rbt.Executable>
rbdock ($Id: //depot/dev/client3/rdock/2013.1/src/exe/rbdock.cxx#4 $)

>  <Rbt.Library>
libRbt.so (2013.1, Build901 2013/11/27)

>  <Rbt.Parameter_File>
/export/apps/rDock/src/rDock_2013.1_src/data/scripts/dock_solv.prm

>  <Rbt.Receptor>
prm/pocket_docking_4.prm

>  <SCORE>
-57.3738

>  <SCORE.INTER>
-43.8166

>  <SCORE.INTER.CONST>
1

>  <SCORE.INTER.POLAR>
-5.88013

>  <SCORE.INTER.ROT>
6

>  <SCORE.INTER.SOLV>
23.9923

>  <SCORE.INTER.VDW>
-25.2081

>  <SCORE.INTER.norm>
-1.36927

>  <SCORE.INTRA>
-13.5572

>  <SCORE.INTRA.DIHEDRAL>
-17.9318

>  <SCORE.INTRA.DIHEDRAL.0>
44.2576

>  <SCORE.INTRA.POLAR>
-0.80725

>  <SCORE.INTRA.POLAR.0>
-0.381556

>  <SCORE.INTRA.REPUL>
0

>  <SCORE.INTRA.REPUL.0>
0

>  <SCORE.INTRA.SOLV>
1.97305

>  <SCORE.INTRA.SOLV.lig_0>
-134.592

>  <SCORE.INTRA.VDW>
-2.83314

>  <SCORE.INTRA.VDW.0>
-1.01417

>  <SCORE.INTRA.norm>
-0.423662

>  <SCORE.RESTR>
0

>  <SCORE.RESTR.CAVITY>
0

>  <SCORE.RESTR.norm>
0

>  <SCORE.SYSTEM>
0

>  <SCORE.SYSTEM.CONST>
0

>  <SCORE.SYSTEM.DIHEDRAL>
0

>  <SCORE.SYSTEM.SOLV>
0

>  <SCORE.SYSTEM.norm>
0

>  <SCORE.heavy>
32

>  <SCORE.norm>
-1.79293

>  <RMSD>
1.834

$$$$
1lc4
 OpenBabel02141814113D
libRbt.so/2013.1/901 2013/11/27
 32 34  0  0  0  0  0  0  0  0999 V2000
  -11.0199    5.7379   19.3911 C   0  0  2  0  0  0  0  0  0  0  0  0
  -11.8996    6.5657   20.1100 O   0  0  0  0  0  0  0  0  0  0  0  0
  -11.1776    4.2971   19.9185 C   0  0  2  0  0  0  0  0  0  0  0  0
  -12.5661    3.8497   19.7719 N   0  3  0  0  0  0  0  0  0  0  0  0
  -10.7112    4.2156   21.3911 C   0  0  0  0  0  0  0  0  0  0  0  0
   -9.2401    4.6645   21.4362 C   0  0  2  0  0  0  0  0  0  0  0  0
   -8.7289    4.5664   22.7697 O   0  0  0  0  0  0  0  0  0  0  0  0
   -9.1306    6.1125   20.8970 C   0  0  2  0  0  0  0  0  0  0  0  0
   -9.6560    6.1899   19.5413 O   0  0  0  0  0  0  0  0  0  0  0  0
   -7.6978    6.6375   20.8487 C   0  0  0  0  0  0  0  0  0  0  0  0
   -7.2104    6.9973   22.2061 N   0  3  0  0  0  0  0  0  0  0  0  0
  -14.5211    9.8303   19.4542 C   0  0  2  0  0  0  0  0  0  0  0  0
  -15.1147   11.0804   18.9456 N   0  3  0  0  0  0  0  0  0  0  0  0
  -13.1934   10.1284   20.1372 C   0  0  0  0  0  0  0  0  0  0  0  0
  -12.5640    8.8353   20.6674 C   0  0  2  0  0  0  0  0  0  0  0  0
  -11.3374    9.1873   21.4251 N   0  3  0  0  0  0  0  0  0  0  0  0
  -12.3326    7.8077   19.5195 C   0  0  2  0  0  0  0  0  0  0  0  0
  -13.6718    7.5456   18.7837 C   0  0  2  0  0  0  0  0  0  0  0  0
  -13.4334    6.7486   17.6488 O   0  0  0  0  0  0  0  0  0  0  0  0
  -14.2947    8.8631   18.2940 C   0  0  1  0  0  0  0  0  0  0  0  0
  -15.5374    8.5762   17.6536 O   0  0  0  0  0  0  0  0  0  0  0  0
  -15.9245    9.4106   16.6167 C   0  0  2  0  0  0  0  0  0  0  0  0
  -17.4590    9.3926   16.5117 C   0  0  2  0  0  0  0  0  0  0  0  0
  -18.0042    9.8429   17.7454 O   0  0  0  0  0  0  0  0  0  0  0  0
  -17.9353    7.9595   16.2165 C   0  0  1  0  0  0  0  0  0  0  0  0
  -19.4214    7.8755   16.1246 N   0  3  0  0  0  0  0  0  0  0  0  0
  -17.2789    7.4635   14.9049 C   0  0  2  0  0  0  0  0  0  0  0  0
  -17.6826    6.1264   14.6184 O   0  0  0  0  0  0  0  0  0  0  0  0
  -15.7453    7.5558   15.0096 C   0  0  2  0  0  0  0  0  0  0  0  0
  -15.3353    8.9212   15.3840 O   0  0  0  0  0  0  0  0  0  0  0  0
  -15.0635    7.2311   13.6990 C   0  0  0  0  0  0  0  0  0  0  0  0
  -14.9602    8.3802   12.8611 O   0  0  0  0  0  0  0  0  0  0  0  0
  1  2  1  1  0  0  0
  1  3  1  0  0  0  0
  1  9  1  0  0  0  0
  3  4  1  1  0  0  0
  3  5  1  0  0  0  0
  5  6  1  0  0  0  0
  6  7  1  1  0  0  0
  6  8  1  0  0  0  0
  8  9  1  0  0  0  0
  8 10  1  6  0  0  0
 10 11  1  0  0  0  0
 12 13  1  6  0  0  0
 12 14  1  0  0  0  0
 12 20  1  0  0  0  0
 14 15  1  0  0  0  0
 15 16  1  6  0  0  0
 15 17  1  0  0  0  0
 17  2  1  1  0  0  0
 17 18  1  0  0  0  0
 18 19  1  6  0  0  0
 18 20  1  0  0  0  0
 20 21  1  1  0  0  0
 22 21  1  1  0  0  0
 22 23  1  0  0  0  0
 22 30  1  0  0  0  0
 23 24  1  1  0  0  0
 23 25  1  0  0  0  0
 25 26  1  6  0  0  0
 25 27  1  0  0  0  0
 27 28  1  1  0  0  0
 27 29  1  0  0  0  0
 29 30  1  0  0  0  0
 29 31  1  6  0  0  0
 31 32  1  0  0  0  0
M  CHG  5   4   1  11   1  13   1  16   1  26   1
M  END
>  <CHROM.1>
-156.68921785,-148.34007401,-58.34333573,139.38371451,-75.58675047,50.10034742
-173.09072431,173.98519360,68.25774728,89.34531222,-153.63653406,73.30354341
49.26404966,173.75068303,86.10183442,-62.68984464,-13.44520382,7.45788889
18.44802947,-0.11154912,0.67570297,-2.54759314

>  <Name>
1lc4

>  <RI>
0

>  <Rbt.Current_Directory>
/home/afrankz/demos/rdock_decoys_rna/rnas/1lc4

>  <Rbt.Executable>
rbdock ($Id: //depot/dev/client3/rdock/2013.1/src/exe/rbdock.cxx#4 $)

>  <Rbt.Library>
libRbt.so (2013.1, Build901 2013/11/27)

>  <Rbt.Parameter_File>
/export/apps/rDock/src/rDock_2013.1_src/data/scripts/dock_solv.prm

>  <Rbt.Receptor>
prm/pocket_docking_4.prm

>  <SCORE>
-52.9066

>  <SCORE.INTER>
-39.0116

>  <SCORE.INTER.CONST>
1

>  <SCORE.INTER.POLAR>
-5.65236

>  <SCORE.INTER.ROT>
6

>  <SCORE.INTER.SOLV>
18.9759

>  <SCORE.INTER.VDW>
-21.0919

>  <SCORE.INTER.norm>
-1.21911

>  <SCORE.INTRA>
-13.9

>  <SCORE.INTRA.DIHEDRAL>
-20.9542

>  <SCORE.INTRA.DIHEDRAL.0>
44.2576

>  <SCORE.INTRA.POLAR>
0.195539

>  <SCORE.INTRA.POLAR.0>
-0.381556

>  <SCORE.INTRA.REPUL>
0

>  <SCORE.INTRA.REPUL.0>
0

>  <SCORE.INTRA.SOLV>
-0.00339047

>  <SCORE.INTRA.SOLV.lig_0>
-134.592

>  <SCORE.INTRA.VDW>
-4.08606

>  <SCORE.INTRA.VDW.0>
-1.01417

>  <SCORE.INTRA.norm>
-0.434376

>  <SCORE.RESTR>
0.00498131

>  <SCORE.RESTR.CAVITY>
0.00498131

>  <SCORE.RESTR.norm>
0.000155666

>  <SCORE.SYSTEM>
0

>  <SCORE.SYSTEM.CONST>
0

>  <SCORE.SYSTEM.DIHEDRAL>
0

>  <SCORE.SYSTEM.SOLV>
0

>  <SCORE.SYSTEM.norm>
0

>  <SCORE.heavy>
32

>  <SCORE.norm>
-1.65333

>  <RMSD>
1.843

$$$$
1lc4
 OpenBabel02141814113D
libRbt.so/2013.1/901 2013/11/27
 32 34  0  0  0  0  0  0  0  0999 V2000
  -10.6335    6.7115   19.0172 C   0  0  2  0  0  0  0  0  0  0  0  0
  -11.8499    7.0830   19.6157 O   0  0  0  0  0  0  0  0  0  0  0  0
  -10.6521    5.1847   18.7997 C   0  0  2  0  0  0  0  0  0  0  0  0
  -11.7937    4.8029   17.9625 N   0  3  0  0  0  0  0  0  0  0  0  0
  -10.6824    4.4535   20.1624 C   0  0  0  0  0  0  0  0  0  0  0  0
   -9.4320    4.8863   20.9478 C   0  0  2  0  0  0  0  0  0  0  0  0
   -9.3725    4.2059   22.2059 O   0  0  0  0  0  0  0  0  0  0  0  0
   -9.4556    6.4231   21.1402 C   0  0  2  0  0  0  0  0  0  0  0  0
   -9.5167    7.0948   19.8498 O   0  0  0  0  0  0  0  0  0  0  0  0
   -8.2260    6.9650   21.8650 C   0  0  0  0  0  0  0  0  0  0  0  0
   -7.0722    7.1029   20.9380 N   0  3  0  0  0  0  0  0  0  0  0  0
  -14.9263    9.9949   19.4857 C   0  0  2  0  0  0  0  0  0  0  0  0
  -15.7047   11.2094   19.1809 N   0  3  0  0  0  0  0  0  0  0  0  0
  -13.6383   10.3727   20.2046 C   0  0  0  0  0  0  0  0  0  0  0  0
  -12.8179    9.1181   20.5239 C   0  0  2  0  0  0  0  0  0  0  0  0
  -11.6358    9.5223   21.3252 N   0  3  0  0  0  0  0  0  0  0  0  0
  -12.4702    8.3255   19.2284 C   0  0  2  0  0  0  0  0  0  0  0  0
  -13.7760    7.9895   18.4630 C   0  0  2  0  0  0  0  0  0  0  0  0
  -13.4541    7.4213   17.2166 O   0  0  0  0  0  0  0  0  0  0  0  0
  -14.5926    9.2626   18.1875 C   0  0  1  0  0  0  0  0  0  0  0  0
  -15.7969    8.9015   17.5124 O   0  0  0  0  0  0  0  0  0  0  0  0
  -16.1387    9.6361   16.3878 C   0  0  2  0  0  0  0  0  0  0  0  0
  -17.6379    9.4404   16.1039 C   0  0  2  0  0  0  0  0  0  0  0  0
  -18.3763    9.8853   17.2348 O   0  0  0  0  0  0  0  0  0  0  0  0
  -17.9194    7.9502   15.8433 C   0  0  1  0  0  0  0  0  0  0  0  0
  -19.3653    7.6951   15.5822 N   0  3  0  0  0  0  0  0  0  0  0  0
  -17.0568    7.4687   14.6512 C   0  0  2  0  0  0  0  0  0  0  0  0
  -17.2778    6.0824   14.4018 O   0  0  0  0  0  0  0  0  0  0  0  0
  -15.5663    7.7381   14.9300 C   0  0  2  0  0  0  0  0  0  0  0  0
  -15.3529    9.1574   15.2656 O   0  0  0  0  0  0  0  0  0  0  0  0
  -14.6969    7.4295   13.7314 C   0  0  0  0  0  0  0  0  0  0  0  0
  -15.3988    7.6312   12.5067 O   0  0  0  0  0  0  0  0  0  0  0  0
  1  2  1  1  0  0  0
  1  3  1  0  0  0  0
  1  9  1  0  0  0  0
  3  4  1  6  0  0  0
  3  5  1  0  0  0  0
  5  6  1  0  0  0  0
  6  7  1  1  0  0  0
  6  8  1  0  0  0  0
  8  9  1  0  0  0  0
  8 10  1  6  0  0  0
 10 11  1  0  0  0  0
 12 13  1  6  0  0  0
 12 14  1  0  0  0  0
 12 20  1  0  0  0  0
 14 15  1  0  0  0  0
 15 16  1  6  0  0  0
 15 17  1  0  0  0  0
 17  2  1  1  0  0  0
 17 18  1  0  0  0  0
 18 19  1  6  0  0  0
 18 20  1  0  0  0  0
 20 21  1  1  0  0  0
 22 21  1  1  0  0  0
 22 23  1  0  0  0  0
 22 30  1  0  0  0  0
 23 24  1  1  0  0  0
 23 25  1  0  0  0  0
 25 26  1  6  0  0  0
 25 27  1  0  0  0  0
 27 28  1  1  0  0  0
 27 29  1  0  0  0  0
 29 30  1  0  0  0  0
 29 31  1  6  0  0  0
 31 32  1  0  0  0  0
M  CHG  5   4   1  11   1  13   1  16   1  26   1
M  END
>  <CHROM.1>
-142.48327003,-129.68165969,-121.23981453,-58.90185410,80.46957177,73.41708102
-63.15725527,156.75724042,-61.74116476,105.70514908,-160.70277628,64.97237181
79.96416687,61.23455734,29.91104937,50.30375350,-13.52660169,7.72156238,18.11863953
-0.25356560,0.60928855,-2.34218699

>  <Name>
1lc4

>  <RI>
0

>  <Rbt.Current_Directory>
/home/afrankz/demos/rdock_decoys_rna/rnas/1lc4

>  <Rbt.Executable>
rbdock ($Id: //depot/dev/client3/rdock/2013.1/src/exe/rbdock.cxx#4 $)

>  <Rbt.Library>
libRbt.so (2013.1, Build901 2013/11/27)

>  <Rbt.Parameter_File>
/export/apps/rDock/src/rDock_2013.1_src/data/scripts/dock_solv.prm

>  <Rbt.Receptor>
prm/pocket_docking_7.prm

>  <SCORE>
-50.5392

>  <SCORE.INTER>
-38.5177

>  <SCORE.INTER.CONST>
1

>  <SCORE.INTER.POLAR>
-5.81385

>  <SCORE.INTER.ROT>
6

>  <SCORE.INTER.SOLV>
25.8593

>  <SCORE.INTER.VDW>
-22.5187

>  <SCORE.INTER.norm>
-1.20368

>  <SCORE.INTRA>
-12.0215

>  <SCORE.INTRA.DIHEDRAL>
-13.8343

>  <SCORE.INTRA.DIHEDRAL.0>
44.2576

>  <SCORE.INTRA.POLAR>
-0.765823

>  <SCORE.INTRA.POLAR.0>
-0.381556

>  <SCORE.INTRA.REPUL>
0

>  <SCORE.INTRA.REPUL.0>
0

>  <SCORE.INTRA.SOLV>
1.16156

>  <SCORE.INTRA.SOLV.lig_0>
-134.592

>  <SCORE.INTRA.VDW>
-3.08134

>  <SCORE.INTRA.VDW.0>
-1.01417

>  <SCORE.INTRA.norm>
-0.375673

>  <SCORE.RESTR>
0

>  <SCORE.RESTR.CAVITY>
0

>  <SCORE.RESTR.norm>
0

>  <SCORE.SYSTEM>
0

>  <SCORE.SYSTEM.CONST>
0

>  <SCORE.SYSTEM.DIHEDRAL>
0

>  <SCORE.SYSTEM.SOLV>
0

>  <SCORE.SYSTEM.norm>
0

>  <SCORE.heavy>
32

>  <SCORE.norm>
-1.57935

>  <RMSD>
1.872

$$$$
1lc4
 OpenBabel02141814113D
libRbt.so/2013.1/901 2013/11/27
 32 34  0  0  0  0  0  0  0  0999 V2000
  -10.4975    5.4987   19.0924 C   0  0  2  0  0  0  0  0  0  0  0  0
  -11.5391    6.4245   19.2765 O   0  0  0  0  0  0  0  0  0  0  0  0
  -10.9062    4.1752   19.7709 C   0  0  2  0  0  0  0  0  0  0  0  0
  -12.1638    3.6787   19.2038 N   0  3  0  0  0  0  0  0  0  0  0  0
  -11.0169    4.3738   21.3009 C   0  0  0  0  0  0  0  0  0  0  0  0
   -9.6452    4.8550   21.8056 C   0  0  2  0  0  0  0  0  0  0  0  0
   -9.6642    5.0129   23.2283 O   0  0  0  0  0  0  0  0  0  0  0  0
   -9.2767    6.1824   21.0973 C   0  0  2  0  0  0  0  0  0  0  0  0
   -9.2638    5.9998   19.6528 O   0  0  0  0  0  0  0  0  0  0  0  0
   -7.9027    6.7205   21.4891 C   0  0  0  0  0  0  0  0  0  0  0  0
   -7.9386    7.3635   22.8289 N   0  3  0  0  0  0  0  0  0  0  0  0
  -13.6340    9.1168   16.7620 C   0  0  2  0  0  0  0  0  0  0  0  0
  -13.9542   10.1946   15.8082 N   0  3  0  0  0  0  0  0  0  0  0  0
  -12.9485    9.6997   17.9903 C   0  0  0  0  0  0  0  0  0  0  0  0
  -12.6070    8.5879   18.9885 C   0  0  2  0  0  0  0  0  0  0  0  0
  -12.0515    9.2131   20.2146 N   0  3  0  0  0  0  0  0  0  0  0  0
  -11.6803    7.5144   18.3433 C   0  0  2  0  0  0  0  0  0  0  0  0
  -12.3490    6.9601   17.0590 C   0  0  2  0  0  0  0  0  0  0  0  0
  -11.4452    6.1152   16.3888 O   0  0  0  0  0  0  0  0  0  0  0  0
  -12.7102    8.1006   16.0935 C   0  0  1  0  0  0  0  0  0  0  0  0
  -13.3504    7.5473   14.9443 O   0  0  0  0  0  0  0  0  0  0  0  0
  -13.0731    8.1338   13.7194 C   0  0  2  0  0  0  0  0  0  0  0  0
  -14.3348    8.0701   12.8417 C   0  0  2  0  0  0  0  0  0  0  0  0
  -15.3838    8.7662   13.5029 O   0  0  0  0  0  0  0  0  0  0  0  0
  -14.7331    6.5999   12.6235 C   0  0  1  0  0  0  0  0  0  0  0  0
  -15.9665    6.4753   11.7944 N   0  3  0  0  0  0  0  0  0  0  0  0
  -13.5539    5.8441   11.9636 C   0  0  2  0  0  0  0  0  0  0  0  0
  -13.8850    4.4707   11.7718 O   0  0  0  0  0  0  0  0  0  0  0  0
  -12.2855    5.9803   12.8263 C   0  0  2  0  0  0  0  0  0  0  0  0
  -11.9908    7.4004   13.0893 O   0  0  0  0  0  0  0  0  0  0  0  0
  -11.0682    5.3925   12.1476 C   0  0  0  0  0  0  0  0  0  0  0  0
   -9.9087    5.4886   12.9720 O   0  0  0  0  0  0  0  0  0  0  0  0
  1  2  1  1  0  0  0
  1  3  1  0  0  0  0
  1  9  1  0  0  0  0
  3  4  1  6  0  0  0
  3  5  1  0  0  0  0
  5  6  1  0  0  0  0
  6  7  1  1  0  0  0
  6  8  1  0  0  0  0
  8  9  1  0  0  0  0
  8 10  1  1  0  0  0
 10 11  1  0  0  0  0
 12 13  1  6  0  0  0
 12 14  1  0  0  0  0
 12 20  1  0  0  0  0
 14 15  1  0  0  0  0
 15 16  1  1  0  0  0
 15 17  1  0  0  0  0
 17  2  1  1  0  0  0
 17 18  1  0  0  0  0
 18 19  1  6  0  0  0
 18 20  1  0  0  0  0
 20 21  1  6  0  0  0
 22 21  1  1  0  0  0
 22 23  1  0  0  0  0
 22 30  1  0  0  0  0
 23 24  1  1  0  0  0
 23 25  1  0  0  0  0
 25 26  1  6  0  0  0
 25 27  1  0  0  0  0
 27 28  1  1  0  0  0
 27 29  1  0  0  0  0
 29 30  1  0  0  0  0
 29 31  1  6  0  0  0
 31 32  1  0  0  0  0
M  CHG  5   4   1  11   1  13   1  16   1  26   1
M  END
>  <CHROM.1>
-155.55646317,-163.77642896,-55.51164233,56.86814621,-77.04925414,151.99994939
-63.09816638,-61.05569408,-176.24758070,94.87389491,-145.77129192,168.78880694
-53.13763582,178.25375570,-178.25663977,-57.91619971,-11.96702347,6.74480990
16.88848920,-0.77003576,0.94822524,-2.16470900

>  <Name>
1lc4

>  <RI>
0

>  <Rbt.Current_Directory>
/home/afrankz/demos/rdock_decoys_rna/rnas/1lc4

>  <Rbt.Executable>
rbdock ($Id: //depot/dev/client3/rdock/2013.1/src/exe/rbdock.cxx#4 $)

>  <Rbt.Library>
libRbt.so (2013.1, Build901 2013/11/27)

>  <Rbt.Parameter_File>
/export/apps/rDock/src/rDock_2013.1_src/data/scripts/dock_solv.prm

>  <Rbt.Receptor>
prm/pocket_docking_4.prm

>  <SCORE>
-66.0483

>  <SCORE.INTER>
-42.6501

>  <SCORE.INTER.CONST>
1

>  <SCORE.INTER.POLAR>
-5.31052

>  <SCORE.INTER.ROT>
6

>  <SCORE.INTER.SOLV>
18.9064

>  <SCORE.INTER.VDW>
-24.6338

>  <SCORE.INTER.norm>
-1.33282

>  <SCORE.INTRA>
-23.3982

>  <SCORE.INTRA.DIHEDRAL>
-27.9282

>  <SCORE.INTRA.DIHEDRAL.0>
44.2576

>  <SCORE.INTRA.POLAR>
-1.56817

>  <SCORE.INTRA.POLAR.0>
-0.381556

>  <SCORE.INTRA.REPUL>
0

>  <SCORE.INTRA.REPUL.0>
0

>  <SCORE.INTRA.SOLV>
-1.23382

>  <SCORE.INTRA.SOLV.lig_0>
-134.592

>  <SCORE.INTRA.VDW>
-3.48543

>  <SCORE.INTRA.VDW.0>
-1.01417

>  <SCORE.INTRA.norm>
-0.731195

>  <SCORE.RESTR>
0

>  <SCORE.RESTR.CAVITY>
0

>  <SCORE.RESTR.norm>
0

>  <SCORE.SYSTEM>
0

>  <SCORE.SYSTEM.CONST>
0

>  <SCORE.SYSTEM.DIHEDRAL>
0

>  <SCORE.SYSTEM.SOLV>
0

>  <SCORE.SYSTEM.norm>
0

>  <SCORE.heavy>
32

>  <SCORE.norm>
-2.06401

>  <RMSD>
1.920

$$$$
1lc4
 OpenBabel02141814113D
libRbt.so/2013.1/901 2013/11/27
 32 34  0  0  0  0  0  0  0  0999 V2000
  -10.1989    5.9997   19.1228 C   0  0  2  0  0  0  0  0  0  0  0  0
  -11.5492    6.3582   19.2785 O   0  0  0  0  0  0  0  0  0  0  0  0
  -10.0561    4.5042   19.4716 C   0  0  2  0  0  0  0  0  0  0  0  0
  -10.9227    3.6945   18.6097 N   0  3  0  0  0  0  0  0  0  0  0  0
  -10.3747    4.2740   20.9677 C   0  0  0  0  0  0  0  0  0  0  0  0
   -9.3935    5.1306   21.7870 C   0  0  2  0  0  0  0  0  0  0  0  0
   -9.6029    4.9267   23.1884 O   0  0  0  0  0  0  0  0  0  0  0  0
   -9.5716    6.6206   21.4028 C   0  0  2  0  0  0  0  0  0  0  0  0
   -9.3551    6.8054   19.9748 O   0  0  0  0  0  0  0  0  0  0  0  0
   -8.6029    7.5551   22.1234 C   0  0  0  0  0  0  0  0  0  0  0  0
   -9.1888    8.9107   22.2930 N   0  3  0  0  0  0  0  0  0  0  0  0
  -14.4442    8.5259   17.0694 C   0  0  2  0  0  0  0  0  0  0  0  0
  -15.1235    9.5721   16.2835 N   0  3  0  0  0  0  0  0  0  0  0  0
  -14.0527    9.0761   18.4341 C   0  0  0  0  0  0  0  0  0  0  0  0
  -13.3419    7.9982   19.2599 C   0  0  2  0  0  0  0  0  0  0  0  0
  -13.0867    8.5401   20.6178 N   0  3  0  0  0  0  0  0  0  0  0  0
  -12.0675    7.4767   18.5309 C   0  0  2  0  0  0  0  0  0  0  0  0
  -12.4529    6.9692   17.1175 C   0  0  2  0  0  0  0  0  0  0  0  0
  -11.2846    6.6527   16.3998 O   0  0  0  0  0  0  0  0  0  0  0  0
  -13.1934    8.0600   16.3268 C   0  0  1  0  0  0  0  0  0  0  0  0
  -13.5556    7.5384   15.0487 O   0  0  0  0  0  0  0  0  0  0  0  0
  -13.1878    8.2765   13.9346 C   0  0  2  0  0  0  0  0  0  0  0  0
  -14.3588    8.2863   12.9372 C   0  0  2  0  0  0  0  0  0  0  0  0
  -15.4906    8.8687   13.5710 O   0  0  0  0  0  0  0  0  0  0  0  0
  -14.6787    6.8434   12.5088 C   0  0  1  0  0  0  0  0  0  0  0  0
  -15.8237    6.7877   11.5549 N   0  3  0  0  0  0  0  0  0  0  0  0
  -13.4152    6.2050   11.8819 C   0  0  2  0  0  0  0  0  0  0  0  0
  -13.6743    4.8567   11.4976 O   0  0  0  0  0  0  0  0  0  0  0  0
  -12.2388    6.2692   12.8738 C   0  0  2  0  0  0  0  0  0  0  0  0
  -12.0243    7.6541   13.3304 O   0  0  0  0  0  0  0  0  0  0  0  0
  -10.9421    5.8007   12.2518 C   0  0  0  0  0  0  0  0  0  0  0  0
   -9.9340    5.5853   13.2370 O   0  0  0  0  0  0  0  0  0  0  0  0
  1  2  1  1  0  0  0
  1  3  1  0  0  0  0
  1  9  1  0  0  0  0
  3  4  1  6  0  0  0
  3  5  1  0  0  0  0
  5  6  1  0  0  0  0
  6  7  1  1  0  0  0
  6  8  1  0  0  0  0
  8  9  1  0  0  0  0
  8 10  1  1  0  0  0
 10 11  1  0  0  0  0
 12 13  1  6  0  0  0
 12 14  1  0  0  0  0
 12 20  1  0  0  0  0
 14 15  1  0  0  0  0
 15 16  1  1  0  0  0
 15 17  1  0  0  0  0
 17  2  1  1  0  0  0
 17 18  1  0  0  0  0
 18 19  1  6  0  0  0
 18 20  1  0  0  0  0
 20 21  1  6  0  0  0
 22 21  1  1  0  0  0
 22 23  1  0  0  0  0
 22 30  1  0  0  0  0
 23 24  1  1  0  0  0
 23 25  1  0  0  0  0
 25 26  1  6  0  0  0
 25 27  1  0  0  0  0
 27 28  1  1  0  0  0
 27 29  1  0  0  0  0
 29 30  1  0  0  0  0
 29 31  1  6  0  0  0
 31 32  1  0  0  0  0
M  CHG  5   4   1  11   1  13   1  16   1  26   1
M  END
>  <CHROM.1>
-154.80646596,-158.28166622,157.28972276,-149.12250250,-151.30150969,53.35442080
-57.36487464,54.23900870,172.61746188,110.32077055,-137.84909451,172.33663453
-177.43760947,179.50337673,-167.24705167,-62.29610724,-12.10864267,6.89828024
16.95259164,-0.97767538,0.75132546,-1.92178270

>  <Name>
1lc4

>  <RI>
0

>  <Rbt.Current_Directory>
/home/afrankz/demos/rdock_decoys_rna/rnas/1lc4

>  <Rbt.Executable>
rbdock ($Id: //depot/dev/client3/rdock/2013.1/src/exe/rbdock.cxx#4 $)

>  <Rbt.Library>
libRbt.so (2013.1, Build901 2013/11/27)

>  <Rbt.Parameter_File>
/export/apps/rDock/src/rDock_2013.1_src/data/scripts/dock_solv.prm

>  <Rbt.Receptor>
prm/pocket_docking_6.prm

>  <SCORE>
-59.5352

>  <SCORE.INTER>
-43.4541

>  <SCORE.INTER.CONST>
1

>  <SCORE.INTER.POLAR>
-5.89962

>  <SCORE.INTER.ROT>
6

>  <SCORE.INTER.SOLV>
22.2758

>  <SCORE.INTER.VDW>
-24.3292

>  <SCORE.INTER.norm>
-1.35794

>  <SCORE.INTRA>
-16.0812

>  <SCORE.INTRA.DIHEDRAL>
-18.1769

>  <SCORE.INTRA.DIHEDRAL.0>
44.2576

>  <SCORE.INTRA.POLAR>
-0.785111

>  <SCORE.INTRA.POLAR.0>
-0.381556

>  <SCORE.INTRA.REPUL>
0

>  <SCORE.INTRA.REPUL.0>
0

>  <SCORE.INTRA.SOLV>
-1.12509

>  <SCORE.INTRA.SOLV.lig_0>
-134.592

>  <SCORE.INTRA.VDW>
-3.76076

>  <SCORE.INTRA.VDW.0>
-1.01417

>  <SCORE.INTRA.norm>
-0.502536

>  <SCORE.RESTR>
0

>  <SCORE.RESTR.CAVITY>
0

>  <SCORE.RESTR.norm>
0

>  <SCORE.SYSTEM>
0

>  <SCORE.SYSTEM.CONST>
0

>  <SCORE.SYSTEM.DIHEDRAL>
0

>  <SCORE.SYSTEM.SOLV>
0

>  <SCORE.SYSTEM.norm>
0

>  <SCORE.heavy>
32

>  <SCORE.norm>
-1.86048

>  <RMSD>
1.936

$$$$
1lc4
 OpenBabel02141814113D
libRbt.so/2013.1/901 2013/11/27
 32 34  0  0  0  0  0  0  0  0999 V2000
  -10.3787    6.0303   19.0658 C   0  0  2  0  0  0  0  0  0  0  0  0
  -11.6660    6.3336   19.5420 O   0  0  0  0  0  0  0  0  0  0  0  0
  -10.0410    4.5842   19.4827 C   0  0  2  0  0  0  0  0  0  0  0  0
  -11.0383    3.6529   18.9463 N   0  3  0  0  0  0  0  0  0  0  0  0
   -9.9460    4.4832   21.0233 C   0  0  0  0  0  0  0  0  0  0  0  0
   -8.8529    5.4628   21.4849 C   0  0  2  0  0  0  0  0  0  0  0  0
   -8.6789    5.3842   22.9037 O   0  0  0  0  0  0  0  0  0  0  0  0
   -9.2331    6.8982   21.0437 C   0  0  2  0  0  0  0  0  0  0  0  0
   -9.4057    6.9556   19.5990 O   0  0  0  0  0  0  0  0  0  0  0  0
   -8.1833    7.9452   21.4074 C   0  0  0  0  0  0  0  0  0  0  0  0
   -7.8973    7.9364   22.8661 N   0  3  0  0  0  0  0  0  0  0  0  0
  -15.1954    7.9572   17.8488 C   0  0  2  0  0  0  0  0  0  0  0  0
  -16.1443    8.8435   17.1503 N   0  3  0  0  0  0  0  0  0  0  0  0
  -14.6035    8.6785   19.0520 C   0  0  0  0  0  0  0  0  0  0  0  0
  -13.6119    7.7682   19.7850 C   0  0  2  0  0  0  0  0  0  0  0  0
  -13.1527    8.4665   21.0114 N   0  3  0  0  0  0  0  0  0  0  0  0
  -12.4596    7.3119   18.8408 C   0  0  2  0  0  0  0  0  0  0  0  0
  -13.0609    6.6286   17.5857 C   0  0  2  0  0  0  0  0  0  0  0  0
  -12.0344    6.3653   16.6599 O   0  0  0  0  0  0  0  0  0  0  0  0
  -14.0756    7.5521   16.8923 C   0  0  1  0  0  0  0  0  0  0  0  0
  -14.6249    6.8708   15.7651 O   0  0  0  0  0  0  0  0  0  0  0  0
  -13.8431    6.8013   14.6226 C   0  0  2  0  0  0  0  0  0  0  0  0
  -14.6609    7.3238   13.4291 C   0  0  2  0  0  0  0  0  0  0  0  0
  -15.0415    8.6682   13.6930 O   0  0  0  0  0  0  0  0  0  0  0  0
  -15.9124    6.4481   13.2433 C   0  0  1  0  0  0  0  0  0  0  0  0
  -16.7585    6.9211   12.1099 N   0  3  0  0  0  0  0  0  0  0  0  0
  -15.4789    4.9781   13.0237 C   0  0  2  0  0  0  0  0  0  0  0  0
  -16.6204    4.1373   12.8733 O   0  0  0  0  0  0  0  0  0  0  0  0
  -14.6048    4.5002   14.1981 C   0  0  2  0  0  0  0  0  0  0  0  0
  -13.4685    5.4167   14.4015 O   0  0  0  0  0  0  0  0  0  0  0  0
  -14.0271    3.1235   13.9559 C   0  0  0  0  0  0  0  0  0  0  0  0
  -13.1727    3.1050   12.8144 O   0  0  0  0  0  0  0  0  0  0  0  0
  1  2  1  1  0  0  0
  1  3  1  0  0  0  0
  1  9  1  0  0  0  0
  3  4  1  1  0  0  0
  3  5  1  0  0  0  0
  5  6  1  0  0  0  0
  6  7  1  1  0  0  0
  6  8  1  0  0  0  0
  8  9  1  0  0  0  0
  8 10  1  6  0  0  0
 10 11  1  0  0  0  0
 12 13  1  6  0  0  0
 12 14  1  0  0  0  0
 12 20  1  0  0  0  0
 14 15  1  0  0  0  0
 15 16  1  1  0  0  0
 15 17  1  0  0  0  0
 17  2  1  1  0  0  0
 17 18  1  0  0  0  0
 18 19  1  6  0  0  0
 18 20  1  0  0  0  0
 20 21  1  6  0  0  0
 22 21  1  1  0  0  0
 22 23  1  0  0  0  0
 22 30  1  0  0  0  0
 23 24  1  1  0  0  0
 23 25  1  0  0  0  0
 25 26  1  6  0  0  0
 25 27  1  0  0  0  0
 27 28  1  1  0  0  0
 27 29  1  0  0  0  0
 29 30  1  0  0  0  0
 29 31  1  6  0  0  0
 31 32  1  0  0  0  0
M  CHG  5   4   1  11   1  13   1  16   1  26   1
M  END
>  <CHROM.1>
-152.52422793,-163.06218130,154.55735486,-69.85553424,-56.11360144,-154.09433200
-179.01274906,164.51074477,-62.15945715,160.36963873,-127.09996321,77.36456249
-56.36700756,-58.61069295,61.90109795,175.55394137,-12.75413447,6.36169057
17.37464767,-0.65215336,0.72018789,-2.36252201

>  <Name>
1lc4

>  <RI>
0

>  <Rbt.Current_Directory>
/home/afrankz/demos/rdock_decoys_rna/rnas/1lc4

>  <Rbt.Executable>
rbdock ($Id: //depot/dev/client3/rdock/2013.1/src/exe/rbdock.cxx#4 $)

>  <Rbt.Library>
libRbt.so (2013.1, Build901 2013/11/27)

>  <Rbt.Parameter_File>
/export/apps/rDock/src/rDock_2013.1_src/data/scripts/dock_solv.prm

>  <Rbt.Receptor>
prm/pocket_docking_5.prm

>  <SCORE>
-53.4788

>  <SCORE.INTER>
-38.4094

>  <SCORE.INTER.CONST>
1

>  <SCORE.INTER.POLAR>
-6.53049

>  <SCORE.INTER.ROT>
6

>  <SCORE.INTER.SOLV>
16.3394

>  <SCORE.INTER.VDW>
-16.8844

>  <SCORE.INTER.norm>
-1.20029

>  <SCORE.INTRA>
-15.0694

>  <SCORE.INTRA.DIHEDRAL>
-25.5828

>  <SCORE.INTRA.DIHEDRAL.0>
44.2576

>  <SCORE.INTRA.POLAR>
0.381556

>  <SCORE.INTRA.POLAR.0>
-0.381556

>  <SCORE.INTRA.REPUL>
0

>  <SCORE.INTRA.REPUL.0>
0

>  <SCORE.INTRA.SOLV>
-1.60077

>  <SCORE.INTRA.SOLV.lig_0>
-134.592

>  <SCORE.INTRA.VDW>
-2.7749

>  <SCORE.INTRA.VDW.0>
-1.01417

>  <SCORE.INTRA.norm>
-0.470918

>  <SCORE.RESTR>
0

>  <SCORE.RESTR.CAVITY>
0

>  <SCORE.RESTR.norm>
0

>  <SCORE.SYSTEM>
0

>  <SCORE.SYSTEM.CONST>
0

>  <SCORE.SYSTEM.DIHEDRAL>
0

>  <SCORE.SYSTEM.SOLV>
0

>  <SCORE.SYSTEM.norm>
0

>  <SCORE.heavy>
32

>  <SCORE.norm>
-1.67121

>  <RMSD>
2.011

$$$$
1lc4
 OpenBabel02141814113D
libRbt.so/2013.1/901 2013/11/27
 32 34  0  0  0  0  0  0  0  0999 V2000
  -11.5534    5.0697   18.6816 C   0  0  2  0  0  0  0  0  0  0  0  0
  -12.4488    6.0946   19.0334 O   0  0  0  0  0  0  0  0  0  0  0  0
  -11.9615    3.7930   19.4448 C   0  0  2  0  0  0  0  0  0  0  0  0
  -13.3431    3.4249   19.1204 N   0  3  0  0  0  0  0  0  0  0  0  0
  -11.7753    4.0002   20.9662 C   0  0  0  0  0  0  0  0  0  0  0  0
  -10.2947    4.3418   21.2091 C   0  0  2  0  0  0  0  0  0  0  0  0
  -10.0419    4.4996   22.6093 O   0  0  0  0  0  0  0  0  0  0  0  0
   -9.9309    5.6265   20.4238 C   0  0  2  0  0  0  0  0  0  0  0  0
  -10.1959    5.4449   19.0036 O   0  0  0  0  0  0  0  0  0  0  0  0
   -8.4628    6.0246   20.5541 C   0  0  0  0  0  0  0  0  0  0  0  0
   -8.3254    7.4423   20.9796 N   0  3  0  0  0  0  0  0  0  0  0  0
  -14.3743    9.5504   17.5133 C   0  0  2  0  0  0  0  0  0  0  0  0
  -14.7393   10.7046   16.6717 N   0  3  0  0  0  0  0  0  0  0  0  0
  -12.9506    9.7146   18.0275 C   0  0  0  0  0  0  0  0  0  0  0  0
  -12.5577    8.5183   18.9015 C   0  0  2  0  0  0  0  0  0  0  0  0
  -11.2132    8.7775   19.4740 N   0  3  0  0  0  0  0  0  0  0  0  0
  -12.6678    7.1805   18.1105 C   0  0  2  0  0  0  0  0  0  0  0  0
  -14.1005    7.0374   17.5355 C   0  0  2  0  0  0  0  0  0  0  0  0
  -14.1537    5.9160   16.6871 O   0  0  0  0  0  0  0  0  0  0  0  0
  -14.4778    8.2664   16.6926 C   0  0  1  0  0  0  0  0  0  0  0  0
  -15.8121    8.1051   16.2127 O   0  0  0  0  0  0  0  0  0  0  0  0
  -16.2378    8.9714   15.2179 C   0  0  2  0  0  0  0  0  0  0  0  0
  -17.6488    8.5555   14.7681 C   0  0  2  0  0  0  0  0  0  0  0  0
  -18.5199    8.6166   15.8903 O   0  0  0  0  0  0  0  0  0  0  0  0
  -17.6067    7.1219   14.2106 C   0  0  1  0  0  0  0  0  0  0  0  0
  -18.9548    6.6545   13.7767 N   0  3  0  0  0  0  0  0  0  0  0  0
  -16.6035    7.0615   13.0329 C   0  0  2  0  0  0  0  0  0  0  0  0
  -16.5240    5.7370   12.5111 O   0  0  0  0  0  0  0  0  0  0  0  0
  -15.2158    7.5476   13.4908 C   0  0  2  0  0  0  0  0  0  0  0  0
  -15.3138    8.8852   14.1022 O   0  0  0  0  0  0  0  0  0  0  0  0
  -14.2408    7.6560   12.3394 C   0  0  0  0  0  0  0  0  0  0  0  0
  -12.9038    7.8433   12.7984 O   0  0  0  0  0  0  0  0  0  0  0  0
  1  2  1  1  0  0  0
  1  3  1  0  0  0  0
  1  9  1  0  0  0  0
  3  4  1  1  0  0  0
  3  5  1  0  0  0  0
  5  6  1  0  0  0  0
  6  7  1  1  0  0  0
  6  8  1  0  0  0  0
  8  9  1  0  0  0  0
  8 10  1  6  0  0  0
 10 11  1  0  0  0  0
 12 13  1  6  0  0  0
 12 14  1  0  0  0  0
 12 20  1  0  0  0  0
 14 15  1  0  0  0  0
 15 16  1  6  0  0  0
 15 17  1  0  0  0  0
 17  2  1  1  0  0  0
 17 18  1  0  0  0  0
 18 19  1  6  0  0  0
 18 20  1  0  0  0  0
 20 21  1  1  0  0  0
 22 21  1  1  0  0  0
 22 23  1  0  0  0  0
 22 30  1  0  0  0  0
 23 24  1  1  0  0  0
 23 25  1  0  0  0  0
 25 26  1  6  0  0  0
 25 27  1  0  0  0  0
 27 28  1  1  0  0  0
 27 29  1  0  0  0  0
 29 30  1  0  0  0  0
 29 31  1  6  0  0  0
 31 32  1  0  0  0  0
M  CHG  5   4   1  11   1  13   1  16   1  26   1
M  END
>  <CHROM.1>
-154.34206474,-132.10334928,-58.31851106,-59.57871578,-127.73257664,-140.13198793
90.52979209,-68.24302730,-62.76899412,70.86169847,175.40743173,-56.14655290
-79.10932208,172.68000779,-168.29290210,177.61087816,-13.60160430,7.00764255
17.17642456,0.36913155,0.76699054,2.96722708

>  <Name>
1lc4

>  <RI>
0

>  <Rbt.Current_Directory>
/home/afrankz/demos/rdock_decoys_rna/rnas/1lc4

>  <Rbt.Executable>
rbdock ($Id: //depot/dev/client3/rdock/2013.1/src/exe/rbdock.cxx#4 $)

>  <Rbt.Library>
libRbt.so (2013.1, Build901 2013/11/27)

>  <Rbt.Parameter_File>
/export/apps/rDock/src/rDock_2013.1_src/data/scripts/dock_solv.prm

>  <Rbt.Receptor>
prm/pocket_docking_6.prm

>  <SCORE>
-48.6518

>  <SCORE.INTER>
-37.0543

>  <SCORE.INTER.CONST>
1

>  <SCORE.INTER.POLAR>
-4.97533

>  <SCORE.INTER.ROT>
6

>  <SCORE.INTER.SOLV>
23.376

>  <SCORE.INTER.VDW>
-23.5104

>  <SCORE.INTER.norm>
-1.15795

>  <SCORE.INTRA>
-11.5975

>  <SCORE.INTRA.DIHEDRAL>
-22.7296

>  <SCORE.INTRA.DIHEDRAL.0>
44.2576

>  <SCORE.INTRA.POLAR>
0.147662

>  <SCORE.INTRA.POLAR.0>
-0.381556

>  <SCORE.INTRA.REPUL>
0

>  <SCORE.INTRA.REPUL.0>
0

>  <SCORE.INTRA.SOLV>
1.66753

>  <SCORE.INTRA.SOLV.lig_0>
-134.592

>  <SCORE.INTRA.VDW>
-1.56856

>  <SCORE.INTRA.VDW.0>
-1.01417

>  <SCORE.INTRA.norm>
-0.362422

>  <SCORE.RESTR>
0

>  <SCORE.RESTR.CAVITY>
0

>  <SCORE.RESTR.norm>
0

>  <SCORE.SYSTEM>
0

>  <SCORE.SYSTEM.CONST>
0

>  <SCORE.SYSTEM.DIHEDRAL>
0

>  <SCORE.SYSTEM.SOLV>
0

>  <SCORE.SYSTEM.norm>
0

>  <SCORE.heavy>
32

>  <SCORE.norm>
-1.52037

>  <RMSD>
2.017

$$$$
1lc4
 OpenBabel02141814113D
libRbt.so/2013.1/901 2013/11/27
 32 34  0  0  0  0  0  0  0  0999 V2000
  -10.0650    5.2622   20.4584 C   0  0  2  0  0  0  0  0  0  0  0  0
  -11.0284    6.2408   20.7589 O   0  0  0  0  0  0  0  0  0  0  0  0
  -10.2996    4.0557   21.3902 C   0  0  2  0  0  0  0  0  0  0  0  0
  -11.6584    3.5335   21.2159 N   0  3  0  0  0  0  0  0  0  0  0  0
  -10.0344    4.4590   22.8598 C   0  0  0  0  0  0  0  0  0  0  0  0
   -8.5801    4.9538   22.9488 C   0  0  2  0  0  0  0  0  0  0  0  0
   -8.2521    5.2994   24.2987 O   0  0  0  0  0  0  0  0  0  0  0  0
   -8.3917    6.1616   21.9975 C   0  0  2  0  0  0  0  0  0  0  0  0
   -8.7309    5.7889   20.6314 O   0  0  0  0  0  0  0  0  0  0  0  0
   -6.9625    6.6976   21.9696 C   0  0  0  0  0  0  0  0  0  0  0  0
   -6.9237    8.1018   21.4833 N   0  3  0  0  0  0  0  0  0  0  0  0
  -13.4207    8.9562   18.5536 C   0  0  2  0  0  0  0  0  0  0  0  0
  -13.8623   10.0014   17.6121 N   0  3  0  0  0  0  0  0  0  0  0  0
  -12.4438    9.5468   19.5612 C   0  0  0  0  0  0  0  0  0  0  0  0
  -11.9742    8.4685   20.5440 C   0  0  2  0  0  0  0  0  0  0  0  0
  -11.1212    9.1123   21.5739 N   0  3  0  0  0  0  0  0  0  0  0  0
  -11.2904    7.2836   19.7984 C   0  0  2  0  0  0  0  0  0  0  0  0
  -12.2612    6.7168   18.7307 C   0  0  2  0  0  0  0  0  0  0  0  0
  -11.5886    5.7598   17.9485 O   0  0  0  0  0  0  0  0  0  0  0  0
  -12.7406    7.8272   17.7817 C   0  0  1  0  0  0  0  0  0  0  0  0
  -13.6541    7.2666   16.8394 O   0  0  0  0  0  0  0  0  0  0  0  0
  -13.4968    7.6284   15.5106 C   0  0  2  0  0  0  0  0  0  0  0  0
  -14.6477    7.0199   14.6911 C   0  0  2  0  0  0  0  0  0  0  0  0
  -15.8795    7.5145   15.2010 O   0  0  0  0  0  0  0  0  0  0  0  0
  -14.6056    5.4863   14.8094 C   0  0  1  0  0  0  0  0  0  0  0  0
  -15.7145    4.8397   14.0502 N   0  3  0  0  0  0  0  0  0  0  0  0
  -13.2322    4.9734   14.3116 C   0  0  2  0  0  0  0  0  0  0  0  0
  -13.1542    3.5550   14.4331 O   0  0  0  0  0  0  0  0  0  0  0  0
  -12.0947    5.6483   15.1004 C   0  0  2  0  0  0  0  0  0  0  0  0
  -12.2240    7.1152   15.0386 O   0  0  0  0  0  0  0  0  0  0  0  0
  -10.7312    5.2989   14.5465 C   0  0  0  0  0  0  0  0  0  0  0  0
  -10.3851    3.9425   14.8179 O   0  0  0  0  0  0  0  0  0  0  0  0
  1  2  1  1  0  0  0
  1  3  1  0  0  0  0
  1  9  1  0  0  0  0
  3  4  1  1  0  0  0
  3  5  1  0  0  0  0
  5  6  1  0  0  0  0
  6  7  1  1  0  0  0
  6  8  1  0  0  0  0
  8  9  1  0  0  0  0
  8 10  1  6  0  0  0
 10 11  1  0  0  0  0
 12 13  1  6  0  0  0
 12 14  1  0  0  0  0
 12 20  1  0  0  0  0
 14 15  1  0  0  0  0
 15 16  1  1  0  0  0
 15 17  1  0  0  0  0
 17  2  1  1  0  0  0
 17 18  1  0  0  0  0
 18 19  1  6  0  0  0
 18 20  1  0  0  0  0
 20 21  1  6  0  0  0
 22 21  1  1  0  0  0
 22 23  1  0  0  0  0
 22 30  1  0  0  0  0
 23 24  1  1  0  0  0
 23 25  1  0  0  0  0
 25 26  1  6  0  0  0
 25 27  1  0  0  0  0
 27 28  1  1  0  0  0
 27 29  1  0  0  0  0
 29 30  1  0  0  0  0
 29 31  1  6  0  0  0
 31 32  1  0  0  0  0
M  CHG  5   4   1  11   1  13   1  16   1  26   1
M  END
>  <CHROM.1>
-161.86845697,-160.15087365,-49.31845430,-59.99469919,-158.67065829,45.30447493
38.87565546,61.20941144,-58.56211427,102.91336761,-175.02038342,178.89542885
179.40512926,67.18910086,-71.07980312,51.77678938,-11.61757560,6.38087840
18.46593476,-0.55488886,0.85090336,-2.44960589

>  <Name>
1lc4

>  <RI>
0

>  <Rbt.Current_Directory>
/home/afrankz/demos/rdock_decoys_rna/rnas/1lc4

>  <Rbt.Executable>
rbdock ($Id: //depot/dev/client3/rdock/2013.1/src/exe/rbdock.cxx#4 $)

>  <Rbt.Library>
libRbt.so (2013.1, Build901 2013/11/27)

>  <Rbt.Parameter_File>
/export/apps/rDock/src/rDock_2013.1_src/data/scripts/dock_solv.prm

>  <Rbt.Receptor>
prm/pocket_docking_7.prm

>  <SCORE>
-65.5962

>  <SCORE.INTER>
-44.9814

>  <SCORE.INTER.CONST>
1

>  <SCORE.INTER.POLAR>
-6.60707

>  <SCORE.INTER.ROT>
6

>  <SCORE.INTER.SOLV>
23.6338

>  <SCORE.INTER.VDW>
-23.442

>  <SCORE.INTER.norm>
-1.40567

>  <SCORE.INTRA>
-20.6148

>  <SCORE.INTRA.DIHEDRAL>
-30.6211

>  <SCORE.INTRA.DIHEDRAL.0>
44.2576

>  <SCORE.INTRA.POLAR>
-0.301703

>  <SCORE.INTRA.POLAR.0>
-0.381556

>  <SCORE.INTRA.REPUL>
0

>  <SCORE.INTRA.REPUL.0>
0

>  <SCORE.INTRA.SOLV>
-2.21275

>  <SCORE.INTRA.SOLV.lig_0>
-134.592

>  <SCORE.INTRA.VDW>
-3.17206

>  <SCORE.INTRA.VDW.0>
-1.01417

>  <SCORE.INTRA.norm>
-0.644211

>  <SCORE.RESTR>
0

>  <SCORE.RESTR.CAVITY>
0

>  <SCORE.RESTR.norm>
0

>  <SCORE.SYSTEM>
0

>  <SCORE.SYSTEM.CONST>
0

>  <SCORE.SYSTEM.DIHEDRAL>
0

>  <SCORE.SYSTEM.SOLV>
0

>  <SCORE.SYSTEM.norm>
0

>  <SCORE.heavy>
32

>  <SCORE.norm>
-2.04988

>  <RMSD>
2.045

$$$$
1lc4
 OpenBabel02141814113D
libRbt.so/2013.1/901 2013/11/27
 32 34  0  0  0  0  0  0  0  0999 V2000
  -10.1364    5.5105   19.7117 C   0  0  2  0  0  0  0  0  0  0  0  0
  -11.2435    6.3076   20.0506 O   0  0  0  0  0  0  0  0  0  0  0  0
  -10.3143    4.1324   20.3813 C   0  0  2  0  0  0  0  0  0  0  0  0
  -11.5687    3.5116   19.9445 N   0  3  0  0  0  0  0  0  0  0  0  0
  -10.2629    4.2781   21.9203 C   0  0  0  0  0  0  0  0  0  0  0  0
   -8.9018    4.8983   22.2814 C   0  0  2  0  0  0  0  0  0  0  0  0
   -8.7682    5.0167   23.7018 O   0  0  0  0  0  0  0  0  0  0  0  0
   -8.7675    6.2764   21.5871 C   0  0  2  0  0  0  0  0  0  0  0  0
   -8.9069    6.1334   20.1448 O   0  0  0  0  0  0  0  0  0  0  0  0
   -7.4237    6.9562   21.8380 C   0  0  0  0  0  0  0  0  0  0  0  0
   -6.6230    7.0432   20.5887 N   0  3  0  0  0  0  0  0  0  0  0  0
  -14.2558    8.3829   17.9106 C   0  0  2  0  0  0  0  0  0  0  0  0
  -14.9518    9.2750   16.9654 N   0  3  0  0  0  0  0  0  0  0  0  0
  -13.3690    9.2024   18.8382 C   0  0  0  0  0  0  0  0  0  0  0  0
  -12.6366    8.2853   19.8240 C   0  0  2  0  0  0  0  0  0  0  0  0
  -11.8808    9.1327   20.7796 N   0  3  0  0  0  0  0  0  0  0  0  0
  -11.7646    7.2332   19.0757 C   0  0  2  0  0  0  0  0  0  0  0  0
  -12.6534    6.4356   18.0869 C   0  0  2  0  0  0  0  0  0  0  0  0
  -11.8409    5.6026   17.2957 O   0  0  0  0  0  0  0  0  0  0  0  0
  -13.4002    7.3836   17.1345 C   0  0  1  0  0  0  0  0  0  0  0  0
  -14.2277    6.6091   16.2673 O   0  0  0  0  0  0  0  0  0  0  0  0
  -13.6358    6.0793   15.1313 C   0  0  2  0  0  0  0  0  0  0  0  0
  -13.5832    7.1678   14.0457 C   0  0  2  0  0  0  0  0  0  0  0  0
  -12.8249    8.2651   14.5388 O   0  0  0  0  0  0  0  0  0  0  0  0
  -15.0134    7.6244   13.7085 C   0  0  1  0  0  0  0  0  0  0  0  0
  -15.0247    8.6979   12.6734 N   0  3  0  0  0  0  0  0  0  0  0  0
  -15.8411    6.4037   13.2373 C   0  0  2  0  0  0  0  0  0  0  0  0
  -17.1806    6.7921   12.9413 O   0  0  0  0  0  0  0  0  0  0  0  0
  -15.8216    5.3009   14.3120 C   0  0  2  0  0  0  0  0  0  0  0  0
  -14.4345    4.9575   14.6734 O   0  0  0  0  0  0  0  0  0  0  0  0
  -16.4844    4.0277   13.8349 C   0  0  0  0  0  0  0  0  0  0  0  0
  -15.9270    3.5743   12.6032 O   0  0  0  0  0  0  0  0  0  0  0  0
  1  2  1  1  0  0  0
  1  3  1  0  0  0  0
  1  9  1  0  0  0  0
  3  4  1  1  0  0  0
  3  5  1  0  0  0  0
  5  6  1  0  0  0  0
  6  7  1  1  0  0  0
  6  8  1  0  0  0  0
  8  9  1  0  0  0  0
  8 10  1  6  0  0  0
 10 11  1  0  0  0  0
 12 13  1  6  0  0  0
 12 14  1  0  0  0  0
 12 20  1  0  0  0  0
 14 15  1  0  0  0  0
 15 16  1  1  0  0  0
 15 17  1  0  0  0  0
 17  2  1  1  0  0  0
 17 18  1  0  0  0  0
 18 19  1  6  0  0  0
 18 20  1  0  0  0  0
 20 21  1  6  0  0  0
 22 21  1  1  0  0  0
 22 23  1  0  0  0  0
 22 30  1  0  0  0  0
 23 24  1  1  0  0  0
 23 25  1  0  0  0  0
 25 26  1  6  0  0  0
 25 27  1  0  0  0  0
 27 28  1  1  0  0  0
 27 29  1  0  0  0  0
 29 30  1  0  0  0  0
 29 31  1  6  0  0  0
 31 32  1  0  0  0  0
M  CHG  5   4   1  11   1  13   1  16   1  26   1
M  END
>  <CHROM.1>
-144.25800478,-161.64409380,66.97644386,-59.75990595,112.78789174,95.90318350
174.29196170,47.54714584,-55.92180456,153.79287116,-81.61993778,178.51824291
-177.82214869,169.93426719,53.73494222,-60.14794167,-12.49334358,6.46644298
17.65371515,-0.04283704,0.88633848,-3.02045158

>  <Name>
1lc4

>  <RI>
0

>  <Rbt.Current_Directory>
/home/afrankz/demos/rdock_decoys_rna/rnas/1lc4

>  <Rbt.Executable>
rbdock ($Id: //depot/dev/client3/rdock/2013.1/src/exe/rbdock.cxx#4 $)

>  <Rbt.Library>
libRbt.so (2013.1, Build901 2013/11/27)

>  <Rbt.Parameter_File>
/export/apps/rDock/src/rDock_2013.1_src/data/scripts/dock_solv.prm

>  <Rbt.Receptor>
prm/pocket_docking_3.prm

>  <SCORE>
-61.6611

>  <SCORE.INTER>
-47.6256

>  <SCORE.INTER.CONST>
1

>  <SCORE.INTER.POLAR>
-7.57527

>  <SCORE.INTER.ROT>
6

>  <SCORE.INTER.SOLV>
32.2095

>  <SCORE.INTER.VDW>
-24.836

>  <SCORE.INTER.norm>
-1.4883

>  <SCORE.INTRA>
-14.0727

>  <SCORE.INTRA.DIHEDRAL>
-24.2765

>  <SCORE.INTRA.DIHEDRAL.0>
44.2576

>  <SCORE.INTRA.POLAR>
0.209336

>  <SCORE.INTRA.POLAR.0>
-0.381556

>  <SCORE.INTRA.REPUL>
0

>  <SCORE.INTRA.REPUL.0>
0

>  <SCORE.INTRA.SOLV>
-0.317005

>  <SCORE.INTRA.SOLV.lig_0>
-134.592

>  <SCORE.INTRA.VDW>
-2.48767

>  <SCORE.INTRA.VDW.0>
-1.01417

>  <SCORE.INTRA.norm>
-0.439771

>  <SCORE.RESTR>
0.0371418

>  <SCORE.RESTR.CAVITY>
0.0371418

>  <SCORE.RESTR.norm>
0.00116068

>  <SCORE.SYSTEM>
0

>  <SCORE.SYSTEM.CONST>
0

>  <SCORE.SYSTEM.DIHEDRAL>
0

>  <SCORE.SYSTEM.SOLV>
0

>  <SCORE.SYSTEM.norm>
0

>  <SCORE.heavy>
32

>  <SCORE.norm>
-1.92691

>  <RMSD>
2.058

$$$$
1lc4
 OpenBabel02141814113D
libRbt.so/2013.1/901 2013/11/27
 32 34  0  0  0  0  0  0  0  0999 V2000
  -10.1455    5.1720   20.5357 C   0  0  2  0  0  0  0  0  0  0  0  0
  -11.1361    6.1275   20.8217 O   0  0  0  0  0  0  0  0  0  0  0  0
  -10.3909    3.9425   21.4341 C   0  0  2  0  0  0  0  0  0  0  0  0
  -11.7334    3.4009   21.2014 N   0  3  0  0  0  0  0  0  0  0  0  0
  -10.1845    4.3196   22.9199 C   0  0  0  0  0  0  0  0  0  0  0  0
   -8.7432    4.8372   23.0702 C   0  0  2  0  0  0  0  0  0  0  0  0
   -8.4688    5.1601   24.4376 O   0  0  0  0  0  0  0  0  0  0  0  0
   -8.5433    6.0677   22.1507 C   0  0  2  0  0  0  0  0  0  0  0  0
   -8.8279    5.7178   20.7663 O   0  0  0  0  0  0  0  0  0  0  0  0
   -7.1238    6.6285   22.1842 C   0  0  0  0  0  0  0  0  0  0  0  0
   -7.0844    8.0243   21.6742 N   0  3  0  0  0  0  0  0  0  0  0  0
  -13.4618    9.0740   18.8547 C   0  0  2  0  0  0  0  0  0  0  0  0
  -13.9000   10.1430   17.9387 N   0  3  0  0  0  0  0  0  0  0  0  0
  -12.2831    9.5578   19.6883 C   0  0  0  0  0  0  0  0  0  0  0  0
  -11.8156    8.4534   20.6427 C   0  0  2  0  0  0  0  0  0  0  0  0
  -10.7487    9.0067   21.5134 N   0  3  0  0  0  0  0  0  0  0  0  0
  -11.4011    7.1703   19.8621 C   0  0  2  0  0  0  0  0  0  0  0  0
  -12.5795    6.7076   18.9670 C   0  0  2  0  0  0  0  0  0  0  0  0
  -12.1526    5.6509   18.1416 O   0  0  0  0  0  0  0  0  0  0  0  0
  -13.0477    7.8461   18.0461 C   0  0  1  0  0  0  0  0  0  0  0  0
  -14.1509    7.3854   17.2667 O   0  0  0  0  0  0  0  0  0  0  0  0
  -13.8654    6.8269   16.0307 C   0  0  2  0  0  0  0  0  0  0  0  0
  -13.8024    7.9499   14.9813 C   0  0  2  0  0  0  0  0  0  0  0  0
  -12.7864    8.8696   15.3607 O   0  0  0  0  0  0  0  0  0  0  0  0
  -15.1631    8.6652   14.9145 C   0  0  1  0  0  0  0  0  0  0  0  0
  -15.1561    9.7817   13.9258 N   0  3  0  0  0  0  0  0  0  0  0  0
  -16.2648    7.6349   14.5657 C   0  0  2  0  0  0  0  0  0  0  0  0
  -17.5429    8.2652   14.5215 O   0  0  0  0  0  0  0  0  0  0  0  0
  -16.2625    6.4860   15.5911 C   0  0  2  0  0  0  0  0  0  0  0  0
  -14.9191    5.8879   15.6924 O   0  0  0  0  0  0  0  0  0  0  0  0
  -17.2149    5.3758   15.2061 C   0  0  0  0  0  0  0  0  0  0  0  0
  -16.8494    4.7761   13.9651 O   0  0  0  0  0  0  0  0  0  0  0  0
  1  2  1  1  0  0  0
  1  3  1  0  0  0  0
  1  9  1  0  0  0  0
  3  4  1  1  0  0  0
  3  5  1  0  0  0  0
  5  6  1  0  0  0  0
  6  7  1  1  0  0  0
  6  8  1  0  0  0  0
  8  9  1  0  0  0  0
  8 10  1  6  0  0  0
 10 11  1  0  0  0  0
 12 13  1  6  0  0  0
 12 14  1  0  0  0  0
 12 20  1  0  0  0  0
 14 15  1  0  0  0  0
 15 16  1  6  0  0  0
 15 17  1  0  0  0  0
 17  2  1  1  0  0  0
 17 18  1  0  0  0  0
 18 19  1  6  0  0  0
 18 20  1  0  0  0  0
 20 21  1  1  0  0  0
 22 21  1  1  0  0  0
 22 23  1  0  0  0  0
 22 30  1  0  0  0  0
 23 24  1  1  0  0  0
 23 25  1  0  0  0  0
 25 26  1  6  0  0  0
 25 27  1  0  0  0  0
 27 28  1  1  0  0  0
 27 29  1  0  0  0  0
 29 30  1  0  0  0  0
 29 31  1  6  0  0  0
 31 32  1  0  0  0  0
M  CHG  5   4   1  11   1  13   1  16   1  26   1
M  END
>  <CHROM.1>
-160.66619144,-147.17150254,-55.80892863,64.43329955,-161.05828214,-74.08048259
-149.10467847,72.60673345,61.27955272,146.39988312,-87.10319858,171.62869549
-133.63995108,-54.54162419,61.98073922,-173.12758188,-12.43899945,6.92136330
18.63055505,0.36835449,0.77413338,2.86157877

>  <Name>
1lc4

>  <RI>
0

>  <Rbt.Current_Directory>
/home/afrankz/demos/rdock_decoys_rna/rnas/1lc4

>  <Rbt.Executable>
rbdock ($Id: //depot/dev/client3/rdock/2013.1/src/exe/rbdock.cxx#4 $)

>  <Rbt.Library>
libRbt.so (2013.1, Build901 2013/11/27)

>  <Rbt.Parameter_File>
/export/apps/rDock/src/rDock_2013.1_src/data/scripts/dock_solv.prm

>  <Rbt.Receptor>
prm/pocket_docking_4.prm

>  <SCORE>
-59.8691

>  <SCORE.INTER>
-43.3037

>  <SCORE.INTER.CONST>
1

>  <SCORE.INTER.POLAR>
-5.87042

>  <SCORE.INTER.ROT>
6

>  <SCORE.INTER.SOLV>
28.9764

>  <SCORE.INTER.VDW>
-26.5598

>  <SCORE.INTER.norm>
-1.35324

>  <SCORE.INTRA>
-16.5655

>  <SCORE.INTRA.DIHEDRAL>
-23.0598

>  <SCORE.INTRA.DIHEDRAL.0>
44.2576

>  <SCORE.INTRA.POLAR>
-0.79038

>  <SCORE.INTRA.POLAR.0>
-0.381556

>  <SCORE.INTRA.REPUL>
0

>  <SCORE.INTRA.REPUL.0>
0

>  <SCORE.INTRA.SOLV>
2.04337

>  <SCORE.INTRA.SOLV.lig_0>
-134.592

>  <SCORE.INTRA.VDW>
-3.36997

>  <SCORE.INTRA.VDW.0>
-1.01417

>  <SCORE.INTRA.norm>
-0.517671

>  <SCORE.RESTR>
0

>  <SCORE.RESTR.CAVITY>
0

>  <SCORE.RESTR.norm>
0

>  <SCORE.SYSTEM>
0

>  <SCORE.SYSTEM.CONST>
0

>  <SCORE.SYSTEM.DIHEDRAL>
0

>  <SCORE.SYSTEM.SOLV>
0

>  <SCORE.SYSTEM.norm>
0

>  <SCORE.heavy>
32

>  <SCORE.norm>
-1.87091

>  <RMSD>
2.077

$$$$
1lc4
 OpenBabel02141814113D
libRbt.so/2013.1/901 2013/11/27
 32 34  0  0  0  0  0  0  0  0999 V2000
  -10.7990    5.7378   18.2974 C   0  0  2  0  0  0  0  0  0  0  0  0
  -12.1196    6.2106   18.3894 O   0  0  0  0  0  0  0  0  0  0  0  0
  -10.8072    4.2273   18.6094 C   0  0  2  0  0  0  0  0  0  0  0  0
  -11.6904    3.5191   17.6778 N   0  3  0  0  0  0  0  0  0  0  0  0
  -11.2296    3.9898   20.0783 C   0  0  0  0  0  0  0  0  0  0  0  0
  -10.2260    4.7357   20.9750 C   0  0  2  0  0  0  0  0  0  0  0  0
  -10.5321    4.5168   22.3562 O   0  0  0  0  0  0  0  0  0  0  0  0
  -10.2513    6.2446   20.6256 C   0  0  2  0  0  0  0  0  0  0  0  0
   -9.9383    6.4444   19.2177 O   0  0  0  0  0  0  0  0  0  0  0  0
   -9.2477    7.0716   21.4253 C   0  0  0  0  0  0  0  0  0  0  0  0
   -7.8755    6.9371   20.8698 N   0  3  0  0  0  0  0  0  0  0  0  0
  -14.5744    9.4992   17.3315 C   0  0  2  0  0  0  0  0  0  0  0  0
  -15.1100   10.7009   16.6660 N   0  3  0  0  0  0  0  0  0  0  0  0
  -13.2190    9.8115   17.9508 C   0  0  0  0  0  0  0  0  0  0  0  0
  -12.6495    8.5682   18.6430 C   0  0  2  0  0  0  0  0  0  0  0  0
  -11.3906    8.9495   19.3304 N   0  3  0  0  0  0  0  0  0  0  0  0
  -12.4969    7.3843   17.6419 C   0  0  2  0  0  0  0  0  0  0  0  0
  -13.8629    7.1012   16.9654 C   0  0  2  0  0  0  0  0  0  0  0  0
  -13.6907    6.1468   15.9458 O   0  0  0  0  0  0  0  0  0  0  0  0
  -14.4238    8.3737   16.3099 C   0  0  1  0  0  0  0  0  0  0  0  0
  -15.6928    8.0735   15.7302 O   0  0  0  0  0  0  0  0  0  0  0  0
  -16.1674    8.9401   14.7581 C   0  0  2  0  0  0  0  0  0  0  0  0
  -17.6206    8.5626   14.4235 C   0  0  2  0  0  0  0  0  0  0  0  0
  -18.4008    8.6648   15.6079 O   0  0  0  0  0  0  0  0  0  0  0  0
  -17.6645    7.1216   13.8857 C   0  0  1  0  0  0  0  0  0  0  0  0
  -19.0553    6.6908   13.5630 N   0  3  0  0  0  0  0  0  0  0  0  0
  -16.7569    7.0153   12.6359 C   0  0  2  0  0  0  0  0  0  0  0  0
  -16.7576    5.6825   12.1294 O   0  0  0  0  0  0  0  0  0  0  0  0
  -15.3242    7.4637   12.9793 C   0  0  2  0  0  0  0  0  0  0  0  0
  -15.3348    8.8112   13.5765 O   0  0  0  0  0  0  0  0  0  0  0  0
  -14.4377    7.5273   11.7554 C   0  0  0  0  0  0  0  0  0  0  0  0
  -14.5165    6.3293   10.9861 O   0  0  0  0  0  0  0  0  0  0  0  0
  1  2  1  1  0  0  0
  1  3  1  0  0  0  0
  1  9  1  0  0  0  0
  3  4  1  6  0  0  0
  3  5  1  0  0  0  0
  5  6  1  0  0  0  0
  6  7  1  1  0  0  0
  6  8  1  0  0  0  0
  8  9  1  0  0  0  0
  8 10  1  1  0  0  0
 10 11  1  0  0  0  0
 12 13  1  6  0  0  0
 12 14  1  0  0  0  0
 12 20  1  0  0  0  0
 14 15  1  0  0  0  0
 15 16  1  6  0  0  0
 15 17  1  0  0  0  0
 17  2  1  1  0  0  0
 17 18  1  0  0  0  0
 18 19  1  6  0  0  0
 18 20  1  0  0  0  0
 20 21  1  1  0  0  0
 22 21  1  1  0  0  0
 22 23  1  0  0  0  0
 22 30  1  0  0  0  0
 23 24  1  1  0  0  0
 23 25  1  0  0  0  0
 25 26  1  6  0  0  0
 25 27  1  0  0  0  0
 27 28  1  1  0  0  0
 27 29  1  0  0  0  0
 29 30  1  0  0  0  0
 29 31  1  6  0  0  0
 31 32  1  0  0  0  0
M  CHG  5   4   1  11   1  13   1  16   1  26   1
M  END
>  <CHROM.1>
-154.46360091,-106.69035999,65.72194175,-59.72687879,78.98328693,-37.36608711
-158.64259608,39.92179100,-54.62941664,77.52421612,-171.54099128,-175.56973087
44.21330666,-169.82115539,-49.81766244,169.01527066,-13.56713867,7.08033075
16.76799216,-0.27653251,0.79295756,-2.52063887

>  <Name>
1lc4

>  <RI>
0

>  <Rbt.Current_Directory>
/home/afrankz/demos/rdock_decoys_rna/rnas/1lc4

>  <Rbt.Executable>
rbdock ($Id: //depot/dev/client3/rdock/2013.1/src/exe/rbdock.cxx#4 $)

>  <Rbt.Library>
libRbt.so (2013.1, Build901 2013/11/27)

>  <Rbt.Parameter_File>
/export/apps/rDock/src/rDock_2013.1_src/data/scripts/dock_solv.prm

>  <Rbt.Receptor>
prm/pocket_docking_3.prm

>  <SCORE>
-56.8858

>  <SCORE.INTER>
-42.239

>  <SCORE.INTER.CONST>
1

>  <SCORE.INTER.POLAR>
-5.516

>  <SCORE.INTER.ROT>
6

>  <SCORE.INTER.SOLV>
27.0595

>  <SCORE.INTER.VDW>
-26.3925

>  <SCORE.INTER.norm>
-1.31997

>  <SCORE.INTRA>
-14.6476

>  <SCORE.INTRA.DIHEDRAL>
-26.7029

>  <SCORE.INTRA.DIHEDRAL.0>
44.2576

>  <SCORE.INTRA.POLAR>
-0.449066

>  <SCORE.INTRA.POLAR.0>
-0.381556

>  <SCORE.INTRA.REPUL>
0

>  <SCORE.INTRA.REPUL.0>
0

>  <SCORE.INTRA.SOLV>
2.51787

>  <SCORE.INTRA.SOLV.lig_0>
-134.592

>  <SCORE.INTRA.VDW>
-1.02827

>  <SCORE.INTRA.VDW.0>
-1.01417

>  <SCORE.INTRA.norm>
-0.457739

>  <SCORE.RESTR>
0.00085653

>  <SCORE.RESTR.CAVITY>
0.00085653

>  <SCORE.RESTR.norm>
2.67665e-05

>  <SCORE.SYSTEM>
0

>  <SCORE.SYSTEM.CONST>
0

>  <SCORE.SYSTEM.DIHEDRAL>
0

>  <SCORE.SYSTEM.SOLV>
0

>  <SCORE.SYSTEM.norm>
0

>  <SCORE.heavy>
32

>  <SCORE.norm>
-1.77768

>  <RMSD>
2.094

$$$$
1lc4
 OpenBabel02141814113D
libRbt.so/2013.1/901 2013/11/27
 32 34  0  0  0  0  0  0  0  0999 V2000
  -10.4506    6.4015   19.0903 C   0  0  2  0  0  0  0  0  0  0  0  0
  -11.7680    6.5520   19.5570 O   0  0  0  0  0  0  0  0  0  0  0  0
   -9.9645    4.9884   19.4723 C   0  0  2  0  0  0  0  0  0  0  0  0
  -10.8505    3.9717   18.8971 N   0  3  0  0  0  0  0  0  0  0  0  0
   -9.8756    4.8542   21.0107 C   0  0  0  0  0  0  0  0  0  0  0  0
   -8.8987    5.9313   21.5137 C   0  0  2  0  0  0  0  0  0  0  0  0
   -8.7324    5.8313   22.9320 O   0  0  0  0  0  0  0  0  0  0  0  0
   -9.4257    7.3299   21.1065 C   0  0  2  0  0  0  0  0  0  0  0  0
   -9.5881    7.4098   19.6618 O   0  0  0  0  0  0  0  0  0  0  0  0
   -8.4979    8.4722   21.5129 C   0  0  0  0  0  0  0  0  0  0  0  0
   -8.8886    9.0404   22.8298 N   0  3  0  0  0  0  0  0  0  0  0  0
  -15.3776    7.4615   17.5314 C   0  0  2  0  0  0  0  0  0  0  0  0
  -16.4254    8.1600   16.7645 N   0  3  0  0  0  0  0  0  0  0  0  0
  -15.0955    8.2132   18.8251 C   0  0  0  0  0  0  0  0  0  0  0  0
  -14.0045    7.4985   19.6303 C   0  0  2  0  0  0  0  0  0  0  0  0
  -13.8480    8.1968   20.9305 N   0  3  0  0  0  0  0  0  0  0  0  0
  -12.6861    7.3746   18.8094 C   0  0  2  0  0  0  0  0  0  0  0  0
  -12.9806    6.6613   17.4647 C   0  0  2  0  0  0  0  0  0  0  0  0
  -11.8299    6.6959   16.6555 O   0  0  0  0  0  0  0  0  0  0  0  0
  -14.1010    7.3811   16.6967 C   0  0  1  0  0  0  0  0  0  0  0  0
  -14.3591    6.6725   15.4850 O   0  0  0  0  0  0  0  0  0  0  0  0
  -13.6637    7.0735   14.3550 C   0  0  2  0  0  0  0  0  0  0  0  0
  -14.6702    7.5710   13.3035 C   0  0  2  0  0  0  0  0  0  0  0  0
  -15.4006    8.6602   13.8534 O   0  0  0  0  0  0  0  0  0  0  0  0
  -15.6296    6.4270   12.9314 C   0  0  1  0  0  0  0  0  0  0  0  0
  -16.6452    6.8575   11.9278 N   0  3  0  0  0  0  0  0  0  0  0  0
  -14.8100    5.2269   12.3974 C   0  0  2  0  0  0  0  0  0  0  0  0
  -15.6719    4.1400   12.0676 O   0  0  0  0  0  0  0  0  0  0  0  0
  -13.7636    4.7914   13.4400 C   0  0  2  0  0  0  0  0  0  0  0  0
  -12.9250    5.9363   13.8382 O   0  0  0  0  0  0  0  0  0  0  0  0
  -12.8341    3.7251   12.9043 C   0  0  0  0  0  0  0  0  0  0  0  0
  -12.1034    4.1860   11.7699 O   0  0  0  0  0  0  0  0  0  0  0  0
  1  2  1  1  0  0  0
  1  3  1  0  0  0  0
  1  9  1  0  0  0  0
  3  4  1  1  0  0  0
  3  5  1  0  0  0  0
  5  6  1  0  0  0  0
  6  7  1  1  0  0  0
  6  8  1  0  0  0  0
  8  9  1  0  0  0  0
  8 10  1  6  0  0  0
 10 11  1  0  0  0  0
 12 13  1  6  0  0  0
 12 14  1  0  0  0  0
 12 20  1  0  0  0  0
 14 15  1  0  0  0  0
 15 16  1  1  0  0  0
 15 17  1  0  0  0  0
 17  2  1  1  0  0  0
 17 18  1  0  0  0  0
 18 19  1  6  0  0  0
 18 20  1  0  0  0  0
 20 21  1  6  0  0  0
 22 21  1  1  0  0  0
 22 23  1  0  0  0  0
 22 30  1  0  0  0  0
 23 24  1  1  0  0  0
 23 25  1  0  0  0  0
 25 26  1  6  0  0  0
 25 27  1  0  0  0  0
 27 28  1  1  0  0  0
 27 29  1  0  0  0  0
 29 30  1  0  0  0  0
 29 31  1  6  0  0  0
 31 32  1  0  0  0  0
M  CHG  5   4   1  11   1  13   1  16   1  26   1
M  END
>  <CHROM.1>
-147.51353913,-173.50297071,164.31687986,-69.74055907,-93.84194219,44.54094898
29.13833266,-64.65225502,177.04797022,146.12340512,-117.64022745,170.81750140
-37.91081297,-59.32575872,60.73128615,-178.13190229,-12.69615005,6.55535342
17.14677197,-0.90869228,0.57130737,-2.08256179

>  <Name>
1lc4

>  <RI>
0

>  <Rbt.Current_Directory>
/home/afrankz/demos/rdock_decoys_rna/rnas/1lc4

>  <Rbt.Executable>
rbdock ($Id: //depot/dev/client3/rdock/2013.1/src/exe/rbdock.cxx#4 $)

>  <Rbt.Library>
libRbt.so (2013.1, Build901 2013/11/27)

>  <Rbt.Parameter_File>
/export/apps/rDock/src/rDock_2013.1_src/data/scripts/dock_solv.prm

>  <Rbt.Receptor>
prm/pocket_docking_4.prm

>  <SCORE>
-63.6673

>  <SCORE.INTER>
-45.6264

>  <SCORE.INTER.CONST>
1

>  <SCORE.INTER.POLAR>
-7.99962

>  <SCORE.INTER.ROT>
6

>  <SCORE.INTER.SOLV>
20.1875

>  <SCORE.INTER.VDW>
-18.0814

>  <SCORE.INTER.norm>
-1.42582

>  <SCORE.INTRA>
-18.0409

>  <SCORE.INTRA.DIHEDRAL>
-20.1794

>  <SCORE.INTRA.DIHEDRAL.0>
44.2576

>  <SCORE.INTRA.POLAR>
-1.42184

>  <SCORE.INTRA.POLAR.0>
-0.381556

>  <SCORE.INTRA.REPUL>
0

>  <SCORE.INTRA.REPUL.0>
0

>  <SCORE.INTRA.SOLV>
-1.95172

>  <SCORE.INTRA.SOLV.lig_0>
-134.592

>  <SCORE.INTRA.VDW>
-2.14109

>  <SCORE.INTRA.VDW.0>
-1.01417

>  <SCORE.INTRA.norm>
-0.563779

>  <SCORE.RESTR>
0

>  <SCORE.RESTR.CAVITY>
0

>  <SCORE.RESTR.norm>
0

>  <SCORE.SYSTEM>
0

>  <SCORE.SYSTEM.CONST>
0

>  <SCORE.SYSTEM.DIHEDRAL>
0

>  <SCORE.SYSTEM.SOLV>
0

>  <SCORE.SYSTEM.norm>
0

>  <SCORE.heavy>
32

>  <SCORE.norm>
-1.9896

>  <RMSD>
2.097

$$$$
1lc4
 OpenBabel02141814113D
libRbt.so/2013.1/901 2013/11/27
 32 34  0  0  0  0  0  0  0  0999 V2000
  -10.3227    5.5714   18.8813 C   0  0  2  0  0  0  0  0  0  0  0  0
  -11.3590    6.4788   19.1617 O   0  0  0  0  0  0  0  0  0  0  0  0
  -10.8632    4.1433   19.0990 C   0  0  2  0  0  0  0  0  0  0  0  0
  -12.0266    3.9021   18.2399 N   0  3  0  0  0  0  0  0  0  0  0  0
  -11.2093    3.9271   20.5910 C   0  0  0  0  0  0  0  0  0  0  0  0
   -9.9239    4.1632   21.4033 C   0  0  2  0  0  0  0  0  0  0  0  0
  -10.1634    3.9311   22.7954 O   0  0  0  0  0  0  0  0  0  0  0  0
   -9.4182    5.6057   21.1525 C   0  0  2  0  0  0  0  0  0  0  0  0
   -9.1818    5.8204   19.7319 O   0  0  0  0  0  0  0  0  0  0  0  0
   -8.1115    5.9268   21.8736 C   0  0  0  0  0  0  0  0  0  0  0  0
   -8.2459    5.7358   23.3417 N   0  3  0  0  0  0  0  0  0  0  0  0
  -13.7294    9.1429   16.8717 C   0  0  2  0  0  0  0  0  0  0  0  0
  -14.1573   10.2141   15.9534 N   0  3  0  0  0  0  0  0  0  0  0  0
  -12.9248    9.7365   18.0200 C   0  0  0  0  0  0  0  0  0  0  0  0
  -12.4708    8.6316   18.9804 C   0  0  2  0  0  0  0  0  0  0  0  0
  -11.7961    9.2664   20.1399 N   0  3  0  0  0  0  0  0  0  0  0  0
  -11.6068    7.5638   18.2451 C   0  0  2  0  0  0  0  0  0  0  0  0
  -12.4009    6.9987   17.0393 C   0  0  2  0  0  0  0  0  0  0  0  0
  -11.5643    6.1591   16.2808 O   0  0  0  0  0  0  0  0  0  0  0  0
  -12.8712    8.1322   16.1134 C   0  0  1  0  0  0  0  0  0  0  0  0
  -13.6228    7.5688   15.0390 O   0  0  0  0  0  0  0  0  0  0  0  0
  -13.5384    8.1983   13.8069 C   0  0  2  0  0  0  0  0  0  0  0  0
  -14.7342    7.7614   12.9435 C   0  0  2  0  0  0  0  0  0  0  0  0
  -15.9348    8.1286   13.6110 O   0  0  0  0  0  0  0  0  0  0  0  0
  -14.6889    6.2368   12.7401 C   0  0  1  0  0  0  0  0  0  0  0  0
  -15.8394    5.7504   11.9254 N   0  3  0  0  0  0  0  0  0  0  0  0
  -13.3463    5.8504   12.0730 C   0  0  2  0  0  0  0  0  0  0  0  0
  -13.2647    4.4382   11.8946 O   0  0  0  0  0  0  0  0  0  0  0  0
  -12.1654    6.3586   12.9209 C   0  0  2  0  0  0  0  0  0  0  0  0
  -12.2947    7.8055   13.1705 O   0  0  0  0  0  0  0  0  0  0  0  0
  -10.8354    6.1437   12.2333 C   0  0  0  0  0  0  0  0  0  0  0  0
  -10.7820    6.8072   10.9722 O   0  0  0  0  0  0  0  0  0  0  0  0
  1  2  1  1  0  0  0
  1  3  1  0  0  0  0
  1  9  1  0  0  0  0
  3  4  1  6  0  0  0
  3  5  1  0  0  0  0
  5  6  1  0  0  0  0
  6  7  1  1  0  0  0
  6  8  1  0  0  0  0
  8  9  1  0  0  0  0
  8 10  1  1  0  0  0
 10 11  1  0  0  0  0
 12 13  1  6  0  0  0
 12 14  1  0  0  0  0
 12 20  1  0  0  0  0
 14 15  1  0  0  0  0
 15 16  1  1  0  0  0
 15 17  1  0  0  0  0
 17  2  1  1  0  0  0
 17 18  1  0  0  0  0
 18 19  1  6  0  0  0
 18 20  1  0  0  0  0
 20 21  1  6  0  0  0
 22 21  1  1  0  0  0
 22 23  1  0  0  0  0
 22 30  1  0  0  0  0
 23 24  1  1  0  0  0
 23 25  1  0  0  0  0
 25 26  1  6  0  0  0
 25 27  1  0  0  0  0
 27 28  1  1  0  0  0
 27 29  1  0  0  0  0
 29 30  1  0  0  0  0
 29 31  1  6  0  0  0
 31 32  1  0  0  0  0
M  CHG  5   4   1  11   1  13   1  16   1  26   1
M  END
>  <CHROM.1>
-133.81079184,-162.96432744,43.68251129,-51.52366147,-57.96381046,-67.48022896
-176.53795043,-175.65560605,-171.33248114,91.35365341,-161.16003425,102.34017995
-175.37654017,67.20858151,58.97098092,-177.56532359,-12.05660776,6.61990647
16.77305741,-0.75889642,0.97973007,-2.12078414

>  <Name>
1lc4

>  <RI>
0

>  <Rbt.Current_Directory>
/home/afrankz/demos/rdock_decoys_rna/rnas/1lc4

>  <Rbt.Executable>
rbdock ($Id: //depot/dev/client3/rdock/2013.1/src/exe/rbdock.cxx#4 $)

>  <Rbt.Library>
libRbt.so (2013.1, Build901 2013/11/27)

>  <Rbt.Parameter_File>
/export/apps/rDock/src/rDock_2013.1_src/data/scripts/dock_solv.prm

>  <Rbt.Receptor>
prm/pocket_docking_3.prm

>  <SCORE>
-62.3757

>  <SCORE.INTER>
-45.2031

>  <SCORE.INTER.CONST>
1

>  <SCORE.INTER.POLAR>
-5.63711

>  <SCORE.INTER.ROT>
6

>  <SCORE.INTER.SOLV>
20.8785

>  <SCORE.INTER.VDW>
-25.9045

>  <SCORE.INTER.norm>
-1.4126

>  <SCORE.INTRA>
-17.1726

>  <SCORE.INTRA.DIHEDRAL>
-23.3974

>  <SCORE.INTRA.DIHEDRAL.0>
44.2576

>  <SCORE.INTRA.POLAR>
-0.770496

>  <SCORE.INTRA.POLAR.0>
-0.381556

>  <SCORE.INTRA.REPUL>
0

>  <SCORE.INTRA.REPUL.0>
0

>  <SCORE.INTRA.SOLV>
1.45481

>  <SCORE.INTRA.SOLV.lig_0>
-134.592

>  <SCORE.INTRA.VDW>
-3.58165

>  <SCORE.INTRA.VDW.0>
-1.01417

>  <SCORE.INTRA.norm>
-0.536644

>  <SCORE.RESTR>
0

>  <SCORE.RESTR.CAVITY>
0

>  <SCORE.RESTR.norm>
0

>  <SCORE.SYSTEM>
0

>  <SCORE.SYSTEM.CONST>
0

>  <SCORE.SYSTEM.DIHEDRAL>
0

>  <SCORE.SYSTEM.SOLV>
0

>  <SCORE.SYSTEM.norm>
0

>  <SCORE.heavy>
32

>  <SCORE.norm>
-1.94924

>  <RMSD>
2.110

$$$$
1lc4
 OpenBabel02141814113D
libRbt.so/2013.1/901 2013/11/27
 32 34  0  0  0  0  0  0  0  0999 V2000
  -10.3730    6.3049   19.2711 C   0  0  2  0  0  0  0  0  0  0  0  0
  -11.6598    6.4439   19.8197 O   0  0  0  0  0  0  0  0  0  0  0  0
   -9.9052    4.8541   19.5060 C   0  0  2  0  0  0  0  0  0  0  0  0
  -10.8467    3.9098   18.8964 N   0  3  0  0  0  0  0  0  0  0  0  0
   -9.7396    4.5871   21.0205 C   0  0  0  0  0  0  0  0  0  0  0  0
   -8.7095    5.5958   21.5584 C   0  0  2  0  0  0  0  0  0  0  0  0
   -8.4720    5.3715   22.9522 O   0  0  0  0  0  0  0  0  0  0  0  0
   -9.2199    7.0352   21.2995 C   0  0  2  0  0  0  0  0  0  0  0  0
   -9.4554    7.2416   19.8775 O   0  0  0  0  0  0  0  0  0  0  0  0
   -8.2422    8.1180   21.7494 C   0  0  0  0  0  0  0  0  0  0  0  0
   -7.9218    7.9869   23.1950 N   0  3  0  0  0  0  0  0  0  0  0  0
  -15.1507    6.9536   17.4716 C   0  0  2  0  0  0  0  0  0  0  0  0
  -16.2433    7.5522   16.6831 N   0  3  0  0  0  0  0  0  0  0  0  0
  -15.1814    7.4967   18.8938 C   0  0  0  0  0  0  0  0  0  0  0  0
  -14.0473    6.8842   19.7232 C   0  0  2  0  0  0  0  0  0  0  0  0
  -14.1884    7.3490   21.1256 N   0  3  0  0  0  0  0  0  0  0  0  0
  -12.6568    7.1848   19.0879 C   0  0  2  0  0  0  0  0  0  0  0  0
  -12.6414    6.6855   17.6201 C   0  0  2  0  0  0  0  0  0  0  0  0
  -11.4504    7.1021   16.9972 O   0  0  0  0  0  0  0  0  0  0  0  0
  -13.8091    7.2900   16.8236 C   0  0  1  0  0  0  0  0  0  0  0  0
  -13.7733    6.7784   15.4918 O   0  0  0  0  0  0  0  0  0  0  0  0
  -13.1715    7.5681   14.5246 C   0  0  2  0  0  0  0  0  0  0  0  0
  -14.2390    8.0071   13.5078 C   0  0  2  0  0  0  0  0  0  0  0  0
  -15.2467    8.7389   14.1943 O   0  0  0  0  0  0  0  0  0  0  0  0
  -14.8524    6.7638   12.8402 C   0  0  1  0  0  0  0  0  0  0  0  0
  -15.9127    7.1272   11.8565 N   0  3  0  0  0  0  0  0  0  0  0  0
  -13.7302    5.9461   12.1553 C   0  0  2  0  0  0  0  0  0  0  0  0
  -14.2660    4.7724   11.5485 O   0  0  0  0  0  0  0  0  0  0  0  0
  -12.6402    5.5776   13.1789 C   0  0  2  0  0  0  0  0  0  0  0  0
  -12.1443    6.7860   13.8617 O   0  0  0  0  0  0  0  0  0  0  0  0
  -11.4470    4.9142   12.5276 C   0  0  0  0  0  0  0  0  0  0  0  0
  -11.8004    3.6710   11.9252 O   0  0  0  0  0  0  0  0  0  0  0  0
  1  2  1  1  0  0  0
  1  3  1  0  0  0  0
  1  9  1  0  0  0  0
  3  4  1  1  0  0  0
  3  5  1  0  0  0  0
  5  6  1  0  0  0  0
  6  7  1  1  0  0  0
  6  8  1  0  0  0  0
  8  9  1  0  0  0  0
  8 10  1  6  0  0  0
 10 11  1  0  0  0  0
 12 13  1  6  0  0  0
 12 14  1  0  0  0  0
 12 20  1  0  0  0  0
 14 15  1  0  0  0  0
 15 16  1  1  0  0  0
 15 17  1  0  0  0  0
 17  2  1  1  0  0  0
 17 18  1  0  0  0  0
 18 19  1  6  0  0  0
 18 20  1  0  0  0  0
 20 21  1  6  0  0  0
 22 21  1  1  0  0  0
 22 23  1  0  0  0  0
 22 30  1  0  0  0  0
 23 24  1  1  0  0  0
 23 25  1  0  0  0  0
 25 26  1  6  0  0  0
 25 27  1  0  0  0  0
 27 28  1  1  0  0  0
 27 29  1  0  0  0  0
 29 30  1  0  0  0  0
 29 31  1  6  0  0  0
 31 32  1  0  0  0  0
M  CHG  5   4   1  11   1  13   1  16   1  26   1
M  END
>  <CHROM.1>
-138.20490607,165.96214550,-75.55904745,-70.57623559,-57.44634950,-172.96486918
-85.71753042,-172.89570061,-57.66460224,140.74518174,-114.53480462,66.23753734
-28.68563952,-58.15986873,-63.31367856,-58.73513715,-12.29919991,6.51317385
17.21854799,-1.01162333,0.45866558,-1.85385177

>  <Name>
1lc4

>  <RI>
0

>  <Rbt.Current_Directory>
/home/afrankz/demos/rdock_decoys_rna/rnas/1lc4

>  <Rbt.Executable>
rbdock ($Id: //depot/dev/client3/rdock/2013.1/src/exe/rbdock.cxx#4 $)

>  <Rbt.Library>
libRbt.so (2013.1, Build901 2013/11/27)

>  <Rbt.Parameter_File>
/export/apps/rDock/src/rDock_2013.1_src/data/scripts/dock_solv.prm

>  <Rbt.Receptor>
prm/pocket_docking_4.prm

>  <SCORE>
-53.9959

>  <SCORE.INTER>
-39.6542

>  <SCORE.INTER.CONST>
1

>  <SCORE.INTER.POLAR>
-6.32738

>  <SCORE.INTER.ROT>
6

>  <SCORE.INTER.SOLV>
16.0369

>  <SCORE.INTER.VDW>
-18.2905

>  <SCORE.INTER.norm>
-1.23919

>  <SCORE.INTRA>
-14.3417

>  <SCORE.INTRA.DIHEDRAL>
-20.261

>  <SCORE.INTRA.DIHEDRAL.0>
44.2576

>  <SCORE.INTRA.POLAR>
-0.825656

>  <SCORE.INTRA.POLAR.0>
-0.381556

>  <SCORE.INTRA.REPUL>
0

>  <SCORE.INTRA.REPUL.0>
0

>  <SCORE.INTRA.SOLV>
0.474158

>  <SCORE.INTRA.SOLV.lig_0>
-134.592

>  <SCORE.INTRA.VDW>
-1.64109

>  <SCORE.INTRA.VDW.0>
-1.01417

>  <SCORE.INTRA.norm>
-0.448179

>  <SCORE.RESTR>
0

>  <SCORE.RESTR.CAVITY>
0

>  <SCORE.RESTR.norm>
0

>  <SCORE.SYSTEM>
0

>  <SCORE.SYSTEM.CONST>
0

>  <SCORE.SYSTEM.DIHEDRAL>
0

>  <SCORE.SYSTEM.SOLV>
0

>  <SCORE.SYSTEM.norm>
0

>  <SCORE.heavy>
32

>  <SCORE.norm>
-1.68737

>  <RMSD>
2.187

$$$$
1lc4
 OpenBabel02141814113D
libRbt.so/2013.1/901 2013/11/27
 32 34  0  0  0  0  0  0  0  0999 V2000
  -10.8334    5.4884   18.8786 C   0  0  2  0  0  0  0  0  0  0  0  0
  -12.1092    6.0026   19.1686 O   0  0  0  0  0  0  0  0  0  0  0  0
  -10.7394    4.0710   19.4793 C   0  0  2  0  0  0  0  0  0  0  0  0
  -11.7944    3.2135   18.9302 N   0  3  0  0  0  0  0  0  0  0  0  0
  -10.8155    4.1410   21.0226 C   0  0  0  0  0  0  0  0  0  0  0  0
   -9.6519    5.0254   21.5038 C   0  0  2  0  0  0  0  0  0  0  0  0
   -9.6348    5.0934   22.9336 O   0  0  0  0  0  0  0  0  0  0  0  0
   -9.7870    6.4347   20.8753 C   0  0  2  0  0  0  0  0  0  0  0  0
   -9.8029    6.3426   19.4223 O   0  0  0  0  0  0  0  0  0  0  0  0
   -8.6469    7.3793   21.2479 C   0  0  0  0  0  0  0  0  0  0  0  0
   -7.3435    6.8763   20.7401 N   0  3  0  0  0  0  0  0  0  0  0  0
  -14.9136    8.9308   17.9353 C   0  0  2  0  0  0  0  0  0  0  0  0
  -15.5348   10.1072   17.2997 N   0  3  0  0  0  0  0  0  0  0  0  0
  -13.8104    9.3780   18.8848 C   0  0  0  0  0  0  0  0  0  0  0  0
  -13.1539    8.1630   19.5496 C   0  0  2  0  0  0  0  0  0  0  0  0
  -12.1714    8.6497   20.5497 N   0  3  0  0  0  0  0  0  0  0  0  0
  -12.5562    7.1922   18.4876 C   0  0  2  0  0  0  0  0  0  0  0  0
  -13.6636    6.7804   17.4837 C   0  0  2  0  0  0  0  0  0  0  0  0
  -13.0906    6.0391   16.4338 O   0  0  0  0  0  0  0  0  0  0  0  0
  -14.3256    8.0196   16.8596 C   0  0  1  0  0  0  0  0  0  0  0  0
  -15.3569    7.5934   15.9699 O   0  0  0  0  0  0  0  0  0  0  0  0
  -14.9644    6.9715   14.7950 C   0  0  2  0  0  0  0  0  0  0  0  0
  -15.9089    7.4091   13.6625 C   0  0  2  0  0  0  0  0  0  0  0  0
  -15.8336    8.8228   13.5288 O   0  0  0  0  0  0  0  0  0  0  0  0
  -17.3487    6.9878   14.0049 C   0  0  1  0  0  0  0  0  0  0  0  0
  -18.3160    7.4057   12.9495 N   0  3  0  0  0  0  0  0  0  0  0  0
  -17.3963    5.4542   14.2118 C   0  0  2  0  0  0  0  0  0  0  0  0
  -18.7154    5.0367   14.5558 O   0  0  0  0  0  0  0  0  0  0  0  0
  -16.3931    5.0331   15.3017 C   0  0  2  0  0  0  0  0  0  0  0  0
  -15.0443    5.5346   14.9827 O   0  0  0  0  0  0  0  0  0  0  0  0
  -16.2888    3.5297   15.4310 C   0  0  0  0  0  0  0  0  0  0  0  0
  -15.8732    2.9244   14.2086 O   0  0  0  0  0  0  0  0  0  0  0  0
  1  2  1  1  0  0  0
  1  3  1  0  0  0  0
  1  9  1  0  0  0  0
  3  4  1  6  0  0  0
  3  5  1  0  0  0  0
  5  6  1  0  0  0  0
  6  7  1  1  0  0  0
  6  8  1  0  0  0  0
  8  9  1  0  0  0  0
  8 10  1  6  0  0  0
 10 11  1  0  0  0  0
 12 13  1  6  0  0  0
 12 14  1  0  0  0  0
 12 20  1  0  0  0  0
 14 15  1  0  0  0  0
 15 16  1  1  0  0  0
 15 17  1  0  0  0  0
 17  2  1  1  0  0  0
 17 18  1  0  0  0  0
 18 19  1  6  0  0  0
 18 20  1  0  0  0  0
 20 21  1  6  0  0  0
 22 21  1  1  0  0  0
 22 23  1  0  0  0  0
 22 30  1  0  0  0  0
 23 24  1  1  0  0  0
 23 25  1  0  0  0  0
 25 26  1  6  0  0  0
 25 27  1  0  0  0  0
 27 28  1  1  0  0  0
 27 29  1  0  0  0  0
 29 30  1  0  0  0  0
 29 31  1  6  0  0  0
 31 32  1  0  0  0  0
M  CHG  5   4   1  11   1  13   1  16   1  26   1
M  END
>  <CHROM.1>
-167.17583712,-132.90747325,-177.43876344,179.18087514,62.84485339,128.95292028
62.30827015,151.31443183,-55.82895541,168.09032005,-142.76947834,61.36566976
78.10729736,179.69224058,59.27626344,64.31562585,-13.49590725,6.43480066
17.51894975,-0.06170439,0.74861173,-2.99015075

>  <Name>
1lc4

>  <RI>
0

>  <Rbt.Current_Directory>
/home/afrankz/demos/rdock_decoys_rna/rnas/1lc4

>  <Rbt.Executable>
rbdock ($Id: //depot/dev/client3/rdock/2013.1/src/exe/rbdock.cxx#4 $)

>  <Rbt.Library>
libRbt.so (2013.1, Build901 2013/11/27)

>  <Rbt.Parameter_File>
/export/apps/rDock/src/rDock_2013.1_src/data/scripts/dock_solv.prm

>  <Rbt.Receptor>
prm/pocket_docking_5.prm

>  <SCORE>
-48.3831

>  <SCORE.INTER>
-34.478

>  <SCORE.INTER.CONST>
1

>  <SCORE.INTER.POLAR>
-5.15874

>  <SCORE.INTER.ROT>
6

>  <SCORE.INTER.SOLV>
25.2998

>  <SCORE.INTER.VDW>
-21.8228

>  <SCORE.INTER.norm>
-1.07744

>  <SCORE.INTRA>
-13.9051

>  <SCORE.INTRA.DIHEDRAL>
-25.3098

>  <SCORE.INTRA.DIHEDRAL.0>
44.2576

>  <SCORE.INTRA.POLAR>
0.354916

>  <SCORE.INTRA.POLAR.0>
-0.381556

>  <SCORE.INTRA.REPUL>
0

>  <SCORE.INTRA.REPUL.0>
0

>  <SCORE.INTRA.SOLV>
-1.03956

>  <SCORE.INTRA.SOLV.lig_0>
-134.592

>  <SCORE.INTRA.VDW>
-1.93714

>  <SCORE.INTRA.VDW.0>
-1.01417

>  <SCORE.INTRA.norm>
-0.434534

>  <SCORE.RESTR>
0

>  <SCORE.RESTR.CAVITY>
0

>  <SCORE.RESTR.norm>
0

>  <SCORE.SYSTEM>
0

>  <SCORE.SYSTEM.CONST>
0

>  <SCORE.SYSTEM.DIHEDRAL>
0

>  <SCORE.SYSTEM.SOLV>
0

>  <SCORE.SYSTEM.norm>
0

>  <SCORE.heavy>
32

>  <SCORE.norm>
-1.51197

>  <RMSD>
2.251

$$$$
1lc4
 OpenBabel02141814113D
libRbt.so/2013.1/901 2013/11/27
 32 34  0  0  0  0  0  0  0  0999 V2000
  -10.1069    5.9714   19.5910 C   0  0  2  0  0  0  0  0  0  0  0  0
  -11.1551    6.7869   20.0517 O   0  0  0  0  0  0  0  0  0  0  0  0
  -10.1884    4.6211   20.3318 C   0  0  2  0  0  0  0  0  0  0  0  0
  -11.4918    3.9906   20.1009 N   0  3  0  0  0  0  0  0  0  0  0  0
   -9.9201    4.8254   21.8414 C   0  0  0  0  0  0  0  0  0  0  0  0
   -8.5216    5.4516   21.9824 C   0  0  2  0  0  0  0  0  0  0  0  0
   -8.1887    5.6237   23.3640 O   0  0  0  0  0  0  0  0  0  0  0  0
   -8.4869    6.8014   21.2232 C   0  0  2  0  0  0  0  0  0  0  0  0
   -8.8287    6.6038   19.8217 O   0  0  0  0  0  0  0  0  0  0  0  0
   -7.1212    7.4831   21.2554 C   0  0  0  0  0  0  0  0  0  0  0  0
   -6.7787    7.9373   22.6287 N   0  3  0  0  0  0  0  0  0  0  0  0
  -13.7672    9.5450   18.1728 C   0  0  2  0  0  0  0  0  0  0  0  0
  -14.2941   10.6982   17.4203 N   0  3  0  0  0  0  0  0  0  0  0  0
  -13.0022   10.0314   19.3962 C   0  0  0  0  0  0  0  0  0  0  0  0
  -12.4460    8.8411   20.1855 C   0  0  2  0  0  0  0  0  0  0  0  0
  -11.8138    9.3553   21.4258 N   0  3  0  0  0  0  0  0  0  0  0  0
  -11.5038    7.9687   19.3030 C   0  0  2  0  0  0  0  0  0  0  0  0
  -12.2613    7.5197   18.0269 C   0  0  2  0  0  0  0  0  0  0  0  0
  -11.3659    6.8735   17.1548 O   0  0  0  0  0  0  0  0  0  0  0  0
  -12.8359    8.7319   17.2759 C   0  0  1  0  0  0  0  0  0  0  0  0
  -13.5498    8.2691   16.1301 O   0  0  0  0  0  0  0  0  0  0  0  0
  -13.8860    6.9250   16.0921 C   0  0  2  0  0  0  0  0  0  0  0  0
  -13.4426    6.3407   14.7399 C   0  0  2  0  0  0  0  0  0  0  0  0
  -12.0363    6.5077   14.6120 O   0  0  0  0  0  0  0  0  0  0  0  0
  -14.1672    7.0789   13.6008 C   0  0  1  0  0  0  0  0  0  0  0  0
  -13.7599    6.5683   12.2601 N   0  3  0  0  0  0  0  0  0  0  0  0
  -15.6970    6.9412   13.7951 C   0  0  2  0  0  0  0  0  0  0  0  0
  -16.3964    7.6380   12.7664 O   0  0  0  0  0  0  0  0  0  0  0  0
  -16.1066    7.4694   15.1825 C   0  0  2  0  0  0  0  0  0  0  0  0
  -15.3246    6.8032   16.2394 O   0  0  0  0  0  0  0  0  0  0  0  0
  -17.5669    7.2131   15.4820 C   0  0  0  0  0  0  0  0  0  0  0  0
  -18.4162    7.7956   14.4957 O   0  0  0  0  0  0  0  0  0  0  0  0
  1  2  1  1  0  0  0
  1  3  1  0  0  0  0
  1  9  1  0  0  0  0
  3  4  1  1  0  0  0
  3  5  1  0  0  0  0
  5  6  1  0  0  0  0
  6  7  1  1  0  0  0
  6  8  1  0  0  0  0
  8  9  1  0  0  0  0
  8 10  1  6  0  0  0
 10 11  1  0  0  0  0
 12 13  1  6  0  0  0
 12 14  1  0  0  0  0
 12 20  1  0  0  0  0
 14 15  1  0  0  0  0
 15 16  1  1  0  0  0
 15 17  1  0  0  0  0
 17  2  1  1  0  0  0
 17 18  1  0  0  0  0
 18 19  1  6  0  0  0
 18 20  1  0  0  0  0
 20 21  1  6  0  0  0
 22 21  1  6  0  0  0
 22 23  1  0  0  0  0
 22 30  1  0  0  0  0
 23 24  1  6  0  0  0
 23 25  1  0  0  0  0
 25 26  1  6  0  0  0
 25 27  1  0  0  0  0
 27 28  1  6  0  0  0
 27 29  1  0  0  0  0
 29 30  1  0  0  0  0
 29 31  1  1  0  0  0
 31 32  1  0  0  0  0
M  CHG  5   4   1  11   1  13   1  16   1  26   1
M  END
>  <CHROM.1>
-165.19450569,-167.25392160,77.04378668,-50.85796463,-67.59949785,172.36759689
54.07915562,-76.42705412,74.54183842,-105.90576367,-129.65634823,38.28486149
-176.85834256,65.99457235,-57.41295479,-62.12948011,-12.33037968,7.23166772
17.98347728,-0.48344860,0.69760572,-2.32757351

>  <Name>
1lc4

>  <RI>
0

>  <Rbt.Current_Directory>
/home/afrankz/demos/rdock_decoys_rna/rnas/1lc4

>  <Rbt.Executable>
rbdock ($Id: //depot/dev/client3/rdock/2013.1/src/exe/rbdock.cxx#4 $)

>  <Rbt.Library>
libRbt.so (2013.1, Build901 2013/11/27)

>  <Rbt.Parameter_File>
/export/apps/rDock/src/rDock_2013.1_src/data/scripts/dock_solv.prm

>  <Rbt.Receptor>
prm/pocket_docking_3.prm

>  <SCORE>
-56.1936

>  <SCORE.INTER>
-41.1937

>  <SCORE.INTER.CONST>
1

>  <SCORE.INTER.POLAR>
-5.58291

>  <SCORE.INTER.ROT>
6

>  <SCORE.INTER.SOLV>
19.6412

>  <SCORE.INTER.VDW>
-22.9998

>  <SCORE.INTER.norm>
-1.2873

>  <SCORE.INTRA>
-15

>  <SCORE.INTRA.DIHEDRAL>
-23.9069

>  <SCORE.INTRA.DIHEDRAL.0>
44.2576

>  <SCORE.INTRA.POLAR>
-1.15424

>  <SCORE.INTRA.POLAR.0>
-0.381556

>  <SCORE.INTRA.REPUL>
0

>  <SCORE.INTRA.REPUL.0>
0

>  <SCORE.INTRA.SOLV>
-2.47812

>  <SCORE.INTRA.SOLV.lig_0>
-134.592

>  <SCORE.INTRA.VDW>
2.11697

>  <SCORE.INTRA.VDW.0>
-1.01417

>  <SCORE.INTRA.norm>
-0.468749

>  <SCORE.RESTR>
0

>  <SCORE.RESTR.CAVITY>
0

>  <SCORE.RESTR.norm>
0

>  <SCORE.SYSTEM>
0

>  <SCORE.SYSTEM.CONST>
0

>  <SCORE.SYSTEM.DIHEDRAL>
0

>  <SCORE.SYSTEM.SOLV>
0

>  <SCORE.SYSTEM.norm>
0

>  <SCORE.heavy>
32

>  <SCORE.norm>
-1.75605

>  <RMSD>
2.288

$$$$
1lc4
 OpenBabel02141814113D
libRbt.so/2013.1/901 2013/11/27
 32 34  0  0  0  0  0  0  0  0999 V2000
  -10.1121    6.2084   19.5352 C   0  0  2  0  0  0  0  0  0  0  0  0
  -11.0984    7.0702   20.0458 O   0  0  0  0  0  0  0  0  0  0  0  0
  -10.2876    4.8292   20.2028 C   0  0  2  0  0  0  0  0  0  0  0  0
  -11.6332    4.3063   19.9467 N   0  3  0  0  0  0  0  0  0  0  0  0
  -10.0016    4.9319   21.7194 C   0  0  0  0  0  0  0  0  0  0  0  0
   -8.5617    5.4488   21.8849 C   0  0  2  0  0  0  0  0  0  0  0  0
   -8.2138    5.5218   23.2716 O   0  0  0  0  0  0  0  0  0  0  0  0
   -8.4328    6.8318   21.1992 C   0  0  2  0  0  0  0  0  0  0  0  0
   -8.7915    6.7351   19.7913 O   0  0  0  0  0  0  0  0  0  0  0  0
   -7.0220    7.4121   21.2592 C   0  0  0  0  0  0  0  0  0  0  0  0
   -6.6485    7.7758   22.6513 N   0  3  0  0  0  0  0  0  0  0  0  0
  -13.7898    9.6072   17.9770 C   0  0  2  0  0  0  0  0  0  0  0  0
  -14.3559   10.7158   17.1868 N   0  3  0  0  0  0  0  0  0  0  0  0
  -13.1613   10.1499   19.2533 C   0  0  0  0  0  0  0  0  0  0  0  0
  -12.5655    9.0066   20.0823 C   0  0  2  0  0  0  0  0  0  0  0  0
  -12.0726    9.5657   21.3657 N   0  3  0  0  0  0  0  0  0  0  0  0
  -11.4901    8.2223   19.2726 C   0  0  2  0  0  0  0  0  0  0  0  0
  -12.1105    7.7179   17.9443 C   0  0  2  0  0  0  0  0  0  0  0  0
  -11.1015    7.1549   17.1412 O   0  0  0  0  0  0  0  0  0  0  0  0
  -12.7290    8.8812   17.1520 C   0  0  1  0  0  0  0  0  0  0  0  0
  -13.3145    8.3659   15.9568 O   0  0  0  0  0  0  0  0  0  0  0  0
  -13.7748    7.0589   15.9880 C   0  0  2  0  0  0  0  0  0  0  0  0
  -13.2363    6.3136   14.7548 C   0  0  2  0  0  0  0  0  0  0  0  0
  -11.8151    6.3438   14.7905 O   0  0  0  0  0  0  0  0  0  0  0  0
  -13.7465    7.0025   13.4770 C   0  0  1  0  0  0  0  0  0  0  0  0
  -13.2377    6.3345   12.2444 N   0  3  0  0  0  0  0  0  0  0  0  0
  -15.2946    7.0185   13.4890 C   0  0  2  0  0  0  0  0  0  0  0  0
  -15.7970    7.6744   12.3270 O   0  0  0  0  0  0  0  0  0  0  0  0
  -15.8095    7.7084   14.7659 C   0  0  2  0  0  0  0  0  0  0  0  0
  -15.2258    7.0783   15.9637 O   0  0  0  0  0  0  0  0  0  0  0  0
  -17.3129    7.6106   14.9006 C   0  0  0  0  0  0  0  0  0  0  0  0
  -17.9697    8.7097   14.2730 O   0  0  0  0  0  0  0  0  0  0  0  0
  1  2  1  1  0  0  0
  1  3  1  0  0  0  0
  1  9  1  0  0  0  0
  3  4  1  1  0  0  0
  3  5  1  0  0  0  0
  5  6  1  0  0  0  0
  6  7  1  1  0  0  0
  6  8  1  0  0  0  0
  8  9  1  0  0  0  0
  8 10  1  6  0  0  0
 10 11  1  0  0  0  0
 12 13  1  6  0  0  0
 12 14  1  0  0  0  0
 12 20  1  0  0  0  0
 14 15  1  0  0  0  0
 15 16  1  1  0  0  0
 15 17  1  0  0  0  0
 17  2  1  1  0  0  0
 17 18  1  0  0  0  0
 18 19  1  6  0  0  0
 18 20  1  0  0  0  0
 20 21  1  6  0  0  0
 22 21  1  6  0  0  0
 22 23  1  0  0  0  0
 22 30  1  0  0  0  0
 23 24  1  6  0  0  0
 23 25  1  0  0  0  0
 25 26  1  6  0  0  0
 25 27  1  0  0  0  0
 27 28  1  6  0  0  0
 27 29  1  0  0  0  0
 29 30  1  0  0  0  0
 29 31  1  1  0  0  0
 31 32  1  0  0  0  0
M  CHG  5   4   1  11   1  13   1  16   1  26   1
M  END
>  <CHROM.1>
-157.00219131,-178.85311871,74.23197527,-48.69221735,-68.04776336,176.60355775
46.88719038,49.64608294,-41.83694627,-93.44652493,-131.26199121,53.32612638
-54.18954420,-74.98357620,-89.69081481,55.54267629,-12.20953918,7.36389153
17.85554108,-0.55166714,0.69574334,-2.22425845

>  <Name>
1lc4

>  <RI>
0

>  <Rbt.Current_Directory>
/home/afrankz/demos/rdock_decoys_rna/rnas/1lc4

>  <Rbt.Executable>
rbdock ($Id: //depot/dev/client3/rdock/2013.1/src/exe/rbdock.cxx#4 $)

>  <Rbt.Library>
libRbt.so (2013.1, Build901 2013/11/27)

>  <Rbt.Parameter_File>
/export/apps/rDock/src/rDock_2013.1_src/data/scripts/dock_solv.prm

>  <Rbt.Receptor>
prm/pocket_docking_6.prm

>  <SCORE>
-64.5778

>  <SCORE.INTER>
-49.6273

>  <SCORE.INTER.CONST>
1

>  <SCORE.INTER.POLAR>
-6.92367

>  <SCORE.INTER.ROT>
6

>  <SCORE.INTER.SOLV>
20.3893

>  <SCORE.INTER.VDW>
-24.4024

>  <SCORE.INTER.norm>
-1.55085

>  <SCORE.INTRA>
-15.1221

>  <SCORE.INTRA.DIHEDRAL>
-23.4624

>  <SCORE.INTRA.DIHEDRAL.0>
44.2576

>  <SCORE.INTRA.POLAR>
-0.63044

>  <SCORE.INTRA.POLAR.0>
-0.381556

>  <SCORE.INTRA.REPUL>
0

>  <SCORE.INTRA.REPUL.0>
0

>  <SCORE.INTRA.SOLV>
-3.05063

>  <SCORE.INTRA.SOLV.lig_0>
-134.592

>  <SCORE.INTRA.VDW>
0.277959

>  <SCORE.INTRA.VDW.0>
-1.01417

>  <SCORE.INTRA.norm>
-0.472564

>  <SCORE.RESTR>
0.171582

>  <SCORE.RESTR.CAVITY>
0.171582

>  <SCORE.RESTR.norm>
0.00536192

>  <SCORE.SYSTEM>
0

>  <SCORE.SYSTEM.CONST>
0

>  <SCORE.SYSTEM.DIHEDRAL>
0

>  <SCORE.SYSTEM.SOLV>
0

>  <SCORE.SYSTEM.norm>
0

>  <SCORE.heavy>
32

>  <SCORE.norm>
-2.01806

>  <RMSD>
2.305

$$$$
1lc4
 OpenBabel02141814113D
libRbt.so/2013.1/901 2013/11/27
 32 34  0  0  0  0  0  0  0  0999 V2000
  -10.6647    7.7534   21.2658 C   0  0  2  0  0  0  0  0  0  0  0  0
  -10.9485    7.6911   19.8904 O   0  0  0  0  0  0  0  0  0  0  0  0
   -9.1491    7.5370   21.4533 C   0  0  2  0  0  0  0  0  0  0  0  0
   -8.3936    8.5496   20.7093 N   0  3  0  0  0  0  0  0  0  0  0  0
   -8.7577    6.1062   21.0151 C   0  0  0  0  0  0  0  0  0  0  0  0
   -9.5690    5.1206   21.8744 C   0  0  2  0  0  0  0  0  0  0  0  0
   -9.2177    3.7709   21.5519 O   0  0  0  0  0  0  0  0  0  0  0  0
  -11.0810    5.3758   21.6553 C   0  0  2  0  0  0  0  0  0  0  0  0
  -11.4163    6.7531   21.9881 O   0  0  0  0  0  0  0  0  0  0  0  0
  -11.9791    4.4820   22.5069 C   0  0  0  0  0  0  0  0  0  0  0  0
  -13.3795    4.9803   22.5178 N   0  3  0  0  0  0  0  0  0  0  0  0
  -14.0929   10.0438   18.2973 C   0  0  2  0  0  0  0  0  0  0  0  0
  -14.8509   11.1299   17.6495 N   0  3  0  0  0  0  0  0  0  0  0  0
  -13.3819   10.5755   19.5343 C   0  0  0  0  0  0  0  0  0  0  0  0
  -12.5867    9.4559   20.2151 C   0  0  2  0  0  0  0  0  0  0  0  0
  -12.0105    9.9892   21.4746 N   0  3  0  0  0  0  0  0  0  0  0  0
  -11.5366    8.8379   19.2441 C   0  0  2  0  0  0  0  0  0  0  0  0
  -12.2492    8.3479   17.9573 C   0  0  2  0  0  0  0  0  0  0  0  0
  -11.2859    7.9421   17.0153 O   0  0  0  0  0  0  0  0  0  0  0  0
  -13.0648    9.4828   17.3168 C   0  0  1  0  0  0  0  0  0  0  0  0
  -13.7268    8.9782   16.1576 O   0  0  0  0  0  0  0  0  0  0  0  0
  -13.7989    9.8136   15.0539 C   0  0  2  0  0  0  0  0  0  0  0  0
  -15.2463    9.8238   14.5330 C   0  0  2  0  0  0  0  0  0  0  0  0
  -16.0991   10.2916   15.5702 O   0  0  0  0  0  0  0  0  0  0  0  0
  -15.6517    8.3981   14.1195 C   0  0  1  0  0  0  0  0  0  0  0  0
  -17.0574    8.3416   13.6245 N   0  3  0  0  0  0  0  0  0  0  0  0
  -14.6715    7.8821   13.0379 C   0  0  2  0  0  0  0  0  0  0  0  0
  -15.0076    6.5512   12.6526 O   0  0  0  0  0  0  0  0  0  0  0  0
  -13.2235    7.9463   13.5582 C   0  0  2  0  0  0  0  0  0  0  0  0
  -12.9047    9.3059   14.0298 O   0  0  0  0  0  0  0  0  0  0  0  0
  -12.2157    7.6010   12.4844 C   0  0  0  0  0  0  0  0  0  0  0  0
  -12.4407    6.2977   11.9515 O   0  0  0  0  0  0  0  0  0  0  0  0
  1  2  1  6  0  0  0
  1  3  1  0  0  0  0
  1  9  1  0  0  0  0
  3  4  1  6  0  0  0
  3  5  1  0  0  0  0
  5  6  1  0  0  0  0
  6  7  1  6  0  0  0
  6  8  1  0  0  0  0
  8  9  1  0  0  0  0
  8 10  1  1  0  0  0
 10 11  1  0  0  0  0
 12 13  1  6  0  0  0
 12 14  1  0  0  0  0
 12 20  1  0  0  0  0
 14 15  1  0  0  0  0
 15 16  1  1  0  0  0
 15 17  1  0  0  0  0
 17  2  1  1  0  0  0
 17 18  1  0  0  0  0
 18 19  1  6  0  0  0
 18 20  1  0  0  0  0
 20 21  1  6  0  0  0
 22 21  1  1  0  0  0
 22 23  1  0  0  0  0
 22 30  1  0  0  0  0
 23 24  1  1  0  0  0
 23 25  1  0  0  0  0
 25 26  1  6  0  0  0
 25 27  1  0  0  0  0
 27 28  1  1  0  0  0
 27 29  1  0  0  0  0
 29 30  1  0  0  0  0
 29 31  1  6  0  0  0
 31 32  1  0  0  0  0
M  CHG  5   4   1  11   1  13   1  16   1  26   1
M  END
>  <CHROM.1>
-120.03063856,-39.35993281,-112.22102376,-167.87423440,166.00087574,-45.97120071
-41.09621788,21.11928795,63.93103877,96.83807525,-131.85665764,176.61625671
44.11002887,-49.48587504,-58.34155504,177.93466197,-12.57625928,7.95636559
17.85107083,0.74633696,-0.90681934,1.12732103

>  <Name>
1lc4

>  <RI>
0

>  <Rbt.Current_Directory>
/home/afrankz/demos/rdock_decoys_rna/rnas/1lc4

>  <Rbt.Executable>
rbdock ($Id: //depot/dev/client3/rdock/2013.1/src/exe/rbdock.cxx#4 $)

>  <Rbt.Library>
libRbt.so (2013.1, Build901 2013/11/27)

>  <Rbt.Parameter_File>
/export/apps/rDock/src/rDock_2013.1_src/data/scripts/dock_solv.prm

>  <Rbt.Receptor>
prm/blind_docking_80.prm

>  <SCORE>
-23.8742

>  <SCORE.INTER>
-21.9795

>  <SCORE.INTER.CONST>
1

>  <SCORE.INTER.POLAR>
-6.54651

>  <SCORE.INTER.ROT>
6

>  <SCORE.INTER.SOLV>
35.8573

>  <SCORE.INTER.VDW>
-12.3838

>  <SCORE.INTER.norm>
-0.68686

>  <SCORE.INTRA>
-5.60095

>  <SCORE.INTRA.DIHEDRAL>
-13.7654

>  <SCORE.INTRA.DIHEDRAL.0>
44.2576

>  <SCORE.INTRA.POLAR>
-0.779578

>  <SCORE.INTRA.POLAR.0>
-0.381556

>  <SCORE.INTRA.REPUL>
0.0885705

>  <SCORE.INTRA.REPUL.0>
0

>  <SCORE.INTRA.SOLV>
2.82126

>  <SCORE.INTRA.SOLV.lig_0>
-134.592

>  <SCORE.INTRA.VDW>
2.07884

>  <SCORE.INTRA.VDW.0>
-1.01417

>  <SCORE.INTRA.norm>
-0.17503

>  <SCORE.RESTR>
3.70631

>  <SCORE.RESTR.CAVITY>
3.70631

>  <SCORE.RESTR.norm>
0.115822

>  <SCORE.SYSTEM>
0

>  <SCORE.SYSTEM.CONST>
0

>  <SCORE.SYSTEM.DIHEDRAL>
0

>  <SCORE.SYSTEM.SOLV>
0

>  <SCORE.SYSTEM.norm>
0

>  <SCORE.heavy>
32

>  <SCORE.norm>
-0.746068

>  <RMSD>
2.334

$$$$
1lc4
 OpenBabel02141814113D
libRbt.so/2013.1/901 2013/11/27
 32 34  0  0  0  0  0  0  0  0999 V2000
  -10.4548    6.3412   19.8494 C   0  0  2  0  0  0  0  0  0  0  0  0
  -11.3743    7.2370   20.4222 O   0  0  0  0  0  0  0  0  0  0  0  0
  -10.7555    4.9303   20.3951 C   0  0  2  0  0  0  0  0  0  0  0  0
  -12.1355    4.5462   20.0825 N   0  3  0  0  0  0  0  0  0  0  0  0
  -10.4872    4.8804   21.9177 C   0  0  0  0  0  0  0  0  0  0  0  0
   -9.0123    5.2583   22.1404 C   0  0  2  0  0  0  0  0  0  0  0  0
   -8.6827    5.1846   23.5315 O   0  0  0  0  0  0  0  0  0  0  0  0
   -8.7574    6.6783   21.5765 C   0  0  2  0  0  0  0  0  0  0  0  0
   -9.0993    6.7312   20.1622 O   0  0  0  0  0  0  0  0  0  0  0  0
   -7.3044    7.1305   21.6993 C   0  0  0  0  0  0  0  0  0  0  0  0
   -7.1902    8.6090   21.5953 N   0  3  0  0  0  0  0  0  0  0  0  0
  -13.9048    9.7719   18.1572 C   0  0  2  0  0  0  0  0  0  0  0  0
  -14.4294   10.9113   17.3823 N   0  3  0  0  0  0  0  0  0  0  0  0
  -13.5404   10.2267   19.5638 C   0  0  0  0  0  0  0  0  0  0  0  0
  -12.9900    9.0511   20.3788 C   0  0  2  0  0  0  0  0  0  0  0  0
  -12.7614    9.5120   21.7709 N   0  3  0  0  0  0  0  0  0  0  0  0
  -11.7339    8.4303   19.6974 C   0  0  2  0  0  0  0  0  0  0  0  0
  -12.0853    8.0191   18.2444 C   0  0  2  0  0  0  0  0  0  0  0  0
  -10.9147    7.6124   17.5777 O   0  0  0  0  0  0  0  0  0  0  0  0
  -12.6658    9.2093   17.4635 C   0  0  1  0  0  0  0  0  0  0  0  0
  -13.0034    8.7765   16.1461 O   0  0  0  0  0  0  0  0  0  0  0  0
  -13.5306    7.5015   16.0126 C   0  0  2  0  0  0  0  0  0  0  0  0
  -13.7442    7.2070   14.5180 C   0  0  2  0  0  0  0  0  0  0  0  0
  -12.4910    7.3017   13.8526 O   0  0  0  0  0  0  0  0  0  0  0  0
  -14.7319    8.2301   13.9304 C   0  0  1  0  0  0  0  0  0  0  0  0
  -14.9626    8.0071   12.4740 N   0  3  0  0  0  0  0  0  0  0  0  0
  -16.0669    8.1575   14.7113 C   0  0  2  0  0  0  0  0  0  0  0  0
  -16.9951    9.1138   14.2048 O   0  0  0  0  0  0  0  0  0  0  0  0
  -15.8175    8.3873   16.2135 C   0  0  2  0  0  0  0  0  0  0  0  0
  -14.7985    7.4487   16.7166 O   0  0  0  0  0  0  0  0  0  0  0  0
  -17.0666    8.1709   17.0387 C   0  0  0  0  0  0  0  0  0  0  0  0
  -18.1252    9.0326   16.6262 O   0  0  0  0  0  0  0  0  0  0  0  0
  1  2  1  1  0  0  0
  1  3  1  0  0  0  0
  1  9  1  0  0  0  0
  3  4  1  1  0  0  0
  3  5  1  0  0  0  0
  5  6  1  0  0  0  0
  6  7  1  1  0  0  0
  6  8  1  0  0  0  0
  8  9  1  0  0  0  0
  8 10  1  6  0  0  0
 10 11  1  0  0  0  0
 12 13  1  6  0  0  0
 12 14  1  0  0  0  0
 12 20  1  0  0  0  0
 14 15  1  0  0  0  0
 15 16  1  1  0  0  0
 15 17  1  0  0  0  0
 17  2  1  1  0  0  0
 17 18  1  0  0  0  0
 18 19  1  6  0  0  0
 18 20  1  0  0  0  0
 20 21  1  6  0  0  0
 22 21  1  6  0  0  0
 22 23  1  0  0  0  0
 22 30  1  0  0  0  0
 23 24  1  6  0  0  0
 23 25  1  0  0  0  0
 25 26  1  6  0  0  0
 25 27  1  0  0  0  0
 27 28  1  6  0  0  0
 27 29  1  0  0  0  0
 29 30  1  0  0  0  0
 29 31  1  1  0  0  0
 31 32  1  0  0  0  0
M  CHG  5   4   1  11   1  13   1  16   1  26   1
M  END
>  <CHROM.1>
-152.25682431,166.68218298,-57.23559782,-62.22797381,-160.44202867,-71.58099659
65.27990200,-56.36223457,-47.16683861,-84.43145119,-176.70360473,74.99824501
-56.53798286,54.47696137,-58.38393187,-174.93861070,-12.56426849,7.75687442
18.29542233,-0.63005712,0.58101921,-1.91468214

>  <Name>
1lc4

>  <RI>
0

>  <Rbt.Current_Directory>
/home/afrankz/demos/rdock_decoys_rna/rnas/1lc4

>  <Rbt.Executable>
rbdock ($Id: //depot/dev/client3/rdock/2013.1/src/exe/rbdock.cxx#4 $)

>  <Rbt.Library>
libRbt.so (2013.1, Build901 2013/11/27)

>  <Rbt.Parameter_File>
/export/apps/rDock/src/rDock_2013.1_src/data/scripts/dock_solv.prm

>  <Rbt.Receptor>
prm/pocket_docking_6.prm

>  <SCORE>
-67.2011

>  <SCORE.INTER>
-50.8664

>  <SCORE.INTER.CONST>
1

>  <SCORE.INTER.POLAR>
-8.0443

>  <SCORE.INTER.ROT>
6

>  <SCORE.INTER.SOLV>
27.521

>  <SCORE.INTER.VDW>
-23.8702

>  <SCORE.INTER.norm>
-1.58957

>  <SCORE.INTRA>
-16.3471

>  <SCORE.INTRA.DIHEDRAL>
-33.6293

>  <SCORE.INTRA.DIHEDRAL.0>
44.2576

>  <SCORE.INTRA.POLAR>
0.380045

>  <SCORE.INTRA.POLAR.0>
-0.381556

>  <SCORE.INTRA.REPUL>
0.0155404

>  <SCORE.INTRA.REPUL.0>
0

>  <SCORE.INTRA.SOLV>
-3.20998

>  <SCORE.INTRA.SOLV.lig_0>
-134.592

>  <SCORE.INTRA.VDW>
0.702637

>  <SCORE.INTRA.VDW.0>
-1.01417

>  <SCORE.INTRA.norm>
-0.510848

>  <SCORE.RESTR>
0.0124376

>  <SCORE.RESTR.CAVITY>
0.0124376

>  <SCORE.RESTR.norm>
0.000388676

>  <SCORE.SYSTEM>
0

>  <SCORE.SYSTEM.CONST>
0

>  <SCORE.SYSTEM.DIHEDRAL>
0

>  <SCORE.SYSTEM.SOLV>
0

>  <SCORE.SYSTEM.norm>
0

>  <SCORE.heavy>
32

>  <SCORE.norm>
-2.10003

>  <RMSD>
2.334

$$$$
1lc4
 OpenBabel02141814113D
libRbt.so/2013.1/901 2013/11/27
 32 34  0  0  0  0  0  0  0  0999 V2000
   -9.9443    6.1626   19.8334 C   0  0  2  0  0  0  0  0  0  0  0  0
  -10.9637    7.0150   20.2919 O   0  0  0  0  0  0  0  0  0  0  0  0
  -10.2026    4.7541   20.4064 C   0  0  2  0  0  0  0  0  0  0  0  0
  -11.5240    4.2704   19.9943 N   0  3  0  0  0  0  0  0  0  0  0  0
  -10.0639    4.7727   21.9468 C   0  0  0  0  0  0  0  0  0  0  0  0
   -8.6400    5.2532   22.2776 C   0  0  2  0  0  0  0  0  0  0  0  0
   -8.4276    5.2477   23.6933 O   0  0  0  0  0  0  0  0  0  0  0  0
   -8.4264    6.6672   21.6824 C   0  0  2  0  0  0  0  0  0  0  0  0
   -8.6478    6.6505   20.2434 O   0  0  0  0  0  0  0  0  0  0  0  0
   -7.0203    7.2172   21.9089 C   0  0  0  0  0  0  0  0  0  0  0  0
   -6.9781    8.6886   21.7018 N   0  3  0  0  0  0  0  0  0  0  0  0
  -13.6589    9.4640   18.1243 C   0  0  2  0  0  0  0  0  0  0  0  0
  -14.2270   10.5410   17.2931 N   0  3  0  0  0  0  0  0  0  0  0  0
  -13.0378   10.0546   19.3828 C   0  0  0  0  0  0  0  0  0  0  0  0
  -12.4400    8.9444   20.2542 C   0  0  2  0  0  0  0  0  0  0  0  0
  -11.9546    9.5511   21.5187 N   0  3  0  0  0  0  0  0  0  0  0  0
  -11.3578    8.1370   19.4768 C   0  0  2  0  0  0  0  0  0  0  0  0
  -11.9707    7.5827   18.1650 C   0  0  2  0  0  0  0  0  0  0  0  0
  -10.9560    6.9963   17.3862 O   0  0  0  0  0  0  0  0  0  0  0  0
  -12.5916    8.7141   17.3296 C   0  0  1  0  0  0  0  0  0  0  0  0
  -13.1700    8.1539   16.1513 O   0  0  0  0  0  0  0  0  0  0  0  0
  -14.1924    7.2337   16.3221 C   0  0  2  0  0  0  0  0  0  0  0  0
  -14.0105    6.0952   15.3038 C   0  0  2  0  0  0  0  0  0  0  0  0
  -12.7459    5.4842   15.5266 O   0  0  0  0  0  0  0  0  0  0  0  0
  -14.0751    6.6687   13.8775 C   0  0  1  0  0  0  0  0  0  0  0  0
  -13.8830    5.6110   12.8438 N   0  3  0  0  0  0  0  0  0  0  0  0
  -15.4320    7.3869   13.6771 C   0  0  2  0  0  0  0  0  0  0  0  0
  -15.5107    7.9515   12.3703 O   0  0  0  0  0  0  0  0  0  0  0  0
  -15.6211    8.4755   14.7499 C   0  0  2  0  0  0  0  0  0  0  0  0
  -15.4603    7.9035   16.0988 O   0  0  0  0  0  0  0  0  0  0  0  0
  -16.9980    9.0991   14.6932 C   0  0  0  0  0  0  0  0  0  0  0  0
  -18.0146    8.1619   15.0418 O   0  0  0  0  0  0  0  0  0  0  0  0
  1  2  1  1  0  0  0
  1  3  1  0  0  0  0
  1  9  1  0  0  0  0
  3  4  1  1  0  0  0
  3  5  1  0  0  0  0
  5  6  1  0  0  0  0
  6  7  1  1  0  0  0
  6  8  1  0  0  0  0
  8  9  1  0  0  0  0
  8 10  1  6  0  0  0
 10 11  1  0  0  0  0
 12 13  1  6  0  0  0
 12 14  1  0  0  0  0
 12 20  1  0  0  0  0
 14 15  1  0  0  0  0
 15 16  1  1  0  0  0
 15 17  1  0  0  0  0
 17  2  1  1  0  0  0
 17 18  1  0  0  0  0
 18 19  1  6  0  0  0
 18 20  1  0  0  0  0
 20 21  1  6  0  0  0
 22 21  1  6  0  0  0
 22 23  1  0  0  0  0
 22 30  1  0  0  0  0
 23 24  1  1  0  0  0
 23 25  1  0  0  0  0
 25 26  1  6  0  0  0
 25 27  1  0  0  0  0
 27 28  1  6  0  0  0
 27 29  1  0  0  0  0
 29 30  1  0  0  0  0
 29 31  1  1  0  0  0
 31 32  1  0  0  0  0
M  CHG  5   4   1  11   1  13   1  16   1  26   1
M  END
>  <CHROM.1>
-150.61157957,-177.02536032,-176.16520389,-64.56888792,-162.81321696,59.25326027
171.68560433,47.19080157,179.23668277,-60.74149692,-139.66028275,178.45240649
53.35509828,-163.15048263,66.31812579,63.31655544,-12.26469061,7.34166502
18.09174852,-0.37109424,0.78113325,-2.46562428

>  <Name>
1lc4

>  <RI>
0

>  <Rbt.Current_Directory>
/home/afrankz/demos/rdock_decoys_rna/rnas/1lc4

>  <Rbt.Executable>
rbdock ($Id: //depot/dev/client3/rdock/2013.1/src/exe/rbdock.cxx#4 $)

>  <Rbt.Library>
libRbt.so (2013.1, Build901 2013/11/27)

>  <Rbt.Parameter_File>
/export/apps/rDock/src/rDock_2013.1_src/data/scripts/dock_solv.prm

>  <Rbt.Receptor>
prm/pocket_docking_2.prm

>  <SCORE>
-66.6455

>  <SCORE.INTER>
-46.3525

>  <SCORE.INTER.CONST>
1

>  <SCORE.INTER.POLAR>
-6.97484

>  <SCORE.INTER.ROT>
6

>  <SCORE.INTER.SOLV>
23.0692

>  <SCORE.INTER.VDW>
-22.9419

>  <SCORE.INTER.norm>
-1.44851

>  <SCORE.INTRA>
-21.6134

>  <SCORE.INTRA.DIHEDRAL>
-31.8336

>  <SCORE.INTRA.DIHEDRAL.0>
44.2576

>  <SCORE.INTRA.POLAR>
-0.635254

>  <SCORE.INTRA.POLAR.0>
-0.381556

>  <SCORE.INTRA.REPUL>
0

>  <SCORE.INTRA.REPUL.0>
0

>  <SCORE.INTRA.SOLV>
-3.10216

>  <SCORE.INTRA.SOLV.lig_0>
-134.592

>  <SCORE.INTRA.VDW>
-1.98568

>  <SCORE.INTRA.VDW.0>
-1.01417

>  <SCORE.INTRA.norm>
-0.675419

>  <SCORE.RESTR>
1.32035

>  <SCORE.RESTR.CAVITY>
1.32035

>  <SCORE.RESTR.norm>
0.0412611

>  <SCORE.SYSTEM>
0

>  <SCORE.SYSTEM.CONST>
0

>  <SCORE.SYSTEM.DIHEDRAL>
0

>  <SCORE.SYSTEM.SOLV>
0

>  <SCORE.SYSTEM.norm>
0

>  <SCORE.heavy>
32

>  <SCORE.norm>
-2.08267

>  <RMSD>
2.338

$$$$
1lc4
 OpenBabel02141814113D
libRbt.so/2013.1/901 2013/11/27
 32 34  0  0  0  0  0  0  0  0999 V2000
   -9.9060    6.4195   19.7893 C   0  0  2  0  0  0  0  0  0  0  0  0
  -11.0842    7.0803   20.1783 O   0  0  0  0  0  0  0  0  0  0  0  0
   -9.9215    5.0067   20.4079 C   0  0  2  0  0  0  0  0  0  0  0  0
  -11.1118    4.2712   19.9696 N   0  3  0  0  0  0  0  0  0  0  0  0
   -9.8525    5.1004   21.9503 C   0  0  0  0  0  0  0  0  0  0  0  0
   -8.5577    5.8494   22.3111 C   0  0  2  0  0  0  0  0  0  0  0  0
   -8.4067    5.9293   23.7323 O   0  0  0  0  0  0  0  0  0  0  0  0
   -8.5861    7.2586   21.6685 C   0  0  2  0  0  0  0  0  0  0  0  0
   -8.7409    7.1544   20.2244 O   0  0  0  0  0  0  0  0  0  0  0  0
   -7.3174    8.0690   21.9218 C   0  0  0  0  0  0  0  0  0  0  0  0
   -6.1577    7.4963   21.1892 N   0  3  0  0  0  0  0  0  0  0  0  0
  -13.7134    9.4996   17.8992 C   0  0  2  0  0  0  0  0  0  0  0  0
  -14.2864   10.6169   17.1265 N   0  3  0  0  0  0  0  0  0  0  0  0
  -13.3921    9.9603   19.3144 C   0  0  0  0  0  0  0  0  0  0  0  0
  -12.7919    8.8079   20.1273 C   0  0  2  0  0  0  0  0  0  0  0  0
  -12.6064    9.2676   21.5262 N   0  3  0  0  0  0  0  0  0  0  0  0
  -11.4961    8.2596   19.4584 C   0  0  2  0  0  0  0  0  0  0  0  0
  -11.8059    7.8435   17.9973 C   0  0  2  0  0  0  0  0  0  0  0  0
  -10.6068    7.5045   17.3436 O   0  0  0  0  0  0  0  0  0  0  0  0
  -12.4374    9.0086   17.2182 C   0  0  1  0  0  0  0  0  0  0  0  0
  -12.7342    8.5706   15.8928 O   0  0  0  0  0  0  0  0  0  0  0  0
  -13.4500    7.3911   15.7596 C   0  0  2  0  0  0  0  0  0  0  0  0
  -12.8127    6.5473   14.6423 C   0  0  2  0  0  0  0  0  0  0  0  0
  -11.4618    6.2751   14.9930 O   0  0  0  0  0  0  0  0  0  0  0  0
  -12.8666    7.3277   13.3172 C   0  0  1  0  0  0  0  0  0  0  0  0
  -12.2418    6.5658   12.1977 N   0  3  0  0  0  0  0  0  0  0  0  0
  -14.3395    7.6721   12.9872 C   0  0  2  0  0  0  0  0  0  0  0  0
  -14.4189    8.4187   11.7752 O   0  0  0  0  0  0  0  0  0  0  0  0
  -14.9756    8.4568   14.1497 C   0  0  2  0  0  0  0  0  0  0  0  0
  -14.8215    7.7181   15.4158 O   0  0  0  0  0  0  0  0  0  0  0  0
  -16.4572    8.6806   13.9435 C   0  0  0  0  0  0  0  0  0  0  0  0
  -17.0669    7.5801   13.2723 O   0  0  0  0  0  0  0  0  0  0  0  0
  1  2  1  1  0  0  0
  1  3  1  0  0  0  0
  1  9  1  0  0  0  0
  3  4  1  1  0  0  0
  3  5  1  0  0  0  0
  5  6  1  0  0  0  0
  6  7  1  1  0  0  0
  6  8  1  0  0  0  0
  8  9  1  0  0  0  0
  8 10  1  6  0  0  0
 10 11  1  0  0  0  0
 12 13  1  6  0  0  0
 12 14  1  0  0  0  0
 12 20  1  0  0  0  0
 14 15  1  0  0  0  0
 15 16  1  1  0  0  0
 15 17  1  0  0  0  0
 17  2  1  1  0  0  0
 17 18  1  0  0  0  0
 18 19  1  6  0  0  0
 18 20  1  0  0  0  0
 20 21  1  6  0  0  0
 22 21  1  6  0  0  0
 22 23  1  0  0  0  0
 22 30  1  0  0  0  0
 23 24  1  1  0  0  0
 23 25  1  0  0  0  0
 25 26  1  6  0  0  0
 25 27  1  0  0  0  0
 27 28  1  6  0  0  0
 27 29  1  0  0  0  0
 29 30  1  0  0  0  0
 29 31  1  6  0  0  0
 31 32  1  0  0  0  0
M  CHG  5   4   1  11   1  13   1  16   1  26   1
M  END
>  <CHROM.1>
-163.25609335,-178.05016020,64.24956077,-177.98209140,69.11079554,-35.79112065
58.00012891,59.73251139,172.11695051,-71.14609078,-136.36639577,103.13004597
-58.44455319,-167.92375357,34.31347708,175.96996437,-11.88393297,7.54106981
17.77404329,-0.77713490,0.62674818,-1.94799982

>  <Name>
1lc4

>  <RI>
0

>  <Rbt.Current_Directory>
/home/afrankz/demos/rdock_decoys_rna/rnas/1lc4

>  <Rbt.Executable>
rbdock ($Id: //depot/dev/client3/rdock/2013.1/src/exe/rbdock.cxx#4 $)

>  <Rbt.Library>
libRbt.so (2013.1, Build901 2013/11/27)

>  <Rbt.Parameter_File>
/export/apps/rDock/src/rDock_2013.1_src/data/scripts/dock_solv.prm

>  <Rbt.Receptor>
prm/blind_docking_80.prm

>  <SCORE>
-47.2932

>  <SCORE.INTER>
-34.4217

>  <SCORE.INTER.CONST>
1

>  <SCORE.INTER.POLAR>
-5.42411

>  <SCORE.INTER.ROT>
6

>  <SCORE.INTER.SOLV>
31.1394

>  <SCORE.INTER.VDW>
-22.8473

>  <SCORE.INTER.norm>
-1.07568

>  <SCORE.INTRA>
-17.6476

>  <SCORE.INTRA.DIHEDRAL>
-25.6335

>  <SCORE.INTRA.DIHEDRAL.0>
44.2576

>  <SCORE.INTRA.POLAR>
-0.62438

>  <SCORE.INTRA.POLAR.0>
-0.381556

>  <SCORE.INTRA.REPUL>
0

>  <SCORE.INTRA.REPUL.0>
0

>  <SCORE.INTRA.SOLV>
-2.41563

>  <SCORE.INTRA.SOLV.lig_0>
-134.592

>  <SCORE.INTRA.VDW>
-1.5001

>  <SCORE.INTRA.VDW.0>
-1.01417

>  <SCORE.INTRA.norm>
-0.551487

>  <SCORE.RESTR>
4.77616

>  <SCORE.RESTR.CAVITY>
4.77616

>  <SCORE.RESTR.norm>
0.149255

>  <SCORE.SYSTEM>
0

>  <SCORE.SYSTEM.CONST>
0

>  <SCORE.SYSTEM.DIHEDRAL>
0

>  <SCORE.SYSTEM.SOLV>
0

>  <SCORE.SYSTEM.norm>
0

>  <SCORE.heavy>
32

>  <SCORE.norm>
-1.47791

>  <RMSD>
2.355

$$$$
1lc4
 OpenBabel02141814113D
libRbt.so/2013.1/901 2013/11/27
 32 34  0  0  0  0  0  0  0  0999 V2000
  -10.3795    5.3872   18.8027 C   0  0  2  0  0  0  0  0  0  0  0  0
  -11.4778    6.2511   18.9562 O   0  0  0  0  0  0  0  0  0  0  0  0
  -10.7780    4.0020   19.3517 C   0  0  2  0  0  0  0  0  0  0  0  0
  -11.9567    3.4928   18.6438 N   0  3  0  0  0  0  0  0  0  0  0  0
  -11.0279    4.0857   20.8759 C   0  0  0  0  0  0  0  0  0  0  0  0
   -9.7297    4.5892   21.5309 C   0  0  2  0  0  0  0  0  0  0  0  0
   -9.8772    4.6440   22.9537 O   0  0  0  0  0  0  0  0  0  0  0  0
   -9.3689    5.9786   20.9489 C   0  0  2  0  0  0  0  0  0  0  0  0
   -9.2244    5.9005   19.5021 O   0  0  0  0  0  0  0  0  0  0  0  0
   -8.0617    6.5470   21.4957 C   0  0  0  0  0  0  0  0  0  0  0  0
   -7.9681    8.0106   21.2532 N   0  3  0  0  0  0  0  0  0  0  0  0
  -13.6448    9.0053   16.5732 C   0  0  2  0  0  0  0  0  0  0  0  0
  -13.9917   10.0911   15.6381 N   0  3  0  0  0  0  0  0  0  0  0  0
  -12.8620    9.5679   17.7518 C   0  0  0  0  0  0  0  0  0  0  0  0
  -12.4919    8.4474   18.7300 C   0  0  2  0  0  0  0  0  0  0  0  0
  -11.8376    9.0565   19.9147 N   0  3  0  0  0  0  0  0  0  0  0  0
  -11.6446    7.3432   18.0299 C   0  0  2  0  0  0  0  0  0  0  0  0
  -12.4134    6.8086   16.7943 C   0  0  2  0  0  0  0  0  0  0  0  0
  -11.5830    5.9336   16.0698 O   0  0  0  0  0  0  0  0  0  0  0  0
  -12.7999    7.9584   15.8499 C   0  0  1  0  0  0  0  0  0  0  0  0
  -13.5314    7.4241   14.7471 O   0  0  0  0  0  0  0  0  0  0  0  0
  -13.2489    7.9360   13.4904 C   0  0  2  0  0  0  0  0  0  0  0  0
  -14.2386    7.3369   12.4766 C   0  0  2  0  0  0  0  0  0  0  0  0
  -15.5597    7.6837   12.8720 O   0  0  0  0  0  0  0  0  0  0  0  0
  -14.0807    5.8065   12.4499 C   0  0  1  0  0  0  0  0  0  0  0  0
  -15.0327    5.1661   11.4972 N   0  3  0  0  0  0  0  0  0  0  0  0
  -12.6194    5.4505   12.0826 C   0  0  2  0  0  0  0  0  0  0  0  0
  -12.4361    4.0366   12.0748 O   0  0  0  0  0  0  0  0  0  0  0  0
  -11.6449    6.1178   13.0708 C   0  0  2  0  0  0  0  0  0  0  0  0
  -11.8901    7.5697   13.1359 O   0  0  0  0  0  0  0  0  0  0  0  0
  -10.2006    5.9291   12.6629 C   0  0  0  0  0  0  0  0  0  0  0  0
   -9.9108    6.5907   11.4334 O   0  0  0  0  0  0  0  0  0  0  0  0
  1  2  1  1  0  0  0
  1  3  1  0  0  0  0
  1  9  1  0  0  0  0
  3  4  1  6  0  0  0
  3  5  1  0  0  0  0
  5  6  1  0  0  0  0
  6  7  1  1  0  0  0
  6  8  1  0  0  0  0
  8  9  1  0  0  0  0
  8 10  1  1  0  0  0
 10 11  1  0  0  0  0
 12 13  1  6  0  0  0
 12 14  1  0  0  0  0
 12 20  1  0  0  0  0
 14 15  1  0  0  0  0
 15 16  1  1  0  0  0
 15 17  1  0  0  0  0
 17  2  1  1  0  0  0
 17 18  1  0  0  0  0
 18 19  1  6  0  0  0
 18 20  1  0  0  0  0
 20 21  1  6  0  0  0
 22 21  1  1  0  0  0
 22 23  1  0  0  0  0
 22 30  1  0  0  0  0
 23 24  1  1  0  0  0
 23 25  1  0  0  0  0
 25 26  1  6  0  0  0
 25 27  1  0  0  0  0
 27 28  1  1  0  0  0
 27 29  1  0  0  0  0
 29 30  1  0  0  0  0
 29 31  1  6  0  0  0
 31 32  1  0  0  0  0
M  CHG  5   4   1  11   1  13   1  16   1  26   1
M  END
>  <CHROM.1>
-151.20492815,-155.92014596,75.54120209,55.65358553,-162.38363150,170.47306765
-73.36512773,-172.47613919,68.38460360,99.20109486,-174.18822538,82.03931767
-171.39304227,-64.08805806,65.07778164,-63.41443253,-11.80310820,6.56388825
16.59449003,-0.80295883,0.99923612,-2.17114326

>  <Name>
1lc4

>  <RI>
0

>  <Rbt.Current_Directory>
/home/afrankz/demos/rdock_decoys_rna/rnas/1lc4

>  <Rbt.Executable>
rbdock ($Id: //depot/dev/client3/rdock/2013.1/src/exe/rbdock.cxx#4 $)

>  <Rbt.Library>
libRbt.so (2013.1, Build901 2013/11/27)

>  <Rbt.Parameter_File>
/export/apps/rDock/src/rDock_2013.1_src/data/scripts/dock_solv.prm

>  <Rbt.Receptor>
prm/pocket_docking_5.prm

>  <SCORE>
-62.3852

>  <SCORE.INTER>
-45.435

>  <SCORE.INTER.CONST>
1

>  <SCORE.INTER.POLAR>
-6.20444

>  <SCORE.INTER.ROT>
6

>  <SCORE.INTER.SOLV>
21.3605

>  <SCORE.INTER.VDW>
-24.3287

>  <SCORE.INTER.norm>
-1.41984

>  <SCORE.INTRA>
-16.9503

>  <SCORE.INTRA.DIHEDRAL>
-27.4787

>  <SCORE.INTRA.DIHEDRAL.0>
44.2576

>  <SCORE.INTRA.POLAR>
0.343453

>  <SCORE.INTRA.POLAR.0>
-0.381556

>  <SCORE.INTRA.REPUL>
0

>  <SCORE.INTRA.REPUL.0>
0

>  <SCORE.INTRA.SOLV>
-1.64788

>  <SCORE.INTRA.SOLV.lig_0>
-134.592

>  <SCORE.INTRA.VDW>
-3.55472

>  <SCORE.INTRA.VDW.0>
-1.01417

>  <SCORE.INTRA.norm>
-0.529696

>  <SCORE.RESTR>
0

>  <SCORE.RESTR.CAVITY>
0

>  <SCORE.RESTR.norm>
0

>  <SCORE.SYSTEM>
0

>  <SCORE.SYSTEM.CONST>
0

>  <SCORE.SYSTEM.DIHEDRAL>
0

>  <SCORE.SYSTEM.SOLV>
0

>  <SCORE.SYSTEM.norm>
0

>  <SCORE.heavy>
32

>  <SCORE.norm>
-1.94954

>  <RMSD>
2.363

$$$$
1lc4
 OpenBabel02141814113D
libRbt.so/2013.1/901 2013/11/27
 32 34  0  0  0  0  0  0  0  0999 V2000
  -10.4359    5.8610   19.5739 C   0  0  2  0  0  0  0  0  0  0  0  0
  -11.6326    6.4039   20.0731 O   0  0  0  0  0  0  0  0  0  0  0  0
  -10.3005    4.4219   20.1120 C   0  0  2  0  0  0  0  0  0  0  0  0
  -11.4573    3.6161   19.7092 N   0  3  0  0  0  0  0  0  0  0  0  0
  -10.1351    4.4423   21.6497 C   0  0  0  0  0  0  0  0  0  0  0  0
   -8.8805    5.2739   21.9694 C   0  0  2  0  0  0  0  0  0  0  0  0
   -8.6406    5.2932   23.3805 O   0  0  0  0  0  0  0  0  0  0  0  0
   -9.0609    6.7071   21.4099 C   0  0  2  0  0  0  0  0  0  0  0  0
   -9.3042    6.6645   19.9750 O   0  0  0  0  0  0  0  0  0  0  0  0
   -7.8443    7.6033   21.6276 C   0  0  0  0  0  0  0  0  0  0  0  0
   -6.6930    7.1583   20.7993 N   0  3  0  0  0  0  0  0  0  0  0  0
  -14.6232    9.2829   19.2203 C   0  0  2  0  0  0  0  0  0  0  0  0
  -15.3508   10.4330   18.6531 N   0  3  0  0  0  0  0  0  0  0  0  0
  -13.3763    9.7672   19.9476 C   0  0  0  0  0  0  0  0  0  0  0  0
  -12.6087    8.5796   20.5390 C   0  0  2  0  0  0  0  0  0  0  0  0
  -11.4722    9.1057   21.3353 N   0  3  0  0  0  0  0  0  0  0  0  0
  -12.1963    7.5651   19.4308 C   0  0  2  0  0  0  0  0  0  0  0  0
  -13.4570    7.1139   18.6492 C   0  0  2  0  0  0  0  0  0  0  0  0
  -13.0681    6.3292   17.5478 O   0  0  0  0  0  0  0  0  0  0  0  0
  -14.2231    8.3274   18.0978 C   0  0  1  0  0  0  0  0  0  0  0  0
  -15.3891    7.8664   17.4162 O   0  0  0  0  0  0  0  0  0  0  0  0
  -15.2026    7.2300   16.1990 C   0  0  2  0  0  0  0  0  0  0  0  0
  -16.3652    7.6005   15.2622 C   0  0  2  0  0  0  0  0  0  0  0  0
  -16.3787    9.0121   15.0911 O   0  0  0  0  0  0  0  0  0  0  0  0
  -17.6926    7.1318   15.8834 C   0  0  1  0  0  0  0  0  0  0  0  0
  -18.8618    7.4836   15.0270 N   0  3  0  0  0  0  0  0  0  0  0  0
  -17.6326    5.6034   16.1231 C   0  0  2  0  0  0  0  0  0  0  0  0
  -18.8416    5.1434   16.7225 O   0  0  0  0  0  0  0  0  0  0  0  0
  -16.4214    5.2508   17.0065 C   0  0  2  0  0  0  0  0  0  0  0  0
  -15.1822    5.7965   16.4243 O   0  0  0  0  0  0  0  0  0  0  0  0
  -16.2288    3.7565   17.1402 C   0  0  0  0  0  0  0  0  0  0  0  0
  -15.8488    3.1622   15.9009 O   0  0  0  0  0  0  0  0  0  0  0  0
  1  2  1  1  0  0  0
  1  3  1  0  0  0  0
  1  9  1  0  0  0  0
  3  4  1  1  0  0  0
  3  5  1  0  0  0  0
  5  6  1  0  0  0  0
  6  7  1  1  0  0  0
  6  8  1  0  0  0  0
  8  9  1  0  0  0  0
  8 10  1  6  0  0  0
 10 11  1  0  0  0  0
 12 13  1  6  0  0  0
 12 14  1  0  0  0  0
 12 20  1  0  0  0  0
 14 15  1  0  0  0  0
 15 16  1  6  0  0  0
 15 17  1  0  0  0  0
 17  2  1  1  0  0  0
 17 18  1  0  0  0  0
 18 19  1  6  0  0  0
 18 20  1  0  0  0  0
 20 21  1  1  0  0  0
 22 21  1  1  0  0  0
 22 23  1  0  0  0  0
 22 30  1  0  0  0  0
 23 24  1  1  0  0  0
 23 25  1  0  0  0  0
 25 26  1  6  0  0  0
 25 27  1  0  0  0  0
 27 28  1  1  0  0  0
 27 29  1  0  0  0  0
 29 30  1  0  0  0  0
 29 31  1  6  0  0  0
 31 32  1  0  0  0  0
M  CHG  5   4   1  11   1  13   1  16   1  26   1
M  END
>  <CHROM.1>
-161.99937469,-134.12057997,58.30763760,175.24860960,68.71506850,84.36928327
-171.69084673,50.61410228,-54.36353327,166.28480630,-144.23934394,-56.79951408
-64.69398439,69.60568283,67.27017570,-65.99970396,-13.28709672,6.71568897
18.66394796,-0.03568888,0.58089374,-3.01612640

>  <Name>
1lc4

>  <RI>
0

>  <Rbt.Current_Directory>
/home/afrankz/demos/rdock_decoys_rna/rnas/1lc4

>  <Rbt.Executable>
rbdock ($Id: //depot/dev/client3/rdock/2013.1/src/exe/rbdock.cxx#4 $)

>  <Rbt.Library>
libRbt.so (2013.1, Build901 2013/11/27)

>  <Rbt.Parameter_File>
/export/apps/rDock/src/rDock_2013.1_src/data/scripts/dock_solv.prm

>  <Rbt.Receptor>
prm/pocket_docking_8.prm

>  <SCORE>
-54.1553

>  <SCORE.INTER>
-38.6383

>  <SCORE.INTER.CONST>
1

>  <SCORE.INTER.POLAR>
-6.32405

>  <SCORE.INTER.ROT>
6

>  <SCORE.INTER.SOLV>
27.0483

>  <SCORE.INTER.VDW>
-21.2948

>  <SCORE.INTER.norm>
-1.20745

>  <SCORE.INTRA>
-15.517

>  <SCORE.INTRA.DIHEDRAL>
-27.7382

>  <SCORE.INTRA.DIHEDRAL.0>
44.2576

>  <SCORE.INTRA.POLAR>
0.375869

>  <SCORE.INTRA.POLAR.0>
-0.381556

>  <SCORE.INTRA.REPUL>
0

>  <SCORE.INTRA.REPUL.0>
0

>  <SCORE.INTRA.SOLV>
-0.309912

>  <SCORE.INTRA.SOLV.lig_0>
-134.592

>  <SCORE.INTRA.VDW>
-2.77086

>  <SCORE.INTRA.VDW.0>
-1.01417

>  <SCORE.INTRA.norm>
-0.484905

>  <SCORE.RESTR>
0

>  <SCORE.RESTR.CAVITY>
0

>  <SCORE.RESTR.norm>
0

>  <SCORE.SYSTEM>
0

>  <SCORE.SYSTEM.CONST>
0

>  <SCORE.SYSTEM.DIHEDRAL>
0

>  <SCORE.SYSTEM.SOLV>
0

>  <SCORE.SYSTEM.norm>
0

>  <SCORE.heavy>
32

>  <SCORE.norm>
-1.69235

>  <RMSD>
2.366

$$$$
1lc4
 OpenBabel02141814113D
libRbt.so/2013.1/901 2013/11/27
 32 34  0  0  0  0  0  0  0  0999 V2000
   -9.8196    5.8488   19.8280 C   0  0  2  0  0  0  0  0  0  0  0  0
  -10.8685    6.6816   20.2549 O   0  0  0  0  0  0  0  0  0  0  0  0
  -10.0356    4.4511   20.4435 C   0  0  2  0  0  0  0  0  0  0  0  0
  -11.3383    3.9124   20.0407 N   0  3  0  0  0  0  0  0  0  0  0  0
   -9.9062    4.5222   21.9833 C   0  0  0  0  0  0  0  0  0  0  0  0
   -8.5004    5.0587   22.3054 C   0  0  2  0  0  0  0  0  0  0  0  0
   -8.2959    5.1041   23.7215 O   0  0  0  0  0  0  0  0  0  0  0  0
   -8.3291    6.4597   21.6672 C   0  0  2  0  0  0  0  0  0  0  0  0
   -8.5418    6.3909   20.2284 O   0  0  0  0  0  0  0  0  0  0  0  0
   -6.9429    7.0617   21.8829 C   0  0  0  0  0  0  0  0  0  0  0  0
   -6.9495    8.5284   21.6417 N   0  3  0  0  0  0  0  0  0  0  0  0
  -13.4937    9.3681   18.2925 C   0  0  2  0  0  0  0  0  0  0  0  0
  -14.0255   10.4878   17.4942 N   0  3  0  0  0  0  0  0  0  0  0  0
  -12.7008    9.9069   19.4755 C   0  0  0  0  0  0  0  0  0  0  0  0
  -12.1392    8.7518   20.3118 C   0  0  2  0  0  0  0  0  0  0  0  0
  -11.4784    9.3205   21.5129 N   0  3  0  0  0  0  0  0  0  0  0  0
  -11.2219    7.8283   19.4556 C   0  0  2  0  0  0  0  0  0  0  0  0
  -12.0080    7.3241   18.2180 C   0  0  2  0  0  0  0  0  0  0  0  0
  -11.1353    6.6274   17.3619 O   0  0  0  0  0  0  0  0  0  0  0  0
  -12.5869    8.5032   17.4192 C   0  0  1  0  0  0  0  0  0  0  0  0
  -13.3270    7.9913   16.3115 O   0  0  0  0  0  0  0  0  0  0  0  0
  -14.5032    7.3140   16.5928 C   0  0  2  0  0  0  0  0  0  0  0  0
  -14.5424    6.0209   15.7605 C   0  0  2  0  0  0  0  0  0  0  0  0
  -13.4140    5.2260   16.1027 O   0  0  0  0  0  0  0  0  0  0  0  0
  -14.5041    6.3742   14.2634 C   0  0  1  0  0  0  0  0  0  0  0  0
  -14.5182    5.1553   13.4042 N   0  3  0  0  0  0  0  0  0  0  0  0
  -15.7029    7.2937   13.9251 C   0  0  2  0  0  0  0  0  0  0  0  0
  -15.6797    7.6589   12.5471 O   0  0  0  0  0  0  0  0  0  0  0  0
  -15.6800    8.5478   14.8186 C   0  0  2  0  0  0  0  0  0  0  0  0
  -15.6239    8.1665   16.2412 O   0  0  0  0  0  0  0  0  0  0  0  0
  -16.9157    9.4009   14.6359 C   0  0  0  0  0  0  0  0  0  0  0  0
  -18.0647    8.7950   15.2241 O   0  0  0  0  0  0  0  0  0  0  0  0
  1  2  1  1  0  0  0
  1  3  1  0  0  0  0
  1  9  1  0  0  0  0
  3  4  1  1  0  0  0
  3  5  1  0  0  0  0
  5  6  1  0  0  0  0
  6  7  1  1  0  0  0
  6  8  1  0  0  0  0
  8  9  1  0  0  0  0
  8 10  1  6  0  0  0
 10 11  1  0  0  0  0
 12 13  1  6  0  0  0
 12 14  1  0  0  0  0
 12 20  1  0  0  0  0
 14 15  1  0  0  0  0
 15 16  1  1  0  0  0
 15 17  1  0  0  0  0
 17  2  1  1  0  0  0
 17 18  1  0  0  0  0
 18 19  1  6  0  0  0
 18 20  1  0  0  0  0
 20 21  1  6  0  0  0
 22 21  1  6  0  0  0
 22 23  1  0  0  0  0
 22 30  1  0  0  0  0
 23 24  1  1  0  0  0
 23 25  1  0  0  0  0
 25 26  1  6  0  0  0
 25 27  1  0  0  0  0
 27 28  1  6  0  0  0
 27 29  1  0  0  0  0
 29 30  1  0  0  0  0
 29 31  1  1  0  0  0
 31 32  1  0  0  0  0
M  CHG  5   4   1  11   1  13   1  16   1  26   1
M  END
>  <CHROM.1>
-155.59991289,-166.06330878,71.71143321,71.79793900,-162.31552430,62.07286200
58.37719647,-65.75054891,176.01269353,-53.43498528,-134.22642147,176.68602375
-57.82796630,-171.74697230,72.57783271,70.36038015,-12.28669437,7.18736960
18.21259091,-0.17318810,0.79234200,-2.68663430

>  <Name>
1lc4

>  <RI>
0

>  <Rbt.Current_Directory>
/home/afrankz/demos/rdock_decoys_rna/rnas/1lc4

>  <Rbt.Executable>
rbdock ($Id: //depot/dev/client3/rdock/2013.1/src/exe/rbdock.cxx#4 $)

>  <Rbt.Library>
libRbt.so (2013.1, Build901 2013/11/27)

>  <Rbt.Parameter_File>
/export/apps/rDock/src/rDock_2013.1_src/data/scripts/dock_solv.prm

>  <Rbt.Receptor>
prm/pocket_docking_3.prm

>  <SCORE>
-63.7216

>  <SCORE.INTER>
-41.9325

>  <SCORE.INTER.CONST>
1

>  <SCORE.INTER.POLAR>
-5.92465

>  <SCORE.INTER.ROT>
6

>  <SCORE.INTER.SOLV>
24.6989

>  <SCORE.INTER.VDW>
-24.0391

>  <SCORE.INTER.norm>
-1.31039

>  <SCORE.INTRA>
-21.7891

>  <SCORE.INTRA.DIHEDRAL>
-30.5186

>  <SCORE.INTRA.DIHEDRAL.0>
44.2576

>  <SCORE.INTRA.POLAR>
-0.678925

>  <SCORE.INTRA.POLAR.0>
-0.381556

>  <SCORE.INTRA.REPUL>
0

>  <SCORE.INTRA.REPUL.0>
0

>  <SCORE.INTRA.SOLV>
-2.99347

>  <SCORE.INTRA.SOLV.lig_0>
-134.592

>  <SCORE.INTRA.VDW>
-2.72475

>  <SCORE.INTRA.VDW.0>
-1.01417

>  <SCORE.INTRA.norm>
-0.68091

>  <SCORE.RESTR>
0

>  <SCORE.RESTR.CAVITY>
0

>  <SCORE.RESTR.norm>
0

>  <SCORE.SYSTEM>
0

>  <SCORE.SYSTEM.CONST>
0

>  <SCORE.SYSTEM.DIHEDRAL>
0

>  <SCORE.SYSTEM.SOLV>
0

>  <SCORE.SYSTEM.norm>
0

>  <SCORE.heavy>
32

>  <SCORE.norm>
-1.9913

>  <RMSD>
2.381

$$$$
1lc4
 OpenBabel02141814113D
libRbt.so/2013.1/901 2013/11/27
 32 34  0  0  0  0  0  0  0  0999 V2000
  -11.0174    7.0548   20.2364 C   0  0  2  0  0  0  0  0  0  0  0  0
  -12.3875    7.2988   20.0382 O   0  0  0  0  0  0  0  0  0  0  0  0
  -10.4692    6.3479   18.9800 C   0  0  2  0  0  0  0  0  0  0  0  0
  -10.6941    7.1751   17.7905 N   0  3  0  0  0  0  0  0  0  0  0  0
  -11.1196    4.9527   18.8280 C   0  0  0  0  0  0  0  0  0  0  0  0
  -10.7969    4.1504   20.1008 C   0  0  2  0  0  0  0  0  0  0  0  0
  -11.3312    2.8258   20.0048 O   0  0  0  0  0  0  0  0  0  0  0  0
  -11.3637    4.8975   21.3337 C   0  0  2  0  0  0  0  0  0  0  0  0
  -10.8084    6.2413   21.4118 O   0  0  0  0  0  0  0  0  0  0  0  0
  -11.0499    4.2095   22.6599 C   0  0  0  0  0  0  0  0  0  0  0  0
   -9.7096    4.6045   23.1672 N   0  3  0  0  0  0  0  0  0  0  0  0
  -15.0666   10.4114   18.9923 C   0  0  2  0  0  0  0  0  0  0  0  0
  -15.6463   11.6337   18.4060 N   0  3  0  0  0  0  0  0  0  0  0  0
  -13.8913   10.7751   19.8894 C   0  0  0  0  0  0  0  0  0  0  0  0
  -13.2773    9.5116   20.5024 C   0  0  2  0  0  0  0  0  0  0  0  0
  -12.2171    9.9212   21.4569 N   0  3  0  0  0  0  0  0  0  0  0  0
  -12.7950    8.5245   19.3977 C   0  0  2  0  0  0  0  0  0  0  0  0
  -13.9752    8.1974   18.4470 C   0  0  2  0  0  0  0  0  0  0  0  0
  -13.5029    7.4406   17.3588 O   0  0  0  0  0  0  0  0  0  0  0  0
  -14.5911    9.4847   17.8752 C   0  0  1  0  0  0  0  0  0  0  0  0
  -15.6905    9.1366   17.0345 O   0  0  0  0  0  0  0  0  0  0  0  0
  -15.7776    9.7746   15.8070 C   0  0  2  0  0  0  0  0  0  0  0  0
  -17.1617    9.4920   15.1981 C   0  0  2  0  0  0  0  0  0  0  0  0
  -18.1577    9.9813   16.0872 O   0  0  0  0  0  0  0  0  0  0  0  0
  -17.3329    7.9761   14.9969 C   0  0  1  0  0  0  0  0  0  0  0  0
  -18.6690    7.6385   14.4270 N   0  3  0  0  0  0  0  0  0  0  0  0
  -16.2007    7.4518   14.0802 C   0  0  2  0  0  0  0  0  0  0  0  0
  -16.3187    6.0429   13.8959 O   0  0  0  0  0  0  0  0  0  0  0  0
  -14.8260    7.8070   14.6765 C   0  0  2  0  0  0  0  0  0  0  0  0
  -14.7366    9.2544   14.9399 O   0  0  0  0  0  0  0  0  0  0  0  0
  -13.6904    7.4547   13.7414 C   0  0  0  0  0  0  0  0  0  0  0  0
  -12.4890    7.1730   14.4560 O   0  0  0  0  0  0  0  0  0  0  0  0
  1  2  1  6  0  0  0
  1  3  1  0  0  0  0
  1  9  1  0  0  0  0
  3  4  1  6  0  0  0
  3  5  1  0  0  0  0
  5  6  1  0  0  0  0
  6  7  1  6  0  0  0
  6  8  1  0  0  0  0
  8  9  1  0  0  0  0
  8 10  1  1  0  0  0
 10 11  1  0  0  0  0
 12 13  1  6  0  0  0
 12 14  1  0  0  0  0
 12 20  1  0  0  0  0
 14 15  1  0  0  0  0
 15 16  1  1  0  0  0
 15 17  1  0  0  0  0
 17  2  1  1  0  0  0
 17 18  1  0  0  0  0
 18 19  1  6  0  0  0
 18 20  1  0  0  0  0
 20 21  1  6  0  0  0
 22 21  1  1  0  0  0
 22 23  1  0  0  0  0
 22 30  1  0  0  0  0
 23 24  1  1  0  0  0
 23 25  1  0  0  0  0
 25 26  1  6  0  0  0
 25 27  1  0  0  0  0
 27 28  1  1  0  0  0
 27 29  1  0  0  0  0
 29 30  1  0  0  0  0
 29 31  1  6  0  0  0
 31 32  1  0  0  0  0
M  CHG  5   4   1  11   1  13   1  16   1  26   1
M  END
>  <CHROM.1>
-88.41814305,-101.14923662,163.74113511,67.83219828,84.99363695,67.43998154
65.51310014,168.67970732,92.18501411,103.38381425,-168.10941026,49.92566536
62.46694953,-64.38324199,-152.19635740,-15.34489328,-13.64938389,7.63769318
17.99911163,0.21355383,-0.85756613,0.78215332

>  <Name>
1lc4

>  <RI>
0

>  <Rbt.Current_Directory>
/home/afrankz/demos/rdock_decoys_rna/rnas/1lc4

>  <Rbt.Executable>
rbdock ($Id: //depot/dev/client3/rdock/2013.1/src/exe/rbdock.cxx#4 $)

>  <Rbt.Library>
libRbt.so (2013.1, Build901 2013/11/27)

>  <Rbt.Parameter_File>
/export/apps/rDock/src/rDock_2013.1_src/data/scripts/dock_solv.prm

>  <Rbt.Receptor>
prm/pocket_docking_3.prm

>  <SCORE>
-48.1469

>  <SCORE.INTER>
-34.666

>  <SCORE.INTER.CONST>
1

>  <SCORE.INTER.POLAR>
-5.25835

>  <SCORE.INTER.ROT>
6

>  <SCORE.INTER.SOLV>
30.2112

>  <SCORE.INTER.VDW>
-23.2532

>  <SCORE.INTER.norm>
-1.08331

>  <SCORE.INTRA>
-13.6299

>  <SCORE.INTRA.DIHEDRAL>
-12.2645

>  <SCORE.INTRA.DIHEDRAL.0>
44.2576

>  <SCORE.INTRA.POLAR>
-1.38183

>  <SCORE.INTRA.POLAR.0>
-0.381556

>  <SCORE.INTRA.REPUL>
0.121658

>  <SCORE.INTRA.REPUL.0>
0

>  <SCORE.INTRA.SOLV>
2.20003

>  <SCORE.INTRA.SOLV.lig_0>
-134.592

>  <SCORE.INTRA.VDW>
-4.50776

>  <SCORE.INTRA.VDW.0>
-1.01417

>  <SCORE.INTRA.norm>
-0.425935

>  <SCORE.RESTR>
0.149014

>  <SCORE.RESTR.CAVITY>
0.149014

>  <SCORE.RESTR.norm>
0.00465668

>  <SCORE.SYSTEM>
0

>  <SCORE.SYSTEM.CONST>
0

>  <SCORE.SYSTEM.DIHEDRAL>
0

>  <SCORE.SYSTEM.SOLV>
0

>  <SCORE.SYSTEM.norm>
0

>  <SCORE.heavy>
32

>  <SCORE.norm>
-1.50459

>  <RMSD>
2.420

$$$$
1lc4
 OpenBabel02141814113D
libRbt.so/2013.1/901 2013/11/27
 32 34  0  0  0  0  0  0  0  0999 V2000
   -9.8235    5.8889   19.8395 C   0  0  2  0  0  0  0  0  0  0  0  0
  -10.8545    6.7481   20.2577 O   0  0  0  0  0  0  0  0  0  0  0  0
  -10.0628    4.5056   20.4783 C   0  0  2  0  0  0  0  0  0  0  0  0
  -11.3773    3.9852   20.0899 N   0  3  0  0  0  0  0  0  0  0  0  0
   -9.9248    4.5986   22.0161 C   0  0  0  0  0  0  0  0  0  0  0  0
   -8.5076    5.1135   22.3234 C   0  0  2  0  0  0  0  0  0  0  0  0
   -8.2955    5.1776   23.7376 O   0  0  0  0  0  0  0  0  0  0  0  0
   -8.3130    6.5007   21.6621 C   0  0  2  0  0  0  0  0  0  0  0  0
   -8.5338    6.4131   20.2256 O   0  0  0  0  0  0  0  0  0  0  0  0
   -6.9147    7.0797   21.8620 C   0  0  0  0  0  0  0  0  0  0  0  0
   -6.9054    8.5505   21.6469 N   0  3  0  0  0  0  0  0  0  0  0  0
  -13.4566    9.2437   18.0305 C   0  0  2  0  0  0  0  0  0  0  0  0
  -13.9859   10.3273   17.1822 N   0  3  0  0  0  0  0  0  0  0  0  0
  -12.8399    9.8296   19.2934 C   0  0  0  0  0  0  0  0  0  0  0  0
  -12.2824    8.7125   20.1825 C   0  0  2  0  0  0  0  0  0  0  0  0
  -11.8010    9.3177   21.4492 N   0  3  0  0  0  0  0  0  0  0  0  0
  -11.2089    7.8725   19.4278 C   0  0  2  0  0  0  0  0  0  0  0  0
  -11.8158    7.3223   18.1115 C   0  0  2  0  0  0  0  0  0  0  0  0
  -10.8043    6.7049   17.3527 O   0  0  0  0  0  0  0  0  0  0  0  0
  -12.3964    8.4615   17.2579 C   0  0  1  0  0  0  0  0  0  0  0  0
  -12.9709    7.9057   16.0756 O   0  0  0  0  0  0  0  0  0  0  0  0
  -13.9797    6.9695   16.2399 C   0  0  2  0  0  0  0  0  0  0  0  0
  -13.8119    5.8679   15.1794 C   0  0  2  0  0  0  0  0  0  0  0  0
  -12.5363    5.2632   15.3503 O   0  0  0  0  0  0  0  0  0  0  0  0
  -13.9174    6.4886   13.7753 C   0  0  1  0  0  0  0  0  0  0  0  0
  -13.7407    5.4684   12.7020 N   0  3  0  0  0  0  0  0  0  0  0  0
  -15.2858    7.1987   13.6327 C   0  0  2  0  0  0  0  0  0  0  0  0
  -15.4023    7.8062   12.3481 O   0  0  0  0  0  0  0  0  0  0  0  0
  -15.4590    8.2484   14.7462 C   0  0  2  0  0  0  0  0  0  0  0  0
  -15.2593    7.6329   16.0705 O   0  0  0  0  0  0  0  0  0  0  0  0
  -16.8429    8.8589   14.7443 C   0  0  0  0  0  0  0  0  0  0  0  0
  -17.0163    9.7719   15.8258 O   0  0  0  0  0  0  0  0  0  0  0  0
  1  2  1  1  0  0  0
  1  3  1  0  0  0  0
  1  9  1  0  0  0  0
  3  4  1  1  0  0  0
  3  5  1  0  0  0  0
  5  6  1  0  0  0  0
  6  7  1  1  0  0  0
  6  8  1  0  0  0  0
  8  9  1  0  0  0  0
  8 10  1  6  0  0  0
 10 11  1  0  0  0  0
 12 13  1  6  0  0  0
 12 14  1  0  0  0  0
 12 20  1  0  0  0  0
 14 15  1  0  0  0  0
 15 16  1  1  0  0  0
 15 17  1  0  0  0  0
 17  2  1  1  0  0  0
 17 18  1  0  0  0  0
 18 19  1  6  0  0  0
 18 20  1  0  0  0  0
 20 21  1  6  0  0  0
 22 21  1  6  0  0  0
 22 23  1  0  0  0  0
 22 30  1  0  0  0  0
 23 24  1  6  0  0  0
 23 25  1  0  0  0  0
 25 26  1  6  0  0  0
 25 27  1  0  0  0  0
 27 28  1  6  0  0  0
 27 29  1  0  0  0  0
 29 30  1  0  0  0  0
 29 31  1  1  0  0  0
 31 32  1  0  0  0  0
M  CHG  5   4   1  11   1  13   1  16   1  26   1
M  END
>  <CHROM.1>
-154.30963116,-175.23089002,177.70357495,-55.07735987,-160.19357485,179.91585067
161.92970131,-74.24977747,-61.72431409,-63.40515513,-141.48010643,-33.78535078
56.92941062,-170.79315025,176.63607598,-173.41274228,-12.07843714,7.19889306
18.08229872,-0.37780146,0.79791090,-2.43375788

>  <Name>
1lc4

>  <RI>
0

>  <Rbt.Current_Directory>
/home/afrankz/demos/rdock_decoys_rna/rnas/1lc4

>  <Rbt.Executable>
rbdock ($Id: //depot/dev/client3/rdock/2013.1/src/exe/rbdock.cxx#4 $)

>  <Rbt.Library>
libRbt.so (2013.1, Build901 2013/11/27)

>  <Rbt.Parameter_File>
/export/apps/rDock/src/rDock_2013.1_src/data/scripts/dock_solv.prm

>  <Rbt.Receptor>
prm/pocket_docking_3.prm

>  <SCORE>
-67.6547

>  <SCORE.INTER>
-47.6319

>  <SCORE.INTER.CONST>
1

>  <SCORE.INTER.POLAR>
-6.93775

>  <SCORE.INTER.ROT>
6

>  <SCORE.INTER.SOLV>
23.9085

>  <SCORE.INTER.VDW>
-24.1983

>  <SCORE.INTER.norm>
-1.4885

>  <SCORE.INTRA>
-20.0228

>  <SCORE.INTRA.DIHEDRAL>
-29.786

>  <SCORE.INTRA.DIHEDRAL.0>
44.2576

>  <SCORE.INTRA.POLAR>
-0.564261

>  <SCORE.INTRA.POLAR.0>
-0.381556

>  <SCORE.INTRA.REPUL>
0

>  <SCORE.INTRA.REPUL.0>
0

>  <SCORE.INTRA.SOLV>
-3.0663

>  <SCORE.INTRA.SOLV.lig_0>
-134.592

>  <SCORE.INTRA.VDW>
-1.67821

>  <SCORE.INTRA.VDW.0>
-1.01417

>  <SCORE.INTRA.norm>
-0.625713

>  <SCORE.RESTR>
0

>  <SCORE.RESTR.CAVITY>
0

>  <SCORE.RESTR.norm>
0

>  <SCORE.SYSTEM>
0

>  <SCORE.SYSTEM.CONST>
0

>  <SCORE.SYSTEM.DIHEDRAL>
0

>  <SCORE.SYSTEM.SOLV>
0

>  <SCORE.SYSTEM.norm>
0

>  <SCORE.heavy>
32

>  <SCORE.norm>
-2.11421

>  <RMSD>
2.427

$$$$
1lc4
 OpenBabel02141814113D
libRbt.so/2013.1/901 2013/11/27
 32 34  0  0  0  0  0  0  0  0999 V2000
  -10.0948    6.4103   19.9399 C   0  0  2  0  0  0  0  0  0  0  0  0
  -11.1927    7.1843   20.3542 O   0  0  0  0  0  0  0  0  0  0  0  0
  -10.1565    5.0567   20.6767 C   0  0  2  0  0  0  0  0  0  0  0  0
  -11.4234    4.3770   20.3893 N   0  3  0  0  0  0  0  0  0  0  0  0
   -9.9623    5.2689   22.1965 C   0  0  0  0  0  0  0  0  0  0  0  0
   -8.5964    5.9482   22.3982 C   0  0  2  0  0  0  0  0  0  0  0  0
   -8.3309    6.1309   23.7930 O   0  0  0  0  0  0  0  0  0  0  0  0
   -8.5805    7.2995   21.6410 C   0  0  2  0  0  0  0  0  0  0  0  0
   -8.8531    7.0910   20.2260 O   0  0  0  0  0  0  0  0  0  0  0  0
   -7.2448    8.0331   21.7326 C   0  0  0  0  0  0  0  0  0  0  0  0
   -6.1063    7.1119   21.4778 N   0  3  0  0  0  0  0  0  0  0  0  0
  -13.7198    9.4761   17.8401 C   0  0  2  0  0  0  0  0  0  0  0  0
  -14.2628   10.5550   16.9945 N   0  3  0  0  0  0  0  0  0  0  0  0
  -13.4863    9.9939   19.2528 C   0  0  0  0  0  0  0  0  0  0  0  0
  -12.9180    8.8818   20.1414 C   0  0  2  0  0  0  0  0  0  0  0  0
  -12.8190    9.3958   21.5301 N   0  3  0  0  0  0  0  0  0  0  0  0
  -11.5787    8.3295   19.5681 C   0  0  2  0  0  0  0  0  0  0  0  0
  -11.7988    7.8550   18.1086 C   0  0  2  0  0  0  0  0  0  0  0  0
  -10.5598    7.5109   17.5371 O   0  0  0  0  0  0  0  0  0  0  0  0
  -12.4005    8.9804   17.2514 C   0  0  1  0  0  0  0  0  0  0  0  0
  -12.6151    8.4891   15.9289 O   0  0  0  0  0  0  0  0  0  0  0  0
  -13.5789    7.5064   15.7656 C   0  0  2  0  0  0  0  0  0  0  0  0
  -12.8808    6.1777   15.4289 C   0  0  2  0  0  0  0  0  0  0  0  0
  -12.0020    5.8432   16.4956 O   0  0  0  0  0  0  0  0  0  0  0  0
  -12.0864    6.3338   14.1203 C   0  0  1  0  0  0  0  0  0  0  0  0
  -11.3683    5.0794   13.7530 N   0  3  0  0  0  0  0  0  0  0  0  0
  -13.0496    6.7627   12.9865 C   0  0  2  0  0  0  0  0  0  0  0  0
  -12.3363    6.9400   11.7649 O   0  0  0  0  0  0  0  0  0  0  0  0
  -13.7870    8.0573   13.3763 C   0  0  2  0  0  0  0  0  0  0  0  0
  -14.4581    7.8963   14.6787 O   0  0  0  0  0  0  0  0  0  0  0  0
  -14.8530    8.4314   12.3706 C   0  0  0  0  0  0  0  0  0  0  0  0
  -14.4046    8.2352   11.0313 O   0  0  0  0  0  0  0  0  0  0  0  0
  1  2  1  1  0  0  0
  1  3  1  0  0  0  0
  1  9  1  0  0  0  0
  3  4  1  1  0  0  0
  3  5  1  0  0  0  0
  5  6  1  0  0  0  0
  6  7  1  1  0  0  0
  6  8  1  0  0  0  0
  8  9  1  0  0  0  0
  8 10  1  6  0  0  0
 10 11  1  0  0  0  0
 12 13  1  6  0  0  0
 12 14  1  0  0  0  0
 12 20  1  0  0  0  0
 14 15  1  0  0  0  0
 15 16  1  1  0  0  0
 15 17  1  0  0  0  0
 17  2  1  1  0  0  0
 17 18  1  0  0  0  0
 18 19  1  6  0  0  0
 18 20  1  0  0  0  0
 20 21  1  6  0  0  0
 22 21  1  6  0  0  0
 22 23  1  0  0  0  0
 22 30  1  0  0  0  0
 23 24  1  1  0  0  0
 23 25  1  0  0  0  0
 25 26  1  6  0  0  0
 25 27  1  0  0  0  0
 27 28  1  6  0  0  0
 27 29  1  0  0  0  0
 29 30  1  0  0  0  0
 29 31  1  6  0  0  0
 31 32  1  0  0  0  0
M  CHG  5   4   1  11   1  13   1  16   1  26   1
M  END
>  <CHROM.1>
-163.32149783,172.64320108,61.23371064,61.33128366,46.04247173,-80.44378836
171.27270214,171.90534921,-52.99444653,-54.94538058,-109.74678518,178.88799960
-62.18657423,-58.08537656,-41.66937995,-179.82850322,-11.58827211,7.38106687
17.81296055,-0.87964127,0.73689899,-1.96475342

>  <Name>
1lc4

>  <RI>
0

>  <Rbt.Current_Directory>
/home/afrankz/demos/rdock_decoys_rna/rnas/1lc4

>  <Rbt.Executable>
rbdock ($Id: //depot/dev/client3/rdock/2013.1/src/exe/rbdock.cxx#4 $)

>  <Rbt.Library>
libRbt.so (2013.1, Build901 2013/11/27)

>  <Rbt.Parameter_File>
/export/apps/rDock/src/rDock_2013.1_src/data/scripts/dock_solv.prm

>  <Rbt.Receptor>
prm/blind_docking_80.prm

>  <SCORE>
-31.6622

>  <SCORE.INTER>
-23.5956

>  <SCORE.INTER.CONST>
1

>  <SCORE.INTER.POLAR>
-3.22122

>  <SCORE.INTER.ROT>
6

>  <SCORE.INTER.SOLV>
27.5527

>  <SCORE.INTER.VDW>
-21.7772

>  <SCORE.INTER.norm>
-0.737361

>  <SCORE.INTRA>
-14.2967

>  <SCORE.INTRA.DIHEDRAL>
-32.4095

>  <SCORE.INTRA.DIHEDRAL.0>
44.2576

>  <SCORE.INTRA.POLAR>
0.380488

>  <SCORE.INTRA.POLAR.0>
-0.381556

>  <SCORE.INTRA.REPUL>
0

>  <SCORE.INTRA.REPUL.0>
0

>  <SCORE.INTRA.SOLV>
-1.03382

>  <SCORE.INTRA.SOLV.lig_0>
-134.592

>  <SCORE.INTRA.VDW>
1.1313

>  <SCORE.INTRA.VDW.0>
-1.01417

>  <SCORE.INTRA.norm>
-0.446773

>  <SCORE.RESTR>
6.23008

>  <SCORE.RESTR.CAVITY>
6.23008

>  <SCORE.RESTR.norm>
0.19469

>  <SCORE.SYSTEM>
0

>  <SCORE.SYSTEM.CONST>
0

>  <SCORE.SYSTEM.DIHEDRAL>
0

>  <SCORE.SYSTEM.SOLV>
0

>  <SCORE.SYSTEM.norm>
0

>  <SCORE.heavy>
32

>  <SCORE.norm>
-0.989444

>  <RMSD>
2.434

$$$$
1lc4
 OpenBabel02141814113D
libRbt.so/2013.1/901 2013/11/27
 32 34  0  0  0  0  0  0  0  0999 V2000
  -10.5238    5.2539   20.0046 C   0  0  2  0  0  0  0  0  0  0  0  0
  -11.4069    6.2434   20.4705 O   0  0  0  0  0  0  0  0  0  0  0  0
  -10.5250    4.0929   21.0199 C   0  0  2  0  0  0  0  0  0  0  0  0
  -11.8810    3.5597   21.1831 N   0  3  0  0  0  0  0  0  0  0  0  0
   -9.9390    4.5668   22.3707 C   0  0  0  0  0  0  0  0  0  0  0  0
   -8.5090    5.0688   22.1042 C   0  0  2  0  0  0  0  0  0  0  0  0
   -7.8882    5.4795   23.3270 O   0  0  0  0  0  0  0  0  0  0  0  0
   -8.5573    6.2302   21.0803 C   0  0  2  0  0  0  0  0  0  0  0  0
   -9.1924    5.7916   19.8456 O   0  0  0  0  0  0  0  0  0  0  0  0
   -7.1788    6.7678   20.7040 C   0  0  0  0  0  0  0  0  0  0  0  0
   -6.3930    7.1279   21.9133 N   0  3  0  0  0  0  0  0  0  0  0  0
  -13.8333    9.3706   18.9563 C   0  0  2  0  0  0  0  0  0  0  0  0
  -14.3364   10.5020   18.1558 N   0  3  0  0  0  0  0  0  0  0  0  0
  -12.5422    9.7676   19.6589 C   0  0  0  0  0  0  0  0  0  0  0  0
  -12.0068    8.5978   20.4920 C   0  0  2  0  0  0  0  0  0  0  0  0
  -10.8191    9.0661   21.2487 N   0  3  0  0  0  0  0  0  0  0  0  0
  -11.7447    7.3449   19.6038 C   0  0  2  0  0  0  0  0  0  0  0  0
  -13.0422    6.9724   18.8412 C   0  0  2  0  0  0  0  0  0  0  0  0
  -12.7639    5.9474   17.9182 O   0  0  0  0  0  0  0  0  0  0  0  0
  -13.5728    8.1743   18.0430 C   0  0  1  0  0  0  0  0  0  0  0  0
  -14.7815    7.7949   17.3859 O   0  0  0  0  0  0  0  0  0  0  0  0
  -14.6718    6.9442   16.2971 C   0  0  2  0  0  0  0  0  0  0  0  0
  -14.3224    7.7757   15.0510 C   0  0  2  0  0  0  0  0  0  0  0  0
  -13.0921    8.4494   15.2846 O   0  0  0  0  0  0  0  0  0  0  0  0
  -15.4418    8.7981   14.7873 C   0  0  1  0  0  0  0  0  0  0  0  0
  -15.1474    9.6505   13.5995 N   0  3  0  0  0  0  0  0  0  0  0  0
  -16.7840    8.0491   14.6017 C   0  0  2  0  0  0  0  0  0  0  0  0
  -17.8463    8.9739   14.3804 O   0  0  0  0  0  0  0  0  0  0  0  0
  -17.0776    7.1709   15.8323 C   0  0  2  0  0  0  0  0  0  0  0  0
  -15.9430    6.2707   16.1059 O   0  0  0  0  0  0  0  0  0  0  0  0
  -18.2979    6.2996   15.6332 C   0  0  0  0  0  0  0  0  0  0  0  0
  -18.5687    5.5030   16.7845 O   0  0  0  0  0  0  0  0  0  0  0  0
  1  2  1  1  0  0  0
  1  3  1  0  0  0  0
  1  9  1  0  0  0  0
  3  4  1  1  0  0  0
  3  5  1  0  0  0  0
  5  6  1  0  0  0  0
  6  7  1  1  0  0  0
  6  8  1  0  0  0  0
  8  9  1  0  0  0  0
  8 10  1  6  0  0  0
 10 11  1  0  0  0  0
 12 13  1  6  0  0  0
 12 14  1  0  0  0  0
 12 20  1  0  0  0  0
 14 15  1  0  0  0  0
 15 16  1  6  0  0  0
 15 17  1  0  0  0  0
 17  2  1  1  0  0  0
 17 18  1  0  0  0  0
 18 19  1  6  0  0  0
 18 20  1  0  0  0  0
 20 21  1  1  0  0  0
 22 21  1  1  0  0  0
 22 23  1  0  0  0  0
 22 30  1  0  0  0  0
 23 24  1  1  0  0  0
 23 25  1  0  0  0  0
 25 26  1  6  0  0  0
 25 27  1  0  0  0  0
 27 28  1  1  0  0  0
 27 29  1  0  0  0  0
 29 30  1  0  0  0  0
 29 31  1  6  0  0  0
 31 32  1  0  0  0  0
M  CHG  5   4   1  11   1  13   1  16   1  26   1
M  END
>  <CHROM.1>
-170.58686813,-148.66983186,-164.98581411,-43.38773029,-52.78415557,-80.52307178
-69.66608681,76.72524300,-54.84452988,165.19860777,-82.43496118,-176.93868184
116.83887590,71.64118597,-179.31277808,53.96834186,-12.77177898,7.13088960
18.51508907,0.46432774,0.56471605,2.69789051

>  <Name>
1lc4

>  <RI>
0

>  <Rbt.Current_Directory>
/home/afrankz/demos/rdock_decoys_rna/rnas/1lc4

>  <Rbt.Executable>
rbdock ($Id: //depot/dev/client3/rdock/2013.1/src/exe/rbdock.cxx#4 $)

>  <Rbt.Library>
libRbt.so (2013.1, Build901 2013/11/27)

>  <Rbt.Parameter_File>
/export/apps/rDock/src/rDock_2013.1_src/data/scripts/dock_solv.prm

>  <Rbt.Receptor>
prm/pocket_docking_6.prm

>  <SCORE>
-76.6221

>  <SCORE.INTER>
-59.9886

>  <SCORE.INTER.CONST>
1

>  <SCORE.INTER.POLAR>
-9.41009

>  <SCORE.INTER.ROT>
6

>  <SCORE.INTER.SOLV>
30.2446

>  <SCORE.INTER.VDW>
-26.307

>  <SCORE.INTER.norm>
-1.87464

>  <SCORE.INTRA>
-16.7043

>  <SCORE.INTRA.DIHEDRAL>
-28.2753

>  <SCORE.INTRA.DIHEDRAL.0>
44.2576

>  <SCORE.INTRA.POLAR>
-0.518118

>  <SCORE.INTRA.POLAR.0>
-0.381556

>  <SCORE.INTRA.REPUL>
0

>  <SCORE.INTRA.REPUL.0>
0

>  <SCORE.INTRA.SOLV>
0.0483363

>  <SCORE.INTRA.SOLV.lig_0>
-134.592

>  <SCORE.INTRA.VDW>
-0.829231

>  <SCORE.INTRA.VDW.0>
-1.01417

>  <SCORE.INTRA.norm>
-0.52201

>  <SCORE.RESTR>
0.0707398

>  <SCORE.RESTR.CAVITY>
0.0707398

>  <SCORE.RESTR.norm>
0.00221062

>  <SCORE.SYSTEM>
0

>  <SCORE.SYSTEM.CONST>
0

>  <SCORE.SYSTEM.DIHEDRAL>
0

>  <SCORE.SYSTEM.SOLV>
0

>  <SCORE.SYSTEM.norm>
0

>  <SCORE.heavy>
32

>  <SCORE.norm>
-2.39444

>  <RMSD>
2.438

$$$$
1lc4
 OpenBabel02141814113D
libRbt.so/2013.1/901 2013/11/27
 32 34  0  0  0  0  0  0  0  0999 V2000
   -9.8330    6.1650   19.5895 C   0  0  2  0  0  0  0  0  0  0  0  0
  -11.0839    6.7047   19.9361 O   0  0  0  0  0  0  0  0  0  0  0  0
   -9.7576    4.7300   20.1499 C   0  0  2  0  0  0  0  0  0  0  0  0
  -10.8533    3.9157   19.6152 N   0  3  0  0  0  0  0  0  0  0  0  0
   -9.7801    4.7608   21.6962 C   0  0  0  0  0  0  0  0  0  0  0  0
   -8.5774    5.6011   22.1600 C   0  0  2  0  0  0  0  0  0  0  0  0
   -8.5106    5.6305   23.5897 O   0  0  0  0  0  0  0  0  0  0  0  0
   -8.6949    7.0298   21.5731 C   0  0  2  0  0  0  0  0  0  0  0  0
   -8.7620    6.9769   20.1195 O   0  0  0  0  0  0  0  0  0  0  0  0
   -7.5178    7.9337   21.9307 C   0  0  0  0  0  0  0  0  0  0  0  0
   -6.2844    7.5213   21.2107 N   0  3  0  0  0  0  0  0  0  0  0  0
  -13.7427    8.9006   17.4725 C   0  0  2  0  0  0  0  0  0  0  0  0
  -14.3707    9.9801   16.6889 N   0  3  0  0  0  0  0  0  0  0  0  0
  -13.6475    9.3113   18.9356 C   0  0  0  0  0  0  0  0  0  0  0  0
  -12.9925    8.1981   19.7607 C   0  0  2  0  0  0  0  0  0  0  0  0
  -13.0290    8.5914   21.1913 N   0  3  0  0  0  0  0  0  0  0  0  0
  -11.5676    7.8631   19.2269 C   0  0  2  0  0  0  0  0  0  0  0  0
  -11.6524    7.5008   17.7218 C   0  0  2  0  0  0  0  0  0  0  0  0
  -10.3528    7.3595   17.2011 O   0  0  0  0  0  0  0  0  0  0  0  0
  -12.3438    8.6205   16.9270 C   0  0  1  0  0  0  0  0  0  0  0  0
  -12.4280    8.2298   15.5569 O   0  0  0  0  0  0  0  0  0  0  0  0
  -12.9333    6.9677   15.2869 C   0  0  2  0  0  0  0  0  0  0  0  0
  -12.2706    6.4315   14.0064 C   0  0  2  0  0  0  0  0  0  0  0  0
  -10.8649    6.3733   14.2124 O   0  0  0  0  0  0  0  0  0  0  0  0
  -12.5930    7.3708   12.8311 C   0  0  1  0  0  0  0  0  0  0  0  0
  -11.9573    6.9121   11.5624 N   0  3  0  0  0  0  0  0  0  0  0  0
  -14.1290    7.4728   12.6655 C   0  0  2  0  0  0  0  0  0  0  0  0
  -14.4592    8.3582   11.5979 O   0  0  0  0  0  0  0  0  0  0  0  0
  -14.7755    7.9454   13.9810 C   0  0  2  0  0  0  0  0  0  0  0  0
  -14.3682    7.0741   15.0979 O   0  0  0  0  0  0  0  0  0  0  0  0
  -16.2864    7.9106   13.9187 C   0  0  0  0  0  0  0  0  0  0  0  0
  -16.7505    7.5013   12.6340 O   0  0  0  0  0  0  0  0  0  0  0  0
  1  2  1  1  0  0  0
  1  3  1  0  0  0  0
  1  9  1  0  0  0  0
  3  4  1  6  0  0  0
  3  5  1  0  0  0  0
  5  6  1  0  0  0  0
  6  7  1  1  0  0  0
  6  8  1  0  0  0  0
  8  9  1  0  0  0  0
  8 10  1  6  0  0  0
 10 11  1  0  0  0  0
 12 13  1  6  0  0  0
 12 14  1  0  0  0  0
 12 20  1  0  0  0  0
 14 15  1  0  0  0  0
 15 16  1  1  0  0  0
 15 17  1  0  0  0  0
 17  2  1  1  0  0  0
 17 18  1  0  0  0  0
 18 19  1  6  0  0  0
 18 20  1  0  0  0  0
 20 21  1  6  0  0  0
 22 21  1  6  0  0  0
 22 23  1  0  0  0  0
 22 30  1  0  0  0  0
 23 24  1  1  0  0  0
 23 25  1  0  0  0  0
 25 26  1  6  0  0  0
 25 27  1  0  0  0  0
 27 28  1  6  0  0  0
 27 29  1  0  0  0  0
 29 30  1  0  0  0  0
 29 31  1  6  0  0  0
 31 32  1  0  0  0  0
M  CHG  5   4   1  11   1  13   1  16   1  26   1
M  END
>  <CHROM.1>
-162.31667128,177.16199323,-101.47102106,-54.69293005,70.89990880,-48.94060506
163.86290969,177.55846904,-59.32678117,-72.42876390,-149.01518608,175.38528016
177.08488071,-170.78642671,-2.48082549,-178.70250993,-11.78386947,7.24630551
17.46986326,-0.91583561,0.48360178,-1.75549283

>  <Name>
1lc4

>  <RI>
0

>  <Rbt.Current_Directory>
/home/afrankz/demos/rdock_decoys_rna/rnas/1lc4

>  <Rbt.Executable>
rbdock ($Id: //depot/dev/client3/rdock/2013.1/src/exe/rbdock.cxx#4 $)

>  <Rbt.Library>
libRbt.so (2013.1, Build901 2013/11/27)

>  <Rbt.Parameter_File>
/export/apps/rDock/src/rDock_2013.1_src/data/scripts/dock_solv.prm

>  <Rbt.Receptor>
prm/blind_docking_80.prm

>  <SCORE>
-42.9626

>  <SCORE.INTER>
-34.523

>  <SCORE.INTER.CONST>
1

>  <SCORE.INTER.POLAR>
-5.58568

>  <SCORE.INTER.ROT>
6

>  <SCORE.INTER.SOLV>
30.8773

>  <SCORE.INTER.VDW>
-22.2888

>  <SCORE.INTER.norm>
-1.07884

>  <SCORE.INTRA>
-14.107

>  <SCORE.INTRA.DIHEDRAL>
-28.0755

>  <SCORE.INTRA.DIHEDRAL.0>
44.2576

>  <SCORE.INTRA.POLAR>
-0.118028

>  <SCORE.INTRA.POLAR.0>
-0.381556

>  <SCORE.INTRA.REPUL>
0.107021

>  <SCORE.INTRA.REPUL.0>
0

>  <SCORE.INTRA.SOLV>
-1.44014

>  <SCORE.INTRA.SOLV.lig_0>
-134.592

>  <SCORE.INTRA.VDW>
0.517064

>  <SCORE.INTRA.VDW.0>
-1.01417

>  <SCORE.INTRA.norm>
-0.440843

>  <SCORE.RESTR>
5.66734

>  <SCORE.RESTR.CAVITY>
5.66734

>  <SCORE.RESTR.norm>
0.177104

>  <SCORE.SYSTEM>
0

>  <SCORE.SYSTEM.CONST>
0

>  <SCORE.SYSTEM.DIHEDRAL>
0

>  <SCORE.SYSTEM.SOLV>
0

>  <SCORE.SYSTEM.norm>
0

>  <SCORE.heavy>
32

>  <SCORE.norm>
-1.34258

>  <RMSD>
2.487

$$$$
1lc4
 OpenBabel02141814113D
libRbt.so/2013.1/901 2013/11/27
 32 34  0  0  0  0  0  0  0  0999 V2000
   -9.5220    5.8930   19.7589 C   0  0  2  0  0  0  0  0  0  0  0  0
  -10.7485    6.5555   19.9404 O   0  0  0  0  0  0  0  0  0  0  0  0
   -9.6453    4.4803   20.3654 C   0  0  2  0  0  0  0  0  0  0  0  0
  -10.7438    3.7465   19.7293 N   0  3  0  0  0  0  0  0  0  0  0  0
   -9.8417    4.5739   21.8968 C   0  0  0  0  0  0  0  0  0  0  0  0
   -8.6268    5.3211   22.4744 C   0  0  2  0  0  0  0  0  0  0  0  0
   -8.7216    5.4008   23.9006 O   0  0  0  0  0  0  0  0  0  0  0  0
   -8.5427    6.7303   21.8368 C   0  0  2  0  0  0  0  0  0  0  0  0
   -8.4477    6.6263   20.3876 O   0  0  0  0  0  0  0  0  0  0  0  0
   -7.3350    7.5389   22.3041 C   0  0  0  0  0  0  0  0  0  0  0  0
   -7.2866    7.6257   23.7873 N   0  3  0  0  0  0  0  0  0  0  0  0
  -13.1939    9.0322   17.5226 C   0  0  2  0  0  0  0  0  0  0  0  0
  -13.6725   10.1262   16.6577 N   0  3  0  0  0  0  0  0  0  0  0  0
  -12.7453    9.5927   18.8653 C   0  0  0  0  0  0  0  0  0  0  0  0
  -12.2418    8.4648   19.7728 C   0  0  2  0  0  0  0  0  0  0  0  0
  -11.9288    9.0393   21.1050 N   0  3  0  0  0  0  0  0  0  0  0  0
  -11.0571    7.6963   19.1146 C   0  0  2  0  0  0  0  0  0  0  0  0
  -11.4916    7.1739   17.7211 C   0  0  2  0  0  0  0  0  0  0  0  0
  -10.3775    6.6254   17.0593 O   0  0  0  0  0  0  0  0  0  0  0  0
  -12.0229    8.3215   16.8470 C   0  0  1  0  0  0  0  0  0  0  0  0
  -12.4398    7.7896   15.5900 O   0  0  0  0  0  0  0  0  0  0  0  0
  -13.3948    6.7852   15.6113 C   0  0  2  0  0  0  0  0  0  0  0  0
  -13.3260    6.0070   14.2861 C   0  0  2  0  0  0  0  0  0  0  0  0
  -12.0228    5.4545   14.1508 O   0  0  0  0  0  0  0  0  0  0  0  0
  -13.6181    6.9622   13.1156 C   0  0  1  0  0  0  0  0  0  0  0  0
  -13.5443    6.2663   11.7987 N   0  3  0  0  0  0  0  0  0  0  0  0
  -15.0129    7.6036   13.3160 C   0  0  2  0  0  0  0  0  0  0  0  0
  -15.3011    8.5145   12.2578 O   0  0  0  0  0  0  0  0  0  0  0  0
  -15.0791    8.3178   14.6788 C   0  0  2  0  0  0  0  0  0  0  0  0
  -14.7034    7.3938   15.7640 O   0  0  0  0  0  0  0  0  0  0  0  0
  -16.4695    8.8258   14.9896 C   0  0  0  0  0  0  0  0  0  0  0  0
  -16.8016    9.9657   14.1999 O   0  0  0  0  0  0  0  0  0  0  0  0
  1  2  1  1  0  0  0
  1  3  1  0  0  0  0
  1  9  1  0  0  0  0
  3  4  1  6  0  0  0
  3  5  1  0  0  0  0
  5  6  1  0  0  0  0
  6  7  1  1  0  0  0
  6  8  1  0  0  0  0
  8  9  1  0  0  0  0
  8 10  1  1  0  0  0
 10 11  1  0  0  0  0
 12 13  1  6  0  0  0
 12 14  1  0  0  0  0
 12 20  1  0  0  0  0
 14 15  1  0  0  0  0
 15 16  1  1  0  0  0
 15 17  1  0  0  0  0
 17  2  1  1  0  0  0
 17 18  1  0  0  0  0
 18 19  1  6  0  0  0
 18 20  1  0  0  0  0
 20 21  1  6  0  0  0
 22 21  1  6  0  0  0
 22 23  1  0  0  0  0
 22 30  1  0  0  0  0
 23 24  1  6  0  0  0
 23 25  1  0  0  0  0
 25 26  1  6  0  0  0
 25 27  1  0  0  0  0
 27 28  1  6  0  0  0
 27 29  1  0  0  0  0
 29 30  1  0  0  0  0
 29 31  1  1  0  0  0
 31 32  1  0  0  0  0
M  CHG  5   4   1  11   1  13   1  16   1  26   1
M  END
>  <CHROM.1>
-160.22781907,-164.19516305,-139.27330203,64.57805614,-54.18277251,-131.20596863
140.08726201,51.07395711,77.35003938,-65.02734776,-159.17474981,-55.40274465
-60.94256638,-58.20201235,-73.22499611,63.05131727,-11.87472058,7.20790368
17.82238386,-0.54585584,0.83869317,-2.25042553

>  <Name>
1lc4

>  <RI>
0

>  <Rbt.Current_Directory>
/home/afrankz/demos/rdock_decoys_rna/rnas/1lc4

>  <Rbt.Executable>
rbdock ($Id: //depot/dev/client3/rdock/2013.1/src/exe/rbdock.cxx#4 $)

>  <Rbt.Library>
libRbt.so (2013.1, Build901 2013/11/27)

>  <Rbt.Parameter_File>
/export/apps/rDock/src/rDock_2013.1_src/data/scripts/dock_solv.prm

>  <Rbt.Receptor>
prm/blind_docking_80.prm

>  <SCORE>
-41.0757

>  <SCORE.INTER>
-33.9034

>  <SCORE.INTER.CONST>
1

>  <SCORE.INTER.POLAR>
-5.43426

>  <SCORE.INTER.ROT>
6

>  <SCORE.INTER.SOLV>
23.9514

>  <SCORE.INTER.VDW>
-20.0719

>  <SCORE.INTER.norm>
-1.05948

>  <SCORE.INTRA>
-15.5607

>  <SCORE.INTRA.DIHEDRAL>
-27.8507

>  <SCORE.INTRA.DIHEDRAL.0>
44.2576

>  <SCORE.INTRA.POLAR>
-0.476461

>  <SCORE.INTRA.POLAR.0>
-0.381556

>  <SCORE.INTRA.REPUL>
0

>  <SCORE.INTRA.REPUL.0>
0

>  <SCORE.INTRA.SOLV>
1.39245

>  <SCORE.INTRA.SOLV.lig_0>
-134.592

>  <SCORE.INTRA.VDW>
-0.711566

>  <SCORE.INTRA.VDW.0>
-1.01417

>  <SCORE.INTRA.norm>
-0.486271

>  <SCORE.RESTR>
8.38836

>  <SCORE.RESTR.CAVITY>
8.38836

>  <SCORE.RESTR.norm>
0.262136

>  <SCORE.SYSTEM>
0

>  <SCORE.SYSTEM.CONST>
0

>  <SCORE.SYSTEM.DIHEDRAL>
0

>  <SCORE.SYSTEM.SOLV>
0

>  <SCORE.SYSTEM.norm>
0

>  <SCORE.heavy>
32

>  <SCORE.norm>
-1.28362

>  <RMSD>
2.492

$$$$
1lc4
 OpenBabel02141814113D
libRbt.so/2013.1/901 2013/11/27
 32 34  0  0  0  0  0  0  0  0999 V2000
  -10.1381    5.6965   19.5222 C   0  0  2  0  0  0  0  0  0  0  0  0
  -11.2296    6.5258   19.8338 O   0  0  0  0  0  0  0  0  0  0  0  0
  -10.4026    4.3053   20.1335 C   0  0  2  0  0  0  0  0  0  0  0  0
  -11.6561    3.7501   19.6140 N   0  3  0  0  0  0  0  0  0  0  0  0
  -10.4236    4.3979   21.6774 C   0  0  0  0  0  0  0  0  0  0  0  0
   -9.0597    4.9507   22.1266 C   0  0  2  0  0  0  0  0  0  0  0  0
   -8.9937    5.0167   23.5551 O   0  0  0  0  0  0  0  0  0  0  0  0
   -8.8375    6.3446   21.4885 C   0  0  2  0  0  0  0  0  0  0  0  0
   -8.9092    6.2549   20.0369 O   0  0  0  0  0  0  0  0  0  0  0  0
   -7.4831    6.9613   21.8289 C   0  0  0  0  0  0  0  0  0  0  0  0
   -7.4734    8.4226   21.5566 N   0  3  0  0  0  0  0  0  0  0  0  0
  -13.8044    9.0283   17.5827 C   0  0  2  0  0  0  0  0  0  0  0  0
  -14.3165   10.0811   16.6865 N   0  3  0  0  0  0  0  0  0  0  0  0
  -13.0673    9.6607   18.7554 C   0  0  0  0  0  0  0  0  0  0  0  0
  -12.5265    8.5756   19.6932 C   0  0  2  0  0  0  0  0  0  0  0  0
  -11.9227    9.2370   20.8766 N   0  3  0  0  0  0  0  0  0  0  0  0
  -11.5637    7.6082   18.9419 C   0  0  2  0  0  0  0  0  0  0  0  0
  -12.2922    7.0067   17.7126 C   0  0  2  0  0  0  0  0  0  0  0  0
  -11.3766    6.2648   16.9435 O   0  0  0  0  0  0  0  0  0  0  0  0
  -12.8521    8.1180   16.8098 C   0  0  1  0  0  0  0  0  0  0  0  0
  -13.5398    7.5186   15.7123 O   0  0  0  0  0  0  0  0  0  0  0  0
  -14.4283    6.4951   16.0028 C   0  0  2  0  0  0  0  0  0  0  0  0
  -14.3069    5.4101   14.9192 C   0  0  2  0  0  0  0  0  0  0  0  0
  -12.9705    4.9242   14.9105 O   0  0  0  0  0  0  0  0  0  0  0  0
  -14.6573    6.0143   13.5481 C   0  0  1  0  0  0  0  0  0  0  0  0
  -14.5361    5.0111   12.4513 N   0  3  0  0  0  0  0  0  0  0  0  0
  -16.0908    6.5969   13.5982 C   0  0  2  0  0  0  0  0  0  0  0  0
  -16.4347    7.1874   12.3469 O   0  0  0  0  0  0  0  0  0  0  0  0
  -16.2057    7.6299   14.7346 C   0  0  2  0  0  0  0  0  0  0  0  0
  -15.7736    7.0392   16.0141 O   0  0  0  0  0  0  0  0  0  0  0  0
  -17.6265    8.1124   14.9255 C   0  0  0  0  0  0  0  0  0  0  0  0
  -18.2728    8.3516   13.6771 O   0  0  0  0  0  0  0  0  0  0  0  0
  1  2  1  1  0  0  0
  1  3  1  0  0  0  0
  1  9  1  0  0  0  0
  3  4  1  6  0  0  0
  3  5  1  0  0  0  0
  5  6  1  0  0  0  0
  6  7  1  1  0  0  0
  6  8  1  0  0  0  0
  8  9  1  0  0  0  0
  8 10  1  6  0  0  0
 10 11  1  0  0  0  0
 12 13  1  6  0  0  0
 12 14  1  0  0  0  0
 12 20  1  0  0  0  0
 14 15  1  0  0  0  0
 15 16  1  1  0  0  0
 15 17  1  0  0  0  0
 17  2  1  1  0  0  0
 17 18  1  0  0  0  0
 18 19  1  6  0  0  0
 18 20  1  0  0  0  0
 20 21  1  6  0  0  0
 22 21  1  6  0  0  0
 22 23  1  0  0  0  0
 22 30  1  0  0  0  0
 23 24  1  6  0  0  0
 23 25  1  0  0  0  0
 25 26  1  6  0  0  0
 25 27  1  0  0  0  0
 27 28  1  6  0  0  0
 27 29  1  0  0  0  0
 29 30  1  0  0  0  0
 29 31  1  1  0  0  0
 31 32  1  0  0  0  0
M  CHG  5   4   1  11   1  13   1  16   1  26   1
M  END
>  <CHROM.1>
-151.70229033,-164.86670823,-54.62812429,52.58817135,-162.80498239,55.19740282
-66.11745283,-72.09522655,-57.45600443,-74.68982146,-140.81610663,-37.12633383
172.21640870,-91.21963457,-42.10180499,-64.53490362,-12.60321376,6.83910449
17.72905133,-0.28024175,0.80634567,-2.63237001

>  <Name>
1lc4

>  <RI>
0

>  <Rbt.Current_Directory>
/home/afrankz/demos/rdock_decoys_rna/rnas/1lc4

>  <Rbt.Executable>
rbdock ($Id: //depot/dev/client3/rdock/2013.1/src/exe/rbdock.cxx#4 $)

>  <Rbt.Library>
libRbt.so (2013.1, Build901 2013/11/27)

>  <Rbt.Parameter_File>
/export/apps/rDock/src/rDock_2013.1_src/data/scripts/dock_solv.prm

>  <Rbt.Receptor>
prm/pocket_docking_3.prm

>  <SCORE>
-58.9125

>  <SCORE.INTER>
-42.9503

>  <SCORE.INTER.CONST>
1

>  <SCORE.INTER.POLAR>
-5.98096

>  <SCORE.INTER.ROT>
6

>  <SCORE.INTER.SOLV>
19.8902

>  <SCORE.INTER.VDW>
-22.9271

>  <SCORE.INTER.norm>
-1.3422

>  <SCORE.INTRA>
-15.9622

>  <SCORE.INTRA.DIHEDRAL>
-24.224

>  <SCORE.INTRA.DIHEDRAL.0>
44.2576

>  <SCORE.INTRA.POLAR>
-0.232596

>  <SCORE.INTRA.POLAR.0>
-0.381556

>  <SCORE.INTRA.REPUL>
0

>  <SCORE.INTRA.REPUL.0>
0

>  <SCORE.INTRA.SOLV>
-3.17475

>  <SCORE.INTRA.SOLV.lig_0>
-134.592

>  <SCORE.INTRA.VDW>
-1.47204

>  <SCORE.INTRA.VDW.0>
-1.01417

>  <SCORE.INTRA.norm>
-0.49882

>  <SCORE.RESTR>
0

>  <SCORE.RESTR.CAVITY>
0

>  <SCORE.RESTR.norm>
0

>  <SCORE.SYSTEM>
0

>  <SCORE.SYSTEM.CONST>
0

>  <SCORE.SYSTEM.DIHEDRAL>
0

>  <SCORE.SYSTEM.SOLV>
0

>  <SCORE.SYSTEM.norm>
0

>  <SCORE.heavy>
32

>  <SCORE.norm>
-1.84102

>  <RMSD>
2.493

$$$$
1lc4
 OpenBabel02141814113D
libRbt.so/2013.1/901 2013/11/27
 32 34  0  0  0  0  0  0  0  0999 V2000
  -10.0510    5.9974   19.4284 C   0  0  2  0  0  0  0  0  0  0  0  0
  -11.3508    6.4633   19.6922 O   0  0  0  0  0  0  0  0  0  0  0  0
   -9.9735    4.5195   19.8628 C   0  0  2  0  0  0  0  0  0  0  0  0
  -10.9772    3.7248   19.1482 N   0  3  0  0  0  0  0  0  0  0  0  0
  -10.1502    4.4055   21.3952 C   0  0  0  0  0  0  0  0  0  0  0  0
   -9.0342    5.2359   22.0529 C   0  0  2  0  0  0  0  0  0  0  0  0
   -9.1105    5.1340   23.4788 O   0  0  0  0  0  0  0  0  0  0  0  0
   -9.1506    6.7087   21.5873 C   0  0  2  0  0  0  0  0  0  0  0  0
   -9.0713    6.7894   20.1357 O   0  0  0  0  0  0  0  0  0  0  0  0
   -8.0521    7.6116   22.1429 C   0  0  0  0  0  0  0  0  0  0  0  0
   -7.9007    8.8420   21.3227 N   0  3  0  0  0  0  0  0  0  0  0  0
  -14.0143    8.5974   17.1799 C   0  0  2  0  0  0  0  0  0  0  0  0
  -14.6501    9.6608   16.3807 N   0  3  0  0  0  0  0  0  0  0  0  0
  -13.9442    9.0201   18.6410 C   0  0  0  0  0  0  0  0  0  0  0  0
  -13.2813    7.9237   19.4823 C   0  0  2  0  0  0  0  0  0  0  0  0
  -13.3421    8.3265   20.9094 N   0  3  0  0  0  0  0  0  0  0  0  0
  -11.8446    7.6084   18.9686 C   0  0  2  0  0  0  0  0  0  0  0  0
  -11.9046    7.2342   17.4652 C   0  0  2  0  0  0  0  0  0  0  0  0
  -10.5964    7.1107   16.9617 O   0  0  0  0  0  0  0  0  0  0  0  0
  -12.6042    8.3366   16.6538 C   0  0  1  0  0  0  0  0  0  0  0  0
  -12.6649    7.9349   15.2857 O   0  0  0  0  0  0  0  0  0  0  0  0
  -13.0506    6.6295   15.0241 C   0  0  2  0  0  0  0  0  0  0  0  0
  -12.5995    6.2543   13.6021 C   0  0  2  0  0  0  0  0  0  0  0  0
  -11.1854    6.3823   13.5255 O   0  0  0  0  0  0  0  0  0  0  0  0
  -13.2702    7.1962   12.5869 C   0  0  1  0  0  0  0  0  0  0  0  0
  -12.8526    6.8932   11.1876 N   0  3  0  0  0  0  0  0  0  0  0  0
  -14.8080    7.0914   12.7319 C   0  0  2  0  0  0  0  0  0  0  0  0
  -15.4576    7.9735   11.8193 O   0  0  0  0  0  0  0  0  0  0  0  0
  -15.2283    7.4042   14.1800 C   0  0  2  0  0  0  0  0  0  0  0  0
  -14.4957    6.5443   15.1268 O   0  0  0  0  0  0  0  0  0  0  0  0
  -16.7036    7.1626   14.4107 C   0  0  0  0  0  0  0  0  0  0  0  0
  -17.4927    8.2635   13.9650 O   0  0  0  0  0  0  0  0  0  0  0  0
  1  2  1  1  0  0  0
  1  3  1  0  0  0  0
  1  9  1  0  0  0  0
  3  4  1  6  0  0  0
  3  5  1  0  0  0  0
  5  6  1  0  0  0  0
  6  7  1  1  0  0  0
  6  8  1  0  0  0  0
  8  9  1  0  0  0  0
  8 10  1  1  0  0  0
 10 11  1  0  0  0  0
 12 13  1  6  0  0  0
 12 14  1  0  0  0  0
 12 20  1  0  0  0  0
 14 15  1  0  0  0  0
 15 16  1  1  0  0  0
 15 17  1  0  0  0  0
 17  2  1  1  0  0  0
 17 18  1  0  0  0  0
 18 19  1  6  0  0  0
 18 20  1  0  0  0  0
 20 21  1  6  0  0  0
 22 21  1  6  0  0  0
 22 23  1  0  0  0  0
 22 30  1  0  0  0  0
 23 24  1  1  0  0  0
 23 25  1  0  0  0  0
 25 26  1  6  0  0  0
 25 27  1  0  0  0  0
 27 28  1  6  0  0  0
 27 29  1  0  0  0  0
 29 30  1  0  0  0  0
 29 31  1  6  0  0  0
 31 32  1  0  0  0  0
M  CHG  5   4   1  11   1  13   1  16   1  26   1
M  END
>  <CHROM.1>
-157.67842519,-178.56607516,144.55480846,-175.19274051,159.52726044,54.15577629
160.02673106,61.55482088,170.16755687,-77.13055001,-160.78989234,76.28193594
-179.96558750,66.14582568,-81.64718360,47.61495604,-12.21526401,7.04642174
17.35388093,-0.88786406,0.54742506,-1.82167545

>  <Name>
1lc4

>  <RI>
0

>  <Rbt.Current_Directory>
/home/afrankz/demos/rdock_decoys_rna/rnas/1lc4

>  <Rbt.Executable>
rbdock ($Id: //depot/dev/client3/rdock/2013.1/src/exe/rbdock.cxx#4 $)

>  <Rbt.Library>
libRbt.so (2013.1, Build901 2013/11/27)

>  <Rbt.Parameter_File>
/export/apps/rDock/src/rDock_2013.1_src/data/scripts/dock_solv.prm

>  <Rbt.Receptor>
prm/pocket_docking_3.prm

>  <SCORE>
-61.9784

>  <SCORE.INTER>
-44.1588

>  <SCORE.INTER.CONST>
1

>  <SCORE.INTER.POLAR>
-6.62796

>  <SCORE.INTER.ROT>
6

>  <SCORE.INTER.SOLV>
25.2115

>  <SCORE.INTER.VDW>
-23.3499

>  <SCORE.INTER.norm>
-1.37996

>  <SCORE.INTRA>
-17.8196

>  <SCORE.INTRA.DIHEDRAL>
-30.0393

>  <SCORE.INTRA.DIHEDRAL.0>
44.2576

>  <SCORE.INTRA.POLAR>
-0.226638

>  <SCORE.INTRA.POLAR.0>
-0.381556

>  <SCORE.INTRA.REPUL>
0

>  <SCORE.INTRA.REPUL.0>
0

>  <SCORE.INTRA.SOLV>
-1.99725

>  <SCORE.INTRA.SOLV.lig_0>
-134.592

>  <SCORE.INTRA.VDW>
-1.03072

>  <SCORE.INTRA.VDW.0>
-1.01417

>  <SCORE.INTRA.norm>
-0.556861

>  <SCORE.RESTR>
0

>  <SCORE.RESTR.CAVITY>
0

>  <SCORE.RESTR.norm>
0

>  <SCORE.SYSTEM>
0

>  <SCORE.SYSTEM.CONST>
0

>  <SCORE.SYSTEM.DIHEDRAL>
0

>  <SCORE.SYSTEM.SOLV>
0

>  <SCORE.SYSTEM.norm>
0

>  <SCORE.heavy>
32

>  <SCORE.norm>
-1.93683

>  <RMSD>
2.528

$$$$
1lc4
 OpenBabel02141814113D
libRbt.so/2013.1/901 2013/11/27
 32 34  0  0  0  0  0  0  0  0999 V2000
  -10.5497    5.3872   19.5705 C   0  0  2  0  0  0  0  0  0  0  0  0
  -11.5176    6.3396   19.9342 O   0  0  0  0  0  0  0  0  0  0  0  0
  -10.7229    4.1549   20.4816 C   0  0  2  0  0  0  0  0  0  0  0  0
  -12.0780    3.6106   20.3509 N   0  3  0  0  0  0  0  0  0  0  0  0
  -10.4042    4.5286   21.9484 C   0  0  0  0  0  0  0  0  0  0  0  0
   -8.9568    5.0492   21.9893 C   0  0  2  0  0  0  0  0  0  0  0  0
   -8.5792    5.3693   23.3325 O   0  0  0  0  0  0  0  0  0  0  0  0
   -8.8306    6.2826   21.0607 C   0  0  2  0  0  0  0  0  0  0  0  0
   -9.2195    5.9356   19.7011 O   0  0  0  0  0  0  0  0  0  0  0  0
   -7.4139    6.8468   20.9869 C   0  0  0  0  0  0  0  0  0  0  0  0
   -6.9609    7.3390   22.3144 N   0  3  0  0  0  0  0  0  0  0  0  0
  -13.5803    8.9407   17.2999 C   0  0  2  0  0  0  0  0  0  0  0  0
  -13.9206   10.0690   16.4139 N   0  3  0  0  0  0  0  0  0  0  0  0
  -13.2943    9.4539   18.7046 C   0  0  0  0  0  0  0  0  0  0  0  0
  -12.9353    8.2900   19.6350 C   0  0  2  0  0  0  0  0  0  0  0  0
  -12.7822    8.8209   21.0124 N   0  3  0  0  0  0  0  0  0  0  0  0
  -11.6935    7.5093   19.1099 C   0  0  2  0  0  0  0  0  0  0  0  0
  -11.9581    7.0351   17.6577 C   0  0  2  0  0  0  0  0  0  0  0  0
  -10.7810    6.4762   17.1267 O   0  0  0  0  0  0  0  0  0  0  0  0
  -12.3484    8.2186   16.7575 C   0  0  1  0  0  0  0  0  0  0  0  0
  -12.6132    7.7309   15.4427 O   0  0  0  0  0  0  0  0  0  0  0  0
  -13.5157    6.6856   15.3234 C   0  0  2  0  0  0  0  0  0  0  0  0
  -13.1944    5.8965   14.0426 C   0  0  2  0  0  0  0  0  0  0  0  0
  -11.8650    5.4007   14.1358 O   0  0  0  0  0  0  0  0  0  0  0  0
  -13.3268    6.8247   12.8225 C   0  0  1  0  0  0  0  0  0  0  0  0
  -13.0054    6.1182   11.5491 N   0  3  0  0  0  0  0  0  0  0  0  0
  -14.7610    7.4061   12.7766 C   0  0  2  0  0  0  0  0  0  0  0  0
  -14.9064    8.2916   11.6687 O   0  0  0  0  0  0  0  0  0  0  0  0
  -15.0833    8.1317   14.0961 C   0  0  2  0  0  0  0  0  0  0  0  0
  -14.8557    7.2373   15.2454 O   0  0  0  0  0  0  0  0  0  0  0  0
  -16.5261    8.5812   14.1622 C   0  0  0  0  0  0  0  0  0  0  0  0
  -17.4104    7.4821   14.3698 O   0  0  0  0  0  0  0  0  0  0  0  0
  1  2  1  1  0  0  0
  1  3  1  0  0  0  0
  1  9  1  0  0  0  0
  3  4  1  1  0  0  0
  3  5  1  0  0  0  0
  5  6  1  0  0  0  0
  6  7  1  1  0  0  0
  6  8  1  0  0  0  0
  8  9  1  0  0  0  0
  8 10  1  6  0  0  0
 10 11  1  0  0  0  0
 12 13  1  6  0  0  0
 12 14  1  0  0  0  0
 12 20  1  0  0  0  0
 14 15  1  0  0  0  0
 15 16  1  1  0  0  0
 15 17  1  0  0  0  0
 17  2  1  1  0  0  0
 17 18  1  0  0  0  0
 18 19  1  6  0  0  0
 18 20  1  0  0  0  0
 20 21  1  6  0  0  0
 22 21  1  6  0  0  0
 22 23  1  0  0  0  0
 22 30  1  0  0  0  0
 23 24  1  1  0  0  0
 23 25  1  0  0  0  0
 25 26  1  6  0  0  0
 25 27  1  0  0  0  0
 27 28  1  6  0  0  0
 27 29  1  0  0  0  0
 29 30  1  0  0  0  0
 29 31  1  6  0  0  0
 31 32  1  0  0  0  0
M  CHG  5   4   1  11   1  13   1  16   1  26   1
M  END
>  <CHROM.1>
-171.30160005,172.90918877,72.45661138,68.24754606,-62.75554123,161.20955048
-63.83338082,61.46652071,-60.39706953,-69.47905565,-153.94023295,68.24754848
75.11503108,69.68784895,73.27424251,-54.39604814,-12.17275741,6.91601917
17.51971325,-0.73911582,0.73181925,-2.00133896

>  <Name>
1lc4

>  <RI>
0

>  <Rbt.Current_Directory>
/home/afrankz/demos/rdock_decoys_rna/rnas/1lc4

>  <Rbt.Executable>
rbdock ($Id: //depot/dev/client3/rdock/2013.1/src/exe/rbdock.cxx#4 $)

>  <Rbt.Library>
libRbt.so (2013.1, Build901 2013/11/27)

>  <Rbt.Parameter_File>
/export/apps/rDock/src/rDock_2013.1_src/data/scripts/dock_solv.prm

>  <Rbt.Receptor>
prm/pocket_docking_2.prm

>  <SCORE>
-46.6093

>  <SCORE.INTER>
-26.3688

>  <SCORE.INTER.CONST>
1

>  <SCORE.INTER.POLAR>
-2.10837

>  <SCORE.INTER.ROT>
6

>  <SCORE.INTER.SOLV>
17.4909

>  <SCORE.INTER.VDW>
-23.9816

>  <SCORE.INTER.norm>
-0.824025

>  <SCORE.INTRA>
-21.5684

>  <SCORE.INTRA.DIHEDRAL>
-36.5766

>  <SCORE.INTRA.DIHEDRAL.0>
44.2576

>  <SCORE.INTRA.POLAR>
-0.57798

>  <SCORE.INTRA.POLAR.0>
-0.381556

>  <SCORE.INTRA.REPUL>
0

>  <SCORE.INTRA.REPUL.0>
0

>  <SCORE.INTRA.SOLV>
-1.09943

>  <SCORE.INTRA.SOLV.lig_0>
-134.592

>  <SCORE.INTRA.VDW>
-0.765236

>  <SCORE.INTRA.VDW.0>
-1.01417

>  <SCORE.INTRA.norm>
-0.674011

>  <SCORE.RESTR>
1.32791

>  <SCORE.RESTR.CAVITY>
1.32791

>  <SCORE.RESTR.norm>
0.0414971

>  <SCORE.SYSTEM>
0

>  <SCORE.SYSTEM.CONST>
0

>  <SCORE.SYSTEM.DIHEDRAL>
0

>  <SCORE.SYSTEM.SOLV>
0

>  <SCORE.SYSTEM.norm>
0

>  <SCORE.heavy>
32

>  <SCORE.norm>
-1.45654

>  <RMSD>
2.531

$$$$
1lc4
 OpenBabel02141814113D
libRbt.so/2013.1/901 2013/11/27
 32 34  0  0  0  0  0  0  0  0999 V2000
  -10.0190    5.5719   19.6813 C   0  0  2  0  0  0  0  0  0  0  0  0
  -11.1265    6.3919   19.9590 O   0  0  0  0  0  0  0  0  0  0  0  0
  -10.2733    4.1902   20.3180 C   0  0  2  0  0  0  0  0  0  0  0  0
  -11.5110    3.6064   19.7919 N   0  3  0  0  0  0  0  0  0  0  0  0
  -10.3190    4.3149   21.8591 C   0  0  0  0  0  0  0  0  0  0  0  0
   -8.9698    4.8964   22.3167 C   0  0  2  0  0  0  0  0  0  0  0  0
   -8.9264    4.9933   23.7443 O   0  0  0  0  0  0  0  0  0  0  0  0
   -8.7575    6.2795   21.6525 C   0  0  2  0  0  0  0  0  0  0  0  0
   -8.8059    6.1584   20.2023 O   0  0  0  0  0  0  0  0  0  0  0  0
   -7.4171    6.9225   21.9999 C   0  0  0  0  0  0  0  0  0  0  0  0
   -6.5604    7.0663   20.7936 N   0  3  0  0  0  0  0  0  0  0  0  0
  -13.3869    8.8448   17.3448 C   0  0  2  0  0  0  0  0  0  0  0  0
  -13.8051    9.9379   16.4481 N   0  3  0  0  0  0  0  0  0  0  0  0
  -13.0759    9.4005   18.7279 C   0  0  0  0  0  0  0  0  0  0  0  0
  -12.6360    8.2736   19.6691 C   0  0  2  0  0  0  0  0  0  0  0  0
  -12.4593    8.8408   21.0291 N   0  3  0  0  0  0  0  0  0  0  0  0
  -11.3802    7.5347   19.1174 C   0  0  2  0  0  0  0  0  0  0  0  0
  -11.6732    7.0178   17.6854 C   0  0  2  0  0  0  0  0  0  0  0  0
  -10.4917    6.4975   17.1254 O   0  0  0  0  0  0  0  0  0  0  0  0
  -12.1442    8.1636   16.7750 C   0  0  1  0  0  0  0  0  0  0  0  0
  -12.4321    7.6362   15.4806 O   0  0  0  0  0  0  0  0  0  0  0  0
  -13.3162    6.5709   15.4116 C   0  0  2  0  0  0  0  0  0  0  0  0
  -13.0757    5.8109   14.0960 C   0  0  2  0  0  0  0  0  0  0  0  0
  -11.7317    5.3467   14.0786 O   0  0  0  0  0  0  0  0  0  0  0  0
  -13.3230    6.7552   12.9065 C   0  0  1  0  0  0  0  0  0  0  0  0
  -13.0837    6.0775   11.5998 N   0  3  0  0  0  0  0  0  0  0  0  0
  -14.7698    7.3014   12.9807 C   0  0  2  0  0  0  0  0  0  0  0  0
  -15.0205    8.2008   11.9032 O   0  0  0  0  0  0  0  0  0  0  0  0
  -15.0070    7.9973   14.3338 C   0  0  2  0  0  0  0  0  0  0  0  0
  -14.6708    7.0904   15.4461 O   0  0  0  0  0  0  0  0  0  0  0  0
  -16.4505    8.4098   14.5179 C   0  0  0  0  0  0  0  0  0  0  0  0
  -17.3335    7.2950   14.4126 O   0  0  0  0  0  0  0  0  0  0  0  0
  1  2  1  1  0  0  0
  1  3  1  0  0  0  0
  1  9  1  0  0  0  0
  3  4  1  6  0  0  0
  3  5  1  0  0  0  0
  5  6  1  0  0  0  0
  6  7  1  1  0  0  0
  6  8  1  0  0  0  0
  8  9  1  0  0  0  0
  8 10  1  6  0  0  0
 10 11  1  0  0  0  0
 12 13  1  6  0  0  0
 12 14  1  0  0  0  0
 12 20  1  0  0  0  0
 14 15  1  0  0  0  0
 15 16  1  1  0  0  0
 15 17  1  0  0  0  0
 17  2  1  1  0  0  0
 17 18  1  0  0  0  0
 18 19  1  6  0  0  0
 18 20  1  0  0  0  0
 20 21  1  6  0  0  0
 22 21  1  6  0  0  0
 22 23  1  0  0  0  0
 22 30  1  0  0  0  0
 23 24  1  1  0  0  0
 23 25  1  0  0  0  0
 25 26  1  6  0  0  0
 25 27  1  0  0  0  0
 27 28  1  6  0  0  0
 27 29  1  0  0  0  0
 29 30  1  0  0  0  0
 29 31  1  1  0  0  0
 31 32  1  0  0  0  0
M  CHG  5   4   1  11   1  13   1  16   1  26   1
M  END
>  <CHROM.1>
-158.11434850,-178.71191333,58.19676844,-65.96074258,115.57400398,90.41131261
-80.35413378,-67.36433154,-175.88743012,-68.03895934,-157.79511699,-62.08810092
-62.04641100,-167.73288999,57.55166200,-179.62378785,-12.00374233,6.85795701
17.57709549,-0.73379951,0.70736868,-1.99373415

>  <Name>
1lc4

>  <RI>
0

>  <Rbt.Current_Directory>
/home/afrankz/demos/rdock_decoys_rna/rnas/1lc4

>  <Rbt.Executable>
rbdock ($Id: //depot/dev/client3/rdock/2013.1/src/exe/rbdock.cxx#4 $)

>  <Rbt.Library>
libRbt.so (2013.1, Build901 2013/11/27)

>  <Rbt.Parameter_File>
/export/apps/rDock/src/rDock_2013.1_src/data/scripts/dock_solv.prm

>  <Rbt.Receptor>
prm/pocket_docking_2.prm

>  <SCORE>
-52.5663

>  <SCORE.INTER>
-38.3017

>  <SCORE.INTER.CONST>
1

>  <SCORE.INTER.POLAR>
-5.27324

>  <SCORE.INTER.ROT>
6

>  <SCORE.INTER.SOLV>
29.2104

>  <SCORE.INTER.VDW>
-25.2938

>  <SCORE.INTER.norm>
-1.19693

>  <SCORE.INTRA>
-15.5935

>  <SCORE.INTRA.DIHEDRAL>
-30.4086

>  <SCORE.INTRA.DIHEDRAL.0>
44.2576

>  <SCORE.INTRA.POLAR>
0.254479

>  <SCORE.INTRA.POLAR.0>
-0.381556

>  <SCORE.INTRA.REPUL>
0

>  <SCORE.INTRA.REPUL.0>
0

>  <SCORE.INTRA.SOLV>
-1.69083

>  <SCORE.INTRA.SOLV.lig_0>
-134.592

>  <SCORE.INTRA.VDW>
-0.409007

>  <SCORE.INTRA.VDW.0>
-1.01417

>  <SCORE.INTRA.norm>
-0.487297

>  <SCORE.RESTR>
1.32884

>  <SCORE.RESTR.CAVITY>
1.32884

>  <SCORE.RESTR.norm>
0.0415263

>  <SCORE.SYSTEM>
0

>  <SCORE.SYSTEM.CONST>
0

>  <SCORE.SYSTEM.DIHEDRAL>
0

>  <SCORE.SYSTEM.SOLV>
0

>  <SCORE.SYSTEM.norm>
0

>  <SCORE.heavy>
32

>  <SCORE.norm>
-1.6427

>  <RMSD>
2.542

$$$$
1lc4
 OpenBabel02141814113D
libRbt.so/2013.1/901 2013/11/27
 32 34  0  0  0  0  0  0  0  0999 V2000
  -10.1358    5.5519   19.5625 C   0  0  2  0  0  0  0  0  0  0  0  0
  -11.2402    6.3686   19.8614 O   0  0  0  0  0  0  0  0  0  0  0  0
  -10.3630    4.1769   20.2233 C   0  0  2  0  0  0  0  0  0  0  0  0
  -11.6113    3.5789   19.7398 N   0  3  0  0  0  0  0  0  0  0  0  0
  -10.3658    4.3206   21.7634 C   0  0  0  0  0  0  0  0  0  0  0  0
   -9.0080    4.9160   22.1752 C   0  0  2  0  0  0  0  0  0  0  0  0
   -8.9248    5.0312   23.5997 O   0  0  0  0  0  0  0  0  0  0  0  0
   -8.8234    6.2920   21.4880 C   0  0  2  0  0  0  0  0  0  0  0  0
   -8.9122    6.1524   20.0414 O   0  0  0  0  0  0  0  0  0  0  0  0
   -7.4779    6.9474   21.7892 C   0  0  0  0  0  0  0  0  0  0  0  0
   -6.6390    7.0409   20.5656 N   0  3  0  0  0  0  0  0  0  0  0  0
  -13.4604    9.0102   17.4012 C   0  0  2  0  0  0  0  0  0  0  0  0
  -13.8557   10.1545   16.5597 N   0  3  0  0  0  0  0  0  0  0  0  0
  -13.0999    9.4958   18.7986 C   0  0  0  0  0  0  0  0  0  0  0  0
  -12.6833    8.3151   19.6827 C   0  0  2  0  0  0  0  0  0  0  0  0
  -12.4571    8.8181   21.0605 N   0  3  0  0  0  0  0  0  0  0  0  0
  -11.4681    7.5541   19.0732 C   0  0  2  0  0  0  0  0  0  0  0  0
  -11.8101    7.1087   17.6281 C   0  0  2  0  0  0  0  0  0  0  0  0
  -10.6611    6.5691   17.0210 O   0  0  0  0  0  0  0  0  0  0  0  0
  -12.2564    8.3081   16.7763 C   0  0  1  0  0  0  0  0  0  0  0  0
  -12.5909    7.8463   15.4680 O   0  0  0  0  0  0  0  0  0  0  0  0
  -13.5786    6.8788   15.3699 C   0  0  2  0  0  0  0  0  0  0  0  0
  -13.3381    6.0517   14.0954 C   0  0  2  0  0  0  0  0  0  0  0  0
  -12.0537    5.4476   14.1814 O   0  0  0  0  0  0  0  0  0  0  0  0
  -13.4057    6.9744   12.8658 C   0  0  1  0  0  0  0  0  0  0  0  0
  -13.1580    6.2296   11.5977 N   0  3  0  0  0  0  0  0  0  0  0  0
  -14.7868    7.6730   12.8271 C   0  0  2  0  0  0  0  0  0  0  0  0
  -14.8697    8.5554   11.7103 O   0  0  0  0  0  0  0  0  0  0  0  0
  -15.0333    8.4373   14.1411 C   0  0  2  0  0  0  0  0  0  0  0  0
  -14.8687    7.5396   15.2986 O   0  0  0  0  0  0  0  0  0  0  0  0
  -16.4327    9.0065   14.2161 C   0  0  0  0  0  0  0  0  0  0  0  0
  -16.6850    9.6174   15.4796 O   0  0  0  0  0  0  0  0  0  0  0  0
  1  2  1  1  0  0  0
  1  3  1  0  0  0  0
  1  9  1  0  0  0  0
  3  4  1  6  0  0  0
  3  5  1  0  0  0  0
  5  6  1  0  0  0  0
  6  7  1  1  0  0  0
  6  8  1  0  0  0  0
  8  9  1  0  0  0  0
  8 10  1  6  0  0  0
 10 11  1  0  0  0  0
 12 13  1  6  0  0  0
 12 14  1  0  0  0  0
 12 20  1  0  0  0  0
 14 15  1  0  0  0  0
 15 16  1  1  0  0  0
 15 17  1  0  0  0  0
 17  2  1  1  0  0  0
 17 18  1  0  0  0  0
 18 19  1  6  0  0  0
 18 20  1  0  0  0  0
 20 21  1  6  0  0  0
 22 21  1  6  0  0  0
 22 23  1  0  0  0  0
 22 30  1  0  0  0  0
 23 24  1  1  0  0  0
 23 25  1  0  0  0  0
 25 26  1  6  0  0  0
 25 27  1  0  0  0  0
 27 28  1  6  0  0  0
 27 29  1  0  0  0  0
 29 30  1  0  0  0  0
 29 31  1  6  0  0  0
 31 32  1  0  0  0  0
M  CHG  5   4   1  11   1  13   1  16   1  26   1
M  END
>  <CHROM.1>
-162.63280137,-175.93626681,-51.77486159,-58.54143128,113.71762596,-145.29033013
-100.05360897,160.91783532,-176.59047613,-63.96887435,-152.90834497,75.36517642
-56.08620845,67.27672839,175.25861201,-76.43600417,-12.06347067,7.06318589
17.54178329,-0.67784970,0.77719041,-2.01191006

>  <Name>
1lc4

>  <RI>
0

>  <Rbt.Current_Directory>
/home/afrankz/demos/rdock_decoys_rna/rnas/1lc4

>  <Rbt.Executable>
rbdock ($Id: //depot/dev/client3/rdock/2013.1/src/exe/rbdock.cxx#4 $)

>  <Rbt.Library>
libRbt.so (2013.1, Build901 2013/11/27)

>  <Rbt.Parameter_File>
/export/apps/rDock/src/rDock_2013.1_src/data/scripts/dock_solv.prm

>  <Rbt.Receptor>
prm/pocket_docking_3.prm

>  <SCORE>
-56.6937

>  <SCORE.INTER>
-39.3424

>  <SCORE.INTER.CONST>
1

>  <SCORE.INTER.POLAR>
-5.28619

>  <SCORE.INTER.ROT>
6

>  <SCORE.INTER.SOLV>
31.2594

>  <SCORE.INTER.VDW>
-26.6274

>  <SCORE.INTER.norm>
-1.22945

>  <SCORE.INTRA>
-17.3513

>  <SCORE.INTRA.DIHEDRAL>
-25.6998

>  <SCORE.INTRA.DIHEDRAL.0>
44.2576

>  <SCORE.INTRA.POLAR>
-0.90032

>  <SCORE.INTRA.POLAR.0>
-0.381556

>  <SCORE.INTRA.REPUL>
0

>  <SCORE.INTRA.REPUL.0>
0

>  <SCORE.INTRA.SOLV>
-0.168124

>  <SCORE.INTRA.SOLV.lig_0>
-134.592

>  <SCORE.INTRA.VDW>
-1.35627

>  <SCORE.INTRA.VDW.0>
-1.01417

>  <SCORE.INTRA.norm>
-0.542229

>  <SCORE.RESTR>
0

>  <SCORE.RESTR.CAVITY>
0

>  <SCORE.RESTR.norm>
0

>  <SCORE.SYSTEM>
0

>  <SCORE.SYSTEM.CONST>
0

>  <SCORE.SYSTEM.DIHEDRAL>
0

>  <SCORE.SYSTEM.SOLV>
0

>  <SCORE.SYSTEM.norm>
0

>  <SCORE.heavy>
32

>  <SCORE.norm>
-1.77168

>  <RMSD>
2.547

$$$$
1lc4
 OpenBabel02141814113D
libRbt.so/2013.1/901 2013/11/27
 32 34  0  0  0  0  0  0  0  0999 V2000
  -10.0807    5.5797   19.3777 C   0  0  2  0  0  0  0  0  0  0  0  0
  -11.0947    6.5007   19.6934 O   0  0  0  0  0  0  0  0  0  0  0  0
  -10.4256    4.2362   20.0524 C   0  0  2  0  0  0  0  0  0  0  0  0
  -11.7357    3.7593   19.5986 N   0  3  0  0  0  0  0  0  0  0  0  0
  -10.3822    4.3871   21.5912 C   0  0  0  0  0  0  0  0  0  0  0  0
   -8.9650    4.8505   21.9711 C   0  0  2  0  0  0  0  0  0  0  0  0
   -8.8412    4.9640   23.3927 O   0  0  0  0  0  0  0  0  0  0  0  0
   -8.6630    6.1989   21.2709 C   0  0  2  0  0  0  0  0  0  0  0  0
   -8.7951    6.0614   19.8274 O   0  0  0  0  0  0  0  0  0  0  0  0
   -7.2545    6.7227   21.5401 C   0  0  0  0  0  0  0  0  0  0  0  0
   -7.2048    8.2054   21.4468 N   0  3  0  0  0  0  0  0  0  0  0  0
  -13.3643    8.9657   17.0987 C   0  0  2  0  0  0  0  0  0  0  0  0
  -13.7709   10.0375   16.1715 N   0  3  0  0  0  0  0  0  0  0  0  0
  -12.9239    9.5689   18.4256 C   0  0  0  0  0  0  0  0  0  0  0  0
  -12.4949    8.4642   19.3976 C   0  0  2  0  0  0  0  0  0  0  0  0
  -12.1890    9.0869   20.7095 N   0  3  0  0  0  0  0  0  0  0  0  0
  -11.3305    7.6136   18.8077 C   0  0  2  0  0  0  0  0  0  0  0  0
  -11.7538    7.0452   17.4287 C   0  0  2  0  0  0  0  0  0  0  0  0
  -10.6498    6.4171   16.8232 O   0  0  0  0  0  0  0  0  0  0  0  0
  -12.2104    8.1725   16.4884 C   0  0  1  0  0  0  0  0  0  0  0  0
  -12.6199    7.6005   15.2467 O   0  0  0  0  0  0  0  0  0  0  0  0
  -13.4844    6.5183   15.3010 C   0  0  2  0  0  0  0  0  0  0  0  0
  -13.1955    5.5921   14.1073 C   0  0  2  0  0  0  0  0  0  0  0  0
  -11.8442    5.1566   14.1868 O   0  0  0  0  0  0  0  0  0  0  0  0
  -13.4252    6.3616   12.7947 C   0  0  1  0  0  0  0  0  0  0  0  0
  -13.1391    5.5182   11.5986 N   0  3  0  0  0  0  0  0  0  0  0  0
  -14.8822    6.8841   12.7576 C   0  0  2  0  0  0  0  0  0  0  0  0
  -15.1176    7.6243   11.5620 O   0  0  0  0  0  0  0  0  0  0  0  0
  -15.1677    7.7521   13.9973 C   0  0  2  0  0  0  0  0  0  0  0  0
  -14.8477    7.0109   15.2305 O   0  0  0  0  0  0  0  0  0  0  0  0
  -16.6223    8.1571   14.0873 C   0  0  0  0  0  0  0  0  0  0  0  0
  -17.4461    7.0700   14.5033 O   0  0  0  0  0  0  0  0  0  0  0  0
  1  2  1  1  0  0  0
  1  3  1  0  0  0  0
  1  9  1  0  0  0  0
  3  4  1  1  0  0  0
  3  5  1  0  0  0  0
  5  6  1  0  0  0  0
  6  7  1  1  0  0  0
  6  8  1  0  0  0  0
  8  9  1  0  0  0  0
  8 10  1  6  0  0  0
 10 11  1  0  0  0  0
 12 13  1  6  0  0  0
 12 14  1  0  0  0  0
 12 20  1  0  0  0  0
 14 15  1  0  0  0  0
 15 16  1  1  0  0  0
 15 17  1  0  0  0  0
 17  2  1  1  0  0  0
 17 18  1  0  0  0  0
 18 19  1  6  0  0  0
 18 20  1  0  0  0  0
 20 21  1  6  0  0  0
 22 21  1  6  0  0  0
 22 23  1  0  0  0  0
 22 30  1  0  0  0  0
 23 24  1  1  0  0  0
 23 25  1  0  0  0  0
 25 26  1  6  0  0  0
 25 27  1  0  0  0  0
 27 28  1  6  0  0  0
 27 29  1  0  0  0  0
 29 30  1  0  0  0  0
 29 31  1  1  0  0  0
 31 32  1  0  0  0  0
M  CHG  5   4   1  11   1  13   1  16   1  26   1
M  END
>  <CHROM.1>
-155.07397289,-179.87397616,-55.91770162,-56.71342538,-152.57245786,-66.22342711
74.00898521,174.54389034,-63.20296646,-73.56802182,-148.16632678,-53.38749714
67.03233060,-57.07966448,74.72775883,-57.45462957,-12.06199364,6.82274527
17.37004990,-0.54341154,0.83469787,-2.31845234

>  <Name>
1lc4

>  <RI>
0

>  <Rbt.Current_Directory>
/home/afrankz/demos/rdock_decoys_rna/rnas/1lc4

>  <Rbt.Executable>
rbdock ($Id: //depot/dev/client3/rdock/2013.1/src/exe/rbdock.cxx#4 $)

>  <Rbt.Library>
libRbt.so (2013.1, Build901 2013/11/27)

>  <Rbt.Parameter_File>
/export/apps/rDock/src/rDock_2013.1_src/data/scripts/dock_solv.prm

>  <Rbt.Receptor>
prm/pocket_docking_7.prm

>  <SCORE>
-57.429

>  <SCORE.INTER>
-38.6671

>  <SCORE.INTER.CONST>
1

>  <SCORE.INTER.POLAR>
-5.0908

>  <SCORE.INTER.ROT>
6

>  <SCORE.INTER.SOLV>
21.5058

>  <SCORE.INTER.VDW>
-23.5773

>  <SCORE.INTER.norm>
-1.20835

>  <SCORE.INTRA>
-18.7619

>  <SCORE.INTRA.DIHEDRAL>
-32.4509

>  <SCORE.INTRA.DIHEDRAL.0>
44.2576

>  <SCORE.INTRA.POLAR>
0.360219

>  <SCORE.INTRA.POLAR.0>
-0.381556

>  <SCORE.INTRA.REPUL>
0

>  <SCORE.INTRA.REPUL.0>
0

>  <SCORE.INTRA.SOLV>
-4.25337

>  <SCORE.INTRA.SOLV.lig_0>
-134.592

>  <SCORE.INTRA.VDW>
-1.63457

>  <SCORE.INTRA.VDW.0>
-1.01417

>  <SCORE.INTRA.norm>
-0.586311

>  <SCORE.RESTR>
0

>  <SCORE.RESTR.CAVITY>
0

>  <SCORE.RESTR.norm>
0

>  <SCORE.SYSTEM>
0

>  <SCORE.SYSTEM.CONST>
0

>  <SCORE.SYSTEM.DIHEDRAL>
0

>  <SCORE.SYSTEM.SOLV>
0

>  <SCORE.SYSTEM.norm>
0

>  <SCORE.heavy>
32

>  <SCORE.norm>
-1.79466

>  <RMSD>
2.558

$$$$
1lc4
 OpenBabel02141814113D
libRbt.so/2013.1/901 2013/11/27
 32 34  0  0  0  0  0  0  0  0999 V2000
  -10.1312    5.1694   20.1034 C   0  0  2  0  0  0  0  0  0  0  0  0
  -11.0880    6.1701   20.3464 O   0  0  0  0  0  0  0  0  0  0  0  0
  -10.1961    4.1521   21.2609 C   0  0  2  0  0  0  0  0  0  0  0  0
  -11.5435    3.5836   21.3651 N   0  3  0  0  0  0  0  0  0  0  0  0
   -9.7634    4.8244   22.5850 C   0  0  0  0  0  0  0  0  0  0  0  0
   -8.3311    5.3517   22.3900 C   0  0  2  0  0  0  0  0  0  0  0  0
   -7.8490    5.9463   23.5997 O   0  0  0  0  0  0  0  0  0  0  0  0
   -8.3145    6.3660   21.2194 C   0  0  2  0  0  0  0  0  0  0  0  0
   -8.8086    5.7416   20.0004 O   0  0  0  0  0  0  0  0  0  0  0  0
   -6.9236    6.9118   20.9063 C   0  0  0  0  0  0  0  0  0  0  0  0
   -6.4031    7.7350   22.0294 N   0  3  0  0  0  0  0  0  0  0  0  0
  -13.1905    8.8716   17.8482 C   0  0  2  0  0  0  0  0  0  0  0  0
  -13.5126    9.9412   16.8859 N   0  3  0  0  0  0  0  0  0  0  0  0
  -12.4553    9.4575   19.0460 C   0  0  0  0  0  0  0  0  0  0  0  0
  -12.1114    8.3541   20.0527 C   0  0  2  0  0  0  0  0  0  0  0  0
  -11.5052    8.9854   21.2513 N   0  3  0  0  0  0  0  0  0  0  0  0
  -11.2303    7.2477   19.3993 C   0  0  2  0  0  0  0  0  0  0  0  0
  -11.9497    6.6891   18.1446 C   0  0  2  0  0  0  0  0  0  0  0  0
  -11.0866    5.8114   17.4629 O   0  0  0  0  0  0  0  0  0  0  0  0
  -12.3115    7.8222   17.1707 C   0  0  1  0  0  0  0  0  0  0  0  0
  -12.9985    7.2661   16.0501 O   0  0  0  0  0  0  0  0  0  0  0  0
  -14.2055    6.6310   16.2971 C   0  0  2  0  0  0  0  0  0  0  0  0
  -14.3839    5.4914   15.2793 C   0  0  2  0  0  0  0  0  0  0  0  0
  -13.3015    4.5805   15.4229 O   0  0  0  0  0  0  0  0  0  0  0  0
  -14.3975    6.0741   13.8553 C   0  0  1  0  0  0  0  0  0  0  0  0
  -14.5468    5.0103   12.8208 N   0  3  0  0  0  0  0  0  0  0  0  0
  -15.5405    7.1119   13.7392 C   0  0  2  0  0  0  0  0  0  0  0  0
  -15.5619    7.6885   12.4354 O   0  0  0  0  0  0  0  0  0  0  0  0
  -15.3780    8.2045   14.8122 C   0  0  2  0  0  0  0  0  0  0  0  0
  -15.2764    7.5998   16.1526 O   0  0  0  0  0  0  0  0  0  0  0  0
  -16.5546    9.1546   14.8417 C   0  0  0  0  0  0  0  0  0  0  0  0
  -16.2913   10.2926   15.6595 O   0  0  0  0  0  0  0  0  0  0  0  0
  1  2  1  1  0  0  0
  1  3  1  0  0  0  0
  1  9  1  0  0  0  0
  3  4  1  1  0  0  0
  3  5  1  0  0  0  0
  5  6  1  0  0  0  0
  6  7  1  1  0  0  0
  6  8  1  0  0  0  0
  8  9  1  0  0  0  0
  8 10  1  6  0  0  0
 10 11  1  0  0  0  0
 12 13  1  6  0  0  0
 12 14  1  0  0  0  0
 12 20  1  0  0  0  0
 14 15  1  0  0  0  0
 15 16  1  1  0  0  0
 15 17  1  0  0  0  0
 17  2  1  1  0  0  0
 17 18  1  0  0  0  0
 18 19  1  6  0  0  0
 18 20  1  0  0  0  0
 20 21  1  6  0  0  0
 22 21  1  6  0  0  0
 22 23  1  0  0  0  0
 22 30  1  0  0  0  0
 23 24  1  6  0  0  0
 23 25  1  0  0  0  0
 25 26  1  6  0  0  0
 25 27  1  0  0  0  0
 27 28  1  6  0  0  0
 27 29  1  0  0  0  0
 29 30  1  0  0  0  0
 29 31  1  1  0  0  0
 31 32  1  0  0  0  0
M  CHG  5   4   1  11   1  13   1  16   1  26   1
M  END
>  <CHROM.1>
-179.84287985,-167.77001007,67.41956636,64.26757851,-65.90276846,-69.77713522
4.93792648,-61.89581176,73.05133488,-59.80947142,-148.34027389,-51.30528270
-174.51254322,-174.66383440,-169.42773434,-179.34542488,-12.09821154,6.89200391
18.13150228,-0.16153138,0.84907871,-2.72537243

>  <Name>
1lc4

>  <RI>
0

>  <Rbt.Current_Directory>
/home/afrankz/demos/rdock_decoys_rna/rnas/1lc4

>  <Rbt.Executable>
rbdock ($Id: //depot/dev/client3/rdock/2013.1/src/exe/rbdock.cxx#4 $)

>  <Rbt.Library>
libRbt.so (2013.1, Build901 2013/11/27)

>  <Rbt.Parameter_File>
/export/apps/rDock/src/rDock_2013.1_src/data/scripts/dock_solv.prm

>  <Rbt.Receptor>
prm/pocket_docking_4.prm

>  <SCORE>
-61.4145

>  <SCORE.INTER>
-38.2636

>  <SCORE.INTER.CONST>
1

>  <SCORE.INTER.POLAR>
-4.80309

>  <SCORE.INTER.ROT>
6

>  <SCORE.INTER.SOLV>
22.8118

>  <SCORE.INTER.VDW>
-24.7027

>  <SCORE.INTER.norm>
-1.19574

>  <SCORE.INTRA>
-23.1509

>  <SCORE.INTRA.DIHEDRAL>
-33.6017

>  <SCORE.INTRA.DIHEDRAL.0>
44.2576

>  <SCORE.INTRA.POLAR>
-1.60871

>  <SCORE.INTRA.POLAR.0>
-0.381556

>  <SCORE.INTRA.REPUL>
0

>  <SCORE.INTRA.REPUL.0>
0

>  <SCORE.INTRA.SOLV>
0.217569

>  <SCORE.INTRA.SOLV.lig_0>
-134.592

>  <SCORE.INTRA.VDW>
-0.989274

>  <SCORE.INTRA.VDW.0>
-1.01417

>  <SCORE.INTRA.norm>
-0.723466

>  <SCORE.RESTR>
0

>  <SCORE.RESTR.CAVITY>
0

>  <SCORE.RESTR.norm>
0

>  <SCORE.SYSTEM>
0

>  <SCORE.SYSTEM.CONST>
0

>  <SCORE.SYSTEM.DIHEDRAL>
0

>  <SCORE.SYSTEM.SOLV>
0

>  <SCORE.SYSTEM.norm>
0

>  <SCORE.heavy>
32

>  <SCORE.norm>
-1.9192

>  <RMSD>
2.562

$$$$
1lc4
 OpenBabel02141814113D
libRbt.so/2013.1/901 2013/11/27
 32 34  0  0  0  0  0  0  0  0999 V2000
  -11.0257    7.6349   20.9942 C   0  0  2  0  0  0  0  0  0  0  0  0
  -11.3739    7.3033   19.6733 O   0  0  0  0  0  0  0  0  0  0  0  0
   -9.4883    7.5926   21.1103 C   0  0  2  0  0  0  0  0  0  0  0  0
   -8.8789    8.5202   20.1523 N   0  3  0  0  0  0  0  0  0  0  0  0
   -8.9783    6.1477   20.8990 C   0  0  0  0  0  0  0  0  0  0  0  0
   -9.6397    5.2622   21.9696 C   0  0  2  0  0  0  0  0  0  0  0  0
   -9.1716    3.9137   21.8608 O   0  0  0  0  0  0  0  0  0  0  0  0
  -11.1792    5.3372   21.8155 C   0  0  2  0  0  0  0  0  0  0  0  0
  -11.6336    6.7159   21.9286 O   0  0  0  0  0  0  0  0  0  0  0  0
  -11.9365    4.5323   22.8688 C   0  0  0  0  0  0  0  0  0  0  0  0
  -13.3722    4.9153   22.9093 N   0  3  0  0  0  0  0  0  0  0  0  0
  -13.9384    9.5570   17.1626 C   0  0  2  0  0  0  0  0  0  0  0  0
  -14.4585   10.5644   16.2199 N   0  3  0  0  0  0  0  0  0  0  0  0
  -13.4056   10.2444   18.4123 C   0  0  0  0  0  0  0  0  0  0  0  0
  -12.8583    9.2072   19.3993 C   0  0  2  0  0  0  0  0  0  0  0  0
  -12.4613    9.9094   20.6451 N   0  3  0  0  0  0  0  0  0  0  0  0
  -11.7216    8.3587   18.7547 C   0  0  2  0  0  0  0  0  0  0  0  0
  -12.2431    7.7039   17.4498 C   0  0  2  0  0  0  0  0  0  0  0  0
  -11.1753    7.0749   16.7833 O   0  0  0  0  0  0  0  0  0  0  0  0
  -12.8159    8.7645   16.4956 C   0  0  1  0  0  0  0  0  0  0  0  0
  -13.3118    8.1138   15.3262 O   0  0  0  0  0  0  0  0  0  0  0  0
  -13.1337    8.7635   14.1148 C   0  0  2  0  0  0  0  0  0  0  0  0
  -14.4481    8.6973   13.3184 C   0  0  2  0  0  0  0  0  0  0  0  0
  -15.4717    9.3279   14.0778 O   0  0  0  0  0  0  0  0  0  0  0  0
  -14.8154    7.2260   13.0576 C   0  0  1  0  0  0  0  0  0  0  0  0
  -16.0964    7.0979   12.3049 N   0  3  0  0  0  0  0  0  0  0  0  0
  -13.6600    6.5401   12.2883 C   0  0  2  0  0  0  0  0  0  0  0  0
  -13.9614    5.1664   12.0541 O   0  0  0  0  0  0  0  0  0  0  0  0
  -12.3421    6.6795   13.0728 C   0  0  2  0  0  0  0  0  0  0  0  0
  -12.0737    8.0954   13.3825 O   0  0  0  0  0  0  0  0  0  0  0  0
  -11.1551    6.1633   12.2902 C   0  0  0  0  0  0  0  0  0  0  0  0
  -10.9893    6.8671   11.0611 O   0  0  0  0  0  0  0  0  0  0  0  0
  1  2  1  6  0  0  0
  1  3  1  0  0  0  0
  1  9  1  0  0  0  0
  3  4  1  6  0  0  0
  3  5  1  0  0  0  0
  5  6  1  0  0  0  0
  6  7  1  6  0  0  0
  6  8  1  0  0  0  0
  8  9  1  0  0  0  0
  8 10  1  1  0  0  0
 10 11  1  0  0  0  0
 12 13  1  6  0  0  0
 12 14  1  0  0  0  0
 12 20  1  0  0  0  0
 14 15  1  0  0  0  0
 15 16  1  1  0  0  0
 15 17  1  0  0  0  0
 17  2  1  1  0  0  0
 17 18  1  0  0  0  0
 18 19  1  6  0  0  0
 18 20  1  0  0  0  0
 20 21  1  6  0  0  0
 22 21  1  1  0  0  0
 22 23  1  0  0  0  0
 22 30  1  0  0  0  0
 23 24  1  1  0  0  0
 23 25  1  0  0  0  0
 25 26  1  6  0  0  0
 25 27  1  0  0  0  0
 27 28  1  1  0  0  0
 27 29  1  0  0  0  0
 29 30  1  0  0  0  0
 29 31  1  6  0  0  0
 31 32  1  0  0  0  0
M  CHG  5   4   1  11   1  13   1  16   1  26   1
M  END
>  <CHROM.1>
-100.91571037,-54.05747895,-167.33890449,81.61269255,164.89951457,-42.30221847
75.65584847,32.89205924,-38.15428349,95.32611382,-134.80669867,164.07303067
-131.52073420,80.01285086,59.72833178,-178.12087449,-12.30307663,7.43114616
17.27888999,1.05550900,-0.89119927,1.29229404

>  <Name>
1lc4

>  <RI>
0

>  <Rbt.Current_Directory>
/home/afrankz/demos/rdock_decoys_rna/rnas/1lc4

>  <Rbt.Executable>
rbdock ($Id: //depot/dev/client3/rdock/2013.1/src/exe/rbdock.cxx#4 $)

>  <Rbt.Library>
libRbt.so (2013.1, Build901 2013/11/27)

>  <Rbt.Parameter_File>
/export/apps/rDock/src/rDock_2013.1_src/data/scripts/dock_solv.prm

>  <Rbt.Receptor>
prm/blind_docking_80.prm

>  <SCORE>
-31.5001

>  <SCORE.INTER>
-26.6981

>  <SCORE.INTER.CONST>
1

>  <SCORE.INTER.POLAR>
-7.29125

>  <SCORE.INTER.ROT>
6

>  <SCORE.INTER.SOLV>
35.9798

>  <SCORE.INTER.VDW>
-13.0879

>  <SCORE.INTER.norm>
-0.834316

>  <SCORE.INTRA>
-8.28969

>  <SCORE.INTRA.DIHEDRAL>
-13.3045

>  <SCORE.INTRA.DIHEDRAL.0>
44.2576

>  <SCORE.INTRA.POLAR>
-0.959508

>  <SCORE.INTRA.POLAR.0>
-0.381556

>  <SCORE.INTRA.REPUL>
0.00498476

>  <SCORE.INTRA.REPUL.0>
0

>  <SCORE.INTRA.SOLV>
3.50544

>  <SCORE.INTRA.SOLV.lig_0>
-134.592

>  <SCORE.INTRA.VDW>
-0.152736

>  <SCORE.INTRA.VDW.0>
-1.01417

>  <SCORE.INTRA.norm>
-0.259053

>  <SCORE.RESTR>
3.48767

>  <SCORE.RESTR.CAVITY>
3.48767

>  <SCORE.RESTR.norm>
0.10899

>  <SCORE.SYSTEM>
0

>  <SCORE.SYSTEM.CONST>
0

>  <SCORE.SYSTEM.DIHEDRAL>
0

>  <SCORE.SYSTEM.SOLV>
0

>  <SCORE.SYSTEM.norm>
0

>  <SCORE.heavy>
32

>  <SCORE.norm>
-0.984379

>  <RMSD>
2.578

$$$$
1lc4
 OpenBabel02141814113D
libRbt.so/2013.1/901 2013/11/27
 32 34  0  0  0  0  0  0  0  0999 V2000
  -10.1723    5.8442   19.5035 C   0  0  2  0  0  0  0  0  0  0  0  0
  -11.1887    6.6631   20.0255 O   0  0  0  0  0  0  0  0  0  0  0  0
  -10.2823    4.4583   20.1714 C   0  0  2  0  0  0  0  0  0  0  0  0
  -11.6073    3.8792   19.9289 N   0  3  0  0  0  0  0  0  0  0  0  0
   -9.9848    4.5720   21.6850 C   0  0  0  0  0  0  0  0  0  0  0  0
   -8.5664    5.1491   21.8359 C   0  0  2  0  0  0  0  0  0  0  0  0
   -8.2073    5.2358   23.2190 O   0  0  0  0  0  0  0  0  0  0  0  0
   -8.5034    6.5368   21.1505 C   0  0  2  0  0  0  0  0  0  0  0  0
   -8.8725    6.4260   19.7464 O   0  0  0  0  0  0  0  0  0  0  0  0
   -7.1178    7.1761   21.1963 C   0  0  0  0  0  0  0  0  0  0  0  0
   -6.7192    7.4975   22.5918 N   0  3  0  0  0  0  0  0  0  0  0  0
  -13.7031    9.7155   18.5021 C   0  0  2  0  0  0  0  0  0  0  0  0
  -14.1904   10.9444   17.8494 N   0  3  0  0  0  0  0  0  0  0  0  0
  -12.8018   10.0753   19.6753 C   0  0  0  0  0  0  0  0  0  0  0  0
  -12.2854    8.8052   20.3605 C   0  0  2  0  0  0  0  0  0  0  0  0
  -11.5122    9.2026   21.5633 N   0  3  0  0  0  0  0  0  0  0  0  0
  -11.4962    7.9059   19.3625 C   0  0  2  0  0  0  0  0  0  0  0  0
  -12.3913    7.5854   18.1378 C   0  0  2  0  0  0  0  0  0  0  0  0
  -11.6285    6.9144   17.1642 O   0  0  0  0  0  0  0  0  0  0  0  0
  -12.9208    8.8768   17.4933 C   0  0  1  0  0  0  0  0  0  0  0  0
  -13.7631    8.5323   16.3939 O   0  0  0  0  0  0  0  0  0  0  0  0
  -14.6095    7.4471   16.5586 C   0  0  2  0  0  0  0  0  0  0  0  0
  -14.9342    6.8567   15.1757 C   0  0  2  0  0  0  0  0  0  0  0  0
  -13.7189    6.4532   14.5573 O   0  0  0  0  0  0  0  0  0  0  0  0
  -15.6350    7.9228   14.3155 C   0  0  1  0  0  0  0  0  0  0  0  0
  -15.9563    7.4131   12.9513 N   0  3  0  0  0  0  0  0  0  0  0  0
  -16.9202    8.3970   15.0371 C   0  0  2  0  0  0  0  0  0  0  0  0
  -17.5789    9.4053   14.2742 O   0  0  0  0  0  0  0  0  0  0  0  0
  -16.5778    8.9195   16.4447 C   0  0  2  0  0  0  0  0  0  0  0  0
  -15.8269    7.9032   17.2036 O   0  0  0  0  0  0  0  0  0  0  0  0
  -17.8166    9.2482   17.2481 C   0  0  0  0  0  0  0  0  0  0  0  0
  -18.7192   10.0694   16.5103 O   0  0  0  0  0  0  0  0  0  0  0  0
  1  2  1  1  0  0  0
  1  3  1  0  0  0  0
  1  9  1  0  0  0  0
  3  4  1  1  0  0  0
  3  5  1  0  0  0  0
  5  6  1  0  0  0  0
  6  7  1  1  0  0  0
  6  8  1  0  0  0  0
  8  9  1  0  0  0  0
  8 10  1  6  0  0  0
 10 11  1  0  0  0  0
 12 13  1  6  0  0  0
 12 14  1  0  0  0  0
 12 20  1  0  0  0  0
 14 15  1  0  0  0  0
 15 16  1  1  0  0  0
 15 17  1  0  0  0  0
 17  2  1  1  0  0  0
 17 18  1  0  0  0  0
 18 19  1  6  0  0  0
 18 20  1  0  0  0  0
 20 21  1  6  0  0  0
 22 21  1  6  0  0  0
 22 23  1  0  0  0  0
 22 30  1  0  0  0  0
 23 24  1  6  0  0  0
 23 25  1  0  0  0  0
 25 26  1  6  0  0  0
 25 27  1  0  0  0  0
 27 28  1  6  0  0  0
 27 29  1  0  0  0  0
 29 30  1  0  0  0  0
 29 31  1  1  0  0  0
 31 32  1  0  0  0  0
M  CHG  5   4   1  11   1  13   1  16   1  26   1
M  END
>  <CHROM.1>
-166.36816011,-161.80636617,-54.94545266,-49.36069785,-65.44507941,173.22546601
-55.73487752,-73.70715515,-55.76204655,-81.99017564,-154.89845872,60.15663346
68.57826408,45.71600684,-49.65591850,55.21086597,-12.70559048,7.57270312
18.35498469,-0.19927065,0.68852565,-2.44365824

>  <Name>
1lc4

>  <RI>
0

>  <Rbt.Current_Directory>
/home/afrankz/demos/rdock_decoys_rna/rnas/1lc4

>  <Rbt.Executable>
rbdock ($Id: //depot/dev/client3/rdock/2013.1/src/exe/rbdock.cxx#4 $)

>  <Rbt.Library>
libRbt.so (2013.1, Build901 2013/11/27)

>  <Rbt.Parameter_File>
/export/apps/rDock/src/rDock_2013.1_src/data/scripts/dock_solv.prm

>  <Rbt.Receptor>
prm/pocket_docking_4.prm

>  <SCORE>
-71.6235

>  <SCORE.INTER>
-51.5907

>  <SCORE.INTER.CONST>
1

>  <SCORE.INTER.POLAR>
-7.76449

>  <SCORE.INTER.ROT>
6

>  <SCORE.INTER.SOLV>
23.4781

>  <SCORE.INTER.VDW>
-23.9382

>  <SCORE.INTER.norm>
-1.61221

>  <SCORE.INTRA>
-20.0328

>  <SCORE.INTRA.DIHEDRAL>
-33.9185

>  <SCORE.INTRA.DIHEDRAL.0>
44.2576

>  <SCORE.INTRA.POLAR>
-0.561636

>  <SCORE.INTRA.POLAR.0>
-0.381556

>  <SCORE.INTRA.REPUL>
0

>  <SCORE.INTRA.REPUL.0>
0

>  <SCORE.INTRA.SOLV>
-1.15142

>  <SCORE.INTRA.SOLV.lig_0>
-134.592

>  <SCORE.INTRA.VDW>
-0.588253

>  <SCORE.INTRA.VDW.0>
-1.01417

>  <SCORE.INTRA.norm>
-0.626025

>  <SCORE.RESTR>
0

>  <SCORE.RESTR.CAVITY>
0

>  <SCORE.RESTR.norm>
0

>  <SCORE.SYSTEM>
0

>  <SCORE.SYSTEM.CONST>
0

>  <SCORE.SYSTEM.DIHEDRAL>
0

>  <SCORE.SYSTEM.SOLV>
0

>  <SCORE.SYSTEM.norm>
0

>  <SCORE.heavy>
32

>  <SCORE.norm>
-2.23824

>  <RMSD>
2.581

$$$$
1lc4
 OpenBabel02141814113D
libRbt.so/2013.1/901 2013/11/27
 32 34  0  0  0  0  0  0  0  0999 V2000
  -10.0575    5.8806   19.7564 C   0  0  2  0  0  0  0  0  0  0  0  0
  -11.1075    6.7245   20.1580 O   0  0  0  0  0  0  0  0  0  0  0  0
  -10.2846    4.4950   20.3945 C   0  0  2  0  0  0  0  0  0  0  0  0
  -11.5852    3.9536   19.9884 N   0  3  0  0  0  0  0  0  0  0  0  0
  -10.1701    4.5929   21.9339 C   0  0  0  0  0  0  0  0  0  0  0  0
   -8.7656    5.1301   22.2604 C   0  0  2  0  0  0  0  0  0  0  0  0
   -8.5748    5.2001   23.6774 O   0  0  0  0  0  0  0  0  0  0  0  0
   -8.5829    6.5190   21.5991 C   0  0  2  0  0  0  0  0  0  0  0  0
   -8.7817    6.4254   20.1598 O   0  0  0  0  0  0  0  0  0  0  0  0
   -7.1967    7.1199   21.8178 C   0  0  0  0  0  0  0  0  0  0  0  0
   -7.1903    8.5779   21.5285 N   0  3  0  0  0  0  0  0  0  0  0  0
  -13.6402    9.4886   18.1819 C   0  0  2  0  0  0  0  0  0  0  0  0
  -14.1339   10.6236   17.3806 N   0  3  0  0  0  0  0  0  0  0  0  0
  -12.8375   10.0036   19.3688 C   0  0  0  0  0  0  0  0  0  0  0  0
  -12.3153    8.8322   20.2081 C   0  0  2  0  0  0  0  0  0  0  0  0
  -11.6439    9.3811   21.4125 N   0  3  0  0  0  0  0  0  0  0  0  0
  -11.4219    7.8812   19.3568 C   0  0  2  0  0  0  0  0  0  0  0  0
  -12.2166    7.4007   18.1153 C   0  0  2  0  0  0  0  0  0  0  0  0
  -11.3610    6.6776   17.2637 O   0  0  0  0  0  0  0  0  0  0  0  0
  -12.7556    8.5964   17.3133 C   0  0  1  0  0  0  0  0  0  0  0  0
  -13.5051    8.1068   16.2020 O   0  0  0  0  0  0  0  0  0  0  0  0
  -14.4727    7.1489   16.4616 C   0  0  2  0  0  0  0  0  0  0  0  0
  -15.0246    6.6258   15.1244 C   0  0  2  0  0  0  0  0  0  0  0  0
  -13.9520    6.0633   14.3792 O   0  0  0  0  0  0  0  0  0  0  0  0
  -15.6576    7.7894   14.3415 C   0  0  1  0  0  0  0  0  0  0  0  0
  -16.1928    7.3454   13.0222 N   0  3  0  0  0  0  0  0  0  0  0  0
  -16.7779    8.4303   15.1966 C   0  0  2  0  0  0  0  0  0  0  0  0
  -17.3671    9.5297   14.5060 O   0  0  0  0  0  0  0  0  0  0  0  0
  -16.2155    8.8835   16.5568 C   0  0  2  0  0  0  0  0  0  0  0  0
  -15.5371    7.7633   17.2333 O   0  0  0  0  0  0  0  0  0  0  0  0
  -17.3017    9.3730   17.4887 C   0  0  0  0  0  0  0  0  0  0  0  0
  -17.1204   10.7448   17.8330 O   0  0  0  0  0  0  0  0  0  0  0  0
  1  2  1  1  0  0  0
  1  3  1  0  0  0  0
  1  9  1  0  0  0  0
  3  4  1  1  0  0  0
  3  5  1  0  0  0  0
  5  6  1  0  0  0  0
  6  7  1  1  0  0  0
  6  8  1  0  0  0  0
  8  9  1  0  0  0  0
  8 10  1  6  0  0  0
 10 11  1  0  0  0  0
 12 13  1  6  0  0  0
 12 14  1  0  0  0  0
 12 20  1  0  0  0  0
 14 15  1  0  0  0  0
 15 16  1  1  0  0  0
 15 17  1  0  0  0  0
 17  2  1  1  0  0  0
 17 18  1  0  0  0  0
 18 19  1  6  0  0  0
 18 20  1  0  0  0  0
 20 21  1  6  0  0  0
 22 21  1  6  0  0  0
 22 23  1  0  0  0  0
 22 30  1  0  0  0  0
 23 24  1  6  0  0  0
 23 25  1  0  0  0  0
 25 26  1  6  0  0  0
 25 27  1  0  0  0  0
 27 28  1  6  0  0  0
 27 29  1  0  0  0  0
 29 30  1  0  0  0  0
 29 31  1  1  0  0  0
 31 32  1  0  0  0  0
M  CHG  5   4   1  11   1  13   1  16   1  26   1
M  END
>  <CHROM.1>
-157.48795111,-164.31488481,55.88606375,61.51176264,-163.27150507,174.86041627
-81.62926912,161.69637609,-56.18842702,-71.71648217,-172.52265217,62.45184398
80.45866763,38.16763977,-117.96525872,71.71874499,-12.62656598,7.55995019
18.42486734,-0.15920114,0.73509762,-2.54137898

>  <Name>
1lc4

>  <RI>
0

>  <Rbt.Current_Directory>
/home/afrankz/demos/rdock_decoys_rna/rnas/1lc4

>  <Rbt.Executable>
rbdock ($Id: //depot/dev/client3/rdock/2013.1/src/exe/rbdock.cxx#4 $)

>  <Rbt.Library>
libRbt.so (2013.1, Build901 2013/11/27)

>  <Rbt.Parameter_File>
/export/apps/rDock/src/rDock_2013.1_src/data/scripts/dock_solv.prm

>  <Rbt.Receptor>
prm/pocket_docking_7.prm

>  <SCORE>
-65.15

>  <SCORE.INTER>
-49.2178

>  <SCORE.INTER.CONST>
1

>  <SCORE.INTER.POLAR>
-7.41044

>  <SCORE.INTER.ROT>
6

>  <SCORE.INTER.SOLV>
25.34

>  <SCORE.INTER.VDW>
-24.1571

>  <SCORE.INTER.norm>
-1.53806

>  <SCORE.INTRA>
-15.9321

>  <SCORE.INTRA.DIHEDRAL>
-27.9414

>  <SCORE.INTRA.DIHEDRAL.0>
44.2576

>  <SCORE.INTRA.POLAR>
-0.368414

>  <SCORE.INTRA.POLAR.0>
-0.381556

>  <SCORE.INTRA.REPUL>
0

>  <SCORE.INTRA.REPUL.0>
0

>  <SCORE.INTRA.SOLV>
0.413766

>  <SCORE.INTRA.SOLV.lig_0>
-134.592

>  <SCORE.INTRA.VDW>
-0.915672

>  <SCORE.INTRA.VDW.0>
-1.01417

>  <SCORE.INTRA.norm>
-0.497879

>  <SCORE.RESTR>
0

>  <SCORE.RESTR.CAVITY>
0

>  <SCORE.RESTR.norm>
0

>  <SCORE.SYSTEM>
0

>  <SCORE.SYSTEM.CONST>
0

>  <SCORE.SYSTEM.DIHEDRAL>
0

>  <SCORE.SYSTEM.SOLV>
0

>  <SCORE.SYSTEM.norm>
0

>  <SCORE.heavy>
32

>  <SCORE.norm>
-2.03594

>  <RMSD>
2.587

$$$$
1lc4
 OpenBabel02141814113D
libRbt.so/2013.1/901 2013/11/27
 32 34  0  0  0  0  0  0  0  0999 V2000
   -9.9744    5.3264   20.0777 C   0  0  2  0  0  0  0  0  0  0  0  0
  -10.8970    6.3630   20.3019 O   0  0  0  0  0  0  0  0  0  0  0  0
  -10.0956    4.3168   21.2373 C   0  0  2  0  0  0  0  0  0  0  0  0
  -11.4648    3.7993   21.3217 N   0  3  0  0  0  0  0  0  0  0  0  0
   -9.6595    4.9778   22.5660 C   0  0  0  0  0  0  0  0  0  0  0  0
   -8.2055    5.4507   22.3924 C   0  0  2  0  0  0  0  0  0  0  0  0
   -7.7211    6.0317   23.6077 O   0  0  0  0  0  0  0  0  0  0  0  0
   -8.1325    6.4590   21.2188 C   0  0  2  0  0  0  0  0  0  0  0  0
   -8.6299    5.8486   19.9941 O   0  0  0  0  0  0  0  0  0  0  0  0
   -6.7173    6.9515   20.9264 C   0  0  0  0  0  0  0  0  0  0  0  0
   -6.4930    8.3092   21.4887 N   0  3  0  0  0  0  0  0  0  0  0  0
  -12.7784    8.8930   17.4701 C   0  0  2  0  0  0  0  0  0  0  0  0
  -13.0304    9.9492   16.4727 N   0  3  0  0  0  0  0  0  0  0  0  0
  -12.3529    9.5197   18.7909 C   0  0  0  0  0  0  0  0  0  0  0  0
  -12.0842    8.4310   19.8358 C   0  0  2  0  0  0  0  0  0  0  0  0
  -11.7898    9.0889   21.1332 N   0  3  0  0  0  0  0  0  0  0  0  0
  -10.9774    7.4461   19.3537 C   0  0  2  0  0  0  0  0  0  0  0  0
  -11.3798    6.8499   17.9803 C   0  0  2  0  0  0  0  0  0  0  0  0
  -10.3108    6.0911   17.4689 O   0  0  0  0  0  0  0  0  0  0  0  0
  -11.6755    7.9652   16.9644 C   0  0  1  0  0  0  0  0  0  0  0  0
  -12.0718    7.3711   15.7288 O   0  0  0  0  0  0  0  0  0  0  0  0
  -13.2513    6.6430   15.7242 C   0  0  2  0  0  0  0  0  0  0  0  0
  -13.2792    5.7514   14.4711 C   0  0  2  0  0  0  0  0  0  0  0  0
  -12.1551    4.8812   14.5075 O   0  0  0  0  0  0  0  0  0  0  0  0
  -13.2217    6.6349   13.2126 C   0  0  1  0  0  0  0  0  0  0  0  0
  -13.2242    5.8220   11.9622 N   0  3  0  0  0  0  0  0  0  0  0  0
  -14.4163    7.6197   13.2252 C   0  0  2  0  0  0  0  0  0  0  0  0
  -14.3753    8.4701   12.0816 O   0  0  0  0  0  0  0  0  0  0  0  0
  -14.4055    8.4525   14.5205 C   0  0  2  0  0  0  0  0  0  0  0  0
  -14.3676    7.5702   15.7006 O   0  0  0  0  0  0  0  0  0  0  0  0
  -15.6389    9.3180   14.6525 C   0  0  0  0  0  0  0  0  0  0  0  0
  -16.8031    8.6518   14.1687 O   0  0  0  0  0  0  0  0  0  0  0  0
  1  2  1  1  0  0  0
  1  3  1  0  0  0  0
  1  9  1  0  0  0  0
  3  4  1  1  0  0  0
  3  5  1  0  0  0  0
  5  6  1  0  0  0  0
  6  7  1  1  0  0  0
  6  8  1  0  0  0  0
  8  9  1  0  0  0  0
  8 10  1  6  0  0  0
 10 11  1  0  0  0  0
 12 13  1  6  0  0  0
 12 14  1  0  0  0  0
 12 20  1  0  0  0  0
 14 15  1  0  0  0  0
 15 16  1  1  0  0  0
 15 17  1  0  0  0  0
 17  2  1  1  0  0  0
 17 18  1  0  0  0  0
 18 19  1  6  0  0  0
 18 20  1  0  0  0  0
 20 21  1  6  0  0  0
 22 21  1  6  0  0  0
 22 23  1  0  0  0  0
 22 30  1  0  0  0  0
 23 24  1  1  0  0  0
 23 25  1  0  0  0  0
 25 26  1  6  0  0  0
 25 27  1  0  0  0  0
 27 28  1  6  0  0  0
 27 29  1  0  0  0  0
 29 30  1  0  0  0  0
 29 31  1  1  0  0  0
 31 32  1  0  0  0  0
M  CHG  5   4   1  11   1  13   1  16   1  26   1
M  END
>  <CHROM.1>
179.73288143,179.22126136,59.53885316,176.71263094,-101.51568242,46.13576014
25.76452343,174.43153648,179.21056971,-57.48937619,-162.82417440,-60.69457616
-168.89908050,176.45805872,37.50601093,-84.13082107,-11.61505748,7.04945384
17.80533097,-0.46047211,0.87792420,-2.37774307

>  <Name>
1lc4

>  <RI>
0

>  <Rbt.Current_Directory>
/home/afrankz/demos/rdock_decoys_rna/rnas/1lc4

>  <Rbt.Executable>
rbdock ($Id: //depot/dev/client3/rdock/2013.1/src/exe/rbdock.cxx#4 $)

>  <Rbt.Library>
libRbt.so (2013.1, Build901 2013/11/27)

>  <Rbt.Parameter_File>
/export/apps/rDock/src/rDock_2013.1_src/data/scripts/dock_solv.prm

>  <Rbt.Receptor>
prm/blind_docking_80.prm

>  <SCORE>
-45.4989

>  <SCORE.INTER>
-39.7517

>  <SCORE.INTER.CONST>
1

>  <SCORE.INTER.POLAR>
-5.68034

>  <SCORE.INTER.ROT>
6

>  <SCORE.INTER.SOLV>
27.9626

>  <SCORE.INTER.VDW>
-24.4876

>  <SCORE.INTER.norm>
-1.24224

>  <SCORE.INTRA>
-14.0114

>  <SCORE.INTRA.DIHEDRAL>
-31.3605

>  <SCORE.INTRA.DIHEDRAL.0>
44.2576

>  <SCORE.INTRA.POLAR>
0.359613

>  <SCORE.INTRA.POLAR.0>
-0.381556

>  <SCORE.INTRA.REPUL>
0

>  <SCORE.INTRA.REPUL.0>
0

>  <SCORE.INTRA.SOLV>
-1.51595

>  <SCORE.INTRA.SOLV.lig_0>
-134.592

>  <SCORE.INTRA.VDW>
1.20419

>  <SCORE.INTRA.VDW.0>
-1.01417

>  <SCORE.INTRA.norm>
-0.437855

>  <SCORE.RESTR>
8.26418

>  <SCORE.RESTR.CAVITY>
8.26418

>  <SCORE.RESTR.norm>
0.258256

>  <SCORE.SYSTEM>
0

>  <SCORE.SYSTEM.CONST>
0

>  <SCORE.SYSTEM.DIHEDRAL>
0

>  <SCORE.SYSTEM.SOLV>
0

>  <SCORE.SYSTEM.norm>
0

>  <SCORE.heavy>
32

>  <SCORE.norm>
-1.42184

>  <RMSD>
2.592

$$$$
1lc4
 OpenBabel02141814113D
libRbt.so/2013.1/901 2013/11/27
 32 34  0  0  0  0  0  0  0  0999 V2000
   -9.8278    5.5473   19.6455 C   0  0  2  0  0  0  0  0  0  0  0  0
  -10.8707    6.4555   19.8976 O   0  0  0  0  0  0  0  0  0  0  0  0
  -10.1517    4.2293   20.3782 C   0  0  2  0  0  0  0  0  0  0  0  0
  -11.4402    3.6969   19.9243 N   0  3  0  0  0  0  0  0  0  0  0  0
  -10.1420    4.4550   21.9084 C   0  0  0  0  0  0  0  0  0  0  0  0
   -8.7446    4.9731   22.2911 C   0  0  2  0  0  0  0  0  0  0  0  0
   -8.6514    5.1580   23.7076 O   0  0  0  0  0  0  0  0  0  0  0  0
   -8.4633    6.2937   21.5319 C   0  0  2  0  0  0  0  0  0  0  0  0
   -8.5638    6.0836   20.0946 O   0  0  0  0  0  0  0  0  0  0  0  0
   -7.0740    6.8666   21.8008 C   0  0  0  0  0  0  0  0  0  0  0  0
   -7.0234    8.3208   21.4972 N   0  3  0  0  0  0  0  0  0  0  0  0
  -13.1790    8.7858   17.2140 C   0  0  2  0  0  0  0  0  0  0  0  0
  -13.5982    9.8057   16.2353 N   0  3  0  0  0  0  0  0  0  0  0  0
  -12.7052    9.4608   18.4940 C   0  0  0  0  0  0  0  0  0  0  0  0
  -12.2629    8.4105   19.5188 C   0  0  2  0  0  0  0  0  0  0  0  0
  -11.9238    9.1052   20.7857 N   0  3  0  0  0  0  0  0  0  0  0  0
  -11.1179    7.5174   18.9542 C   0  0  2  0  0  0  0  0  0  0  0  0
  -11.5755    6.8740   17.6198 C   0  0  2  0  0  0  0  0  0  0  0  0
  -10.4896    6.2027   17.0280 O   0  0  0  0  0  0  0  0  0  0  0  0
  -12.0446    7.9490   16.6259 C   0  0  1  0  0  0  0  0  0  0  0  0
  -12.4854    7.3097   15.4285 O   0  0  0  0  0  0  0  0  0  0  0  0
  -13.5289    6.4042   15.5398 C   0  0  2  0  0  0  0  0  0  0  0  0
  -13.2813    5.2397   14.5656 C   0  0  2  0  0  0  0  0  0  0  0  0
  -12.0454    4.6216   14.9012 O   0  0  0  0  0  0  0  0  0  0  0  0
  -13.2272    5.7794   13.1257 C   0  0  1  0  0  0  0  0  0  0  0  0
  -12.9674    4.6952   12.1351 N   0  3  0  0  0  0  0  0  0  0  0  0
  -14.5556    6.5061   12.8027 C   0  0  2  0  0  0  0  0  0  0  0  0
  -14.5250    7.0399   11.4810 O   0  0  0  0  0  0  0  0  0  0  0  0
  -14.8152    7.6220   13.8318 C   0  0  2  0  0  0  0  0  0  0  0  0
  -14.7674    7.0811   15.2021 O   0  0  0  0  0  0  0  0  0  0  0  0
  -16.1759    8.2579   13.6526 C   0  0  0  0  0  0  0  0  0  0  0  0
  -17.2270    7.3128   13.8413 O   0  0  0  0  0  0  0  0  0  0  0  0
  1  2  1  1  0  0  0
  1  3  1  0  0  0  0
  1  9  1  0  0  0  0
  3  4  1  6  0  0  0
  3  5  1  0  0  0  0
  5  6  1  0  0  0  0
  6  7  1  1  0  0  0
  6  8  1  0  0  0  0
  8  9  1  0  0  0  0
  8 10  1  6  0  0  0
 10 11  1  0  0  0  0
 12 13  1  6  0  0  0
 12 14  1  0  0  0  0
 12 20  1  0  0  0  0
 14 15  1  0  0  0  0
 15 16  1  1  0  0  0
 15 17  1  0  0  0  0
 17  2  1  1  0  0  0
 17 18  1  0  0  0  0
 18 19  1  6  0  0  0
 18 20  1  0  0  0  0
 20 21  1  6  0  0  0
 22 21  1  6  0  0  0
 22 23  1  0  0  0  0
 22 30  1  0  0  0  0
 23 24  1  1  0  0  0
 23 25  1  0  0  0  0
 25 26  1  6  0  0  0
 25 27  1  0  0  0  0
 27 28  1  6  0  0  0
 27 29  1  0  0  0  0
 29 30  1  0  0  0  0
 29 31  1  6  0  0  0
 31 32  1  0  0  0  0
M  CHG  5   4   1  11   1  13   1  16   1  26   1
M  END
>  <CHROM.1>
-155.02973336,-176.82874790,65.41507088,-58.34130771,-158.61133427,56.33067758
-50.50222120,-69.22652752,-174.71704803,-62.41451236,-143.10744307,78.13951800
-174.26422330,-59.68459090,61.81469606,-61.63676159,-11.86345344,6.68906135
17.52964884,-0.45992327,0.88287707,-2.47708937

>  <Name>
1lc4

>  <RI>
0

>  <Rbt.Current_Directory>
/home/afrankz/demos/rdock_decoys_rna/rnas/1lc4

>  <Rbt.Executable>
rbdock ($Id: //depot/dev/client3/rdock/2013.1/src/exe/rbdock.cxx#4 $)

>  <Rbt.Library>
libRbt.so (2013.1, Build901 2013/11/27)

>  <Rbt.Parameter_File>
/export/apps/rDock/src/rDock_2013.1_src/data/scripts/dock_solv.prm

>  <Rbt.Receptor>
prm/pocket_docking_8.prm

>  <SCORE>
-62.574

>  <SCORE.INTER>
-40.4818

>  <SCORE.INTER.CONST>
1

>  <SCORE.INTER.POLAR>
-5.63211

>  <SCORE.INTER.ROT>
6

>  <SCORE.INTER.SOLV>
22.157

>  <SCORE.INTER.VDW>
-23.1998

>  <SCORE.INTER.norm>
-1.26506

>  <SCORE.INTRA>
-22.0922

>  <SCORE.INTRA.DIHEDRAL>
-32.7466

>  <SCORE.INTRA.DIHEDRAL.0>
44.2576

>  <SCORE.INTRA.POLAR>
-0.451837

>  <SCORE.INTRA.POLAR.0>
-0.381556

>  <SCORE.INTRA.REPUL>
0

>  <SCORE.INTRA.REPUL.0>
0

>  <SCORE.INTRA.SOLV>
-3.67311

>  <SCORE.INTRA.SOLV.lig_0>
-134.592

>  <SCORE.INTRA.VDW>
-2.34613

>  <SCORE.INTRA.VDW.0>
-1.01417

>  <SCORE.INTRA.norm>
-0.690382

>  <SCORE.RESTR>
0

>  <SCORE.RESTR.CAVITY>
0

>  <SCORE.RESTR.norm>
0

>  <SCORE.SYSTEM>
0

>  <SCORE.SYSTEM.CONST>
0

>  <SCORE.SYSTEM.DIHEDRAL>
0

>  <SCORE.SYSTEM.SOLV>
0

>  <SCORE.SYSTEM.norm>
0

>  <SCORE.heavy>
32

>  <SCORE.norm>
-1.95544

>  <RMSD>
2.614

$$$$
1lc4
 OpenBabel02141814113D
libRbt.so/2013.1/901 2013/11/27
 32 34  0  0  0  0  0  0  0  0999 V2000
  -10.1232    5.8895   19.5430 C   0  0  2  0  0  0  0  0  0  0  0  0
  -11.2451    6.6229   19.9667 O   0  0  0  0  0  0  0  0  0  0  0  0
  -10.3311    4.4164   19.9501 C   0  0  2  0  0  0  0  0  0  0  0  0
  -11.5638    3.8919   19.3541 N   0  3  0  0  0  0  0  0  0  0  0  0
  -10.3507    4.2880   21.4914 C   0  0  0  0  0  0  0  0  0  0  0  0
   -9.0079    4.8243   22.0176 C   0  0  2  0  0  0  0  0  0  0  0  0
   -8.9398    4.6893   23.4412 O   0  0  0  0  0  0  0  0  0  0  0  0
   -8.8423    6.3022   21.5843 C   0  0  2  0  0  0  0  0  0  0  0  0
   -8.9152    6.4168   20.1346 O   0  0  0  0  0  0  0  0  0  0  0  0
   -7.5119    6.9168   22.0120 C   0  0  0  0  0  0  0  0  0  0  0  0
   -7.6696    7.7414   23.2387 N   0  3  0  0  0  0  0  0  0  0  0  0
  -13.9171    9.5425   18.4514 C   0  0  2  0  0  0  0  0  0  0  0  0
  -14.4744   10.7136   17.7501 N   0  3  0  0  0  0  0  0  0  0  0  0
  -12.9061    9.9973   19.4952 C   0  0  0  0  0  0  0  0  0  0  0  0
  -12.3165    8.7878   20.2292 C   0  0  2  0  0  0  0  0  0  0  0  0
  -11.4302    9.2828   21.3118 N   0  3  0  0  0  0  0  0  0  0  0  0
  -11.6246    7.8066   19.2363 C   0  0  2  0  0  0  0  0  0  0  0  0
  -12.6348    7.3866   18.1376 C   0  0  2  0  0  0  0  0  0  0  0  0
  -11.9682    6.6350   17.1524 O   0  0  0  0  0  0  0  0  0  0  0  0
  -13.2336    8.6207   17.4435 C   0  0  1  0  0  0  0  0  0  0  0  0
  -14.1785    8.1873   16.4658 O   0  0  0  0  0  0  0  0  0  0  0  0
  -15.1907    7.3419   16.8925 C   0  0  2  0  0  0  0  0  0  0  0  0
  -15.2654    6.1368   15.9394 C   0  0  2  0  0  0  0  0  0  0  0  0
  -14.0123    5.4649   15.9575 O   0  0  0  0  0  0  0  0  0  0  0  0
  -15.5796    6.6286   14.5156 C   0  0  1  0  0  0  0  0  0  0  0  0
  -15.6435    5.5024   13.5400 N   0  3  0  0  0  0  0  0  0  0  0  0
  -16.9136    7.4142   14.5297 C   0  0  2  0  0  0  0  0  0  0  0  0
  -17.2187    7.9050   13.2263 O   0  0  0  0  0  0  0  0  0  0  0  0
  -16.8377    8.5731   15.5410 C   0  0  2  0  0  0  0  0  0  0  0  0
  -16.4444    8.0726   16.8704 O   0  0  0  0  0  0  0  0  0  0  0  0
  -18.1679    9.2741   15.7061 C   0  0  0  0  0  0  0  0  0  0  0  0
  -18.0391   10.4744   16.4651 O   0  0  0  0  0  0  0  0  0  0  0  0
  1  2  1  1  0  0  0
  1  3  1  0  0  0  0
  1  9  1  0  0  0  0
  3  4  1  6  0  0  0
  3  5  1  0  0  0  0
  5  6  1  0  0  0  0
  6  7  1  1  0  0  0
  6  8  1  0  0  0  0
  8  9  1  0  0  0  0
  8 10  1  6  0  0  0
 10 11  1  0  0  0  0
 12 13  1  6  0  0  0
 12 14  1  0  0  0  0
 12 20  1  0  0  0  0
 14 15  1  0  0  0  0
 15 16  1  1  0  0  0
 15 17  1  0  0  0  0
 17  2  1  1  0  0  0
 17 18  1  0  0  0  0
 18 19  1  6  0  0  0
 18 20  1  0  0  0  0
 20 21  1  6  0  0  0
 22 21  1  6  0  0  0
 22 23  1  0  0  0  0
 22 30  1  0  0  0  0
 23 24  1  6  0  0  0
 23 25  1  0  0  0  0
 25 26  1  6  0  0  0
 25 27  1  0  0  0  0
 27 28  1  6  0  0  0
 27 29  1  0  0  0  0
 29 30  1  0  0  0  0
 29 31  1  1  0  0  0
 31 32  1  0  0  0  0
M  CHG  5   4   1  11   1  13   1  16   1  26   1
M  END
>  <CHROM.1>
-151.66309324,-150.63215163,72.01622622,174.07499798,-99.60861831,-80.50423150
173.35025556,167.08025344,175.96975337,-67.72200064,-130.52780879,172.01539708
62.05894314,179.08155258,-170.21470102,-62.96203282,-12.89972276,7.24626573
18.35528041,-0.13156262,0.73426626,-2.64991015

>  <Name>
1lc4

>  <RI>
0

>  <Rbt.Current_Directory>
/home/afrankz/demos/rdock_decoys_rna/rnas/1lc4

>  <Rbt.Executable>
rbdock ($Id: //depot/dev/client3/rdock/2013.1/src/exe/rbdock.cxx#4 $)

>  <Rbt.Library>
libRbt.so (2013.1, Build901 2013/11/27)

>  <Rbt.Parameter_File>
/export/apps/rDock/src/rDock_2013.1_src/data/scripts/dock_solv.prm

>  <Rbt.Receptor>
prm/pocket_docking_4.prm

>  <SCORE>
-57.9666

>  <SCORE.INTER>
-40.1424

>  <SCORE.INTER.CONST>
1

>  <SCORE.INTER.POLAR>
-5.8444

>  <SCORE.INTER.ROT>
6

>  <SCORE.INTER.SOLV>
18.2819

>  <SCORE.INTER.VDW>
-20.9743

>  <SCORE.INTER.norm>
-1.25445

>  <SCORE.INTRA>
-17.8241

>  <SCORE.INTRA.DIHEDRAL>
-23.7964

>  <SCORE.INTRA.DIHEDRAL.0>
44.2576

>  <SCORE.INTRA.POLAR>
-0.649818

>  <SCORE.INTRA.POLAR.0>
-0.381556

>  <SCORE.INTRA.REPUL>
0

>  <SCORE.INTRA.REPUL.0>
0

>  <SCORE.INTRA.SOLV>
-0.864788

>  <SCORE.INTRA.SOLV.lig_0>
-134.592

>  <SCORE.INTRA.VDW>
-3.28416

>  <SCORE.INTRA.VDW.0>
-1.01417

>  <SCORE.INTRA.norm>
-0.557004

>  <SCORE.RESTR>
0

>  <SCORE.RESTR.CAVITY>
0

>  <SCORE.RESTR.norm>
0

>  <SCORE.SYSTEM>
0

>  <SCORE.SYSTEM.CONST>
0

>  <SCORE.SYSTEM.DIHEDRAL>
0

>  <SCORE.SYSTEM.SOLV>
0

>  <SCORE.SYSTEM.norm>
0

>  <SCORE.heavy>
32

>  <SCORE.norm>
-1.81146

>  <RMSD>
2.618

$$$$
1lc4
 OpenBabel02141814113D
libRbt.so/2013.1/901 2013/11/27
 32 34  0  0  0  0  0  0  0  0999 V2000
  -10.4552    6.0829   18.4951 C   0  0  2  0  0  0  0  0  0  0  0  0
  -11.8569    5.9998   18.5608 O   0  0  0  0  0  0  0  0  0  0  0  0
   -9.8769    4.6858   18.7992 C   0  0  2  0  0  0  0  0  0  0  0  0
  -10.3953    3.7006   17.8451 N   0  3  0  0  0  0  0  0  0  0  0  0
  -10.1990    4.2825   20.2574 C   0  0  0  0  0  0  0  0  0  0  0  0
   -9.5839    5.3499   21.1794 C   0  0  2  0  0  0  0  0  0  0  0  0
   -9.8047    5.0106   22.5525 O   0  0  0  0  0  0  0  0  0  0  0  0
  -10.1918    6.7330   20.8372 C   0  0  2  0  0  0  0  0  0  0  0  0
   -9.9567    7.0579   19.4374 O   0  0  0  0  0  0  0  0  0  0  0  0
   -9.6068    7.8763   21.6626 C   0  0  0  0  0  0  0  0  0  0  0  0
  -10.5509    9.0219   21.7404 N   0  3  0  0  0  0  0  0  0  0  0  0
  -15.2369    7.6054   16.5713 C   0  0  2  0  0  0  0  0  0  0  0  0
  -16.1681    8.5285   15.8972 N   0  3  0  0  0  0  0  0  0  0  0  0
  -14.9711    8.0845   17.9919 C   0  0  0  0  0  0  0  0  0  0  0  0
  -14.0008    7.1344   18.7026 C   0  0  2  0  0  0  0  0  0  0  0  0
  -13.8651    7.5724   20.1140 N   0  3  0  0  0  0  0  0  0  0  0  0
  -12.6496    7.0284   17.9343 C   0  0  2  0  0  0  0  0  0  0  0  0
  -12.9209    6.5971   16.4700 C   0  0  2  0  0  0  0  0  0  0  0  0
  -11.7231    6.6608   15.7343 O   0  0  0  0  0  0  0  0  0  0  0  0
  -13.9225    7.5485   15.7954 C   0  0  1  0  0  0  0  0  0  0  0  0
  -14.1656    7.0948   14.4643 O   0  0  0  0  0  0  0  0  0  0  0  0
  -14.0664    8.0307   13.4467 C   0  0  2  0  0  0  0  0  0  0  0  0
  -15.1925    7.7789   12.4295 C   0  0  2  0  0  0  0  0  0  0  0  0
  -16.4425    7.8972   13.0969 O   0  0  0  0  0  0  0  0  0  0  0  0
  -15.0419    6.3663   11.8381 C   0  0  1  0  0  0  0  0  0  0  0  0
  -16.1219    6.0563   10.8575 N   0  3  0  0  0  0  0  0  0  0  0  0
  -13.6492    6.2366   11.1745 C   0  0  2  0  0  0  0  0  0  0  0  0
  -13.4706    4.9274   10.6387 O   0  0  0  0  0  0  0  0  0  0  0  0
  -12.5417    6.5603   12.1944 C   0  0  2  0  0  0  0  0  0  0  0  0
  -12.7732    7.8816   12.8051 O   0  0  0  0  0  0  0  0  0  0  0  0
  -11.1714    6.6004   11.5551 C   0  0  0  0  0  0  0  0  0  0  0  0
  -10.8060    5.3326   11.0144 O   0  0  0  0  0  0  0  0  0  0  0  0
  1  2  1  1  0  0  0
  1  3  1  0  0  0  0
  1  9  1  0  0  0  0
  3  4  1  6  0  0  0
  3  5  1  0  0  0  0
  5  6  1  0  0  0  0
  6  7  1  1  0  0  0
  6  8  1  0  0  0  0
  8  9  1  0  0  0  0
  8 10  1  1  0  0  0
 10 11  1  0  0  0  0
 12 13  1  6  0  0  0
 12 14  1  0  0  0  0
 12 20  1  0  0  0  0
 14 15  1  0  0  0  0
 15 16  1  1  0  0  0
 15 17  1  0  0  0  0
 17  2  1  1  0  0  0
 17 18  1  0  0  0  0
 18 19  1  6  0  0  0
 18 20  1  0  0  0  0
 20 21  1  6  0  0  0
 22 21  1  1  0  0  0
 22 23  1  0  0  0  0
 22 30  1  0  0  0  0
 23 24  1  1  0  0  0
 23 25  1  0  0  0  0
 25 26  1  6  0  0  0
 25 27  1  0  0  0  0
 27 28  1  1  0  0  0
 27 29  1  0  0  0  0
 29 30  1  0  0  0  0
 29 31  1  6  0  0  0
 31 32  1  0  0  0  0
M  CHG  5   4   1  11   1  13   1  16   1  26   1
M  END
>  <CHROM.1>
-161.31050202,-151.89160143,64.43696939,-168.93434115,-156.07404744,154.81757234
-58.30787719,65.31708719,67.67189526,107.69337143,-140.12896470,102.57529807
24.15187640,78.86666052,-62.84828337,173.41681153,-12.61663140,6.66290149
16.29481542,-1.10640360,0.52851887,-1.78111178

>  <Name>
1lc4

>  <RI>
0

>  <Rbt.Current_Directory>
/home/afrankz/demos/rdock_decoys_rna/rnas/1lc4

>  <Rbt.Executable>
rbdock ($Id: //depot/dev/client3/rdock/2013.1/src/exe/rbdock.cxx#4 $)

>  <Rbt.Library>
libRbt.so (2013.1, Build901 2013/11/27)

>  <Rbt.Parameter_File>
/export/apps/rDock/src/rDock_2013.1_src/data/scripts/dock_solv.prm

>  <Rbt.Receptor>
prm/pocket_docking_5.prm

>  <SCORE>
-69.2436

>  <SCORE.INTER>
-56.336

>  <SCORE.INTER.CONST>
1

>  <SCORE.INTER.POLAR>
-8.87974

>  <SCORE.INTER.ROT>
6

>  <SCORE.INTER.SOLV>
26.3188

>  <SCORE.INTER.VDW>
-24.3311

>  <SCORE.INTER.norm>
-1.7605

>  <SCORE.INTRA>
-12.9076

>  <SCORE.INTRA.DIHEDRAL>
-13.3246

>  <SCORE.INTRA.DIHEDRAL.0>
44.2576

>  <SCORE.INTRA.POLAR>
-0.79107

>  <SCORE.INTRA.POLAR.0>
-0.381556

>  <SCORE.INTRA.REPUL>
0

>  <SCORE.INTRA.REPUL.0>
0

>  <SCORE.INTRA.SOLV>
0.810673

>  <SCORE.INTRA.SOLV.lig_0>
-134.592

>  <SCORE.INTRA.VDW>
-3.96098

>  <SCORE.INTRA.VDW.0>
-1.01417

>  <SCORE.INTRA.norm>
-0.403362

>  <SCORE.RESTR>
0

>  <SCORE.RESTR.CAVITY>
0

>  <SCORE.RESTR.norm>
0

>  <SCORE.SYSTEM>
0

>  <SCORE.SYSTEM.CONST>
0

>  <SCORE.SYSTEM.DIHEDRAL>
0

>  <SCORE.SYSTEM.SOLV>
0

>  <SCORE.SYSTEM.norm>
0

>  <SCORE.heavy>
32

>  <SCORE.norm>
-2.16386

>  <RMSD>
2.636

$$$$
1lc4
 OpenBabel02141814113D
libRbt.so/2013.1/901 2013/11/27
 32 34  0  0  0  0  0  0  0  0999 V2000
  -10.2190    5.9574   19.4886 C   0  0  2  0  0  0  0  0  0  0  0  0
  -11.3333    6.7064   19.9049 O   0  0  0  0  0  0  0  0  0  0  0  0
  -10.4417    4.4907   19.9107 C   0  0  2  0  0  0  0  0  0  0  0  0
  -11.6797    3.9726   19.3205 N   0  3  0  0  0  0  0  0  0  0  0  0
  -10.4620    4.3783   21.4533 C   0  0  0  0  0  0  0  0  0  0  0  0
   -9.1137    4.9064   21.9738 C   0  0  2  0  0  0  0  0  0  0  0  0
   -9.0467    4.7855   23.3986 O   0  0  0  0  0  0  0  0  0  0  0  0
   -8.9334    6.3781   21.5252 C   0  0  2  0  0  0  0  0  0  0  0  0
   -9.0056    6.4785   20.0744 O   0  0  0  0  0  0  0  0  0  0  0  0
   -7.5967    6.9836   21.9463 C   0  0  0  0  0  0  0  0  0  0  0  0
   -7.7314    7.7625   23.2052 N   0  3  0  0  0  0  0  0  0  0  0  0
  -13.8980    9.6790   18.3093 C   0  0  2  0  0  0  0  0  0  0  0  0
  -14.4061   10.8793   17.6203 N   0  3  0  0  0  0  0  0  0  0  0  0
  -12.9845   10.0887   19.4565 C   0  0  0  0  0  0  0  0  0  0  0  0
  -12.4465    8.8486   20.1790 C   0  0  2  0  0  0  0  0  0  0  0  0
  -11.6611    9.2958   21.3562 N   0  3  0  0  0  0  0  0  0  0  0  0
  -11.6620    7.9219   19.2027 C   0  0  2  0  0  0  0  0  0  0  0  0
  -12.5703    7.5497   18.0026 C   0  0  2  0  0  0  0  0  0  0  0  0
  -11.8141    6.8518   17.0429 O   0  0  0  0  0  0  0  0  0  0  0  0
  -13.1211    8.8123   17.3202 C   0  0  1  0  0  0  0  0  0  0  0  0
  -13.9746    8.4212   16.2454 O   0  0  0  0  0  0  0  0  0  0  0  0
  -14.8123    7.3383   16.4620 C   0  0  2  0  0  0  0  0  0  0  0  0
  -15.1890    6.7227   15.1036 C   0  0  2  0  0  0  0  0  0  0  0  0
  -13.9978    6.3092   14.4462 O   0  0  0  0  0  0  0  0  0  0  0  0
  -15.9242    7.7724   14.2519 C   0  0  1  0  0  0  0  0  0  0  0  0
  -16.2969    7.2378   12.9105 N   0  3  0  0  0  0  0  0  0  0  0  0
  -17.1814    8.2583   15.0138 C   0  0  2  0  0  0  0  0  0  0  0  0
  -17.8707    9.2520   14.2588 O   0  0  0  0  0  0  0  0  0  0  0  0
  -16.7860    8.8065   16.3976 C   0  0  2  0  0  0  0  0  0  0  0  0
  -16.0048    7.8048   17.1451 O   0  0  0  0  0  0  0  0  0  0  0  0
  -17.9934    9.1485   17.2420 C   0  0  0  0  0  0  0  0  0  0  0  0
  -17.6153    9.7007   18.5011 O   0  0  0  0  0  0  0  0  0  0  0  0
  1  2  1  1  0  0  0
  1  3  1  0  0  0  0
  1  9  1  0  0  0  0
  3  4  1  6  0  0  0
  3  5  1  0  0  0  0
  5  6  1  0  0  0  0
  6  7  1  1  0  0  0
  6  8  1  0  0  0  0
  8  9  1  0  0  0  0
  8 10  1  6  0  0  0
 10 11  1  0  0  0  0
 12 13  1  6  0  0  0
 12 14  1  0  0  0  0
 12 20  1  0  0  0  0
 14 15  1  0  0  0  0
 15 16  1  1  0  0  0
 15 17  1  0  0  0  0
 17  2  1  1  0  0  0
 17 18  1  0  0  0  0
 18 19  1  6  0  0  0
 18 20  1  0  0  0  0
 20 21  1  6  0  0  0
 22 21  1  6  0  0  0
 22 23  1  0  0  0  0
 22 30  1  0  0  0  0
 23 24  1  6  0  0  0
 23 25  1  0  0  0  0
 25 26  1  6  0  0  0
 25 27  1  0  0  0  0
 27 28  1  6  0  0  0
 27 29  1  0  0  0  0
 29 30  1  0  0  0  0
 29 31  1  1  0  0  0
 31 32  1  0  0  0  0
M  CHG  5   4   1  11   1  13   1  16   1  26   1
M  END
>  <CHROM.1>
-154.68639324,-154.62124240,-175.35183653,-65.00908467,-96.56119305,38.83175974
-59.66426116,-75.25597692,72.59793142,-81.71067641,-156.81402299,176.76448572
61.07386867,-9.07004913,-177.85367826,-55.78380736,-12.94067834,7.49222709
18.39133755,-0.25069427,0.71505438,-2.41554653

>  <Name>
1lc4

>  <RI>
0

>  <Rbt.Current_Directory>
/home/afrankz/demos/rdock_decoys_rna/rnas/1lc4

>  <Rbt.Executable>
rbdock ($Id: //depot/dev/client3/rdock/2013.1/src/exe/rbdock.cxx#4 $)

>  <Rbt.Library>
libRbt.so (2013.1, Build901 2013/11/27)

>  <Rbt.Parameter_File>
/export/apps/rDock/src/rDock_2013.1_src/data/scripts/dock_solv.prm

>  <Rbt.Receptor>
prm/pocket_docking_5.prm

>  <SCORE>
-63.7699

>  <SCORE.INTER>
-51.9524

>  <SCORE.INTER.CONST>
1

>  <SCORE.INTER.POLAR>
-8.16467

>  <SCORE.INTER.ROT>
6

>  <SCORE.INTER.SOLV>
20.7187

>  <SCORE.INTER.VDW>
-21.9256

>  <SCORE.INTER.norm>
-1.62351

>  <SCORE.INTRA>
-11.8175

>  <SCORE.INTRA.DIHEDRAL>
-21.3689

>  <SCORE.INTRA.DIHEDRAL.0>
44.2576

>  <SCORE.INTRA.POLAR>
0.366051

>  <SCORE.INTRA.POLAR.0>
-0.381556

>  <SCORE.INTRA.REPUL>
0

>  <SCORE.INTRA.REPUL.0>
0

>  <SCORE.INTRA.SOLV>
-0.287306

>  <SCORE.INTRA.SOLV.lig_0>
-134.592

>  <SCORE.INTRA.VDW>
-2.23399

>  <SCORE.INTRA.VDW.0>
-1.01417

>  <SCORE.INTRA.norm>
-0.369297

>  <SCORE.RESTR>
0

>  <SCORE.RESTR.CAVITY>
0

>  <SCORE.RESTR.norm>
0

>  <SCORE.SYSTEM>
0

>  <SCORE.SYSTEM.CONST>
0

>  <SCORE.SYSTEM.DIHEDRAL>
0

>  <SCORE.SYSTEM.SOLV>
0

>  <SCORE.SYSTEM.norm>
0

>  <SCORE.heavy>
32

>  <SCORE.norm>
-1.99281

>  <RMSD>
2.651

$$$$
1lc4
 OpenBabel02141814113D
libRbt.so/2013.1/901 2013/11/27
 32 34  0  0  0  0  0  0  0  0999 V2000
  -10.1729    5.8706   19.4384 C   0  0  2  0  0  0  0  0  0  0  0  0
  -11.4593    6.3193   19.7848 O   0  0  0  0  0  0  0  0  0  0  0  0
  -10.0220    4.4176   19.9334 C   0  0  2  0  0  0  0  0  0  0  0  0
  -11.0583    3.5667   19.3404 N   0  3  0  0  0  0  0  0  0  0  0  0
  -10.0725    4.3741   21.4788 C   0  0  0  0  0  0  0  0  0  0  0  0
   -8.9298    5.2603   22.0044 C   0  0  2  0  0  0  0  0  0  0  0  0
   -8.8891    5.2261   23.4350 O   0  0  0  0  0  0  0  0  0  0  0  0
   -9.1218    6.7058   21.4817 C   0  0  2  0  0  0  0  0  0  0  0  0
   -9.1611    6.7177   20.0263 O   0  0  0  0  0  0  0  0  0  0  0  0
   -8.0066    7.6591   21.9037 C   0  0  0  0  0  0  0  0  0  0  0  0
   -6.7416    7.3604   21.1823 N   0  3  0  0  0  0  0  0  0  0  0  0
  -14.1656    8.2611   17.1647 C   0  0  2  0  0  0  0  0  0  0  0  0
  -14.8603    9.2838   16.3614 N   0  3  0  0  0  0  0  0  0  0  0  0
  -14.2452    8.6215   18.6419 C   0  0  0  0  0  0  0  0  0  0  0  0
  -13.5229    7.5670   19.4879 C   0  0  2  0  0  0  0  0  0  0  0  0
  -13.7277    7.8949   20.9208 N   0  3  0  0  0  0  0  0  0  0  0  0
  -12.0276    7.4353   19.0705 C   0  0  2  0  0  0  0  0  0  0  0  0
  -11.9406    7.1260   17.5537 C   0  0  2  0  0  0  0  0  0  0  0  0
  -10.5951    7.1700   17.1442 O   0  0  0  0  0  0  0  0  0  0  0  0
  -12.7021    8.1810   16.7349 C   0  0  1  0  0  0  0  0  0  0  0  0
  -12.6220    7.8382   15.3519 O   0  0  0  0  0  0  0  0  0  0  0  0
  -12.9919    6.5510   14.9947 C   0  0  2  0  0  0  0  0  0  0  0  0
  -12.1705    6.1213   13.7671 C   0  0  2  0  0  0  0  0  0  0  0  0
  -10.7901    6.1689   14.1048 O   0  0  0  0  0  0  0  0  0  0  0  0
  -12.4605    7.0774   12.5968 C   0  0  1  0  0  0  0  0  0  0  0  0
  -11.6734    6.7221   11.3809 N   0  3  0  0  0  0  0  0  0  0  0  0
  -13.9776    7.0613   12.2884 C   0  0  2  0  0  0  0  0  0  0  0  0
  -14.2807    7.9587   11.2227 O   0  0  0  0  0  0  0  0  0  0  0  0
  -14.7808    7.4276   13.5502 C   0  0  2  0  0  0  0  0  0  0  0  0
  -14.4070    6.5485   14.6727 O   0  0  0  0  0  0  0  0  0  0  0  0
  -16.2711    7.2733   13.3425 C   0  0  0  0  0  0  0  0  0  0  0  0
  -16.6308    5.9143   13.1034 O   0  0  0  0  0  0  0  0  0  0  0  0
  1  2  1  1  0  0  0
  1  3  1  0  0  0  0
  1  9  1  0  0  0  0
  3  4  1  6  0  0  0
  3  5  1  0  0  0  0
  5  6  1  0  0  0  0
  6  7  1  1  0  0  0
  6  8  1  0  0  0  0
  8  9  1  0  0  0  0
  8 10  1  6  0  0  0
 10 11  1  0  0  0  0
 12 13  1  6  0  0  0
 12 14  1  0  0  0  0
 12 20  1  0  0  0  0
 14 15  1  0  0  0  0
 15 16  1  1  0  0  0
 15 17  1  0  0  0  0
 17  2  1  1  0  0  0
 17 18  1  0  0  0  0
 18 19  1  6  0  0  0
 18 20  1  0  0  0  0
 20 21  1  6  0  0  0
 22 21  1  6  0  0  0
 22 23  1  0  0  0  0
 22 30  1  0  0  0  0
 23 24  1  1  0  0  0
 23 25  1  0  0  0  0
 25 26  1  6  0  0  0
 25 27  1  0  0  0  0
 27 28  1  6  0  0  0
 27 29  1  0  0  0  0
 29 30  1  0  0  0  0
 29 31  1  6  0  0  0
 31 32  1  0  0  0  0
M  CHG  5   4   1  11   1  13   1  16   1  26   1
M  END
>  <CHROM.1>
-159.01209256,170.84064375,-94.55041865,-68.99859281,71.32799122,-169.99776863
59.94140021,-167.91849716,-58.58513525,-69.73202231,-149.19127292,172.79566387
-56.29616871,-179.80370073,64.42932851,60.21084654,-12.00696852,6.79969632
17.27112552,-1.01169415,0.34060824,-1.64685351

>  <Name>
1lc4

>  <RI>
0

>  <Rbt.Current_Directory>
/home/afrankz/demos/rdock_decoys_rna/rnas/1lc4

>  <Rbt.Executable>
rbdock ($Id: //depot/dev/client3/rdock/2013.1/src/exe/rbdock.cxx#4 $)

>  <Rbt.Library>
libRbt.so (2013.1, Build901 2013/11/27)

>  <Rbt.Parameter_File>
/export/apps/rDock/src/rDock_2013.1_src/data/scripts/dock_solv.prm

>  <Rbt.Receptor>
prm/pocket_docking_4.prm

>  <SCORE>
-56.6077

>  <SCORE.INTER>
-40.4629

>  <SCORE.INTER.CONST>
1

>  <SCORE.INTER.POLAR>
-5.38452

>  <SCORE.INTER.ROT>
6

>  <SCORE.INTER.SOLV>
25.5369

>  <SCORE.INTER.VDW>
-25.1391

>  <SCORE.INTER.norm>
-1.26446

>  <SCORE.INTRA>
-16.1448

>  <SCORE.INTRA.DIHEDRAL>
-33.5521

>  <SCORE.INTRA.DIHEDRAL.0>
44.2576

>  <SCORE.INTRA.POLAR>
0.379428

>  <SCORE.INTRA.POLAR.0>
-0.381556

>  <SCORE.INTRA.REPUL>
0.120065

>  <SCORE.INTRA.REPUL.0>
0

>  <SCORE.INTRA.SOLV>
-1.72867

>  <SCORE.INTRA.SOLV.lig_0>
-134.592

>  <SCORE.INTRA.VDW>
-0.394823

>  <SCORE.INTRA.VDW.0>
-1.01417

>  <SCORE.INTRA.norm>
-0.504526

>  <SCORE.RESTR>
0

>  <SCORE.RESTR.CAVITY>
0

>  <SCORE.RESTR.norm>
0

>  <SCORE.SYSTEM>
0

>  <SCORE.SYSTEM.CONST>
0

>  <SCORE.SYSTEM.DIHEDRAL>
0

>  <SCORE.SYSTEM.SOLV>
0

>  <SCORE.SYSTEM.norm>
0

>  <SCORE.heavy>
32

>  <SCORE.norm>
-1.76899

>  <RMSD>
2.688

$$$$
1lc4
 OpenBabel02141814113D
libRbt.so/2013.1/901 2013/11/27
 32 34  0  0  0  0  0  0  0  0999 V2000
  -10.0337    5.9716   19.3287 C   0  0  2  0  0  0  0  0  0  0  0  0
  -11.3303    6.4563   19.5732 O   0  0  0  0  0  0  0  0  0  0  0  0
   -9.9763    4.5008   19.7894 C   0  0  2  0  0  0  0  0  0  0  0  0
  -10.9828    3.7047   19.0803 N   0  3  0  0  0  0  0  0  0  0  0  0
  -10.1671    4.4156   21.3221 C   0  0  0  0  0  0  0  0  0  0  0  0
   -9.0474    5.2450   21.9747 C   0  0  2  0  0  0  0  0  0  0  0  0
   -9.1367    5.1691   23.4014 O   0  0  0  0  0  0  0  0  0  0  0  0
   -9.1435    6.7106   21.4825 C   0  0  2  0  0  0  0  0  0  0  0  0
   -9.0512    6.7650   20.0304 O   0  0  0  0  0  0  0  0  0  0  0  0
   -8.0396    7.6110   22.0316 C   0  0  0  0  0  0  0  0  0  0  0  0
   -6.7499    7.3680   21.3335 N   0  3  0  0  0  0  0  0  0  0  0  0
  -14.0862    9.4253   18.3282 C   0  0  2  0  0  0  0  0  0  0  0  0
  -14.6772   10.6404   17.7382 N   0  3  0  0  0  0  0  0  0  0  0  0
  -13.0914    9.8091   19.4151 C   0  0  0  0  0  0  0  0  0  0  0  0
  -12.4670    8.5537   20.0342 C   0  0  2  0  0  0  0  0  0  0  0  0
  -11.5982    8.9701   21.1630 N   0  3  0  0  0  0  0  0  0  0  0  0
  -11.7439    7.6920   18.9562 C   0  0  2  0  0  0  0  0  0  0  0  0
  -12.7388    7.3481   17.8179 C   0  0  2  0  0  0  0  0  0  0  0  0
  -12.0479    6.7134   16.7692 O   0  0  0  0  0  0  0  0  0  0  0  0
  -13.3732    8.6240   17.2408 C   0  0  1  0  0  0  0  0  0  0  0  0
  -14.3028    8.2572   16.2219 O   0  0  0  0  0  0  0  0  0  0  0  0
  -15.1330    7.1774   16.4792 C   0  0  2  0  0  0  0  0  0  0  0  0
  -15.2987    6.3599   15.1867 C   0  0  2  0  0  0  0  0  0  0  0  0
  -14.0164    5.9145   14.7632 O   0  0  0  0  0  0  0  0  0  0  0  0
  -15.9355    7.2438   14.0999 C   0  0  1  0  0  0  0  0  0  0  0  0
  -16.1019    6.5090   12.8129 N   0  3  0  0  0  0  0  0  0  0  0  0
  -17.2997    7.7724   14.6064 C   0  0  2  0  0  0  0  0  0  0  0  0
  -17.9030    8.6166   13.6286 O   0  0  0  0  0  0  0  0  0  0  0  0
  -17.1171    8.5277   15.9360 C   0  0  2  0  0  0  0  0  0  0  0  0
  -16.4216    7.6788   16.9199 O   0  0  0  0  0  0  0  0  0  0  0  0
  -18.4398    8.9279   16.5510 C   0  0  0  0  0  0  0  0  0  0  0  0
  -18.2573    9.6489   17.7676 O   0  0  0  0  0  0  0  0  0  0  0  0
  1  2  1  1  0  0  0
  1  3  1  0  0  0  0
  1  9  1  0  0  0  0
  3  4  1  6  0  0  0
  3  5  1  0  0  0  0
  5  6  1  0  0  0  0
  6  7  1  1  0  0  0
  6  8  1  0  0  0  0
  8  9  1  0  0  0  0
  8 10  1  1  0  0  0
 10 11  1  0  0  0  0
 12 13  1  6  0  0  0
 12 14  1  0  0  0  0
 12 20  1  0  0  0  0
 14 15  1  0  0  0  0
 15 16  1  1  0  0  0
 15 17  1  0  0  0  0
 17  2  1  1  0  0  0
 17 18  1  0  0  0  0
 18 19  1  6  0  0  0
 18 20  1  0  0  0  0
 20 21  1  6  0  0  0
 22 21  1  6  0  0  0
 22 23  1  0  0  0  0
 22 30  1  0  0  0  0
 23 24  1  6  0  0  0
 23 25  1  0  0  0  0
 25 26  1  6  0  0  0
 25 27  1  0  0  0  0
 27 28  1  6  0  0  0
 27 29  1  0  0  0  0
 29 30  1  0  0  0  0
 29 31  1  1  0  0  0
 31 32  1  0  0  0  0
M  CHG  5   4   1  11   1  13   1  16   1  26   1
M  END
>  <CHROM.1>
-165.61656880,-135.06121566,147.39014516,60.20997786,76.21642921,68.08396499
174.88943234,-156.22212819,-55.64345878,-79.09412311,-141.53984394,40.47542756
-53.77706099,74.29957864,-178.85670401,-57.50942722,-12.98973847,7.32120117
18.16502465,-0.27984848,0.64749707,-2.39194841

>  <Name>
1lc4

>  <RI>
0

>  <Rbt.Current_Directory>
/home/afrankz/demos/rdock_decoys_rna/rnas/1lc4

>  <Rbt.Executable>
rbdock ($Id: //depot/dev/client3/rdock/2013.1/src/exe/rbdock.cxx#4 $)

>  <Rbt.Library>
libRbt.so (2013.1, Build901 2013/11/27)

>  <Rbt.Parameter_File>
/export/apps/rDock/src/rDock_2013.1_src/data/scripts/dock_solv.prm

>  <Rbt.Receptor>
prm/pocket_docking_5.prm

>  <SCORE>
-51.052

>  <SCORE.INTER>
-37.229

>  <SCORE.INTER.CONST>
1

>  <SCORE.INTER.POLAR>
-5.56132

>  <SCORE.INTER.ROT>
6

>  <SCORE.INTER.SOLV>
25.0134

>  <SCORE.INTER.VDW>
-22.2194

>  <SCORE.INTER.norm>
-1.16341

>  <SCORE.INTRA>
-13.823

>  <SCORE.INTRA.DIHEDRAL>
-22.9898

>  <SCORE.INTRA.DIHEDRAL.0>
44.2576

>  <SCORE.INTRA.POLAR>
-0.230683

>  <SCORE.INTRA.POLAR.0>
-0.381556

>  <SCORE.INTRA.REPUL>
0

>  <SCORE.INTRA.REPUL.0>
0

>  <SCORE.INTRA.SOLV>
0.350094

>  <SCORE.INTRA.SOLV.lig_0>
-134.592

>  <SCORE.INTRA.VDW>
-1.71881

>  <SCORE.INTRA.VDW.0>
-1.01417

>  <SCORE.INTRA.norm>
-0.431968

>  <SCORE.RESTR>
0

>  <SCORE.RESTR.CAVITY>
0

>  <SCORE.RESTR.norm>
0

>  <SCORE.SYSTEM>
0

>  <SCORE.SYSTEM.CONST>
0

>  <SCORE.SYSTEM.DIHEDRAL>
0

>  <SCORE.SYSTEM.SOLV>
0

>  <SCORE.SYSTEM.norm>
0

>  <SCORE.heavy>
32

>  <SCORE.norm>
-1.59538

>  <RMSD>
2.690

$$$$
1lc4
 OpenBabel02141814113D
libRbt.so/2013.1/901 2013/11/27
 32 34  0  0  0  0  0  0  0  0999 V2000
  -10.3941    5.9962   19.2325 C   0  0  2  0  0  0  0  0  0  0  0  0
  -11.1847    7.0847   19.6402 O   0  0  0  0  0  0  0  0  0  0  0  0
  -11.1130    4.6975   19.6511 C   0  0  2  0  0  0  0  0  0  0  0  0
  -12.4488    4.6376   19.0496 N   0  3  0  0  0  0  0  0  0  0  0  0
  -11.1840    4.6019   21.1933 C   0  0  0  0  0  0  0  0  0  0  0  0
   -9.7407    4.6330   21.7259 C   0  0  2  0  0  0  0  0  0  0  0  0
   -9.7315    4.4989   23.1511 O   0  0  0  0  0  0  0  0  0  0  0  0
   -9.0596    5.9510   21.2806 C   0  0  2  0  0  0  0  0  0  0  0  0
   -9.0804    6.0675   19.8294 O   0  0  0  0  0  0  0  0  0  0  0  0
   -7.5996    6.0585   21.7138 C   0  0  0  0  0  0  0  0  0  0  0  0
   -6.9265    7.2093   21.0564 N   0  3  0  0  0  0  0  0  0  0  0  0
  -14.1730    9.0137   17.3360 C   0  0  2  0  0  0  0  0  0  0  0  0
  -14.8592    9.8764   16.3570 N   0  3  0  0  0  0  0  0  0  0  0  0
  -13.3915    9.8706   18.3226 C   0  0  0  0  0  0  0  0  0  0  0  0
  -12.6701    8.9845   19.3442 C   0  0  2  0  0  0  0  0  0  0  0  0
  -12.0224    9.8617   20.3510 N   0  3  0  0  0  0  0  0  0  0  0  0
  -11.6967    7.9909   18.6425 C   0  0  2  0  0  0  0  0  0  0  0  0
  -12.4777    7.1564   17.5949 C   0  0  2  0  0  0  0  0  0  0  0  0
  -11.5733    6.3787   16.8484 O   0  0  0  0  0  0  0  0  0  0  0  0
  -13.2172    8.0721   16.6060 C   0  0  1  0  0  0  0  0  0  0  0  0
  -13.9458    7.2628   15.6836 O   0  0  0  0  0  0  0  0  0  0  0  0
  -14.8755    6.3800   16.2107 C   0  0  2  0  0  0  0  0  0  0  0  0
  -14.5708    4.9666   15.6857 C   0  0  2  0  0  0  0  0  0  0  0  0
  -13.2555    4.6061   16.0882 O   0  0  0  0  0  0  0  0  0  0  0  0
  -14.6737    4.9573   14.1505 C   0  0  1  0  0  0  0  0  0  0  0  0
  -14.3667    3.6137   13.5809 N   0  3  0  0  0  0  0  0  0  0  0  0
  -16.0917    5.4163   13.7311 C   0  0  2  0  0  0  0  0  0  0  0  0
  -16.2092    5.4421   12.3105 O   0  0  0  0  0  0  0  0  0  0  0  0
  -16.3993    6.8033   14.3255 C   0  0  2  0  0  0  0  0  0  0  0  0
  -16.1999    6.7942   15.7859 O   0  0  0  0  0  0  0  0  0  0  0  0
  -17.8297    7.2267   14.0752 C   0  0  0  0  0  0  0  0  0  0  0  0
  -18.1381    7.2403   12.6831 O   0  0  0  0  0  0  0  0  0  0  0  0
  1  2  1  1  0  0  0
  1  3  1  0  0  0  0
  1  9  1  0  0  0  0
  3  4  1  6  0  0  0
  3  5  1  0  0  0  0
  5  6  1  0  0  0  0
  6  7  1  1  0  0  0
  6  8  1  0  0  0  0
  8  9  1  0  0  0  0
  8 10  1  6  0  0  0
 10 11  1  0  0  0  0
 12 13  1  6  0  0  0
 12 14  1  0  0  0  0
 12 20  1  0  0  0  0
 14 15  1  0  0  0  0
 15 16  1  1  0  0  0
 15 17  1  0  0  0  0
 17  2  1  1  0  0  0
 17 18  1  0  0  0  0
 18 19  1  6  0  0  0
 18 20  1  0  0  0  0
 20 21  1  6  0  0  0
 22 21  1  6  0  0  0
 22 23  1  0  0  0  0
 22 30  1  0  0  0  0
 23 24  1  6  0  0  0
 23 25  1  0  0  0  0
 25 26  1  1  0  0  0
 25 27  1  0  0  0  0
 27 28  1  6  0  0  0
 27 29  1  0  0  0  0
 29 30  1  0  0  0  0
 29 31  1  1  0  0  0
 31 32  1  0  0  0  0
M  CHG  5   4   1  11   1  13   1  16   1  26   1
M  END
>  <CHROM.1>
-118.81197155,173.12717715,61.88220208,177.24846913,169.53437776,-32.02121519
56.59534910,166.54003247,175.43621933,-64.19400913,-125.85578178,173.02671971
-60.40011590,173.71123804,-57.37812652,170.62116664,-12.85007448,6.53439610
17.57213982,-0.21680692,0.78623452,-2.80015029

>  <Name>
1lc4

>  <RI>
0

>  <Rbt.Current_Directory>
/home/afrankz/demos/rdock_decoys_rna/rnas/1lc4

>  <Rbt.Executable>
rbdock ($Id: //depot/dev/client3/rdock/2013.1/src/exe/rbdock.cxx#4 $)

>  <Rbt.Library>
libRbt.so (2013.1, Build901 2013/11/27)

>  <Rbt.Parameter_File>
/export/apps/rDock/src/rDock_2013.1_src/data/scripts/dock_solv.prm

>  <Rbt.Receptor>
prm/pocket_docking_8.prm

>  <SCORE>
-53.1055

>  <SCORE.INTER>
-31.9184

>  <SCORE.INTER.CONST>
1

>  <SCORE.INTER.POLAR>
-4.41506

>  <SCORE.INTER.ROT>
6

>  <SCORE.INTER.SOLV>
21.1646

>  <SCORE.INTER.VDW>
-21.2169

>  <SCORE.INTER.norm>
-0.997449

>  <SCORE.INTRA>
-21.1871

>  <SCORE.INTRA.DIHEDRAL>
-26.1404

>  <SCORE.INTRA.DIHEDRAL.0>
44.2576

>  <SCORE.INTRA.POLAR>
-2.34659

>  <SCORE.INTRA.POLAR.0>
-0.381556

>  <SCORE.INTRA.REPUL>
0

>  <SCORE.INTRA.REPUL.0>
0

>  <SCORE.INTRA.SOLV>
2.48371

>  <SCORE.INTRA.SOLV.lig_0>
-134.592

>  <SCORE.INTRA.VDW>
-1.38035

>  <SCORE.INTRA.VDW.0>
-1.01417

>  <SCORE.INTRA.norm>
-0.662098

>  <SCORE.RESTR>
0

>  <SCORE.RESTR.CAVITY>
0

>  <SCORE.RESTR.norm>
0

>  <SCORE.SYSTEM>
0

>  <SCORE.SYSTEM.CONST>
0

>  <SCORE.SYSTEM.DIHEDRAL>
0

>  <SCORE.SYSTEM.SOLV>
0

>  <SCORE.SYSTEM.norm>
0

>  <SCORE.heavy>
32

>  <SCORE.norm>
-1.65955

>  <RMSD>
2.713

$$$$
1lc4
 OpenBabel02141814113D
libRbt.so/2013.1/901 2013/11/27
 32 34  0  0  0  0  0  0  0  0999 V2000
  -10.2684    5.5470   19.2657 C   0  0  2  0  0  0  0  0  0  0  0  0
  -11.4774    6.2041   19.5531 O   0  0  0  0  0  0  0  0  0  0  0  0
  -10.3194    4.1456   19.9078 C   0  0  2  0  0  0  0  0  0  0  0  0
  -11.4678    3.3916   19.3955 N   0  3  0  0  0  0  0  0  0  0  0  0
  -10.3670    4.2678   21.4490 C   0  0  0  0  0  0  0  0  0  0  0  0
   -9.1086    5.0349   21.8915 C   0  0  2  0  0  0  0  0  0  0  0  0
   -9.0652    5.1418   23.3184 O   0  0  0  0  0  0  0  0  0  0  0  0
   -9.0996    6.4319   21.2224 C   0  0  2  0  0  0  0  0  0  0  0  0
   -9.1448    6.3002   19.7730 O   0  0  0  0  0  0  0  0  0  0  0  0
   -7.8596    7.2582   21.5547 C   0  0  0  0  0  0  0  0  0  0  0  0
   -8.0274    7.9878   22.8389 N   0  3  0  0  0  0  0  0  0  0  0  0
  -13.9174    8.5333   16.9877 C   0  0  2  0  0  0  0  0  0  0  0  0
  -14.4362    9.6288   16.1483 N   0  3  0  0  0  0  0  0  0  0  0  0
  -13.7589    9.0127   18.4242 C   0  0  0  0  0  0  0  0  0  0  0  0
  -13.2164    7.8831   19.3067 C   0  0  2  0  0  0  0  0  0  0  0  0
  -13.1910    8.3576   20.7127 N   0  3  0  0  0  0  0  0  0  0  0  0
  -11.8432    7.3664   18.7824 C   0  0  2  0  0  0  0  0  0  0  0  0
  -11.9868    6.9317   17.3012 C   0  0  2  0  0  0  0  0  0  0  0  0
  -10.7171    6.6216   16.7799 O   0  0  0  0  0  0  0  0  0  0  0  0
  -12.5643    8.0733   16.4488 C   0  0  1  0  0  0  0  0  0  0  0  0
  -12.7086    7.6179   15.1040 O   0  0  0  0  0  0  0  0  0  0  0  0
  -12.8786    6.2560   14.9100 C   0  0  2  0  0  0  0  0  0  0  0  0
  -11.9954    5.8084   13.7327 C   0  0  2  0  0  0  0  0  0  0  0  0
  -10.6396    6.1033   14.0441 O   0  0  0  0  0  0  0  0  0  0  0  0
  -12.4197    6.5607   12.4593 C   0  0  1  0  0  0  0  0  0  0  0  0
  -11.5817    6.1824   11.2850 N   0  3  0  0  0  0  0  0  0  0  0  0
  -13.9154    6.2798   12.1749 C   0  0  2  0  0  0  0  0  0  0  0  0
  -14.3445    6.9852   11.0126 O   0  0  0  0  0  0  0  0  0  0  0  0
  -14.7714    6.6720   13.3936 C   0  0  2  0  0  0  0  0  0  0  0  0
  -14.2754    6.0020   14.6092 O   0  0  0  0  0  0  0  0  0  0  0  0
  -16.2203    6.2717   13.2256 C   0  0  0  0  0  0  0  0  0  0  0  0
  -16.7831    6.8210   12.0361 O   0  0  0  0  0  0  0  0  0  0  0  0
  1  2  1  1  0  0  0
  1  3  1  0  0  0  0
  1  9  1  0  0  0  0
  3  4  1  6  0  0  0
  3  5  1  0  0  0  0
  5  6  1  0  0  0  0
  6  7  1  1  0  0  0
  6  8  1  0  0  0  0
  8  9  1  0  0  0  0
  8 10  1  6  0  0  0
 10 11  1  0  0  0  0
 12 13  1  6  0  0  0
 12 14  1  0  0  0  0
 12 20  1  0  0  0  0
 14 15  1  0  0  0  0
 15 16  1  1  0  0  0
 15 17  1  0  0  0  0
 17  2  1  1  0  0  0
 17 18  1  0  0  0  0
 18 19  1  6  0  0  0
 18 20  1  0  0  0  0
 20 21  1  6  0  0  0
 22 21  1  6  0  0  0
 22 23  1  0  0  0  0
 22 30  1  0  0  0  0
 23 24  1  1  0  0  0
 23 25  1  0  0  0  0
 25 26  1  6  0  0  0
 25 27  1  0  0  0  0
 27 28  1  6  0  0  0
 27 29  1  0  0  0  0
 29 30  1  0  0  0  0
 29 31  1  6  0  0  0
 31 32  1  0  0  0  0
M  CHG  5   4   1  11   1  13   1  16   1  26   1
M  END
>  <CHROM.1>
-163.25631040,179.83567988,58.05200183,-66.85399719,-84.92519171,157.45803582
77.02766320,66.03941313,-55.19923843,-95.58472781,-136.28809496,56.84926470
-170.45398275,83.77473145,-55.97661273,173.93972704,-12.01297847,6.62456086
17.14060584,-0.95961613,0.63450230,-1.88988177

>  <Name>
1lc4

>  <RI>
0

>  <Rbt.Current_Directory>
/home/afrankz/demos/rdock_decoys_rna/rnas/1lc4

>  <Rbt.Executable>
rbdock ($Id: //depot/dev/client3/rdock/2013.1/src/exe/rbdock.cxx#4 $)

>  <Rbt.Library>
libRbt.so (2013.1, Build901 2013/11/27)

>  <Rbt.Parameter_File>
/export/apps/rDock/src/rDock_2013.1_src/data/scripts/dock_solv.prm

>  <Rbt.Receptor>
prm/pocket_docking_4.prm

>  <SCORE>
-57.1918

>  <SCORE.INTER>
-42.9653

>  <SCORE.INTER.CONST>
1

>  <SCORE.INTER.POLAR>
-5.62035

>  <SCORE.INTER.ROT>
6

>  <SCORE.INTER.SOLV>
18.0323

>  <SCORE.INTER.VDW>
-23.5199

>  <SCORE.INTER.norm>
-1.34267

>  <SCORE.INTRA>
-14.2264

>  <SCORE.INTRA.DIHEDRAL>
-25.1565

>  <SCORE.INTRA.DIHEDRAL.0>
44.2576

>  <SCORE.INTRA.POLAR>
-0.0354756

>  <SCORE.INTRA.POLAR.0>
-0.381556

>  <SCORE.INTRA.REPUL>
0

>  <SCORE.INTRA.REPUL.0>
0

>  <SCORE.INTRA.SOLV>
-3.4087

>  <SCORE.INTRA.SOLV.lig_0>
-134.592

>  <SCORE.INTRA.VDW>
0.176778

>  <SCORE.INTRA.VDW.0>
-1.01417

>  <SCORE.INTRA.norm>
-0.444576

>  <SCORE.RESTR>
0

>  <SCORE.RESTR.CAVITY>
0

>  <SCORE.RESTR.norm>
0

>  <SCORE.SYSTEM>
0

>  <SCORE.SYSTEM.CONST>
0

>  <SCORE.SYSTEM.DIHEDRAL>
0

>  <SCORE.SYSTEM.SOLV>
0

>  <SCORE.SYSTEM.norm>
0

>  <SCORE.heavy>
32

>  <SCORE.norm>
-1.78724

>  <RMSD>
2.734

$$$$
1lc4
 OpenBabel02141814113D
libRbt.so/2013.1/901 2013/11/27
 32 34  0  0  0  0  0  0  0  0999 V2000
  -10.1183    5.9159   19.5997 C   0  0  2  0  0  0  0  0  0  0  0  0
  -11.2369    6.6587   20.0157 O   0  0  0  0  0  0  0  0  0  0  0  0
  -10.3127    4.4568   20.0603 C   0  0  2  0  0  0  0  0  0  0  0  0
  -11.5521    3.9069   19.5025 N   0  3  0  0  0  0  0  0  0  0  0  0
  -10.3073    4.3815   21.6052 C   0  0  0  0  0  0  0  0  0  0  0  0
   -8.9589    4.9413   22.0913 C   0  0  2  0  0  0  0  0  0  0  0  0
   -8.8678    4.8558   23.5174 O   0  0  0  0  0  0  0  0  0  0  0  0
   -8.8074    6.4042   21.6048 C   0  0  2  0  0  0  0  0  0  0  0  0
   -8.9037    6.4684   20.1534 O   0  0  0  0  0  0  0  0  0  0  0  0
   -7.4733    7.0388   21.9899 C   0  0  0  0  0  0  0  0  0  0  0  0
   -6.5596    7.1222   20.8204 N   0  3  0  0  0  0  0  0  0  0  0  0
  -13.5537    9.9985   18.8166 C   0  0  2  0  0  0  0  0  0  0  0  0
  -13.9676   11.2982   18.2568 N   0  3  0  0  0  0  0  0  0  0  0  0
  -12.5459   10.2151   19.9372 C   0  0  0  0  0  0  0  0  0  0  0  0
  -12.1048    8.8701   20.5253 C   0  0  2  0  0  0  0  0  0  0  0  0
  -11.2187    9.1341   21.6862 N   0  3  0  0  0  0  0  0  0  0  0  0
  -11.4716    7.9566   19.4335 C   0  0  2  0  0  0  0  0  0  0  0  0
  -12.4730    7.7812   18.2630 C   0  0  2  0  0  0  0  0  0  0  0  0
  -11.8432    7.0959   17.2077 O   0  0  0  0  0  0  0  0  0  0  0  0
  -12.9224    9.1464   17.7173 C   0  0  1  0  0  0  0  0  0  0  0  0
  -13.8651    8.9360   16.6667 O   0  0  0  0  0  0  0  0  0  0  0  0
  -14.9467    8.1133   16.9400 C   0  0  2  0  0  0  0  0  0  0  0  0
  -15.3466    7.3749   15.6511 C   0  0  2  0  0  0  0  0  0  0  0  0
  -14.2359    6.6079   15.2038 O   0  0  0  0  0  0  0  0  0  0  0  0
  -15.7463    8.4008   14.5762 C   0  0  1  0  0  0  0  0  0  0  0  0
  -16.1247    7.7422   13.2928 N   0  3  0  0  0  0  0  0  0  0  0  0
  -16.9124    9.2694   15.1080 C   0  0  2  0  0  0  0  0  0  0  0  0
  -17.2884   10.2477   14.1415 O   0  0  0  0  0  0  0  0  0  0  0  0
  -16.5121    9.9432   16.4337 C   0  0  2  0  0  0  0  0  0  0  0  0
  -16.0483    8.9359   17.4047 O   0  0  0  0  0  0  0  0  0  0  0  0
  -17.6702   10.6765   17.0733 C   0  0  0  0  0  0  0  0  0  0  0  0
  -18.7325    9.7877   17.4124 O   0  0  0  0  0  0  0  0  0  0  0  0
  1  2  1  1  0  0  0
  1  3  1  0  0  0  0
  1  9  1  0  0  0  0
  3  4  1  1  0  0  0
  3  5  1  0  0  0  0
  5  6  1  0  0  0  0
  6  7  1  1  0  0  0
  6  8  1  0  0  0  0
  8  9  1  0  0  0  0
  8 10  1  6  0  0  0
 10 11  1  0  0  0  0
 12 13  1  6  0  0  0
 12 14  1  0  0  0  0
 12 20  1  0  0  0  0
 14 15  1  0  0  0  0
 15 16  1  1  0  0  0
 15 17  1  0  0  0  0
 17  2  1  1  0  0  0
 17 18  1  0  0  0  0
 18 19  1  6  0  0  0
 18 20  1  0  0  0  0
 20 21  1  6  0  0  0
 22 21  1  6  0  0  0
 22 23  1  0  0  0  0
 22 30  1  0  0  0  0
 23 24  1  6  0  0  0
 23 25  1  0  0  0  0
 25 26  1  6  0  0  0
 25 27  1  0  0  0  0
 27 28  1  6  0  0  0
 27 29  1  0  0  0  0
 29 30  1  0  0  0  0
 29 31  1  1  0  0  0
 31 32  1  0  0  0  0
M  CHG  5   4   1  11   1  13   1  16   1  26   1
M  END
>  <CHROM.1>
-164.51671626,-146.10026070,-48.18410254,-176.63582947,104.62175799,87.45254349
-51.23034933,177.91101500,170.97058222,-69.82290967,-147.73474894,-74.06949296
69.50980791,54.33119069,62.26258188,52.17785680,-12.77724673,7.80139011,18.49573815
-0.06396173,0.72262011,-2.52268075

>  <Name>
1lc4

>  <RI>
0

>  <Rbt.Current_Directory>
/home/afrankz/demos/rdock_decoys_rna/rnas/1lc4

>  <Rbt.Executable>
rbdock ($Id: //depot/dev/client3/rdock/2013.1/src/exe/rbdock.cxx#4 $)

>  <Rbt.Library>
libRbt.so (2013.1, Build901 2013/11/27)

>  <Rbt.Parameter_File>
/export/apps/rDock/src/rDock_2013.1_src/data/scripts/dock_solv.prm

>  <Rbt.Receptor>
prm/pocket_docking_4.prm

>  <SCORE>
-65.4305

>  <SCORE.INTER>
-50.1425

>  <SCORE.INTER.CONST>
1

>  <SCORE.INTER.POLAR>
-7.87818

>  <SCORE.INTER.ROT>
6

>  <SCORE.INTER.SOLV>
34.5532

>  <SCORE.INTER.VDW>
-26.2854

>  <SCORE.INTER.norm>
-1.56695

>  <SCORE.INTRA>
-15.3075

>  <SCORE.INTRA.DIHEDRAL>
-25.5827

>  <SCORE.INTRA.DIHEDRAL.0>
44.2576

>  <SCORE.INTRA.POLAR>
-0.0693864

>  <SCORE.INTRA.POLAR.0>
-0.381556

>  <SCORE.INTRA.REPUL>
0

>  <SCORE.INTRA.REPUL.0>
0

>  <SCORE.INTRA.SOLV>
-0.299083

>  <SCORE.INTRA.SOLV.lig_0>
-134.592

>  <SCORE.INTRA.VDW>
-2.13074

>  <SCORE.INTRA.VDW.0>
-1.01417

>  <SCORE.INTRA.norm>
-0.478361

>  <SCORE.RESTR>
0.0195643

>  <SCORE.RESTR.CAVITY>
0.0195643

>  <SCORE.RESTR.norm>
0.000611386

>  <SCORE.SYSTEM>
0

>  <SCORE.SYSTEM.CONST>
0

>  <SCORE.SYSTEM.DIHEDRAL>
0

>  <SCORE.SYSTEM.SOLV>
0

>  <SCORE.SYSTEM.norm>
0

>  <SCORE.heavy>
32

>  <SCORE.norm>
-2.0447

>  <RMSD>
2.738

$$$$
1lc4
 OpenBabel02141814113D
libRbt.so/2013.1/901 2013/11/27
 32 34  0  0  0  0  0  0  0  0999 V2000
  -10.2014    5.9043   19.3936 C   0  0  2  0  0  0  0  0  0  0  0  0
  -11.4826    6.4152   19.6647 O   0  0  0  0  0  0  0  0  0  0  0  0
  -10.1598    4.4369   19.8667 C   0  0  2  0  0  0  0  0  0  0  0  0
  -11.1976    3.6533   19.1895 N   0  3  0  0  0  0  0  0  0  0  0  0
  -10.3149    4.3690   21.4042 C   0  0  0  0  0  0  0  0  0  0  0  0
   -9.1647    5.1834   22.0219 C   0  0  2  0  0  0  0  0  0  0  0  0
   -9.2207    5.1219   23.4510 O   0  0  0  0  0  0  0  0  0  0  0  0
   -9.2458    6.6460   21.5183 C   0  0  2  0  0  0  0  0  0  0  0  0
   -9.1878    6.6856   20.0640 O   0  0  0  0  0  0  0  0  0  0  0  0
   -8.1126    7.5306   22.0322 C   0  0  0  0  0  0  0  0  0  0  0  0
   -7.9647    8.7534   21.1999 N   0  3  0  0  0  0  0  0  0  0  0  0
  -14.1183    8.3607   16.9762 C   0  0  2  0  0  0  0  0  0  0  0  0
  -14.7545    9.3689   16.1086 N   0  3  0  0  0  0  0  0  0  0  0  0
  -14.1025    8.8537   18.4167 C   0  0  0  0  0  0  0  0  0  0  0  0
  -13.4398    7.8152   19.3287 C   0  0  2  0  0  0  0  0  0  0  0  0
  -13.5534    8.2835   20.7324 N   0  3  0  0  0  0  0  0  0  0  0  0
  -11.9811    7.5121   18.8729 C   0  0  2  0  0  0  0  0  0  0  0  0
  -11.9866    7.0658   17.3881 C   0  0  2  0  0  0  0  0  0  0  0  0
  -10.6612    6.9514   16.9295 O   0  0  0  0  0  0  0  0  0  0  0  0
  -12.6872    8.1107   16.5046 C   0  0  1  0  0  0  0  0  0  0  0  0
  -12.6968    7.6434   15.1562 O   0  0  0  0  0  0  0  0  0  0  0  0
  -12.8479    6.2798   14.9582 C   0  0  2  0  0  0  0  0  0  0  0  0
  -11.9417    5.8440   13.7941 C   0  0  2  0  0  0  0  0  0  0  0  0
  -10.5943    6.1543   14.1265 O   0  0  0  0  0  0  0  0  0  0  0  0
  -12.3553    6.5928   12.5151 C   0  0  1  0  0  0  0  0  0  0  0  0
  -11.4951    6.2257   11.3534 N   0  3  0  0  0  0  0  0  0  0  0  0
  -13.8431    6.2947   12.2077 C   0  0  2  0  0  0  0  0  0  0  0  0
  -14.2626    6.9965   11.0396 O   0  0  0  0  0  0  0  0  0  0  0  0
  -14.7221    6.6755   13.4135 C   0  0  2  0  0  0  0  0  0  0  0  0
  -14.2369    6.0099   14.6359 O   0  0  0  0  0  0  0  0  0  0  0  0
  -16.1635    6.2585   13.2230 C   0  0  0  0  0  0  0  0  0  0  0  0
  -16.7221    6.8230   12.0387 O   0  0  0  0  0  0  0  0  0  0  0  0
  1  2  1  1  0  0  0
  1  3  1  0  0  0  0
  1  9  1  0  0  0  0
  3  4  1  6  0  0  0
  3  5  1  0  0  0  0
  5  6  1  0  0  0  0
  6  7  1  1  0  0  0
  6  8  1  0  0  0  0
  8  9  1  0  0  0  0
  8 10  1  1  0  0  0
 10 11  1  0  0  0  0
 12 13  1  6  0  0  0
 12 14  1  0  0  0  0
 12 20  1  0  0  0  0
 14 15  1  0  0  0  0
 15 16  1  1  0  0  0
 15 17  1  0  0  0  0
 17  2  1  1  0  0  0
 17 18  1  0  0  0  0
 18 19  1  6  0  0  0
 18 20  1  0  0  0  0
 20 21  1  6  0  0  0
 22 21  1  6  0  0  0
 22 23  1  0  0  0  0
 22 30  1  0  0  0  0
 23 24  1  1  0  0  0
 23 25  1  0  0  0  0
 25 26  1  6  0  0  0
 25 27  1  0  0  0  0
 27 28  1  6  0  0  0
 27 29  1  0  0  0  0
 29 30  1  0  0  0  0
 29 31  1  6  0  0  0
 31 32  1  0  0  0  0
M  CHG  5   4   1  11   1  13   1  16   1  26   1
M  END
>  <CHROM.1>
-154.60828181,176.70373031,67.18466950,174.78750354,161.18028023,172.53998982
-50.96123976,-173.31310976,-50.34398410,-86.41998807,-141.23210808,46.86529496
172.65010268,-57.61241578,-57.07364498,177.92345333,-12.04124936,6.72900919
17.14499835,-1.00754848,0.52044897,-1.81848809

>  <Name>
1lc4

>  <RI>
0

>  <Rbt.Current_Directory>
/home/afrankz/demos/rdock_decoys_rna/rnas/1lc4

>  <Rbt.Executable>
rbdock ($Id: //depot/dev/client3/rdock/2013.1/src/exe/rbdock.cxx#4 $)

>  <Rbt.Library>
libRbt.so (2013.1, Build901 2013/11/27)

>  <Rbt.Parameter_File>
/export/apps/rDock/src/rDock_2013.1_src/data/scripts/dock_solv.prm

>  <Rbt.Receptor>
prm/pocket_docking_7.prm

>  <SCORE>
-57.1543

>  <SCORE.INTER>
-39.4395

>  <SCORE.INTER.CONST>
1

>  <SCORE.INTER.POLAR>
-5.37438

>  <SCORE.INTER.ROT>
6

>  <SCORE.INTER.SOLV>
22.4804

>  <SCORE.INTER.VDW>
-23.4719

>  <SCORE.INTER.norm>
-1.23248

>  <SCORE.INTRA>
-17.7149

>  <SCORE.INTRA.DIHEDRAL>
-29.8864

>  <SCORE.INTRA.DIHEDRAL.0>
44.2576

>  <SCORE.INTRA.POLAR>
-0.151862

>  <SCORE.INTRA.POLAR.0>
-0.381556

>  <SCORE.INTRA.REPUL>
0

>  <SCORE.INTRA.REPUL.0>
0

>  <SCORE.INTRA.SOLV>
-3.85838

>  <SCORE.INTRA.SOLV.lig_0>
-134.592

>  <SCORE.INTRA.VDW>
-0.326124

>  <SCORE.INTRA.VDW.0>
-1.01417

>  <SCORE.INTRA.norm>
-0.553589

>  <SCORE.RESTR>
0

>  <SCORE.RESTR.CAVITY>
0

>  <SCORE.RESTR.norm>
0

>  <SCORE.SYSTEM>
0

>  <SCORE.SYSTEM.CONST>
0

>  <SCORE.SYSTEM.DIHEDRAL>
0

>  <SCORE.SYSTEM.SOLV>
0

>  <SCORE.SYSTEM.norm>
0

>  <SCORE.heavy>
32

>  <SCORE.norm>
-1.78607

>  <RMSD>
2.740

$$$$
1lc4
 OpenBabel02141814113D
libRbt.so/2013.1/901 2013/11/27
 32 34  0  0  0  0  0  0  0  0999 V2000
  -10.2872    5.8056   19.2354 C   0  0  2  0  0  0  0  0  0  0  0  0
  -11.5624    6.3590   19.4447 O   0  0  0  0  0  0  0  0  0  0  0  0
  -10.3061    4.3502   19.7454 C   0  0  2  0  0  0  0  0  0  0  0  0
  -11.3400    3.5790   19.0483 N   0  3  0  0  0  0  0  0  0  0  0  0
  -10.5207    4.3259   21.2770 C   0  0  0  0  0  0  0  0  0  0  0  0
   -9.3713    5.1232   21.9182 C   0  0  2  0  0  0  0  0  0  0  0  0
   -9.4828    5.0997   23.3452 O   0  0  0  0  0  0  0  0  0  0  0  0
   -9.3910    6.5742   21.3763 C   0  0  2  0  0  0  0  0  0  0  0  0
   -9.2773    6.5750   19.9247 O   0  0  0  0  0  0  0  0  0  0  0  0
   -8.2527    7.4394   21.9114 C   0  0  0  0  0  0  0  0  0  0  0  0
   -8.1234    8.6997   21.1338 N   0  3  0  0  0  0  0  0  0  0  0  0
  -14.0416    8.6238   16.8592 C   0  0  2  0  0  0  0  0  0  0  0  0
  -14.5862    9.7086   16.0223 N   0  3  0  0  0  0  0  0  0  0  0  0
  -13.9282    9.0919   18.3037 C   0  0  0  0  0  0  0  0  0  0  0  0
  -13.3594    7.9734   19.1838 C   0  0  2  0  0  0  0  0  0  0  0  0
  -13.3784    8.4320   20.5952 N   0  3  0  0  0  0  0  0  0  0  0  0
  -11.9579    7.5156   18.6801 C   0  0  2  0  0  0  0  0  0  0  0  0
  -12.0572    7.0932   17.1916 C   0  0  2  0  0  0  0  0  0  0  0  0
  -10.7671    6.8379   16.6911 O   0  0  0  0  0  0  0  0  0  0  0  0
  -12.6620    8.2220   16.3411 C   0  0  1  0  0  0  0  0  0  0  0  0
  -12.7638    7.7773   14.9888 O   0  0  0  0  0  0  0  0  0  0  0  0
  -13.0175    6.4306   14.7810 C   0  0  2  0  0  0  0  0  0  0  0  0
  -12.1040    5.9218   13.6528 C   0  0  2  0  0  0  0  0  0  0  0  0
  -10.7503    6.1213   14.0395 O   0  0  0  0  0  0  0  0  0  0  0  0
  -12.4037    6.7014   12.3604 C   0  0  1  0  0  0  0  0  0  0  0  0
  -11.5306    6.2650   11.2329 N   0  3  0  0  0  0  0  0  0  0  0  0
  -13.8974    6.5257   11.9930 C   0  0  2  0  0  0  0  0  0  0  0  0
  -14.2112    7.2589   10.8112 O   0  0  0  0  0  0  0  0  0  0  0  0
  -14.7899    6.9773   13.1639 C   0  0  2  0  0  0  0  0  0  0  0  0
  -14.4099    6.2748   14.4027 O   0  0  0  0  0  0  0  0  0  0  0  0
  -16.2518    6.6793   12.9149 C   0  0  0  0  0  0  0  0  0  0  0  0
  -17.0998    7.6067   13.5888 O   0  0  0  0  0  0  0  0  0  0  0  0
  1  2  1  1  0  0  0
  1  3  1  0  0  0  0
  1  9  1  0  0  0  0
  3  4  1  6  0  0  0
  3  5  1  0  0  0  0
  5  6  1  0  0  0  0
  6  7  1  1  0  0  0
  6  8  1  0  0  0  0
  8  9  1  0  0  0  0
  8 10  1  1  0  0  0
 10 11  1  0  0  0  0
 12 13  1  6  0  0  0
 12 14  1  0  0  0  0
 12 20  1  0  0  0  0
 14 15  1  0  0  0  0
 15 16  1  1  0  0  0
 15 17  1  0  0  0  0
 17  2  1  1  0  0  0
 17 18  1  0  0  0  0
 18 19  1  6  0  0  0
 18 20  1  0  0  0  0
 20 21  1  6  0  0  0
 22 21  1  6  0  0  0
 22 23  1  0  0  0  0
 22 30  1  0  0  0  0
 23 24  1  1  0  0  0
 23 25  1  0  0  0  0
 25 26  1  6  0  0  0
 25 27  1  0  0  0  0
 27 28  1  6  0  0  0
 27 29  1  0  0  0  0
 29 30  1  0  0  0  0
 29 31  1  6  0  0  0
 31 32  1  0  0  0  0
M  CHG  5   4   1  11   1  13   1  16   1  26   1
M  END
>  <CHROM.1>
-159.45017586,-175.96275726,60.38942766,62.81834014,166.63800895,-68.72218891
-60.18586444,63.46099034,-46.00906090,-89.03048741,-136.26359948,59.45662695
59.82921217,86.80242946,-151.37287652,69.35452988,-12.11810605,6.82480921
17.04606383,-0.98442152,0.60193833,-1.83055529

>  <Name>
1lc4

>  <RI>
0

>  <Rbt.Current_Directory>
/home/afrankz/demos/rdock_decoys_rna/rnas/1lc4

>  <Rbt.Executable>
rbdock ($Id: //depot/dev/client3/rdock/2013.1/src/exe/rbdock.cxx#4 $)

>  <Rbt.Library>
libRbt.so (2013.1, Build901 2013/11/27)

>  <Rbt.Parameter_File>
/export/apps/rDock/src/rDock_2013.1_src/data/scripts/dock_solv.prm

>  <Rbt.Receptor>
prm/pocket_docking_3.prm

>  <SCORE>
-60.5499

>  <SCORE.INTER>
-45.1302

>  <SCORE.INTER.CONST>
1

>  <SCORE.INTER.POLAR>
-6.22484

>  <SCORE.INTER.ROT>
6

>  <SCORE.INTER.SOLV>
22.6042

>  <SCORE.INTER.VDW>
-24.472

>  <SCORE.INTER.norm>
-1.41032

>  <SCORE.INTRA>
-15.4197

>  <SCORE.INTRA.DIHEDRAL>
-25.14

>  <SCORE.INTRA.DIHEDRAL.0>
44.2576

>  <SCORE.INTRA.POLAR>
0.136968

>  <SCORE.INTRA.POLAR.0>
-0.381556

>  <SCORE.INTRA.REPUL>
0

>  <SCORE.INTRA.REPUL.0>
0

>  <SCORE.INTRA.SOLV>
-4.2366

>  <SCORE.INTRA.SOLV.lig_0>
-134.592

>  <SCORE.INTRA.VDW>
-1.19714

>  <SCORE.INTRA.VDW.0>
-1.01417

>  <SCORE.INTRA.norm>
-0.481867

>  <SCORE.RESTR>
0

>  <SCORE.RESTR.CAVITY>
0

>  <SCORE.RESTR.norm>
0

>  <SCORE.SYSTEM>
0

>  <SCORE.SYSTEM.CONST>
0

>  <SCORE.SYSTEM.DIHEDRAL>
0

>  <SCORE.SYSTEM.SOLV>
0

>  <SCORE.SYSTEM.norm>
0

>  <SCORE.heavy>
32

>  <SCORE.norm>
-1.89218

>  <RMSD>
2.769

$$$$
1lc4
 OpenBabel02141814113D
libRbt.so/2013.1/901 2013/11/27
 32 34  0  0  0  0  0  0  0  0999 V2000
  -10.3859    5.1531   19.1500 C   0  0  2  0  0  0  0  0  0  0  0  0
  -11.5033    5.9867   19.3306 O   0  0  0  0  0  0  0  0  0  0  0  0
  -10.6538    3.8251   19.8872 C   0  0  2  0  0  0  0  0  0  0  0  0
  -11.8744    3.1947   19.3747 N   0  3  0  0  0  0  0  0  0  0  0  0
  -10.7435    4.0714   21.4116 C   0  0  0  0  0  0  0  0  0  0  0  0
   -9.4096    4.6945   21.8590 C   0  0  2  0  0  0  0  0  0  0  0  0
   -9.4069    4.9047   23.2750 O   0  0  0  0  0  0  0  0  0  0  0  0
   -9.1828    6.0217   21.0931 C   0  0  2  0  0  0  0  0  0  0  0  0
   -9.1898    5.7856   19.6563 O   0  0  0  0  0  0  0  0  0  0  0  0
   -7.8547    6.6973   21.4256 C   0  0  0  0  0  0  0  0  0  0  0  0
   -7.9059    7.3595   22.7555 N   0  3  0  0  0  0  0  0  0  0  0  0
  -13.5673    8.6307   16.7403 C   0  0  2  0  0  0  0  0  0  0  0  0
  -13.8946    9.7516   15.8402 N   0  3  0  0  0  0  0  0  0  0  0  0
  -13.1671    9.1657   18.1085 C   0  0  0  0  0  0  0  0  0  0  0  0
  -12.8206    8.0094   19.0530 C   0  0  2  0  0  0  0  0  0  0  0  0
  -12.5533    8.5693   20.4012 N   0  3  0  0  0  0  0  0  0  0  0  0
  -11.6605    7.1409   18.4809 C   0  0  2  0  0  0  0  0  0  0  0  0
  -12.0401    6.6421   17.0629 C   0  0  2  0  0  0  0  0  0  0  0  0
  -10.9320    5.9986   16.4815 O   0  0  0  0  0  0  0  0  0  0  0  0
  -12.4148    7.8207   16.1497 C   0  0  1  0  0  0  0  0  0  0  0  0
  -12.7871    7.3124   14.8692 O   0  0  0  0  0  0  0  0  0  0  0  0
  -13.5545    6.1584   14.8431 C   0  0  2  0  0  0  0  0  0  0  0  0
  -13.2158    5.3660   13.5688 C   0  0  2  0  0  0  0  0  0  0  0  0
  -11.8308    5.0447   13.5883 O   0  0  0  0  0  0  0  0  0  0  0  0
  -13.5413    6.2217   12.3321 C   0  0  1  0  0  0  0  0  0  0  0  0
  -13.2125    5.5114   11.0626 N   0  3  0  0  0  0  0  0  0  0  0  0
  -15.0380    6.6166   12.3641 C   0  0  2  0  0  0  0  0  0  0  0  0
  -15.3640    7.4326   11.2413 O   0  0  0  0  0  0  0  0  0  0  0  0
  -15.3673    7.3474   13.6790 C   0  0  2  0  0  0  0  0  0  0  0  0
  -14.9561    6.5345   14.8377 O   0  0  0  0  0  0  0  0  0  0  0  0
  -16.8486    7.6150   13.8274 C   0  0  0  0  0  0  0  0  0  0  0  0
  -17.1060    8.9770   14.1624 O   0  0  0  0  0  0  0  0  0  0  0  0
  1  2  1  1  0  0  0
  1  3  1  0  0  0  0
  1  9  1  0  0  0  0
  3  4  1  6  0  0  0
  3  5  1  0  0  0  0
  5  6  1  0  0  0  0
  6  7  1  1  0  0  0
  6  8  1  0  0  0  0
  8  9  1  0  0  0  0
  8 10  1  1  0  0  0
 10 11  1  0  0  0  0
 12 13  1  6  0  0  0
 12 14  1  0  0  0  0
 12 20  1  0  0  0  0
 14 15  1  0  0  0  0
 15 16  1  1  0  0  0
 15 17  1  0  0  0  0
 17  2  1  1  0  0  0
 17 18  1  0  0  0  0
 18 19  1  6  0  0  0
 18 20  1  0  0  0  0
 20 21  1  6  0  0  0
 22 21  1  6  0  0  0
 22 23  1  0  0  0  0
 22 30  1  0  0  0  0
 23 24  1  1  0  0  0
 23 25  1  0  0  0  0
 25 26  1  6  0  0  0
 25 27  1  0  0  0  0
 27 28  1  6  0  0  0
 27 29  1  0  0  0  0
 29 30  1  0  0  0  0
 29 31  1  1  0  0  0
 31 32  1  0  0  0  0
M  CHG  5   4   1  11   1  13   1  16   1  26   1
M  END
>  <CHROM.1>
-164.58991973,-170.15398680,66.63086670,170.20117846,-75.76920687,-122.25860889
-177.13507918,49.36508974,82.24565300,-81.46114101,-149.04299181,176.95600614
157.91727276,-58.65865988,-130.00056897,72.84765704,-12.31077912,6.56054674
17.10935965,-0.64937115,0.85683467,-2.18509964

>  <Name>
1lc4

>  <RI>
0

>  <Rbt.Current_Directory>
/home/afrankz/demos/rdock_decoys_rna/rnas/1lc4

>  <Rbt.Executable>
rbdock ($Id: //depot/dev/client3/rdock/2013.1/src/exe/rbdock.cxx#4 $)

>  <Rbt.Library>
libRbt.so (2013.1, Build901 2013/11/27)

>  <Rbt.Parameter_File>
/export/apps/rDock/src/rDock_2013.1_src/data/scripts/dock_solv.prm

>  <Rbt.Receptor>
prm/pocket_docking_3.prm

>  <SCORE>
-49.4683

>  <SCORE.INTER>
-37.1625

>  <SCORE.INTER.CONST>
1

>  <SCORE.INTER.POLAR>
-4.78782

>  <SCORE.INTER.ROT>
6

>  <SCORE.INTER.SOLV>
17.0158

>  <SCORE.INTER.VDW>
-22.0875

>  <SCORE.INTER.norm>
-1.16133

>  <SCORE.INTRA>
-12.3058

>  <SCORE.INTRA.DIHEDRAL>
-22.4532

>  <SCORE.INTRA.DIHEDRAL.0>
44.2576

>  <SCORE.INTRA.POLAR>
0.363036

>  <SCORE.INTRA.POLAR.0>
-0.381556

>  <SCORE.INTRA.REPUL>
0

>  <SCORE.INTRA.REPUL.0>
0

>  <SCORE.INTRA.SOLV>
-1.23261

>  <SCORE.INTRA.SOLV.lig_0>
-134.592

>  <SCORE.INTRA.VDW>
-1.69719

>  <SCORE.INTRA.VDW.0>
-1.01417

>  <SCORE.INTRA.norm>
-0.384556

>  <SCORE.RESTR>
0

>  <SCORE.RESTR.CAVITY>
0

>  <SCORE.RESTR.norm>
0

>  <SCORE.SYSTEM>
0

>  <SCORE.SYSTEM.CONST>
0

>  <SCORE.SYSTEM.DIHEDRAL>
0

>  <SCORE.SYSTEM.SOLV>
0

>  <SCORE.SYSTEM.norm>
0

>  <SCORE.heavy>
32

>  <SCORE.norm>
-1.54588

>  <RMSD>
2.788

$$$$
1lc4
 OpenBabel02141814113D
libRbt.so/2013.1/901 2013/11/27
 32 34  0  0  0  0  0  0  0  0999 V2000
  -10.1832    5.9339   19.1589 C   0  0  2  0  0  0  0  0  0  0  0  0
  -11.4772    6.4013   19.4476 O   0  0  0  0  0  0  0  0  0  0  0  0
  -10.0406    4.5179   19.7533 C   0  0  2  0  0  0  0  0  0  0  0  0
  -11.0631    3.6262   19.1973 N   0  3  0  0  0  0  0  0  0  0  0  0
  -10.1233    4.5779   21.2967 C   0  0  0  0  0  0  0  0  0  0  0  0
   -8.9931    5.5007   21.7853 C   0  0  2  0  0  0  0  0  0  0  0  0
   -8.9822    5.5626   23.2154 O   0  0  0  0  0  0  0  0  0  0  0  0
   -9.1762    6.9073   21.1629 C   0  0  2  0  0  0  0  0  0  0  0  0
   -9.1851    6.8215   19.7094 O   0  0  0  0  0  0  0  0  0  0  0  0
   -8.0714    7.8899   21.5429 C   0  0  0  0  0  0  0  0  0  0  0  0
   -8.2592    8.4025   22.9256 N   0  3  0  0  0  0  0  0  0  0  0  0
  -14.1823    8.3679   16.8449 C   0  0  2  0  0  0  0  0  0  0  0  0
  -14.8484    9.3869   16.0130 N   0  3  0  0  0  0  0  0  0  0  0  0
  -14.1585    8.8214   18.2982 C   0  0  0  0  0  0  0  0  0  0  0  0
  -13.4648    7.7715   19.1733 C   0  0  2  0  0  0  0  0  0  0  0  0
  -13.5703    8.1988   20.5906 N   0  3  0  0  0  0  0  0  0  0  0  0
  -12.0063    7.5095   18.6923 C   0  0  2  0  0  0  0  0  0  0  0  0
  -12.0213    7.1040   17.1959 C   0  0  2  0  0  0  0  0  0  0  0  0
  -10.6997    7.0281   16.7188 O   0  0  0  0  0  0  0  0  0  0  0  0
  -12.7526    8.1589   16.3498 C   0  0  1  0  0  0  0  0  0  0  0  0
  -12.7697    7.7286   14.9892 O   0  0  0  0  0  0  0  0  0  0  0  0
  -13.0162    6.3854   14.7515 C   0  0  2  0  0  0  0  0  0  0  0  0
  -12.1203    5.9139   13.5934 C   0  0  2  0  0  0  0  0  0  0  0  0
  -10.7611    6.1152   13.9594 O   0  0  0  0  0  0  0  0  0  0  0  0
  -12.4511    6.7238   12.3275 C   0  0  1  0  0  0  0  0  0  0  0  0
  -11.5962    6.3242   11.1728 N   0  3  0  0  0  0  0  0  0  0  0  0
  -13.9501    6.5444   11.9841 C   0  0  2  0  0  0  0  0  0  0  0  0
  -14.2926    7.3050   10.8278 O   0  0  0  0  0  0  0  0  0  0  0  0
  -14.8237    6.9579   13.1830 C   0  0  2  0  0  0  0  0  0  0  0  0
  -14.4143    6.2271   14.3958 O   0  0  0  0  0  0  0  0  0  0  0  0
  -16.2876    6.6535   12.9540 C   0  0  0  0  0  0  0  0  0  0  0  0
  -17.0780    6.9842   14.0939 O   0  0  0  0  0  0  0  0  0  0  0  0
  1  2  1  1  0  0  0
  1  3  1  0  0  0  0
  1  9  1  0  0  0  0
  3  4  1  6  0  0  0
  3  5  1  0  0  0  0
  5  6  1  0  0  0  0
  6  7  1  1  0  0  0
  6  8  1  0  0  0  0
  8  9  1  0  0  0  0
  8 10  1  6  0  0  0
 10 11  1  0  0  0  0
 12 13  1  6  0  0  0
 12 14  1  0  0  0  0
 12 20  1  0  0  0  0
 14 15  1  0  0  0  0
 15 16  1  1  0  0  0
 15 17  1  0  0  0  0
 17  2  1  1  0  0  0
 17 18  1  0  0  0  0
 18 19  1  6  0  0  0
 18 20  1  0  0  0  0
 20 21  1  6  0  0  0
 22 21  1  6  0  0  0
 22 23  1  0  0  0  0
 22 30  1  0  0  0  0
 23 24  1  1  0  0  0
 23 25  1  0  0  0  0
 25 26  1  6  0  0  0
 25 27  1  0  0  0  0
 27 28  1  6  0  0  0
 27 29  1  0  0  0  0
 29 30  1  0  0  0  0
 29 31  1  6  0  0  0
 31 32  1  0  0  0  0
M  CHG  5   4   1  11   1  13   1  16   1  26   1
M  END
>  <CHROM.1>
-162.08147273,177.49471815,19.17994863,55.65348214,-77.15584702,32.28392127
56.63032754,-177.34487821,161.58424010,-80.81581081,-141.16893603,170.04465268
-61.17716010,89.16595637,177.33543117,-177.78879061,-12.08972062,6.82517330
17.09251948,-1.01028411,0.47151306,-1.79009629

>  <Name>
1lc4

>  <RI>
0

>  <Rbt.Current_Directory>
/home/afrankz/demos/rdock_decoys_rna/rnas/1lc4

>  <Rbt.Executable>
rbdock ($Id: //depot/dev/client3/rdock/2013.1/src/exe/rbdock.cxx#4 $)

>  <Rbt.Library>
libRbt.so (2013.1, Build901 2013/11/27)

>  <Rbt.Parameter_File>
/export/apps/rDock/src/rDock_2013.1_src/data/scripts/dock_solv.prm

>  <Rbt.Receptor>
prm/pocket_docking_3.prm

>  <SCORE>
-57.046

>  <SCORE.INTER>
-37.9652

>  <SCORE.INTER.CONST>
1

>  <SCORE.INTER.POLAR>
-5.04995

>  <SCORE.INTER.ROT>
6

>  <SCORE.INTER.SOLV>
18.3714

>  <SCORE.INTER.VDW>
-22.2008

>  <SCORE.INTER.norm>
-1.18641

>  <SCORE.INTRA>
-19.0808

>  <SCORE.INTRA.DIHEDRAL>
-24.5444

>  <SCORE.INTRA.DIHEDRAL.0>
44.2576

>  <SCORE.INTRA.POLAR>
-1.37958

>  <SCORE.INTRA.POLAR.0>
-0.381556

>  <SCORE.INTRA.REPUL>
0

>  <SCORE.INTRA.REPUL.0>
0

>  <SCORE.INTRA.SOLV>
-2.02594

>  <SCORE.INTRA.SOLV.lig_0>
-134.592

>  <SCORE.INTRA.VDW>
-1.10507

>  <SCORE.INTRA.VDW.0>
-1.01417

>  <SCORE.INTRA.norm>
-0.596275

>  <SCORE.RESTR>
0

>  <SCORE.RESTR.CAVITY>
0

>  <SCORE.RESTR.norm>
0

>  <SCORE.SYSTEM>
0

>  <SCORE.SYSTEM.CONST>
0

>  <SCORE.SYSTEM.DIHEDRAL>
0

>  <SCORE.SYSTEM.SOLV>
0

>  <SCORE.SYSTEM.norm>
0

>  <SCORE.heavy>
32

>  <SCORE.norm>
-1.78269

>  <RMSD>
2.801

$$$$
1lc4
 OpenBabel02141814113D
libRbt.so/2013.1/901 2013/11/27
 32 34  0  0  0  0  0  0  0  0999 V2000
  -10.2254    5.7649   19.4138 C   0  0  2  0  0  0  0  0  0  0  0  0
  -11.3202    6.5220   19.8658 O   0  0  0  0  0  0  0  0  0  0  0  0
  -10.4567    4.2957   19.8221 C   0  0  2  0  0  0  0  0  0  0  0  0
  -11.7147    3.8007   19.2544 N   0  3  0  0  0  0  0  0  0  0  0  0
  -10.4426    4.1632   21.3631 C   0  0  0  0  0  0  0  0  0  0  0  0
   -9.0760    4.6677   21.8586 C   0  0  2  0  0  0  0  0  0  0  0  0
   -8.9772    4.5271   23.2798 O   0  0  0  0  0  0  0  0  0  0  0  0
   -8.8876    6.1428   21.4250 C   0  0  2  0  0  0  0  0  0  0  0  0
   -8.9922    6.2632   19.9777 O   0  0  0  0  0  0  0  0  0  0  0  0
   -7.5339    6.7261   21.8224 C   0  0  0  0  0  0  0  0  0  0  0  0
   -7.5112    7.1025   23.2603 N   0  3  0  0  0  0  0  0  0  0  0  0
  -13.6758    9.8488   18.7068 C   0  0  2  0  0  0  0  0  0  0  0  0
  -14.1097   11.1389   18.1399 N   0  3  0  0  0  0  0  0  0  0  0  0
  -12.6154   10.0832   19.7740 C   0  0  0  0  0  0  0  0  0  0  0  0
  -12.1532    8.7484   20.3689 C   0  0  2  0  0  0  0  0  0  0  0  0
  -11.2123    9.0315   21.4812 N   0  3  0  0  0  0  0  0  0  0  0  0
  -11.5762    7.8089   19.2681 C   0  0  2  0  0  0  0  0  0  0  0  0
  -12.6324    7.6146   18.1499 C   0  0  2  0  0  0  0  0  0  0  0  0
  -12.0560    6.9040   17.0808 O   0  0  0  0  0  0  0  0  0  0  0  0
  -13.1008    8.9706   17.5973 C   0  0  1  0  0  0  0  0  0  0  0  0
  -14.0929    8.7436   16.5968 O   0  0  0  0  0  0  0  0  0  0  0  0
  -15.0693    7.7996   16.8740 C   0  0  2  0  0  0  0  0  0  0  0  0
  -15.4598    7.0908   15.5658 C   0  0  2  0  0  0  0  0  0  0  0  0
  -14.3023    6.4678   15.0236 O   0  0  0  0  0  0  0  0  0  0  0  0
  -16.0181    8.1234   14.5708 C   0  0  1  0  0  0  0  0  0  0  0  0
  -16.3952    7.4958   13.2716 N   0  3  0  0  0  0  0  0  0  0  0  0
  -17.2365    8.8371   15.2057 C   0  0  2  0  0  0  0  0  0  0  0  0
  -17.7606    9.8193   14.3150 O   0  0  0  0  0  0  0  0  0  0  0  0
  -16.8371    9.4799   16.5469 C   0  0  2  0  0  0  0  0  0  0  0  0
  -16.2226    8.4778   17.4362 O   0  0  0  0  0  0  0  0  0  0  0  0
  -18.0281   10.0545   17.2812 C   0  0  0  0  0  0  0  0  0  0  0  0
  -17.6462   10.6451   18.5217 O   0  0  0  0  0  0  0  0  0  0  0  0
  1  2  1  1  0  0  0
  1  3  1  0  0  0  0
  1  9  1  0  0  0  0
  3  4  1  1  0  0  0
  3  5  1  0  0  0  0
  5  6  1  0  0  0  0
  6  7  1  1  0  0  0
  6  8  1  0  0  0  0
  8  9  1  0  0  0  0
  8 10  1  6  0  0  0
 10 11  1  0  0  0  0
 12 13  1  6  0  0  0
 12 14  1  0  0  0  0
 12 20  1  0  0  0  0
 14 15  1  0  0  0  0
 15 16  1  1  0  0  0
 15 17  1  0  0  0  0
 17  2  1  1  0  0  0
 17 18  1  0  0  0  0
 18 19  1  6  0  0  0
 18 20  1  0  0  0  0
 20 21  1  6  0  0  0
 22 21  1  6  0  0  0
 22 23  1  0  0  0  0
 22 30  1  0  0  0  0
 23 24  1  6  0  0  0
 23 25  1  0  0  0  0
 25 26  1  6  0  0  0
 25 27  1  0  0  0  0
 27 28  1  6  0  0  0
 27 29  1  0  0  0  0
 29 30  1  0  0  0  0
 29 31  1  1  0  0  0
 31 32  1  0  0  0  0
M  CHG  5   4   1  11   1  13   1  16   1  26   1
M  END
>  <CHROM.1>
-160.31773471,-146.07341112,-57.54560429,172.86989867,-78.38255419,-21.52226404
64.51699759,-63.61139194,-59.02092760,-77.98488034,-146.07819715,28.25815764
-42.64565196,38.75830959,179.92502762,60.41455694,-12.91983774,7.60882221
18.53116650,-0.09364884,0.73092410,-2.50123230

>  <Name>
1lc4

>  <RI>
0

>  <Rbt.Current_Directory>
/home/afrankz/demos/rdock_decoys_rna/rnas/1lc4

>  <Rbt.Executable>
rbdock ($Id: //depot/dev/client3/rdock/2013.1/src/exe/rbdock.cxx#4 $)

>  <Rbt.Library>
libRbt.so (2013.1, Build901 2013/11/27)

>  <Rbt.Parameter_File>
/export/apps/rDock/src/rDock_2013.1_src/data/scripts/dock_solv.prm

>  <Rbt.Receptor>
prm/pocket_docking_5.prm

>  <SCORE>
-62.7685

>  <SCORE.INTER>
-48.9381

>  <SCORE.INTER.CONST>
1

>  <SCORE.INTER.POLAR>
-7.25415

>  <SCORE.INTER.ROT>
6

>  <SCORE.INTER.SOLV>
21.8835

>  <SCORE.INTER.VDW>
-23.3394

>  <SCORE.INTER.norm>
-1.52931

>  <SCORE.INTRA>
-13.8304

>  <SCORE.INTRA.DIHEDRAL>
-21.602

>  <SCORE.INTRA.DIHEDRAL.0>
44.2576

>  <SCORE.INTRA.POLAR>
-0.511703

>  <SCORE.INTRA.POLAR.0>
-0.381556

>  <SCORE.INTRA.REPUL>
0

>  <SCORE.INTRA.REPUL.0>
0

>  <SCORE.INTRA.SOLV>
1.08203

>  <SCORE.INTRA.SOLV.lig_0>
-134.592

>  <SCORE.INTRA.VDW>
-1.83068

>  <SCORE.INTRA.VDW.0>
-1.01417

>  <SCORE.INTRA.norm>
-0.432201

>  <SCORE.RESTR>
0

>  <SCORE.RESTR.CAVITY>
0

>  <SCORE.RESTR.norm>
0

>  <SCORE.SYSTEM>
0

>  <SCORE.SYSTEM.CONST>
0

>  <SCORE.SYSTEM.DIHEDRAL>
0

>  <SCORE.SYSTEM.SOLV>
0

>  <SCORE.SYSTEM.norm>
0

>  <SCORE.heavy>
32

>  <SCORE.norm>
-1.96152

>  <RMSD>
2.802

$$$$
1lc4
 OpenBabel02141814113D
libRbt.so/2013.1/901 2013/11/27
 32 34  0  0  0  0  0  0  0  0999 V2000
  -11.1930    8.2028   20.7713 C   0  0  2  0  0  0  0  0  0  0  0  0
  -11.0160    8.7370   19.4832 O   0  0  0  0  0  0  0  0  0  0  0  0
   -9.8873    7.4900   21.1788 C   0  0  2  0  0  0  0  0  0  0  0  0
   -8.7616    8.4287   21.1437 N   0  3  0  0  0  0  0  0  0  0  0  0
   -9.6359    6.2730   20.2578 C   0  0  0  0  0  0  0  0  0  0  0  0
  -10.8463    5.3325   20.3926 C   0  0  2  0  0  0  0  0  0  0  0  0
  -10.6556    4.1565   19.5990 O   0  0  0  0  0  0  0  0  0  0  0  0
  -12.1314    6.0901   19.9755 C   0  0  2  0  0  0  0  0  0  0  0  0
  -12.3057    7.2818   20.7938 O   0  0  0  0  0  0  0  0  0  0  0  0
  -13.4035    5.2592   20.1243 C   0  0  0  0  0  0  0  0  0  0  0  0
  -13.5826    4.3380   18.9715 N   0  3  0  0  0  0  0  0  0  0  0  0
  -15.0097    9.7577   18.4990 C   0  0  2  0  0  0  0  0  0  0  0  0
  -16.1960   10.4534   17.9674 N   0  3  0  0  0  0  0  0  0  0  0  0
  -14.2849   10.6558   19.4922 C   0  0  0  0  0  0  0  0  0  0  0  0
  -13.0469    9.9447   20.0496 C   0  0  2  0  0  0  0  0  0  0  0  0
  -12.4427   10.8064   21.0960 N   0  3  0  0  0  0  0  0  0  0  0  0
  -12.0651    9.5421   18.9087 C   0  0  2  0  0  0  0  0  0  0  0  0
  -12.8150    8.6755   17.8645 C   0  0  2  0  0  0  0  0  0  0  0  0
  -11.9777    8.4503   16.7562 O   0  0  0  0  0  0  0  0  0  0  0  0
  -14.0690    9.4007   17.3498 C   0  0  1  0  0  0  0  0  0  0  0  0
  -14.7422    8.5543   16.4186 O   0  0  0  0  0  0  0  0  0  0  0  0
  -14.4805    8.7571   15.0726 C   0  0  2  0  0  0  0  0  0  0  0  0
  -15.8081    9.0281   14.3443 C   0  0  2  0  0  0  0  0  0  0  0  0
  -16.4123   10.1818   14.9152 O   0  0  0  0  0  0  0  0  0  0  0  0
  -16.7375    7.8122   14.5045 C   0  0  1  0  0  0  0  0  0  0  0  0
  -18.0528    8.0259   13.8349 N   0  3  0  0  0  0  0  0  0  0  0  0
  -16.0349    6.5545   13.9374 C   0  0  2  0  0  0  0  0  0  0  0  0
  -16.8634    5.4050   14.0952 O   0  0  0  0  0  0  0  0  0  0  0  0
  -14.6776    6.3439   14.6340 C   0  0  2  0  0  0  0  0  0  0  0  0
  -13.8540    7.5624   14.5376 O   0  0  0  0  0  0  0  0  0  0  0  0
  -13.8830    5.2200   14.0068 C   0  0  0  0  0  0  0  0  0  0  0  0
  -12.7627    4.8559   14.8104 O   0  0  0  0  0  0  0  0  0  0  0  0
  1  2  1  6  0  0  0
  1  3  1  0  0  0  0
  1  9  1  0  0  0  0
  3  4  1  6  0  0  0
  3  5  1  0  0  0  0
  5  6  1  0  0  0  0
  6  7  1  6  0  0  0
  6  8  1  0  0  0  0
  8  9  1  0  0  0  0
  8 10  1  1  0  0  0
 10 11  1  0  0  0  0
 12 13  1  6  0  0  0
 12 14  1  0  0  0  0
 12 20  1  0  0  0  0
 14 15  1  0  0  0  0
 15 16  1  1  0  0  0
 15 17  1  0  0  0  0
 17  2  1  1  0  0  0
 17 18  1  0  0  0  0
 18 19  1  6  0  0  0
 18 20  1  0  0  0  0
 20 21  1  6  0  0  0
 22 21  1  1  0  0  0
 22 23  1  0  0  0  0
 22 30  1  0  0  0  0
 23 24  1  1  0  0  0
 23 25  1  0  0  0  0
 25 26  1  6  0  0  0
 25 27  1  0  0  0  0
 27 28  1  1  0  0  0
 27 29  1  0  0  0  0
 29 30  1  0  0  0  0
 29 31  1  6  0  0  0
 31 32  1  0  0  0  0
M  CHG  5   4   1  11   1  13   1  16   1  26   1
M  END
>  <CHROM.1>
-175.49594110,14.79809846,24.04564753,174.81121985,-80.66233796,16.88772883
156.06940189,134.90713254,69.27377611,141.81792059,-123.45412666,79.23752939
-77.40221844,-53.21699540,-168.34602614,-171.86461316,-13.43846324,7.71792865
17.65960972,0.36296577,-0.80772217,0.50957089

>  <Name>
1lc4

>  <RI>
0

>  <Rbt.Current_Directory>
/home/afrankz/demos/rdock_decoys_rna/rnas/1lc4

>  <Rbt.Executable>
rbdock ($Id: //depot/dev/client3/rdock/2013.1/src/exe/rbdock.cxx#4 $)

>  <Rbt.Library>
libRbt.so (2013.1, Build901 2013/11/27)

>  <Rbt.Parameter_File>
/export/apps/rDock/src/rDock_2013.1_src/data/scripts/dock_solv.prm

>  <Rbt.Receptor>
prm/pocket_docking_6.prm

>  <SCORE>
-43.0652

>  <SCORE.INTER>
-34.6909

>  <SCORE.INTER.CONST>
1

>  <SCORE.INTER.POLAR>
-6.13672

>  <SCORE.INTER.ROT>
6

>  <SCORE.INTER.SOLV>
22.4964

>  <SCORE.INTER.VDW>
-17.7703

>  <SCORE.INTER.norm>
-1.08409

>  <SCORE.INTRA>
-8.37436

>  <SCORE.INTRA.DIHEDRAL>
-10.7969

>  <SCORE.INTRA.DIHEDRAL.0>
44.2576

>  <SCORE.INTRA.POLAR>
-0.801663

>  <SCORE.INTRA.POLAR.0>
-0.381556

>  <SCORE.INTRA.REPUL>
0

>  <SCORE.INTRA.REPUL.0>
0

>  <SCORE.INTRA.SOLV>
-0.705264

>  <SCORE.INTRA.SOLV.lig_0>
-134.592

>  <SCORE.INTRA.VDW>
0.102354

>  <SCORE.INTRA.VDW.0>
-1.01417

>  <SCORE.INTRA.norm>
-0.261699

>  <SCORE.RESTR>
0

>  <SCORE.RESTR.CAVITY>
0

>  <SCORE.RESTR.norm>
0

>  <SCORE.SYSTEM>
0

>  <SCORE.SYSTEM.CONST>
0

>  <SCORE.SYSTEM.DIHEDRAL>
0

>  <SCORE.SYSTEM.SOLV>
0

>  <SCORE.SYSTEM.norm>
0

>  <SCORE.heavy>
32

>  <SCORE.norm>
-1.34579

>  <RMSD>
2.810

$$$$
1lc4
 OpenBabel02141814113D
libRbt.so/2013.1/901 2013/11/27
 32 34  0  0  0  0  0  0  0  0999 V2000
   -9.9950    5.7212   19.7506 C   0  0  2  0  0  0  0  0  0  0  0  0
  -11.0847    6.5081   20.1619 O   0  0  0  0  0  0  0  0  0  0  0  0
  -10.1550    4.3181   20.3709 C   0  0  2  0  0  0  0  0  0  0  0  0
  -11.4279    3.7197   19.9569 N   0  3  0  0  0  0  0  0  0  0  0  0
  -10.0458    4.4020   21.9115 C   0  0  0  0  0  0  0  0  0  0  0  0
   -8.6690    5.0023   22.2460 C   0  0  2  0  0  0  0  0  0  0  0  0
   -8.4822    5.0634   23.6640 O   0  0  0  0  0  0  0  0  0  0  0  0
   -8.5535    6.4066   21.6025 C   0  0  2  0  0  0  0  0  0  0  0  0
   -8.7472    6.3218   20.1619 O   0  0  0  0  0  0  0  0  0  0  0  0
   -7.1980    7.0710   21.8300 C   0  0  0  0  0  0  0  0  0  0  0  0
   -7.2427    8.5166   21.4864 N   0  3  0  0  0  0  0  0  0  0  0  0
  -13.4887    9.6854   18.7175 C   0  0  2  0  0  0  0  0  0  0  0  0
  -13.9383   10.9224   18.0531 N   0  3  0  0  0  0  0  0  0  0  0  0
  -12.4653   10.0191   19.7944 C   0  0  0  0  0  0  0  0  0  0  0  0
  -11.9870    8.7401   20.4905 C   0  0  2  0  0  0  0  0  0  0  0  0
  -11.0855    9.1223   21.6058 N   0  3  0  0  0  0  0  0  0  0  0  0
  -11.3556    7.7447   19.4717 C   0  0  2  0  0  0  0  0  0  0  0  0
  -12.3744    7.4476   18.3414 C   0  0  2  0  0  0  0  0  0  0  0  0
  -11.7502    6.6826   17.3388 O   0  0  0  0  0  0  0  0  0  0  0  0
  -12.8606    8.7504   17.6859 C   0  0  1  0  0  0  0  0  0  0  0  0
  -13.8177    8.4303   16.6769 O   0  0  0  0  0  0  0  0  0  0  0  0
  -14.7261    7.4225   16.9607 C   0  0  2  0  0  0  0  0  0  0  0  0
  -15.3796    6.9592   15.6475 C   0  0  2  0  0  0  0  0  0  0  0  0
  -14.3614    6.4833   14.7765 O   0  0  0  0  0  0  0  0  0  0  0  0
  -16.1187    8.1423   14.9981 C   0  0  1  0  0  0  0  0  0  0  0  0
  -16.7566    7.7575   13.7061 N   0  3  0  0  0  0  0  0  0  0  0  0
  -17.1770    8.6882   15.9875 C   0  0  2  0  0  0  0  0  0  0  0  0
  -17.8619    9.8035   15.4220 O   0  0  0  0  0  0  0  0  0  0  0  0
  -16.5086    9.0808   17.3182 C   0  0  2  0  0  0  0  0  0  0  0  0
  -15.7356    7.9491   17.8606 O   0  0  0  0  0  0  0  0  0  0  0  0
  -17.5212    9.4724   18.3714 C   0  0  0  0  0  0  0  0  0  0  0  0
  -16.8951    9.7726   19.6169 O   0  0  0  0  0  0  0  0  0  0  0  0
  1  2  1  1  0  0  0
  1  3  1  0  0  0  0
  1  9  1  0  0  0  0
  3  4  1  1  0  0  0
  3  5  1  0  0  0  0
  5  6  1  0  0  0  0
  6  7  1  1  0  0  0
  6  8  1  0  0  0  0
  8  9  1  0  0  0  0
  8 10  1  6  0  0  0
 10 11  1  0  0  0  0
 12 13  1  6  0  0  0
 12 14  1  0  0  0  0
 12 20  1  0  0  0  0
 14 15  1  0  0  0  0
 15 16  1  1  0  0  0
 15 17  1  0  0  0  0
 17  2  1  1  0  0  0
 17 18  1  0  0  0  0
 18 19  1  6  0  0  0
 18 20  1  0  0  0  0
 20 21  1  6  0  0  0
 22 21  1  6  0  0  0
 22 23  1  0  0  0  0
 22 30  1  0  0  0  0
 23 24  1  6  0  0  0
 23 25  1  0  0  0  0
 25 26  1  6  0  0  0
 25 27  1  0  0  0  0
 27 28  1  6  0  0  0
 27 29  1  0  0  0  0
 29 30  1  0  0  0  0
 29 31  1  1  0  0  0
 31 32  1  0  0  0  0
M  CHG  5   4   1  11   1  13   1  16   1  26   1
M  END
>  <CHROM.1>
-164.90496726,-149.00270777,-56.37150193,60.55355144,-166.44156640,175.38071654
58.63004876,57.59347362,-57.92893085,-81.89116441,-163.86874855,173.57353934
-51.55047764,65.26525630,177.23683535,-59.35646170,-12.69106788,7.57864728
18.79762082,-0.08286084,0.67637774,-2.56559295

>  <Name>
1lc4

>  <RI>
0

>  <Rbt.Current_Directory>
/home/afrankz/demos/rdock_decoys_rna/rnas/1lc4

>  <Rbt.Executable>
rbdock ($Id: //depot/dev/client3/rdock/2013.1/src/exe/rbdock.cxx#4 $)

>  <Rbt.Library>
libRbt.so (2013.1, Build901 2013/11/27)

>  <Rbt.Parameter_File>
/export/apps/rDock/src/rDock_2013.1_src/data/scripts/dock_solv.prm

>  <Rbt.Receptor>
prm/pocket_docking_4.prm

>  <SCORE>
-63.9911

>  <SCORE.INTER>
-45.339

>  <SCORE.INTER.CONST>
1

>  <SCORE.INTER.POLAR>
-6.752

>  <SCORE.INTER.ROT>
6

>  <SCORE.INTER.SOLV>
25.7996

>  <SCORE.INTER.VDW>
-23.9192

>  <SCORE.INTER.norm>
-1.41684

>  <SCORE.INTRA>
-18.6521

>  <SCORE.INTRA.DIHEDRAL>
-34.6655

>  <SCORE.INTRA.DIHEDRAL.0>
44.2576

>  <SCORE.INTRA.POLAR>
0.372072

>  <SCORE.INTRA.POLAR.0>
-0.381556

>  <SCORE.INTRA.REPUL>
0

>  <SCORE.INTRA.REPUL.0>
0

>  <SCORE.INTRA.SOLV>
0.96645

>  <SCORE.INTRA.SOLV.lig_0>
-134.592

>  <SCORE.INTRA.VDW>
-3.06763

>  <SCORE.INTRA.VDW.0>
-1.01417

>  <SCORE.INTRA.norm>
-0.582878

>  <SCORE.RESTR>
0

>  <SCORE.RESTR.CAVITY>
0

>  <SCORE.RESTR.norm>
0

>  <SCORE.SYSTEM>
0

>  <SCORE.SYSTEM.CONST>
0

>  <SCORE.SYSTEM.DIHEDRAL>
0

>  <SCORE.SYSTEM.SOLV>
0

>  <SCORE.SYSTEM.norm>
0

>  <SCORE.heavy>
32

>  <SCORE.norm>
-1.99972

>  <RMSD>
2.818

$$$$
1lc4
 OpenBabel02141814113D
libRbt.so/2013.1/901 2013/11/27
 32 34  0  0  0  0  0  0  0  0999 V2000
  -11.2053    8.4066   20.7583 C   0  0  2  0  0  0  0  0  0  0  0  0
  -11.0711    8.9717   19.4782 O   0  0  0  0  0  0  0  0  0  0  0  0
   -9.9134    7.6265   21.0764 C   0  0  2  0  0  0  0  0  0  0  0  0
   -8.7505    8.5168   21.0088 N   0  3  0  0  0  0  0  0  0  0  0  0
   -9.7636    6.4285   20.1096 C   0  0  0  0  0  0  0  0  0  0  0  0
  -11.0060    5.5370   20.2812 C   0  0  2  0  0  0  0  0  0  0  0  0
  -10.9084    4.3786   19.4458 O   0  0  0  0  0  0  0  0  0  0  0  0
  -12.2760    6.3612   19.9536 C   0  0  2  0  0  0  0  0  0  0  0  0
  -12.3552    7.5338   20.8131 O   0  0  0  0  0  0  0  0  0  0  0  0
  -13.5743    5.5814   20.1455 C   0  0  0  0  0  0  0  0  0  0  0  0
  -13.7488    5.1671   21.5624 N   0  3  0  0  0  0  0  0  0  0  0  0
  -15.0914   10.0074   18.6272 C   0  0  2  0  0  0  0  0  0  0  0  0
  -16.2930   10.7164   18.1505 N   0  3  0  0  0  0  0  0  0  0  0  0
  -14.3477   10.8708   19.6370 C   0  0  0  0  0  0  0  0  0  0  0  0
  -13.0936   10.1456   20.1377 C   0  0  2  0  0  0  0  0  0  0  0  0
  -12.4689   10.9699   21.2020 N   0  3  0  0  0  0  0  0  0  0  0  0
  -12.1371    9.7924   18.9597 C   0  0  2  0  0  0  0  0  0  0  0  0
  -12.9073    8.9623   17.9007 C   0  0  2  0  0  0  0  0  0  0  0  0
  -12.0952    8.7843   16.7653 O   0  0  0  0  0  0  0  0  0  0  0  0
  -14.1763    9.6998   17.4436 C   0  0  1  0  0  0  0  0  0  0  0  0
  -14.8673    8.8860   16.4964 O   0  0  0  0  0  0  0  0  0  0  0  0
  -14.4846    8.9937   15.1685 C   0  0  2  0  0  0  0  0  0  0  0  0
  -15.7471    9.0647   14.2925 C   0  0  2  0  0  0  0  0  0  0  0  0
  -16.5100   10.1983   14.6861 O   0  0  0  0  0  0  0  0  0  0  0  0
  -16.5742    7.7810   14.4813 C   0  0  1  0  0  0  0  0  0  0  0  0
  -17.8255    7.8017   13.6701 N   0  3  0  0  0  0  0  0  0  0  0  0
  -15.7048    6.5545   14.1112 C   0  0  2  0  0  0  0  0  0  0  0  0
  -16.4379    5.3464   14.3008 O   0  0  0  0  0  0  0  0  0  0  0  0
  -14.4151    6.5434   14.9528 C   0  0  2  0  0  0  0  0  0  0  0  0
  -13.6996    7.8249   14.8168 O   0  0  0  0  0  0  0  0  0  0  0  0
  -13.4603    5.4534   14.5190 C   0  0  0  0  0  0  0  0  0  0  0  0
  -14.0746    4.1674   14.5646 O   0  0  0  0  0  0  0  0  0  0  0  0
  1  2  1  6  0  0  0
  1  3  1  0  0  0  0
  1  9  1  0  0  0  0
  3  4  1  6  0  0  0
  3  5  1  0  0  0  0
  5  6  1  0  0  0  0
  6  7  1  6  0  0  0
  6  8  1  0  0  0  0
  8  9  1  0  0  0  0
  8 10  1  1  0  0  0
 10 11  1  0  0  0  0
 12 13  1  6  0  0  0
 12 14  1  0  0  0  0
 12 20  1  0  0  0  0
 14 15  1  0  0  0  0
 15 16  1  1  0  0  0
 15 17  1  0  0  0  0
 17  2  1  1  0  0  0
 17 18  1  0  0  0  0
 18 19  1  6  0  0  0
 18 20  1  0  0  0  0
 20 21  1  6  0  0  0
 22 21  1  1  0  0  0
 22 23  1  0  0  0  0
 22 30  1  0  0  0  0
 23 24  1  1  0  0  0
 23 25  1  0  0  0  0
 25 26  1  6  0  0  0
 25 27  1  0  0  0  0
 27 28  1  1  0  0  0
 27 29  1  0  0  0  0
 29 30  1  0  0  0  0
 29 31  1  6  0  0  0
 31 32  1  0  0  0  0
M  CHG  5   4   1  11   1  13   1  16   1  26   1
M  END
>  <CHROM.1>
-178.09001720,13.70214355,-102.49542435,176.12951055,62.24916454,37.23362079
-165.29703288,91.35526386,168.54877170,151.77314075,-135.60715515,73.55903044
158.54306220,68.18509306,-56.44069667,-176.88721576,-13.49106297,7.88641132
17.78309134,0.38774514,-0.85047821,0.48164497

>  <Name>
1lc4

>  <RI>
0

>  <Rbt.Current_Directory>
/home/afrankz/demos/rdock_decoys_rna/rnas/1lc4

>  <Rbt.Executable>
rbdock ($Id: //depot/dev/client3/rdock/2013.1/src/exe/rbdock.cxx#4 $)

>  <Rbt.Library>
libRbt.so (2013.1, Build901 2013/11/27)

>  <Rbt.Parameter_File>
/export/apps/rDock/src/rDock_2013.1_src/data/scripts/dock_solv.prm

>  <Rbt.Receptor>
prm/pocket_docking_3.prm

>  <SCORE>
-46.9936

>  <SCORE.INTER>
-37.6785

>  <SCORE.INTER.CONST>
1

>  <SCORE.INTER.POLAR>
-6.82177

>  <SCORE.INTER.ROT>
6

>  <SCORE.INTER.SOLV>
23.7486

>  <SCORE.INTER.VDW>
-17.896

>  <SCORE.INTER.norm>
-1.17745

>  <SCORE.INTRA>
-9.50806

>  <SCORE.INTRA.DIHEDRAL>
-19.0672

>  <SCORE.INTRA.DIHEDRAL.0>
44.2576

>  <SCORE.INTRA.POLAR>
-0.436277

>  <SCORE.INTRA.POLAR.0>
-0.381556

>  <SCORE.INTRA.REPUL>
0

>  <SCORE.INTRA.REPUL.0>
0

>  <SCORE.INTRA.SOLV>
-0.473818

>  <SCORE.INTRA.SOLV.lig_0>
-134.592

>  <SCORE.INTRA.VDW>
1.74577

>  <SCORE.INTRA.VDW.0>
-1.01417

>  <SCORE.INTRA.norm>
-0.297127

>  <SCORE.RESTR>
0.193026

>  <SCORE.RESTR.CAVITY>
0.193026

>  <SCORE.RESTR.norm>
0.00603205

>  <SCORE.SYSTEM>
0

>  <SCORE.SYSTEM.CONST>
0

>  <SCORE.SYSTEM.DIHEDRAL>
0

>  <SCORE.SYSTEM.SOLV>
0

>  <SCORE.SYSTEM.norm>
0

>  <SCORE.heavy>
32

>  <SCORE.norm>
-1.46855

>  <RMSD>
2.824

$$$$
1lc4
 OpenBabel02141814113D
libRbt.so/2013.1/901 2013/11/27
 32 34  0  0  0  0  0  0  0  0999 V2000
  -11.4213    6.1664   20.8556 C   0  0  2  0  0  0  0  0  0  0  0  0
  -10.5971    6.8964   19.9817 O   0  0  0  0  0  0  0  0  0  0  0  0
  -10.5884    5.0113   21.4482 C   0  0  2  0  0  0  0  0  0  0  0  0
   -9.4106    5.5374   22.1451 N   0  3  0  0  0  0  0  0  0  0  0  0
  -10.1869    4.0180   20.3326 C   0  0  0  0  0  0  0  0  0  0  0  0
  -11.4835    3.4940   19.6907 C   0  0  2  0  0  0  0  0  0  0  0  0
  -11.1839    2.5285   18.6771 O   0  0  0  0  0  0  0  0  0  0  0  0
  -12.2857    4.6862   19.1122 C   0  0  2  0  0  0  0  0  0  0  0  0
  -12.5789    5.6555   20.1584 O   0  0  0  0  0  0  0  0  0  0  0  0
  -13.6222    4.2793   18.4967 C   0  0  0  0  0  0  0  0  0  0  0  0
  -14.5216    3.6748   19.5142 N   0  3  0  0  0  0  0  0  0  0  0  0
  -13.5852    9.6336   18.7413 C   0  0  2  0  0  0  0  0  0  0  0  0
  -14.2720   10.8033   18.1634 N   0  3  0  0  0  0  0  0  0  0  0  0
  -12.6475   10.0818   19.8541 C   0  0  0  0  0  0  0  0  0  0  0  0
  -11.9243    8.8743   20.4609 C   0  0  2  0  0  0  0  0  0  0  0  0
  -11.1158    9.3429   21.6139 N   0  3  0  0  0  0  0  0  0  0  0  0
  -11.1086    8.1029   19.3806 C   0  0  2  0  0  0  0  0  0  0  0  0
  -12.0490    7.6955   18.2173 C   0  0  2  0  0  0  0  0  0  0  0  0
  -11.2862    7.1466   17.1699 O   0  0  0  0  0  0  0  0  0  0  0  0
  -12.7848    8.9216   17.6526 C   0  0  1  0  0  0  0  0  0  0  0  0
  -13.6601    8.4948   16.6094 O   0  0  0  0  0  0  0  0  0  0  0  0
  -13.3335    8.8671   15.3148 C   0  0  2  0  0  0  0  0  0  0  0  0
  -14.6195    9.2771   14.5770 C   0  0  2  0  0  0  0  0  0  0  0  0
  -15.2163   10.3636   15.2738 O   0  0  0  0  0  0  0  0  0  0  0  0
  -15.5882    8.0824   14.5338 C   0  0  1  0  0  0  0  0  0  0  0  0
  -16.8661    8.4275   13.8468 N   0  3  0  0  0  0  0  0  0  0  0  0
  -14.8961    6.8892   13.8307 C   0  0  2  0  0  0  0  0  0  0  0  0
  -15.7623    5.7571   13.7982 O   0  0  0  0  0  0  0  0  0  0  0  0
  -13.5774    6.5421   14.5465 C   0  0  2  0  0  0  0  0  0  0  0  0
  -12.7170    7.7345   14.6489 O   0  0  0  0  0  0  0  0  0  0  0  0
  -12.7871    5.4864   13.8058 C   0  0  0  0  0  0  0  0  0  0  0  0
  -12.3653    5.9479   12.5242 O   0  0  0  0  0  0  0  0  0  0  0  0
  1  2  1  6  0  0  0
  1  3  1  0  0  0  0
  1  9  1  0  0  0  0
  3  4  1  6  0  0  0
  3  5  1  0  0  0  0
  5  6  1  0  0  0  0
  6  7  1  6  0  0  0
  6  8  1  0  0  0  0
  8  9  1  0  0  0  0
  8 10  1  1  0  0  0
 10 11  1  0  0  0  0
 12 13  1  6  0  0  0
 12 14  1  0  0  0  0
 12 20  1  0  0  0  0
 14 15  1  0  0  0  0
 15 16  1  1  0  0  0
 15 17  1  0  0  0  0
 17  2  1  1  0  0  0
 17 18  1  0  0  0  0
 18 19  1  6  0  0  0
 18 20  1  0  0  0  0
 20 21  1  6  0  0  0
 22 21  1  1  0  0  0
 22 23  1  0  0  0  0
 22 30  1  0  0  0  0
 23 24  1  1  0  0  0
 23 25  1  0  0  0  0
 25 26  1  6  0  0  0
 25 27  1  0  0  0  0
 27 28  1  1  0  0  0
 27 29  1  0  0  0  0
 29 30  1  0  0  0  0
 29 31  1  6  0  0  0
 31 32  1  0  0  0  0
M  CHG  5   4   1  11   1  13   1  16   1  26   1
M  END
>  <CHROM.1>
-174.81345358,40.47292910,-172.59777773,-52.85377647,62.12373288,-62.31985140
56.27613992,165.39566004,58.79438990,127.46927950,-139.09016084,151.33500846
171.05321389,-61.49417313,64.06907229,-175.66438690,-12.83081437,7.00479278
17.63369084,0.06601401,-1.07344005,0.41964102

>  <Name>
1lc4

>  <RI>
0

>  <Rbt.Current_Directory>
/home/afrankz/demos/rdock_decoys_rna/rnas/1lc4

>  <Rbt.Executable>
rbdock ($Id: //depot/dev/client3/rdock/2013.1/src/exe/rbdock.cxx#4 $)

>  <Rbt.Library>
libRbt.so (2013.1, Build901 2013/11/27)

>  <Rbt.Parameter_File>
/export/apps/rDock/src/rDock_2013.1_src/data/scripts/dock_solv.prm

>  <Rbt.Receptor>
prm/pocket_docking_2.prm

>  <SCORE>
-55.4789

>  <SCORE.INTER>
-38.9856

>  <SCORE.INTER.CONST>
1

>  <SCORE.INTER.POLAR>
-6.51608

>  <SCORE.INTER.ROT>
6

>  <SCORE.INTER.SOLV>
23.2872

>  <SCORE.INTER.VDW>
-19.6326

>  <SCORE.INTER.norm>
-1.2183

>  <SCORE.INTRA>
-19.2446

>  <SCORE.INTRA.DIHEDRAL>
-25.1826

>  <SCORE.INTRA.DIHEDRAL.0>
44.2576

>  <SCORE.INTRA.POLAR>
-0.804748

>  <SCORE.INTRA.POLAR.0>
-0.381556

>  <SCORE.INTRA.REPUL>
0

>  <SCORE.INTRA.REPUL.0>
0

>  <SCORE.INTRA.SOLV>
0.0824007

>  <SCORE.INTRA.SOLV.lig_0>
-134.592

>  <SCORE.INTRA.VDW>
-3.95838

>  <SCORE.INTRA.VDW.0>
-1.01417

>  <SCORE.INTRA.norm>
-0.601394

>  <SCORE.RESTR>
2.7513

>  <SCORE.RESTR.CAVITY>
2.7513

>  <SCORE.RESTR.norm>
0.085978

>  <SCORE.SYSTEM>
0

>  <SCORE.SYSTEM.CONST>
0

>  <SCORE.SYSTEM.DIHEDRAL>
0

>  <SCORE.SYSTEM.SOLV>
0

>  <SCORE.SYSTEM.norm>
0

>  <SCORE.heavy>
32

>  <SCORE.norm>
-1.73372

>  <RMSD>
2.847

$$$$
1lc4
 OpenBabel02141814113D
libRbt.so/2013.1/901 2013/11/27
 32 34  0  0  0  0  0  0  0  0999 V2000
  -10.7224    4.9340   18.3839 C   0  0  2  0  0  0  0  0  0  0  0  0
  -11.8885    5.7182   18.4197 O   0  0  0  0  0  0  0  0  0  0  0  0
  -11.0235    3.5940   19.0858 C   0  0  2  0  0  0  0  0  0  0  0  0
  -12.1416    2.9127   18.4259 N   0  3  0  0  0  0  0  0  0  0  0  0
  -11.3147    3.8329   20.5860 C   0  0  0  0  0  0  0  0  0  0  0  0
  -10.0758    4.5121   21.1956 C   0  0  2  0  0  0  0  0  0  0  0  0
  -10.2604    4.7191   22.6001 O   0  0  0  0  0  0  0  0  0  0  0  0
   -9.8119    5.8495   20.4600 C   0  0  2  0  0  0  0  0  0  0  0  0
   -9.6279    5.6164   19.0346 O   0  0  0  0  0  0  0  0  0  0  0  0
   -8.5666    6.5810   20.9547 C   0  0  0  0  0  0  0  0  0  0  0  0
   -8.9035    7.5505   22.0300 N   0  3  0  0  0  0  0  0  0  0  0  0
  -14.1531    8.3688   16.0101 C   0  0  2  0  0  0  0  0  0  0  0  0
  -14.5448    9.3656   14.9968 N   0  3  0  0  0  0  0  0  0  0  0  0
  -13.1668    8.9881   16.9909 C   0  0  0  0  0  0  0  0  0  0  0  0
  -12.7488    7.9599   18.0480 C   0  0  2  0  0  0  0  0  0  0  0  0
  -11.8847    8.6382   19.0459 N   0  3  0  0  0  0  0  0  0  0  0  0
  -12.1007    6.7051   17.3902 C   0  0  2  0  0  0  0  0  0  0  0  0
  -13.0792    6.1053   16.3479 C   0  0  2  0  0  0  0  0  0  0  0  0
  -12.4333    5.0757   15.6387 O   0  0  0  0  0  0  0  0  0  0  0  0
  -13.5062    7.1681   15.3224 C   0  0  1  0  0  0  0  0  0  0  0  0
  -14.4288    6.5807   14.4056 O   0  0  0  0  0  0  0  0  0  0  0  0
  -14.5672    7.1885   13.1676 C   0  0  2  0  0  0  0  0  0  0  0  0
  -15.5974    6.4006   12.3404 C   0  0  2  0  0  0  0  0  0  0  0  0
  -16.8363    6.4006   13.0384 O   0  0  0  0  0  0  0  0  0  0  0  0
  -15.1017    4.9569   12.1459 C   0  0  1  0  0  0  0  0  0  0  0  0
  -16.0727    4.1361   11.3665 N   0  3  0  0  0  0  0  0  0  0  0  0
  -13.7217    4.9812   11.4445 C   0  0  2  0  0  0  0  0  0  0  0  0
  -13.2245    3.6560   11.2733 O   0  0  0  0  0  0  0  0  0  0  0  0
  -12.7274    5.8323   12.2561 C   0  0  2  0  0  0  0  0  0  0  0  0
  -13.2789    7.1773   12.4997 O   0  0  0  0  0  0  0  0  0  0  0  0
  -11.4114    6.0160   11.5335 C   0  0  0  0  0  0  0  0  0  0  0  0
  -11.5301    6.9359   10.4504 O   0  0  0  0  0  0  0  0  0  0  0  0
  1  2  1  1  0  0  0
  1  3  1  0  0  0  0
  1  9  1  0  0  0  0
  3  4  1  6  0  0  0
  3  5  1  0  0  0  0
  5  6  1  0  0  0  0
  6  7  1  1  0  0  0
  6  8  1  0  0  0  0
  8  9  1  0  0  0  0
  8 10  1  1  0  0  0
 10 11  1  0  0  0  0
 12 13  1  6  0  0  0
 12 14  1  0  0  0  0
 12 20  1  0  0  0  0
 14 15  1  0  0  0  0
 15 16  1  1  0  0  0
 15 17  1  0  0  0  0
 17  2  1  1  0  0  0
 17 18  1  0  0  0  0
 18 19  1  6  0  0  0
 18 20  1  0  0  0  0
 20 21  1  6  0  0  0
 22 21  1  1  0  0  0
 22 23  1  0  0  0  0
 22 30  1  0  0  0  0
 23 24  1  1  0  0  0
 23 25  1  0  0  0  0
 25 26  1  6  0  0  0
 25 27  1  0  0  0  0
 27 28  1  1  0  0  0
 27 29  1  0  0  0  0
 29 30  1  0  0  0  0
 29 31  1  6  0  0  0
 31 32  1  0  0  0  0
M  CHG  5   4   1  11   1  13   1  16   1  26   1
M  END
>  <CHROM.1>
-152.93467098,-141.93917821,-169.13581990,174.40567952,-92.44979551,-55.89597059
77.82004401,62.62791511,-50.08438997,80.35598937,179.82568523,174.74167541
81.87658405,72.00358301,74.04919995,179.16873502,-12.51957435,6.07405926
16.13639493,-0.49538878,1.06566532,-2.56021989

>  <Name>
1lc4

>  <RI>
0

>  <Rbt.Current_Directory>
/home/afrankz/demos/rdock_decoys_rna/rnas/1lc4

>  <Rbt.Executable>
rbdock ($Id: //depot/dev/client3/rdock/2013.1/src/exe/rbdock.cxx#4 $)

>  <Rbt.Library>
libRbt.so (2013.1, Build901 2013/11/27)

>  <Rbt.Parameter_File>
/export/apps/rDock/src/rDock_2013.1_src/data/scripts/dock_solv.prm

>  <Rbt.Receptor>
prm/pocket_docking_7.prm

>  <SCORE>
-55.2227

>  <SCORE.INTER>
-40.317

>  <SCORE.INTER.CONST>
1

>  <SCORE.INTER.POLAR>
-5.31141

>  <SCORE.INTER.ROT>
6

>  <SCORE.INTER.SOLV>
17.0918

>  <SCORE.INTER.VDW>
-22.4706

>  <SCORE.INTER.norm>
-1.25991

>  <SCORE.INTRA>
-14.9057

>  <SCORE.INTRA.DIHEDRAL>
-26.9644

>  <SCORE.INTRA.DIHEDRAL.0>
44.2576

>  <SCORE.INTRA.POLAR>
0.356914

>  <SCORE.INTRA.POLAR.0>
-0.381556

>  <SCORE.INTRA.REPUL>
0

>  <SCORE.INTRA.REPUL.0>
0

>  <SCORE.INTRA.SOLV>
0.551035

>  <SCORE.INTRA.SOLV.lig_0>
-134.592

>  <SCORE.INTRA.VDW>
-2.91247

>  <SCORE.INTRA.VDW.0>
-1.01417

>  <SCORE.INTRA.norm>
-0.465802

>  <SCORE.RESTR>
0

>  <SCORE.RESTR.CAVITY>
0

>  <SCORE.RESTR.norm>
0

>  <SCORE.SYSTEM>
0

>  <SCORE.SYSTEM.CONST>
0

>  <SCORE.SYSTEM.DIHEDRAL>
0

>  <SCORE.SYSTEM.SOLV>
0

>  <SCORE.SYSTEM.norm>
0

>  <SCORE.heavy>
32

>  <SCORE.norm>
-1.72571

>  <RMSD>
2.859

$$$$
1lc4
 OpenBabel02141814113D
libRbt.so/2013.1/901 2013/11/27
 32 34  0  0  0  0  0  0  0  0999 V2000
  -10.5688    4.8364   20.1224 C   0  0  2  0  0  0  0  0  0  0  0  0
  -11.5773    5.7731   20.4081 O   0  0  0  0  0  0  0  0  0  0  0  0
  -10.7248    3.6510   21.0968 C   0  0  2  0  0  0  0  0  0  0  0  0
  -12.0570    3.0535   20.9635 N   0  3  0  0  0  0  0  0  0  0  0  0
  -10.4577    4.1162   22.5476 C   0  0  0  0  0  0  0  0  0  0  0  0
   -9.0301    4.6884   22.5949 C   0  0  2  0  0  0  0  0  0  0  0  0
   -8.6993    5.0952   23.9269 O   0  0  0  0  0  0  0  0  0  0  0  0
   -8.9206    5.8722   21.6018 C   0  0  2  0  0  0  0  0  0  0  0  0
   -9.2616    5.4372   20.2547 O   0  0  0  0  0  0  0  0  0  0  0  0
   -7.5222    6.4805   21.5314 C   0  0  0  0  0  0  0  0  0  0  0  0
   -7.5827    7.9650   21.4846 N   0  3  0  0  0  0  0  0  0  0  0  0
  -14.0684    8.7171   18.6510 C   0  0  2  0  0  0  0  0  0  0  0  0
  -14.7107    9.6227   17.6809 N   0  3  0  0  0  0  0  0  0  0  0  0
  -12.5801    9.0258   18.7402 C   0  0  0  0  0  0  0  0  0  0  0  0
  -11.8999    8.0878   19.7436 C   0  0  2  0  0  0  0  0  0  0  0  0
  -10.4817    8.5017   19.8852 N   0  3  0  0  0  0  0  0  0  0  0  0
  -12.0922    6.5950   19.3413 C   0  0  2  0  0  0  0  0  0  0  0  0
  -13.6053    6.2915   19.1922 C   0  0  2  0  0  0  0  0  0  0  0  0
  -13.7729    4.9952   18.6709 O   0  0  0  0  0  0  0  0  0  0  0  0
  -14.2655    7.2691   18.2064 C   0  0  1  0  0  0  0  0  0  0  0  0
  -15.6593    6.9731   18.1263 O   0  0  0  0  0  0  0  0  0  0  0  0
  -16.3271    7.3685   16.9778 C   0  0  2  0  0  0  0  0  0  0  0  0
  -17.8316    7.1074   17.1638 C   0  0  2  0  0  0  0  0  0  0  0  0
  -18.2863    7.8512   18.2873 O   0  0  0  0  0  0  0  0  0  0  0  0
  -18.0656    5.6045   17.3966 C   0  0  1  0  0  0  0  0  0  0  0  0
  -19.5089    5.2926   17.6056 N   0  3  0  0  0  0  0  0  0  0  0  0
  -17.5042    4.8081   16.1935 C   0  0  2  0  0  0  0  0  0  0  0  0
  -17.6843    3.4079   16.3928 O   0  0  0  0  0  0  0  0  0  0  0  0
  -16.0145    5.1386   15.9853 C   0  0  2  0  0  0  0  0  0  0  0  0
  -15.8221    6.5945   15.8589 O   0  0  0  0  0  0  0  0  0  0  0  0
  -15.4603    4.5065   14.7279 C   0  0  0  0  0  0  0  0  0  0  0  0
  -15.5024    3.0826   14.7925 O   0  0  0  0  0  0  0  0  0  0  0  0
  1  2  1  1  0  0  0
  1  3  1  0  0  0  0
  1  9  1  0  0  0  0
  3  4  1  1  0  0  0
  3  5  1  0  0  0  0
  5  6  1  0  0  0  0
  6  7  1  1  0  0  0
  6  8  1  0  0  0  0
  8  9  1  0  0  0  0
  8 10  1  6  0  0  0
 10 11  1  0  0  0  0
 12 13  1  6  0  0  0
 12 14  1  0  0  0  0
 12 20  1  0  0  0  0
 14 15  1  0  0  0  0
 15 16  1  6  0  0  0
 15 17  1  0  0  0  0
 17  2  1  1  0  0  0
 17 18  1  0  0  0  0
 18 19  1  6  0  0  0
 18 20  1  0  0  0  0
 20 21  1  1  0  0  0
 22 21  1  1  0  0  0
 22 23  1  0  0  0  0
 22 30  1  0  0  0  0
 23 24  1  1  0  0  0
 23 25  1  0  0  0  0
 25 26  1  6  0  0  0
 25 27  1  0  0  0  0
 27 28  1  1  0  0  0
 27 29  1  0  0  0  0
 29 30  1  0  0  0  0
 29 31  1  6  0  0  0
 31 32  1  0  0  0  0
M  CHG  5   4   1  11   1  13   1  16   1  26   1
M  END
>  <CHROM.1>
-149.84069478,-122.90365507,72.55179901,62.74925568,-138.08105816,32.57191926
-165.35042525,179.74263960,-178.29030322,81.59342426,-173.39413147,-54.45414685
70.12292475,66.35347565,-63.20649142,-58.43753211,-13.38225192,6.04470174
18.94472761,0.01493769,0.56077203,3.09330369

>  <Name>
1lc4

>  <RI>
0

>  <Rbt.Current_Directory>
/home/afrankz/demos/rdock_decoys_rna/rnas/1lc4

>  <Rbt.Executable>
rbdock ($Id: //depot/dev/client3/rdock/2013.1/src/exe/rbdock.cxx#4 $)

>  <Rbt.Library>
libRbt.so (2013.1, Build901 2013/11/27)

>  <Rbt.Parameter_File>
/export/apps/rDock/src/rDock_2013.1_src/data/scripts/dock_solv.prm

>  <Rbt.Receptor>
prm/pocket_docking_8.prm

>  <SCORE>
-45.0482

>  <SCORE.INTER>
-32.2933

>  <SCORE.INTER.CONST>
1

>  <SCORE.INTER.POLAR>
-4.59152

>  <SCORE.INTER.ROT>
6

>  <SCORE.INTER.SOLV>
18.1124

>  <SCORE.INTER.VDW>
-19.8613

>  <SCORE.INTER.norm>
-1.00917

>  <SCORE.INTRA>
-12.7549

>  <SCORE.INTRA.DIHEDRAL>
-23.7949

>  <SCORE.INTRA.DIHEDRAL.0>
44.2576

>  <SCORE.INTRA.POLAR>
0.322317

>  <SCORE.INTRA.POLAR.0>
-0.381556

>  <SCORE.INTRA.REPUL>
0

>  <SCORE.INTRA.REPUL.0>
0

>  <SCORE.INTRA.SOLV>
3.82551

>  <SCORE.INTRA.SOLV.lig_0>
-134.592

>  <SCORE.INTRA.VDW>
-3.86611

>  <SCORE.INTRA.VDW.0>
-1.01417

>  <SCORE.INTRA.norm>
-0.398591

>  <SCORE.RESTR>
0

>  <SCORE.RESTR.CAVITY>
0

>  <SCORE.RESTR.norm>
0

>  <SCORE.SYSTEM>
0

>  <SCORE.SYSTEM.CONST>
0

>  <SCORE.SYSTEM.DIHEDRAL>
0

>  <SCORE.SYSTEM.SOLV>
0

>  <SCORE.SYSTEM.norm>
0

>  <SCORE.heavy>
32

>  <SCORE.norm>
-1.40776

>  <RMSD>
2.864

$$$$
1lc4
 OpenBabel02141814113D
libRbt.so/2013.1/901 2013/11/27
 32 34  0  0  0  0  0  0  0  0999 V2000
  -11.2910    6.0807   21.1150 C   0  0  2  0  0  0  0  0  0  0  0  0
  -10.5100    6.6288   20.0827 O   0  0  0  0  0  0  0  0  0  0  0  0
  -10.4654    4.9771   21.8072 C   0  0  2  0  0  0  0  0  0  0  0  0
   -9.2107    5.5293   22.3272 N   0  3  0  0  0  0  0  0  0  0  0  0
  -10.2042    3.8121   20.8238 C   0  0  0  0  0  0  0  0  0  0  0  0
  -11.5724    3.2766   20.3666 C   0  0  2  0  0  0  0  0  0  0  0  0
  -11.4029    2.1597   19.4874 O   0  0  0  0  0  0  0  0  0  0  0  0
  -12.3647    4.4172   19.6805 C   0  0  2  0  0  0  0  0  0  0  0  0
  -12.5249    5.5422   20.5909 O   0  0  0  0  0  0  0  0  0  0  0  0
  -13.7651    4.0034   19.2351 C   0  0  0  0  0  0  0  0  0  0  0  0
  -14.3019    4.9373   18.2107 N   0  3  0  0  0  0  0  0  0  0  0  0
  -13.3011    9.5607   18.8284 C   0  0  2  0  0  0  0  0  0  0  0  0
  -13.9073   10.7638   18.2292 N   0  3  0  0  0  0  0  0  0  0  0  0
  -12.2985    9.9658   19.9004 C   0  0  0  0  0  0  0  0  0  0  0  0
  -11.6582    8.7231   20.5288 C   0  0  2  0  0  0  0  0  0  0  0  0
  -10.7814    9.1603   21.6435 N   0  3  0  0  0  0  0  0  0  0  0  0
  -10.9393    7.8534   19.4544 C   0  0  2  0  0  0  0  0  0  0  0  0
  -11.9429    7.4876   18.3307 C   0  0  2  0  0  0  0  0  0  0  0  0
  -11.2576    6.8450   17.2830 O   0  0  0  0  0  0  0  0  0  0  0  0
  -12.5928    8.7512   17.7440 C   0  0  1  0  0  0  0  0  0  0  0  0
  -13.5297    8.3645   16.7393 O   0  0  0  0  0  0  0  0  0  0  0  0
  -13.2299    8.7015   15.4286 C   0  0  2  0  0  0  0  0  0  0  0  0
  -14.5153    9.1815   14.7332 C   0  0  2  0  0  0  0  0  0  0  0  0
  -15.0181   10.3102   15.4368 O   0  0  0  0  0  0  0  0  0  0  0  0
  -15.5560    8.0481   14.7419 C   0  0  1  0  0  0  0  0  0  0  0  0
  -16.8354    8.4633   14.0978 N   0  3  0  0  0  0  0  0  0  0  0  0
  -14.9648    6.8068   14.0299 C   0  0  2  0  0  0  0  0  0  0  0  0
  -15.8989    5.7298   14.0446 O   0  0  0  0  0  0  0  0  0  0  0  0
  -13.6438    6.3875   14.7012 C   0  0  2  0  0  0  0  0  0  0  0  0
  -12.7090    7.5258   14.7558 O   0  0  0  0  0  0  0  0  0  0  0  0
  -12.9476    5.2770   13.9462 C   0  0  0  0  0  0  0  0  0  0  0  0
  -11.7058    4.9265   14.5531 O   0  0  0  0  0  0  0  0  0  0  0  0
  1  2  1  6  0  0  0
  1  3  1  0  0  0  0
  1  9  1  0  0  0  0
  3  4  1  6  0  0  0
  3  5  1  0  0  0  0
  5  6  1  0  0  0  0
  6  7  1  6  0  0  0
  6  8  1  0  0  0  0
  8  9  1  0  0  0  0
  8 10  1  1  0  0  0
 10 11  1  0  0  0  0
 12 13  1  6  0  0  0
 12 14  1  0  0  0  0
 12 20  1  0  0  0  0
 14 15  1  0  0  0  0
 15 16  1  1  0  0  0
 15 17  1  0  0  0  0
 17  2  1  1  0  0  0
 17 18  1  0  0  0  0
 18 19  1  6  0  0  0
 18 20  1  0  0  0  0
 20 21  1  6  0  0  0
 22 21  1  1  0  0  0
 22 23  1  0  0  0  0
 22 30  1  0  0  0  0
 23 24  1  1  0  0  0
 23 25  1  0  0  0  0
 25 26  1  6  0  0  0
 25 27  1  0  0  0  0
 27 28  1  1  0  0  0
 27 29  1  0  0  0  0
 29 30  1  0  0  0  0
 29 31  1  6  0  0  0
 31 32  1  0  0  0  0
M  CHG  5   4   1  11   1  13   1  16   1  26   1
M  END
>  <CHROM.1>
-167.68620376,33.06427522,-44.86804374,-177.29050610,-160.97900475,52.09080634
58.00084622,-66.41875804,61.12429083,125.65724933,-138.94753382,154.68355744
56.27383557,-57.18486007,178.14748561,-60.89645465,-12.72926476,6.88061402
17.87960628,-0.09871609,-1.04156741,0.26835181

>  <Name>
1lc4

>  <RI>
0

>  <Rbt.Current_Directory>
/home/afrankz/demos/rdock_decoys_rna/rnas/1lc4

>  <Rbt.Executable>
rbdock ($Id: //depot/dev/client3/rdock/2013.1/src/exe/rbdock.cxx#4 $)

>  <Rbt.Library>
libRbt.so (2013.1, Build901 2013/11/27)

>  <Rbt.Parameter_File>
/export/apps/rDock/src/rDock_2013.1_src/data/scripts/dock_solv.prm

>  <Rbt.Receptor>
prm/pocket_docking_3.prm

>  <SCORE>
-59.2572

>  <SCORE.INTER>
-41.9547

>  <SCORE.INTER.CONST>
1

>  <SCORE.INTER.POLAR>
-6.80833

>  <SCORE.INTER.ROT>
6

>  <SCORE.INTER.SOLV>
22.5788

>  <SCORE.INTER.VDW>
-20.4016

>  <SCORE.INTER.norm>
-1.31108

>  <SCORE.INTRA>
-17.5044

>  <SCORE.INTRA.DIHEDRAL>
-22.948

>  <SCORE.INTRA.DIHEDRAL.0>
44.2576

>  <SCORE.INTRA.POLAR>
-0.835428

>  <SCORE.INTRA.POLAR.0>
-0.381556

>  <SCORE.INTRA.REPUL>
0

>  <SCORE.INTRA.REPUL.0>
0

>  <SCORE.INTRA.SOLV>
2.79068

>  <SCORE.INTRA.SOLV.lig_0>
-134.592

>  <SCORE.INTRA.VDW>
-4.58529

>  <SCORE.INTRA.VDW.0>
-1.01417

>  <SCORE.INTRA.norm>
-0.547012

>  <SCORE.RESTR>
0.201859

>  <SCORE.RESTR.CAVITY>
0.201859

>  <SCORE.RESTR.norm>
0.00630808

>  <SCORE.SYSTEM>
0

>  <SCORE.SYSTEM.CONST>
0

>  <SCORE.SYSTEM.DIHEDRAL>
0

>  <SCORE.SYSTEM.SOLV>
0

>  <SCORE.SYSTEM.norm>
0

>  <SCORE.heavy>
32

>  <SCORE.norm>
-1.85179

>  <RMSD>
2.869

$$$$
1lc4
 OpenBabel02141814113D
libRbt.so/2013.1/901 2013/11/27
 32 34  0  0  0  0  0  0  0  0999 V2000
  -10.4085    5.7549   18.5700 C   0  0  2  0  0  0  0  0  0  0  0  0
  -11.4621    6.6463   18.8368 O   0  0  0  0  0  0  0  0  0  0  0  0
  -10.9086    4.3230   18.8502 C   0  0  2  0  0  0  0  0  0  0  0  0
  -12.0810    4.0215   18.0230 N   0  3  0  0  0  0  0  0  0  0  0  0
  -11.2218    4.1539   20.3555 C   0  0  0  0  0  0  0  0  0  0  0  0
   -9.9281    4.4515   21.1337 C   0  0  2  0  0  0  0  0  0  0  0  0
  -10.1361    4.2653   22.5377 O   0  0  0  0  0  0  0  0  0  0  0  0
   -9.4638    5.8957   20.8206 C   0  0  2  0  0  0  0  0  0  0  0  0
   -9.2589    6.0633   19.3888 O   0  0  0  0  0  0  0  0  0  0  0  0
   -8.1526    6.2754   21.5042 C   0  0  0  0  0  0  0  0  0  0  0  0
   -8.2222    6.0402   22.9704 N   0  3  0  0  0  0  0  0  0  0  0  0
  -13.9435    9.1250   16.4579 C   0  0  2  0  0  0  0  0  0  0  0  0
  -14.4164   10.1452   15.5043 N   0  3  0  0  0  0  0  0  0  0  0  0
  -13.1689    9.7915   17.5867 C   0  0  0  0  0  0  0  0  0  0  0  0
  -12.6683    8.7402   18.5835 C   0  0  2  0  0  0  0  0  0  0  0  0
  -12.0254    9.4423   19.7220 N   0  3  0  0  0  0  0  0  0  0  0  0
  -11.7559    7.6883   17.8846 C   0  0  2  0  0  0  0  0  0  0  0  0
  -12.5211    7.0489   16.6975 C   0  0  2  0  0  0  0  0  0  0  0  0
  -11.6461    6.2230   15.9679 O   0  0  0  0  0  0  0  0  0  0  0  0
  -13.0392    8.1292   15.7342 C   0  0  1  0  0  0  0  0  0  0  0  0
  -13.7625    7.4978   14.6783 O   0  0  0  0  0  0  0  0  0  0  0  0
  -14.5588    6.4141   15.0141 C   0  0  2  0  0  0  0  0  0  0  0  0
  -15.0544    5.7431   13.7216 C   0  0  2  0  0  0  0  0  0  0  0  0
  -13.9255    5.3191   12.9681 O   0  0  0  0  0  0  0  0  0  0  0  0
  -15.8838    6.7511   12.9069 C   0  0  1  0  0  0  0  0  0  0  0  0
  -16.3751    6.1618   11.6281 N   0  3  0  0  0  0  0  0  0  0  0  0
  -17.0696    7.2507   13.7680 C   0  0  2  0  0  0  0  0  0  0  0  0
  -17.8432    8.2070   13.0471 O   0  0  0  0  0  0  0  0  0  0  0  0
  -16.5519    7.8555   15.0863 C   0  0  2  0  0  0  0  0  0  0  0  0
  -15.6874    6.8921   15.7913 O   0  0  0  0  0  0  0  0  0  0  0  0
  -17.6780    8.2150   16.0300 C   0  0  0  0  0  0  0  0  0  0  0  0
  -17.3779    9.3873   16.7844 O   0  0  0  0  0  0  0  0  0  0  0  0
  1  2  1  1  0  0  0
  1  3  1  0  0  0  0
  1  9  1  0  0  0  0
  3  4  1  6  0  0  0
  3  5  1  0  0  0  0
  5  6  1  0  0  0  0
  6  7  1  1  0  0  0
  6  8  1  0  0  0  0
  8  9  1  0  0  0  0
  8 10  1  1  0  0  0
 10 11  1  0  0  0  0
 12 13  1  6  0  0  0
 12 14  1  0  0  0  0
 12 20  1  0  0  0  0
 14 15  1  0  0  0  0
 15 16  1  1  0  0  0
 15 17  1  0  0  0  0
 17  2  1  1  0  0  0
 17 18  1  0  0  0  0
 18 19  1  6  0  0  0
 18 20  1  0  0  0  0
 20 21  1  6  0  0  0
 22 21  1  6  0  0  0
 22 23  1  0  0  0  0
 22 30  1  0  0  0  0
 23 24  1  6  0  0  0
 23 25  1  0  0  0  0
 25 26  1  6  0  0  0
 25 27  1  0  0  0  0
 27 28  1  6  0  0  0
 27 29  1  0  0  0  0
 29 30  1  0  0  0  0
 29 31  1  1  0  0  0
 31 32  1  0  0  0  0
M  CHG  5   4   1  11   1  13   1  16   1  26   1
M  END
>  <CHROM.1>
-133.68045189,-164.66143517,-80.28132585,55.79014122,-53.76234609,52.87553867
40.07203201,-61.57022075,-166.43574117,-83.10354181,-170.60594293,58.67520963
-40.81075758,69.14057101,-145.25806796,-61.52350872,-13.08133208,6.87181014
17.13728923,-0.27311072,0.80460151,-2.50035814

>  <Name>
1lc4

>  <RI>
0

>  <Rbt.Current_Directory>
/home/afrankz/demos/rdock_decoys_rna/rnas/1lc4

>  <Rbt.Executable>
rbdock ($Id: //depot/dev/client3/rdock/2013.1/src/exe/rbdock.cxx#4 $)

>  <Rbt.Library>
libRbt.so (2013.1, Build901 2013/11/27)

>  <Rbt.Parameter_File>
/export/apps/rDock/src/rDock_2013.1_src/data/scripts/dock_solv.prm

>  <Rbt.Receptor>
prm/pocket_docking_2.prm

>  <SCORE>
-46.3127

>  <SCORE.INTER>
-31.9688

>  <SCORE.INTER.CONST>
1

>  <SCORE.INTER.POLAR>
-4.43936

>  <SCORE.INTER.ROT>
6

>  <SCORE.INTER.SOLV>
21.3758

>  <SCORE.INTER.VDW>
-21.24

>  <SCORE.INTER.norm>
-0.999026

>  <SCORE.INTRA>
-16.9212

>  <SCORE.INTRA.DIHEDRAL>
-26.401

>  <SCORE.INTRA.DIHEDRAL.0>
44.2576

>  <SCORE.INTRA.POLAR>
-0.96709

>  <SCORE.INTRA.POLAR.0>
-0.381556

>  <SCORE.INTRA.REPUL>
0

>  <SCORE.INTRA.REPUL.0>
0

>  <SCORE.INTRA.SOLV>
2.80295

>  <SCORE.INTRA.SOLV.lig_0>
-134.592

>  <SCORE.INTRA.VDW>
-1.83409

>  <SCORE.INTRA.VDW.0>
-1.01417

>  <SCORE.INTRA.norm>
-0.528788

>  <SCORE.RESTR>
2.57738

>  <SCORE.RESTR.CAVITY>
2.57738

>  <SCORE.RESTR.norm>
0.0805432

>  <SCORE.SYSTEM>
0

>  <SCORE.SYSTEM.CONST>
0

>  <SCORE.SYSTEM.DIHEDRAL>
0

>  <SCORE.SYSTEM.SOLV>
0

>  <SCORE.SYSTEM.norm>
0

>  <SCORE.heavy>
32

>  <SCORE.norm>
-1.44727

>  <RMSD>
2.873

$$$$
1lc4
 OpenBabel02141814113D
libRbt.so/2013.1/901 2013/11/27
 32 34  0  0  0  0  0  0  0  0999 V2000
  -11.8064    8.4266   20.6266 C   0  0  2  0  0  0  0  0  0  0  0  0
  -11.3139    9.2667   19.6128 O   0  0  0  0  0  0  0  0  0  0  0  0
  -10.6016    7.8128   21.3688 C   0  0  2  0  0  0  0  0  0  0  0  0
   -9.7513    8.8709   21.9230 N   0  3  0  0  0  0  0  0  0  0  0  0
   -9.8050    6.8892   20.4175 C   0  0  0  0  0  0  0  0  0  0  0  0
  -10.7667    5.7951   19.9217 C   0  0  2  0  0  0  0  0  0  0  0  0
  -10.0778    4.8732   19.0704 O   0  0  0  0  0  0  0  0  0  0  0  0
  -11.9586    6.4569   19.1862 C   0  0  2  0  0  0  0  0  0  0  0  0
  -12.6442    7.3901   20.0688 O   0  0  0  0  0  0  0  0  0  0  0  0
  -13.0042    5.4570   18.6987 C   0  0  0  0  0  0  0  0  0  0  0  0
  -12.3920    4.4198   17.8275 N   0  3  0  0  0  0  0  0  0  0  0  0
  -15.1165   10.4401   18.1557 C   0  0  2  0  0  0  0  0  0  0  0  0
  -16.1940   11.1464   17.4388 N   0  3  0  0  0  0  0  0  0  0  0  0
  -14.4017   11.4030   19.0940 C   0  0  0  0  0  0  0  0  0  0  0  0
  -13.2761   10.6810   19.8430 C   0  0  2  0  0  0  0  0  0  0  0  0
  -12.6884   11.6234   20.8274 N   0  3  0  0  0  0  0  0  0  0  0  0
  -12.2427   10.0656   18.8527 C   0  0  2  0  0  0  0  0  0  0  0  0
  -12.9756    9.1292   17.8579 C   0  0  2  0  0  0  0  0  0  0  0  0
  -12.0736    8.7038   16.8652 O   0  0  0  0  0  0  0  0  0  0  0  0
  -14.1194    9.8717   17.1480 C   0  0  1  0  0  0  0  0  0  0  0  0
  -14.7836    8.9642   16.2693 O   0  0  0  0  0  0  0  0  0  0  0  0
  -14.4340    9.0084   14.9287 C   0  0  2  0  0  0  0  0  0  0  0  0
  -15.7178    9.0346   14.0817 C   0  0  2  0  0  0  0  0  0  0  0  0
  -16.4744   10.1844   14.4389 O   0  0  0  0  0  0  0  0  0  0  0  0
  -16.5360    7.7598   14.3525 C   0  0  1  0  0  0  0  0  0  0  0  0
  -17.8070    7.7390   13.5725 N   0  3  0  0  0  0  0  0  0  0  0  0
  -15.6721    6.5186   14.0207 C   0  0  2  0  0  0  0  0  0  0  0  0
  -16.3965    5.3197   14.2863 O   0  0  0  0  0  0  0  0  0  0  0  0
  -14.3621    6.5507   14.8296 C   0  0  2  0  0  0  0  0  0  0  0  0
  -13.6542    7.8255   14.6144 O   0  0  0  0  0  0  0  0  0  0  0  0
  -13.4148    5.4429   14.4254 C   0  0  0  0  0  0  0  0  0  0  0  0
  -12.9746    5.5931   13.0774 O   0  0  0  0  0  0  0  0  0  0  0  0
  1  2  1  6  0  0  0
  1  3  1  0  0  0  0
  1  9  1  0  0  0  0
  3  4  1  6  0  0  0
  3  5  1  0  0  0  0
  5  6  1  0  0  0  0
  6  7  1  6  0  0  0
  6  8  1  0  0  0  0
  8  9  1  0  0  0  0
  8 10  1  1  0  0  0
 10 11  1  0  0  0  0
 12 13  1  6  0  0  0
 12 14  1  0  0  0  0
 12 20  1  0  0  0  0
 14 15  1  0  0  0  0
 15 16  1  1  0  0  0
 15 17  1  0  0  0  0
 17  2  1  1  0  0  0
 17 18  1  0  0  0  0
 18 19  1  6  0  0  0
 18 20  1  0  0  0  0
 20 21  1  6  0  0  0
 22 21  1  1  0  0  0
 22 23  1  0  0  0  0
 22 30  1  0  0  0  0
 23 24  1  1  0  0  0
 23 25  1  0  0  0  0
 25 26  1  6  0  0  0
 25 27  1  0  0  0  0
 27 28  1  1  0  0  0
 27 29  1  0  0  0  0
 29 30  1  0  0  0  0
 29 31  1  6  0  0  0
 31 32  1  0  0  0  0
M  CHG  5   4   1  11   1  13   1  16   1  26   1
M  END
>  <CHROM.1>
-174.03497325,43.18311425,-59.04176242,63.00376503,-55.75038589,-91.01034535
36.02469204,50.50562532,179.23561586,139.46552149,-132.53882987,161.01620323
-85.78943082,77.31665426,64.48109790,-176.81458387,-13.42906770,8.06231125
17.39297009,0.55064142,-0.80067840,0.62072511

>  <Name>
1lc4

>  <RI>
0

>  <Rbt.Current_Directory>
/home/afrankz/demos/rdock_decoys_rna/rnas/1lc4

>  <Rbt.Executable>
rbdock ($Id: //depot/dev/client3/rdock/2013.1/src/exe/rbdock.cxx#4 $)

>  <Rbt.Library>
libRbt.so (2013.1, Build901 2013/11/27)

>  <Rbt.Parameter_File>
/export/apps/rDock/src/rDock_2013.1_src/data/scripts/dock_solv.prm

>  <Rbt.Receptor>
prm/pocket_docking_5.prm

>  <SCORE>
-49.1354

>  <SCORE.INTER>
-28.1279

>  <SCORE.INTER.CONST>
1

>  <SCORE.INTER.POLAR>
-4.66882

>  <SCORE.INTER.ROT>
6

>  <SCORE.INTER.SOLV>
23.0674

>  <SCORE.INTER.VDW>
-18.4784

>  <SCORE.INTER.norm>
-0.878998

>  <SCORE.INTRA>
-21.0075

>  <SCORE.INTRA.DIHEDRAL>
-22.7342

>  <SCORE.INTRA.DIHEDRAL.0>
44.2576

>  <SCORE.INTRA.POLAR>
-2.4233

>  <SCORE.INTRA.POLAR.0>
-0.381556

>  <SCORE.INTRA.REPUL>
0

>  <SCORE.INTRA.REPUL.0>
0

>  <SCORE.INTRA.SOLV>
2.34297

>  <SCORE.INTRA.SOLV.lig_0>
-134.592

>  <SCORE.INTRA.VDW>
-2.57261

>  <SCORE.INTRA.VDW.0>
-1.01417

>  <SCORE.INTRA.norm>
-0.656483

>  <SCORE.RESTR>
0

>  <SCORE.RESTR.CAVITY>
0

>  <SCORE.RESTR.norm>
0

>  <SCORE.SYSTEM>
0

>  <SCORE.SYSTEM.CONST>
0

>  <SCORE.SYSTEM.DIHEDRAL>
0

>  <SCORE.SYSTEM.SOLV>
0

>  <SCORE.SYSTEM.norm>
0

>  <SCORE.heavy>
32

>  <SCORE.norm>
-1.53548

>  <RMSD>
2.875

$$$$
1lc4
 OpenBabel02141814113D
libRbt.so/2013.1/901 2013/11/27
 32 34  0  0  0  0  0  0  0  0999 V2000
  -11.7422    8.3277   20.6396 C   0  0  2  0  0  0  0  0  0  0  0  0
  -11.2841    9.2033   19.6399 O   0  0  0  0  0  0  0  0  0  0  0  0
  -10.5161    7.7903   21.4056 C   0  0  2  0  0  0  0  0  0  0  0  0
   -9.7491    8.8988   21.9821 N   0  3  0  0  0  0  0  0  0  0  0  0
   -9.6404    6.9256   20.4685 C   0  0  0  0  0  0  0  0  0  0  0  0
  -10.5175    5.7735   19.9479 C   0  0  2  0  0  0  0  0  0  0  0  0
   -9.7515    4.9030   19.1084 O   0  0  0  0  0  0  0  0  0  0  0  0
  -11.7340    6.3596   19.1890 C   0  0  2  0  0  0  0  0  0  0  0  0
  -12.4981    7.2415   20.0598 O   0  0  0  0  0  0  0  0  0  0  0  0
  -12.7012    5.2960   18.6751 C   0  0  0  0  0  0  0  0  0  0  0  0
  -13.4805    4.6941   19.7886 N   0  3  0  0  0  0  0  0  0  0  0  0
  -15.1428   10.3732   18.3352 C   0  0  2  0  0  0  0  0  0  0  0  0
  -16.2482   11.0740   17.6564 N   0  3  0  0  0  0  0  0  0  0  0  0
  -14.3833   11.3462   19.2268 C   0  0  0  0  0  0  0  0  0  0  0  0
  -13.2285   10.6300   19.9358 C   0  0  2  0  0  0  0  0  0  0  0  0
  -12.5940   11.5838   20.8793 N   0  3  0  0  0  0  0  0  0  0  0  0
  -12.2424    9.9954   18.9099 C   0  0  2  0  0  0  0  0  0  0  0  0
  -13.0224    9.0481   17.9623 C   0  0  2  0  0  0  0  0  0  0  0  0
  -12.1669    8.6043   16.9371 O   0  0  0  0  0  0  0  0  0  0  0  0
  -14.1935    9.7855   17.2929 C   0  0  1  0  0  0  0  0  0  0  0  0
  -14.8996    8.8686   16.4578 O   0  0  0  0  0  0  0  0  0  0  0  0
  -14.5833    8.8663   15.1083 C   0  0  2  0  0  0  0  0  0  0  0  0
  -15.8771    9.0427   14.2951 C   0  0  2  0  0  0  0  0  0  0  0  0
  -16.4814   10.2757   14.6645 O   0  0  0  0  0  0  0  0  0  0  0  0
  -16.8338    7.8756   14.5955 C   0  0  1  0  0  0  0  0  0  0  0  0
  -18.1186    8.0039   13.8492 N   0  3  0  0  0  0  0  0  0  0  0  0
  -16.1332    6.5391   14.2491 C   0  0  2  0  0  0  0  0  0  0  0  0
  -16.9879    5.4360   14.5414 O   0  0  0  0  0  0  0  0  0  0  0  0
  -14.8075    6.4173   15.0233 C   0  0  2  0  0  0  0  0  0  0  0  0
  -13.9587    7.5978   14.7813 O   0  0  0  0  0  0  0  0  0  0  0  0
  -14.0101    5.2031   14.6015 C   0  0  0  0  0  0  0  0  0  0  0  0
  -12.7276    5.1739   15.2241 O   0  0  0  0  0  0  0  0  0  0  0  0
  1  2  1  6  0  0  0
  1  3  1  0  0  0  0
  1  9  1  0  0  0  0
  3  4  1  6  0  0  0
  3  5  1  0  0  0  0
  5  6  1  0  0  0  0
  6  7  1  6  0  0  0
  6  8  1  0  0  0  0
  8  9  1  0  0  0  0
  8 10  1  1  0  0  0
 10 11  1  0  0  0  0
 12 13  1  6  0  0  0
 12 14  1  0  0  0  0
 12 20  1  0  0  0  0
 14 15  1  0  0  0  0
 15 16  1  6  0  0  0
 15 17  1  0  0  0  0
 17  2  1  1  0  0  0
 17 18  1  0  0  0  0
 18 19  1  6  0  0  0
 18 20  1  0  0  0  0
 20 21  1  6  0  0  0
 22 21  1  1  0  0  0
 22 23  1  0  0  0  0
 22 30  1  0  0  0  0
 23 24  1  1  0  0  0
 23 25  1  0  0  0  0
 25 26  1  6  0  0  0
 25 27  1  0  0  0  0
 27 28  1  1  0  0  0
 27 29  1  0  0  0  0
 29 30  1  0  0  0  0
 29 31  1  6  0  0  0
 31 32  1  0  0  0  0
M  CHG  5   4   1  11   1  13   1  16   1  26   1
M  END
>  <CHROM.1>
-170.84024887,46.49633010,59.55170027,-67.14079924,72.79181385,50.51072769
36.27430628,97.35965107,-71.78041476,141.18445957,-126.80005450,72.93374367
23.50704807,177.87136721,174.07396618,-55.94877139,-13.51794489,8.02723374
17.65581955,0.37333206,-0.77894340,0.49558650

>  <Name>
1lc4

>  <RI>
0

>  <Rbt.Current_Directory>
/home/afrankz/demos/rdock_decoys_rna/rnas/1lc4

>  <Rbt.Executable>
rbdock ($Id: //depot/dev/client3/rdock/2013.1/src/exe/rbdock.cxx#4 $)

>  <Rbt.Library>
libRbt.so (2013.1, Build901 2013/11/27)

>  <Rbt.Parameter_File>
/export/apps/rDock/src/rDock_2013.1_src/data/scripts/dock_solv.prm

>  <Rbt.Receptor>
prm/pocket_docking_3.prm

>  <SCORE>
-49.3249

>  <SCORE.INTER>
-32.4744

>  <SCORE.INTER.CONST>
1

>  <SCORE.INTER.POLAR>
-5.80575

>  <SCORE.INTER.ROT>
6

>  <SCORE.INTER.SOLV>
24.8383

>  <SCORE.INTER.VDW>
-18.1766

>  <SCORE.INTER.norm>
-1.01483

>  <SCORE.INTRA>
-16.8505

>  <SCORE.INTRA.DIHEDRAL>
-21.9453

>  <SCORE.INTRA.DIHEDRAL.0>
44.2576

>  <SCORE.INTRA.POLAR>
-0.933475

>  <SCORE.INTRA.POLAR.0>
-0.381556

>  <SCORE.INTRA.REPUL>
0

>  <SCORE.INTRA.REPUL.0>
0

>  <SCORE.INTRA.SOLV>
-0.502507

>  <SCORE.INTRA.SOLV.lig_0>
-134.592

>  <SCORE.INTRA.VDW>
-2.45274

>  <SCORE.INTRA.VDW.0>
-1.01417

>  <SCORE.INTRA.norm>
-0.526577

>  <SCORE.RESTR>
0

>  <SCORE.RESTR.CAVITY>
0

>  <SCORE.RESTR.norm>
0

>  <SCORE.SYSTEM>
0

>  <SCORE.SYSTEM.CONST>
0

>  <SCORE.SYSTEM.DIHEDRAL>
0

>  <SCORE.SYSTEM.SOLV>
0

>  <SCORE.SYSTEM.norm>
0

>  <SCORE.heavy>
32

>  <SCORE.norm>
-1.5414

>  <RMSD>
2.894

$$$$
1lc4
 OpenBabel02141814113D
libRbt.so/2013.1/901 2013/11/27
 32 34  0  0  0  0  0  0  0  0999 V2000
  -11.4929    6.0205   20.9400 C   0  0  2  0  0  0  0  0  0  0  0  0
  -10.6077    6.6801   20.0697 O   0  0  0  0  0  0  0  0  0  0  0  0
  -10.7376    4.8445   21.5922 C   0  0  2  0  0  0  0  0  0  0  0  0
   -9.5547    5.3325   22.3080 N   0  3  0  0  0  0  0  0  0  0  0  0
  -10.3557    3.7973   20.5198 C   0  0  0  0  0  0  0  0  0  0  0  0
  -11.6586    3.3191   19.8552 C   0  0  2  0  0  0  0  0  0  0  0  0
  -11.3801    2.3080   18.8808 O   0  0  0  0  0  0  0  0  0  0  0  0
  -12.3819    4.5311   19.2170 C   0  0  2  0  0  0  0  0  0  0  0  0
  -12.6548    5.5467   20.2241 O   0  0  0  0  0  0  0  0  0  0  0  0
  -13.7193    4.1726   18.5740 C   0  0  0  0  0  0  0  0  0  0  0  0
  -14.6209    3.5006   19.5463 N   0  3  0  0  0  0  0  0  0  0  0  0
  -13.3667    9.6450   18.8217 C   0  0  2  0  0  0  0  0  0  0  0  0
  -13.9586   10.8597   18.2318 N   0  3  0  0  0  0  0  0  0  0  0  0
  -12.3754   10.0294   19.9117 C   0  0  0  0  0  0  0  0  0  0  0  0
  -11.7499    8.7745   20.5306 C   0  0  2  0  0  0  0  0  0  0  0  0
  -10.8848    9.1912   21.6622 N   0  3  0  0  0  0  0  0  0  0  0  0
  -11.0224    7.9157   19.4533 C   0  0  2  0  0  0  0  0  0  0  0  0
  -12.0137    7.5713   18.3121 C   0  0  2  0  0  0  0  0  0  0  0  0
  -11.3188    6.9394   17.2642 O   0  0  0  0  0  0  0  0  0  0  0  0
  -12.6493    8.8466   17.7350 C   0  0  1  0  0  0  0  0  0  0  0  0
  -13.5755    8.4793   16.7134 O   0  0  0  0  0  0  0  0  0  0  0  0
  -13.2764    8.8665   15.4165 C   0  0  2  0  0  0  0  0  0  0  0  0
  -14.5697    9.3341   14.7274 C   0  0  2  0  0  0  0  0  0  0  0  0
  -15.1075   10.4256   15.4633 O   0  0  0  0  0  0  0  0  0  0  0  0
  -15.5794    8.1735   14.6919 C   0  0  1  0  0  0  0  0  0  0  0  0
  -16.8654    8.5749   14.0521 N   0  3  0  0  0  0  0  0  0  0  0  0
  -14.9503    6.9722   13.9447 C   0  0  2  0  0  0  0  0  0  0  0  0
  -15.8550    5.8707   13.9178 O   0  0  0  0  0  0  0  0  0  0  0  0
  -13.6228    6.5670   14.6119 C   0  0  2  0  0  0  0  0  0  0  0  0
  -12.7196    7.7276   14.7100 O   0  0  0  0  0  0  0  0  0  0  0  0
  -12.8920    5.5006   13.8267 C   0  0  0  0  0  0  0  0  0  0  0  0
  -12.4613    5.9851   12.5566 O   0  0  0  0  0  0  0  0  0  0  0  0
  1  2  1  6  0  0  0
  1  3  1  0  0  0  0
  1  9  1  0  0  0  0
  3  4  1  6  0  0  0
  3  5  1  0  0  0  0
  5  6  1  0  0  0  0
  6  7  1  6  0  0  0
  6  8  1  0  0  0  0
  8  9  1  0  0  0  0
  8 10  1  1  0  0  0
 10 11  1  0  0  0  0
 12 13  1  6  0  0  0
 12 14  1  0  0  0  0
 12 20  1  0  0  0  0
 14 15  1  0  0  0  0
 15 16  1  1  0  0  0
 15 17  1  0  0  0  0
 17  2  1  1  0  0  0
 17 18  1  0  0  0  0
 18 19  1  6  0  0  0
 18 20  1  0  0  0  0
 20 21  1  6  0  0  0
 22 21  1  1  0  0  0
 22 23  1  0  0  0  0
 22 30  1  0  0  0  0
 23 24  1  1  0  0  0
 23 25  1  0  0  0  0
 25 26  1  6  0  0  0
 25 27  1  0  0  0  0
 27 28  1  1  0  0  0
 27 29  1  0  0  0  0
 29 30  1  0  0  0  0
 29 31  1  6  0  0  0
 31 32  1  0  0  0  0
M  CHG  5   4   1  11   1  13   1  16   1  26   1
M  END
>  <CHROM.1>
-172.67924072,42.27543823,-168.47690937,-178.51074273,55.47956167,-176.71697082
179.41059913,55.16652362,-173.39345270,123.84172854,-139.56001636,153.59502138
57.83489426,71.81348539,65.71822060,49.95031027,-12.83609329,6.94342837,17.73325438
-0.11602967,-1.08843434,0.25619769

>  <Name>
1lc4

>  <RI>
0

>  <Rbt.Current_Directory>
/home/afrankz/demos/rdock_decoys_rna/rnas/1lc4

>  <Rbt.Executable>
rbdock ($Id: //depot/dev/client3/rdock/2013.1/src/exe/rbdock.cxx#4 $)

>  <Rbt.Library>
libRbt.so (2013.1, Build901 2013/11/27)

>  <Rbt.Parameter_File>
/export/apps/rDock/src/rDock_2013.1_src/data/scripts/dock_solv.prm

>  <Rbt.Receptor>
prm/pocket_docking_3.prm

>  <SCORE>
-59.5396

>  <SCORE.INTER>
-40.2629

>  <SCORE.INTER.CONST>
1

>  <SCORE.INTER.POLAR>
-6.5086

>  <SCORE.INTER.ROT>
6

>  <SCORE.INTER.SOLV>
23.5246

>  <SCORE.INTER.VDW>
-20.5881

>  <SCORE.INTER.norm>
-1.25822

>  <SCORE.INTRA>
-19.3378

>  <SCORE.INTRA.DIHEDRAL>
-24.9593

>  <SCORE.INTRA.DIHEDRAL.0>
44.2576

>  <SCORE.INTRA.POLAR>
-1.10671

>  <SCORE.INTRA.POLAR.0>
-0.381556

>  <SCORE.INTRA.REPUL>
0

>  <SCORE.INTRA.REPUL.0>
0

>  <SCORE.INTRA.SOLV>
1.18076

>  <SCORE.INTRA.SOLV.lig_0>
-134.592

>  <SCORE.INTRA.VDW>
-3.68572

>  <SCORE.INTRA.VDW.0>
-1.01417

>  <SCORE.INTRA.norm>
-0.604306

>  <SCORE.RESTR>
0.0610944

>  <SCORE.RESTR.CAVITY>
0.0610944

>  <SCORE.RESTR.norm>
0.0019092

>  <SCORE.SYSTEM>
0

>  <SCORE.SYSTEM.CONST>
0

>  <SCORE.SYSTEM.DIHEDRAL>
0

>  <SCORE.SYSTEM.SOLV>
0

>  <SCORE.SYSTEM.norm>
0

>  <SCORE.heavy>
32

>  <SCORE.norm>
-1.86061

>  <RMSD>
2.902

$$$$
1lc4
 OpenBabel02141814113D
libRbt.so/2013.1/901 2013/11/27
 32 34  0  0  0  0  0  0  0  0999 V2000
  -10.2945    5.7456   19.4391 C   0  0  2  0  0  0  0  0  0  0  0  0
  -11.3605    6.5479   19.8820 O   0  0  0  0  0  0  0  0  0  0  0  0
  -10.5443    4.3037   19.9265 C   0  0  2  0  0  0  0  0  0  0  0  0
  -11.8276    3.8089   19.4184 N   0  3  0  0  0  0  0  0  0  0  0  0
  -10.4897    4.2473   21.4713 C   0  0  0  0  0  0  0  0  0  0  0  0
   -9.0997    4.7457   21.9039 C   0  0  2  0  0  0  0  0  0  0  0  0
   -8.9641    4.6735   23.3271 O   0  0  0  0  0  0  0  0  0  0  0  0
   -8.8934    6.1932   21.3921 C   0  0  2  0  0  0  0  0  0  0  0  0
   -9.0361    6.2442   19.9439 O   0  0  0  0  0  0  0  0  0  0  0  0
   -7.5174    6.7657   21.7231 C   0  0  0  0  0  0  0  0  0  0  0  0
   -7.4592    8.2240   21.4408 N   0  3  0  0  0  0  0  0  0  0  0  0
  -13.7952    9.7195   18.4774 C   0  0  2  0  0  0  0  0  0  0  0  0
  -14.2603   10.9507   17.8128 N   0  3  0  0  0  0  0  0  0  0  0  0
  -12.7359   10.0610   19.5165 C   0  0  0  0  0  0  0  0  0  0  0  0
  -12.2413    8.7880   20.2124 C   0  0  2  0  0  0  0  0  0  0  0  0
  -11.3025    9.1792   21.2932 N   0  3  0  0  0  0  0  0  0  0  0  0
  -11.6478    7.7773   19.1859 C   0  0  2  0  0  0  0  0  0  0  0  0
  -12.7040    7.4718   18.0928 C   0  0  2  0  0  0  0  0  0  0  0  0
  -12.1161    6.6917   17.0799 O   0  0  0  0  0  0  0  0  0  0  0  0
  -13.2051    8.7691   17.4375 C   0  0  1  0  0  0  0  0  0  0  0  0
  -14.1959    8.4416   16.4639 O   0  0  0  0  0  0  0  0  0  0  0  0
  -15.0351    7.3752   16.7464 C   0  0  2  0  0  0  0  0  0  0  0  0
  -15.9193    7.1007   15.5179 C   0  0  2  0  0  0  0  0  0  0  0  0
  -15.0789    6.7958   14.4121 O   0  0  0  0  0  0  0  0  0  0  0  0
  -16.7669    8.3471   15.2083 C   0  0  1  0  0  0  0  0  0  0  0  0
  -17.6319    8.1474   14.0100 N   0  3  0  0  0  0  0  0  0  0  0  0
  -17.6250    8.7016   16.4473 C   0  0  2  0  0  0  0  0  0  0  0  0
  -18.4038    9.8696   16.1985 O   0  0  0  0  0  0  0  0  0  0  0  0
  -16.7228    8.9040   17.6788 C   0  0  2  0  0  0  0  0  0  0  0  0
  -15.8617    7.7259   17.8865 O   0  0  0  0  0  0  0  0  0  0  0  0
  -17.5240    9.0976   18.9472 C   0  0  0  0  0  0  0  0  0  0  0  0
  -16.6789    9.3158   20.0748 O   0  0  0  0  0  0  0  0  0  0  0  0
  1  2  1  1  0  0  0
  1  3  1  0  0  0  0
  1  9  1  0  0  0  0
  3  4  1  1  0  0  0
  3  5  1  0  0  0  0
  5  6  1  0  0  0  0
  6  7  1  1  0  0  0
  6  8  1  0  0  0  0
  8  9  1  0  0  0  0
  8 10  1  6  0  0  0
 10 11  1  0  0  0  0
 12 13  1  6  0  0  0
 12 14  1  0  0  0  0
 12 20  1  0  0  0  0
 14 15  1  0  0  0  0
 15 16  1  1  0  0  0
 15 17  1  0  0  0  0
 17  2  1  1  0  0  0
 17 18  1  0  0  0  0
 18 19  1  6  0  0  0
 18 20  1  0  0  0  0
 20 21  1  6  0  0  0
 22 21  1  6  0  0  0
 22 23  1  0  0  0  0
 22 30  1  0  0  0  0
 23 24  1  6  0  0  0
 23 25  1  0  0  0  0
 25 26  1  6  0  0  0
 25 27  1  0  0  0  0
 27 28  1  6  0  0  0
 27 29  1  0  0  0  0
 29 30  1  0  0  0  0
 29 31  1  1  0  0  0
 31 32  1  0  0  0  0
M  CHG  5   4   1  11   1  13   1  16   1  26   1
M  END
>  <CHROM.1>
-157.29005548,-149.47231825,-177.99153430,-62.01487452,-169.40435690,-68.63183698
52.33643355,-66.57369001,173.08256301,-86.63241072,-174.13539125,177.00589560
-100.27863398,81.67724936,-178.60172321,-49.66386937,-13.04640080,7.53809195
18.69340912,-0.03933933,0.65029630,-2.58222042

>  <Name>
1lc4

>  <RI>
0

>  <Rbt.Current_Directory>
/home/afrankz/demos/rdock_decoys_rna/rnas/1lc4

>  <Rbt.Executable>
rbdock ($Id: //depot/dev/client3/rdock/2013.1/src/exe/rbdock.cxx#4 $)

>  <Rbt.Library>
libRbt.so (2013.1, Build901 2013/11/27)

>  <Rbt.Parameter_File>
/export/apps/rDock/src/rDock_2013.1_src/data/scripts/dock_solv.prm

>  <Rbt.Receptor>
prm/pocket_docking_6.prm

>  <SCORE>
-66.1394

>  <SCORE.INTER>
-51.3371

>  <SCORE.INTER.CONST>
1

>  <SCORE.INTER.POLAR>
-8.19293

>  <SCORE.INTER.ROT>
6

>  <SCORE.INTER.SOLV>
24.5506

>  <SCORE.INTER.VDW>
-22.6985

>  <SCORE.INTER.norm>
-1.60428

>  <SCORE.INTRA>
-14.9954

>  <SCORE.INTRA.DIHEDRAL>
-28.6237

>  <SCORE.INTRA.DIHEDRAL.0>
44.2576

>  <SCORE.INTRA.POLAR>
0.336928

>  <SCORE.INTRA.POLAR.0>
-0.381556

>  <SCORE.INTRA.REPUL>
0

>  <SCORE.INTRA.REPUL.0>
0

>  <SCORE.INTRA.SOLV>
0.725457

>  <SCORE.INTRA.SOLV.lig_0>
-134.592

>  <SCORE.INTRA.VDW>
-2.19189

>  <SCORE.INTRA.VDW.0>
-1.01417

>  <SCORE.INTRA.norm>
-0.468608

>  <SCORE.RESTR>
0.193176

>  <SCORE.RESTR.CAVITY>
0.193176

>  <SCORE.RESTR.norm>
0.00603676

>  <SCORE.SYSTEM>
0

>  <SCORE.SYSTEM.CONST>
0

>  <SCORE.SYSTEM.DIHEDRAL>
0

>  <SCORE.SYSTEM.SOLV>
0

>  <SCORE.SYSTEM.norm>
0

>  <SCORE.heavy>
32

>  <SCORE.norm>
-2.06686

>  <RMSD>
2.912

$$$$
1lc4
 OpenBabel02141814113D
libRbt.so/2013.1/901 2013/11/27
 32 34  0  0  0  0  0  0  0  0999 V2000
  -10.4169    6.5292   19.1910 C   0  0  2  0  0  0  0  0  0  0  0  0
  -11.6535    7.0596   19.5979 O   0  0  0  0  0  0  0  0  0  0  0  0
  -10.4518    5.0036   19.4152 C   0  0  2  0  0  0  0  0  0  0  0  0
  -11.5593    4.4033   18.6650 N   0  3  0  0  0  0  0  0  0  0  0  0
  -10.5586    4.6903   20.9261 C   0  0  0  0  0  0  0  0  0  0  0  0
   -9.3392    5.3245   21.6178 C   0  0  2  0  0  0  0  0  0  0  0  0
   -9.3505    5.0299   23.0186 O   0  0  0  0  0  0  0  0  0  0  0  0
   -9.3451    6.8527   21.3645 C   0  0  2  0  0  0  0  0  0  0  0  0
   -9.3340    7.1298   19.9351 O   0  0  0  0  0  0  0  0  0  0  0  0
   -8.1416    7.5742   21.9660 C   0  0  0  0  0  0  0  0  0  0  0  0
   -6.8806    7.1754   21.2875 N   0  3  0  0  0  0  0  0  0  0  0  0
  -14.8479    9.3355   17.9931 C   0  0  2  0  0  0  0  0  0  0  0  0
  -15.6253   10.3385   17.2423 N   0  3  0  0  0  0  0  0  0  0  0  0
  -13.9236   10.0320   18.9824 C   0  0  0  0  0  0  0  0  0  0  0  0
  -13.1067    8.9994   19.7671 C   0  0  2  0  0  0  0  0  0  0  0  0
  -12.3118    9.7145   20.7964 N   0  3  0  0  0  0  0  0  0  0  0  0
  -12.2591    8.1061   18.8126 C   0  0  2  0  0  0  0  0  0  0  0  0
  -13.1900    7.4407   17.7665 C   0  0  2  0  0  0  0  0  0  0  0  0
  -12.4101    6.7683   16.8075 O   0  0  0  0  0  0  0  0  0  0  0  0
  -14.0199    8.4981   17.0204 C   0  0  1  0  0  0  0  0  0  0  0  0
  -14.8823    7.8388   16.0940 O   0  0  0  0  0  0  0  0  0  0  0  0
  -15.8224    6.9633   16.6146 C   0  0  2  0  0  0  0  0  0  0  0  0
  -16.0556    5.8272   15.6041 C   0  0  2  0  0  0  0  0  0  0  0  0
  -14.8209    5.1587   15.3791 O   0  0  0  0  0  0  0  0  0  0  0  0
  -16.5845    6.4162   14.2845 C   0  0  1  0  0  0  0  0  0  0  0  0
  -16.8099    5.3605   13.2556 N   0  3  0  0  0  0  0  0  0  0  0  0
  -17.8931    7.1957   14.5617 C   0  0  2  0  0  0  0  0  0  0  0  0
  -18.3942    7.7752   13.3593 O   0  0  0  0  0  0  0  0  0  0  0  0
  -17.6500    8.2817   15.6263 C   0  0  2  0  0  0  0  0  0  0  0  0
  -17.0578    7.6908   16.8398 O   0  0  0  0  0  0  0  0  0  0  0  0
  -18.9319    8.9663   16.0458 C   0  0  0  0  0  0  0  0  0  0  0  0
  -18.6837   10.0348   16.9568 O   0  0  0  0  0  0  0  0  0  0  0  0
  1  2  1  1  0  0  0
  1  3  1  0  0  0  0
  1  9  1  0  0  0  0
  3  4  1  6  0  0  0
  3  5  1  0  0  0  0
  5  6  1  0  0  0  0
  6  7  1  1  0  0  0
  6  8  1  0  0  0  0
  8  9  1  0  0  0  0
  8 10  1  1  0  0  0
 10 11  1  0  0  0  0
 12 13  1  6  0  0  0
 12 14  1  0  0  0  0
 12 20  1  0  0  0  0
 14 15  1  0  0  0  0
 15 16  1  1  0  0  0
 15 17  1  0  0  0  0
 17  2  1  1  0  0  0
 17 18  1  0  0  0  0
 18 19  1  6  0  0  0
 18 20  1  0  0  0  0
 20 21  1  6  0  0  0
 22 21  1  6  0  0  0
 22 23  1  0  0  0  0
 22 30  1  0  0  0  0
 23 24  1  6  0  0  0
 23 25  1  0  0  0  0
 25 26  1  6  0  0  0
 25 27  1  0  0  0  0
 27 28  1  6  0  0  0
 27 29  1  0  0  0  0
 29 30  1  0  0  0  0
 29 31  1  1  0  0  0
 31 32  1  0  0  0  0
M  CHG  5   4   1  11   1  13   1  16   1  26   1
M  END
>  <CHROM.1>
-140.01503496,-150.23253808,-92.01965184,61.73861067,66.73370348,66.32208119
-147.64571563,-79.58177412,-64.99809210,-60.19269886,-147.73307678,-178.65482949
149.12678342,-62.39633962,-175.68610380,176.52420993,-13.51150540,7.29453701
18.00436972,-0.20537358,0.61593773,-2.57438805

>  <Name>
1lc4

>  <RI>
0

>  <Rbt.Current_Directory>
/home/afrankz/demos/rdock_decoys_rna/rnas/1lc4

>  <Rbt.Executable>
rbdock ($Id: //depot/dev/client3/rdock/2013.1/src/exe/rbdock.cxx#4 $)

>  <Rbt.Library>
libRbt.so (2013.1, Build901 2013/11/27)

>  <Rbt.Parameter_File>
/export/apps/rDock/src/rDock_2013.1_src/data/scripts/dock_solv.prm

>  <Rbt.Receptor>
prm/pocket_docking_7.prm

>  <SCORE>
-55.379

>  <SCORE.INTER>
-35.9204

>  <SCORE.INTER.CONST>
1

>  <SCORE.INTER.POLAR>
-5.51831

>  <SCORE.INTER.ROT>
6

>  <SCORE.INTER.SOLV>
20.7429

>  <SCORE.INTER.VDW>
-20.0669

>  <SCORE.INTER.norm>
-1.12251

>  <SCORE.INTRA>
-19.4586

>  <SCORE.INTRA.DIHEDRAL>
-23.8856

>  <SCORE.INTRA.DIHEDRAL.0>
44.2576

>  <SCORE.INTRA.POLAR>
-2.02001

>  <SCORE.INTRA.POLAR.0>
-0.381556

>  <SCORE.INTRA.REPUL>
0

>  <SCORE.INTRA.REPUL.0>
0

>  <SCORE.INTRA.SOLV>
2.60516

>  <SCORE.INTRA.SOLV.lig_0>
-134.592

>  <SCORE.INTRA.VDW>
-1.95031

>  <SCORE.INTRA.VDW.0>
-1.01417

>  <SCORE.INTRA.norm>
-0.608081

>  <SCORE.RESTR>
0

>  <SCORE.RESTR.CAVITY>
0

>  <SCORE.RESTR.norm>
0

>  <SCORE.SYSTEM>
0

>  <SCORE.SYSTEM.CONST>
0

>  <SCORE.SYSTEM.DIHEDRAL>
0

>  <SCORE.SYSTEM.SOLV>
0

>  <SCORE.SYSTEM.norm>
0

>  <SCORE.heavy>
32

>  <SCORE.norm>
-1.73059

>  <RMSD>
2.920

$$$$
1lc4
 OpenBabel02141814113D
libRbt.so/2013.1/901 2013/11/27
 32 34  0  0  0  0  0  0  0  0999 V2000
  -11.4832    5.9724   21.0816 C   0  0  2  0  0  0  0  0  0  0  0  0
  -10.6588    6.4760   20.0604 O   0  0  0  0  0  0  0  0  0  0  0  0
  -10.7473    4.7969   21.7566 C   0  0  2  0  0  0  0  0  0  0  0  0
   -9.4556    5.2421   22.2886 N   0  3  0  0  0  0  0  0  0  0  0  0
  -10.5732    3.6321   20.7539 C   0  0  0  0  0  0  0  0  0  0  0  0
  -11.9770    3.2113   20.2849 C   0  0  2  0  0  0  0  0  0  0  0  0
  -11.8910    2.0996   19.3870 O   0  0  0  0  0  0  0  0  0  0  0  0
  -12.6768    4.4210   19.6167 C   0  0  2  0  0  0  0  0  0  0  0  0
  -12.7530    5.5394   20.5458 O   0  0  0  0  0  0  0  0  0  0  0  0
  -14.1033    4.1239   19.1614 C   0  0  0  0  0  0  0  0  0  0  0  0
  -14.7126    5.3048   18.4952 N   0  3  0  0  0  0  0  0  0  0  0  0
  -13.2686    9.5622   18.7859 C   0  0  2  0  0  0  0  0  0  0  0  0
  -13.8014   10.7952   18.1779 N   0  3  0  0  0  0  0  0  0  0  0  0
  -12.2418    9.9139   19.8538 C   0  0  0  0  0  0  0  0  0  0  0  0
  -11.6773    8.6395   20.4913 C   0  0  2  0  0  0  0  0  0  0  0  0
  -10.7741    9.0313   21.6019 N   0  3  0  0  0  0  0  0  0  0  0  0
  -11.0139    7.7196   19.4231 C   0  0  2  0  0  0  0  0  0  0  0  0
  -12.0392    7.4067   18.3030 C   0  0  2  0  0  0  0  0  0  0  0  0
  -11.3955    6.7157   17.2598 O   0  0  0  0  0  0  0  0  0  0  0  0
  -12.6121    8.7029   17.7072 C   0  0  1  0  0  0  0  0  0  0  0  0
  -13.5720    8.3661   16.7062 O   0  0  0  0  0  0  0  0  0  0  0  0
  -13.2770    8.7209   15.3992 C   0  0  2  0  0  0  0  0  0  0  0  0
  -14.5686    9.1928   14.7096 C   0  0  2  0  0  0  0  0  0  0  0  0
  -15.0845   10.3078   15.4257 O   0  0  0  0  0  0  0  0  0  0  0  0
  -15.5955    8.0469   14.7065 C   0  0  1  0  0  0  0  0  0  0  0  0
  -16.8802    8.4537   14.0676 N   0  3  0  0  0  0  0  0  0  0  0  0
  -14.9899    6.8207   13.9808 C   0  0  2  0  0  0  0  0  0  0  0  0
  -15.9110    5.7324   13.9843 O   0  0  0  0  0  0  0  0  0  0  0  0
  -13.6635    6.4100   14.6469 C   0  0  2  0  0  0  0  0  0  0  0  0
  -12.7425    7.5589   14.7134 O   0  0  0  0  0  0  0  0  0  0  0  0
  -12.9545    5.3163   13.8795 C   0  0  0  0  0  0  0  0  0  0  0  0
  -11.6999    4.9868   14.4717 O   0  0  0  0  0  0  0  0  0  0  0  0
  1  2  1  6  0  0  0
  1  3  1  0  0  0  0
  1  9  1  0  0  0  0
  3  4  1  6  0  0  0
  3  5  1  0  0  0  0
  5  6  1  0  0  0  0
  6  7  1  6  0  0  0
  6  8  1  0  0  0  0
  8  9  1  0  0  0  0
  8 10  1  1  0  0  0
 10 11  1  0  0  0  0
 12 13  1  6  0  0  0
 12 14  1  0  0  0  0
 12 20  1  0  0  0  0
 14 15  1  0  0  0  0
 15 16  1  1  0  0  0
 15 17  1  0  0  0  0
 17  2  1  1  0  0  0
 17 18  1  0  0  0  0
 18 19  1  6  0  0  0
 18 20  1  0  0  0  0
 20 21  1  6  0  0  0
 22 21  1  1  0  0  0
 22 23  1  0  0  0  0
 22 30  1  0  0  0  0
 23 24  1  1  0  0  0
 23 25  1  0  0  0  0
 25 26  1  6  0  0  0
 25 27  1  0  0  0  0
 27 28  1  1  0  0  0
 27 29  1  0  0  0  0
 29 30  1  0  0  0  0
 29 31  1  6  0  0  0
 31 32  1  0  0  0  0
M  CHG  5   4   1  11   1  13   1  16   1  26   1
M  END
>  <CHROM.1>
-169.63568653,34.17213613,73.10681469,68.14731376,-178.43462680,-59.05476221
61.10891068,56.47457114,174.58237782,123.21923764,-141.54683636,152.91999455
-65.09475212,-57.01232291,177.36153518,-59.58949564,-12.85285735,6.85179841
17.84529547,-0.17640764,-1.06470676,0.19807633

>  <Name>
1lc4

>  <RI>
0

>  <Rbt.Current_Directory>
/home/afrankz/demos/rdock_decoys_rna/rnas/1lc4

>  <Rbt.Executable>
rbdock ($Id: //depot/dev/client3/rdock/2013.1/src/exe/rbdock.cxx#4 $)

>  <Rbt.Library>
libRbt.so (2013.1, Build901 2013/11/27)

>  <Rbt.Parameter_File>
/export/apps/rDock/src/rDock_2013.1_src/data/scripts/dock_solv.prm

>  <Rbt.Receptor>
prm/pocket_docking_8.prm

>  <SCORE>
-60.8953

>  <SCORE.INTER>
-42.3746

>  <SCORE.INTER.CONST>
1

>  <SCORE.INTER.POLAR>
-6.70455

>  <SCORE.INTER.ROT>
6

>  <SCORE.INTER.SOLV>
22.2927

>  <SCORE.INTER.VDW>
-20.9321

>  <SCORE.INTER.norm>
-1.32421

>  <SCORE.INTRA>
-18.5206

>  <SCORE.INTRA.DIHEDRAL>
-24.4407

>  <SCORE.INTRA.DIHEDRAL.0>
44.2576

>  <SCORE.INTRA.POLAR>
-0.898403

>  <SCORE.INTRA.POLAR.0>
-0.381556

>  <SCORE.INTRA.REPUL>
0

>  <SCORE.INTRA.REPUL.0>
0

>  <SCORE.INTRA.SOLV>
2.69261

>  <SCORE.INTRA.SOLV.lig_0>
-134.592

>  <SCORE.INTRA.VDW>
-4.59206

>  <SCORE.INTRA.VDW.0>
-1.01417

>  <SCORE.INTRA.norm>
-0.57877

>  <SCORE.RESTR>
0

>  <SCORE.RESTR.CAVITY>
0

>  <SCORE.RESTR.norm>
0

>  <SCORE.SYSTEM>
0

>  <SCORE.SYSTEM.CONST>
0

>  <SCORE.SYSTEM.DIHEDRAL>
0

>  <SCORE.SYSTEM.SOLV>
0

>  <SCORE.SYSTEM.norm>
0

>  <SCORE.heavy>
32

>  <SCORE.norm>
-1.90298

>  <RMSD>
2.944

$$$$
1lc4
 OpenBabel02141814113D
libRbt.so/2013.1/901 2013/11/27
 32 34  0  0  0  0  0  0  0  0999 V2000
  -11.4346    5.9852   21.0568 C   0  0  2  0  0  0  0  0  0  0  0  0
  -10.6061    6.5216   20.0559 O   0  0  0  0  0  0  0  0  0  0  0  0
  -10.6697    4.8391   21.7497 C   0  0  2  0  0  0  0  0  0  0  0  0
   -9.4099    5.3343   22.3129 N   0  3  0  0  0  0  0  0  0  0  0  0
  -10.4256    3.6827   20.7519 C   0  0  0  0  0  0  0  0  0  0  0  0
  -11.7999    3.2074   20.2489 C   0  0  2  0  0  0  0  0  0  0  0  0
  -11.6485    2.1007   19.3536 O   0  0  0  0  0  0  0  0  0  0  0  0
  -12.5303    4.3892   19.5636 C   0  0  2  0  0  0  0  0  0  0  0  0
  -12.6731    5.5031   20.4903 O   0  0  0  0  0  0  0  0  0  0  0  0
  -13.9326    4.0365   19.0737 C   0  0  0  0  0  0  0  0  0  0  0  0
  -14.8463    3.7578   20.2127 N   0  3  0  0  0  0  0  0  0  0  0  0
  -13.2731    9.5643   18.7951 C   0  0  2  0  0  0  0  0  0  0  0  0
  -13.8291   10.7894   18.1919 N   0  3  0  0  0  0  0  0  0  0  0  0
  -12.2513    9.9310   19.8627 C   0  0  0  0  0  0  0  0  0  0  0  0
  -11.6629    8.6649   20.4953 C   0  0  2  0  0  0  0  0  0  0  0  0
  -10.7653    9.0694   21.6058 N   0  3  0  0  0  0  0  0  0  0  0  0
  -10.9845    7.7606   19.4231 C   0  0  2  0  0  0  0  0  0  0  0  0
  -12.0057    7.4329   18.3035 C   0  0  2  0  0  0  0  0  0  0  0  0
  -11.3512    6.7570   17.2571 O   0  0  0  0  0  0  0  0  0  0  0  0
  -12.6028    8.7205   17.7127 C   0  0  1  0  0  0  0  0  0  0  0  0
  -13.5580    8.3696   16.7120 O   0  0  0  0  0  0  0  0  0  0  0  0
  -13.2704    8.7319   15.4054 C   0  0  2  0  0  0  0  0  0  0  0  0
  -14.5669    9.2017   14.7239 C   0  0  2  0  0  0  0  0  0  0  0  0
  -15.0843   10.3111   15.4476 O   0  0  0  0  0  0  0  0  0  0  0  0
  -15.5891    8.0516   14.7198 C   0  0  1  0  0  0  0  0  0  0  0  0
  -16.8783    8.4560   14.0886 N   0  3  0  0  0  0  0  0  0  0  0  0
  -14.9817    6.8314   13.9856 C   0  0  2  0  0  0  0  0  0  0  0  0
  -15.8982    5.7392   13.9879 O   0  0  0  0  0  0  0  0  0  0  0  0
  -13.6506    6.4231   14.6438 C   0  0  2  0  0  0  0  0  0  0  0  0
  -12.7341    7.5754   14.7117 O   0  0  0  0  0  0  0  0  0  0  0  0
  -12.9405    5.3360   13.8680 C   0  0  0  0  0  0  0  0  0  0  0  0
  -11.7111    4.9648   14.4879 O   0  0  0  0  0  0  0  0  0  0  0  0
  1  2  1  6  0  0  0
  1  3  1  0  0  0  0
  1  9  1  0  0  0  0
  3  4  1  6  0  0  0
  3  5  1  0  0  0  0
  5  6  1  0  0  0  0
  6  7  1  6  0  0  0
  6  8  1  0  0  0  0
  8  9  1  0  0  0  0
  8 10  1  1  0  0  0
 10 11  1  0  0  0  0
 12 13  1  6  0  0  0
 12 14  1  0  0  0  0
 12 20  1  0  0  0  0
 14 15  1  0  0  0  0
 15 16  1  1  0  0  0
 15 17  1  0  0  0  0
 17  2  1  1  0  0  0
 17 18  1  0  0  0  0
 18 19  1  6  0  0  0
 18 20  1  0  0  0  0
 20 21  1  6  0  0  0
 22 21  1  1  0  0  0
 22 23  1  0  0  0  0
 22 30  1  0  0  0  0
 23 24  1  1  0  0  0
 23 25  1  0  0  0  0
 25 26  1  6  0  0  0
 25 27  1  0  0  0  0
 27 28  1  1  0  0  0
 27 29  1  0  0  0  0
 29 30  1  0  0  0  0
 29 31  1  6  0  0  0
 31 32  1  0  0  0  0
M  CHG  5   4   1  11   1  13   1  16   1  26   1
M  END
>  <CHROM.1>
-168.76373824,35.51525179,76.03779778,179.43062006,66.81249464,-55.60037339
-59.80147934,57.12921368,64.47045474,123.32636519,-140.78183817,153.27756415
-64.24696880,-59.43935056,-179.89889516,-54.48781407,-12.81675633,6.80530250
17.90667331,-0.26839483,-1.06868708,0.12159804

>  <Name>
1lc4

>  <RI>
0

>  <Rbt.Current_Directory>
/home/afrankz/demos/rdock_decoys_rna/rnas/1lc4

>  <Rbt.Executable>
rbdock ($Id: //depot/dev/client3/rdock/2013.1/src/exe/rbdock.cxx#4 $)

>  <Rbt.Library>
libRbt.so (2013.1, Build901 2013/11/27)

>  <Rbt.Parameter_File>
/export/apps/rDock/src/rDock_2013.1_src/data/scripts/dock_solv.prm

>  <Rbt.Receptor>
prm/pocket_docking_4.prm

>  <SCORE>
-60.5308

>  <SCORE.INTER>
-41.8718

>  <SCORE.INTER.CONST>
1

>  <SCORE.INTER.POLAR>
-6.72338

>  <SCORE.INTER.ROT>
6

>  <SCORE.INTER.SOLV>
22.4924

>  <SCORE.INTER.VDW>
-20.6007

>  <SCORE.INTER.norm>
-1.30849

>  <SCORE.INTRA>
-18.6591

>  <SCORE.INTRA.DIHEDRAL>
-24.4595

>  <SCORE.INTRA.DIHEDRAL.0>
44.2576

>  <SCORE.INTRA.POLAR>
-0.858781

>  <SCORE.INTRA.POLAR.0>
-0.381556

>  <SCORE.INTRA.REPUL>
0

>  <SCORE.INTRA.REPUL.0>
0

>  <SCORE.INTRA.SOLV>
0.812519

>  <SCORE.INTRA.SOLV.lig_0>
-134.592

>  <SCORE.INTRA.VDW>
-3.91572

>  <SCORE.INTRA.VDW.0>
-1.01417

>  <SCORE.INTRA.norm>
-0.583096

>  <SCORE.RESTR>
0

>  <SCORE.RESTR.CAVITY>
0

>  <SCORE.RESTR.norm>
0

>  <SCORE.SYSTEM>
0

>  <SCORE.SYSTEM.CONST>
0

>  <SCORE.SYSTEM.DIHEDRAL>
0

>  <SCORE.SYSTEM.SOLV>
0

>  <SCORE.SYSTEM.norm>
0

>  <SCORE.heavy>
32

>  <SCORE.norm>
-1.89159

>  <RMSD>
2.957

$$$$
1lc4
 OpenBabel02141814113D
libRbt.so/2013.1/901 2013/11/27
 32 34  0  0  0  0  0  0  0  0999 V2000
  -11.7333    6.1909   20.6523 C   0  0  2  0  0  0  0  0  0  0  0  0
  -10.8520    6.9536   19.8665 O   0  0  0  0  0  0  0  0  0  0  0  0
  -10.9501    4.9923   21.2258 C   0  0  2  0  0  0  0  0  0  0  0  0
   -9.8063    5.4608   22.0143 N   0  3  0  0  0  0  0  0  0  0  0  0
  -10.4999    4.0543   20.0812 C   0  0  0  0  0  0  0  0  0  0  0  0
  -11.7653    3.5867   19.3410 C   0  0  2  0  0  0  0  0  0  0  0  0
  -11.4223    2.6726   18.2941 O   0  0  0  0  0  0  0  0  0  0  0  0
  -12.5182    4.8212   18.7854 C   0  0  2  0  0  0  0  0  0  0  0  0
  -12.8567    5.7372   19.8654 O   0  0  0  0  0  0  0  0  0  0  0  0
  -13.8234    4.4698   18.0758 C   0  0  0  0  0  0  0  0  0  0  0  0
  -14.7976    3.8539   19.0146 N   0  3  0  0  0  0  0  0  0  0  0  0
  -13.6689    9.9796   18.9346 C   0  0  2  0  0  0  0  0  0  0  0  0
  -14.2888   11.2265   18.4500 N   0  3  0  0  0  0  0  0  0  0  0  0
  -12.6296   10.2987   20.0006 C   0  0  0  0  0  0  0  0  0  0  0  0
  -11.9749    9.0099   20.5101 C   0  0  2  0  0  0  0  0  0  0  0  0
  -11.0598    9.3581   21.6254 N   0  3  0  0  0  0  0  0  0  0  0  0
  -11.2959    8.2239   19.3488 C   0  0  2  0  0  0  0  0  0  0  0  0
  -12.3376    7.9479   18.2342 C   0  0  2  0  0  0  0  0  0  0  0  0
  -11.6903    7.3863   17.1181 O   0  0  0  0  0  0  0  0  0  0  0  0
  -13.0006    9.2543   17.7683 C   0  0  1  0  0  0  0  0  0  0  0  0
  -13.9718    8.9482   16.7684 O   0  0  0  0  0  0  0  0  0  0  0  0
  -13.6652    9.2892   15.4604 C   0  0  2  0  0  0  0  0  0  0  0  0
  -14.9693    9.3610   14.6477 C   0  0  2  0  0  0  0  0  0  0  0  0
  -15.8166   10.3410   15.2340 O   0  0  0  0  0  0  0  0  0  0  0  0
  -15.6608    7.9866   14.6665 C   0  0  1  0  0  0  0  0  0  0  0  0
  -16.9459    8.0005   13.9099 N   0  3  0  0  0  0  0  0  0  0  0  0
  -14.6976    6.9226   14.0858 C   0  0  2  0  0  0  0  0  0  0  0  0
  -15.3027    5.6319   14.1138 O   0  0  0  0  0  0  0  0  0  0  0  0
  -13.3738    6.9175   14.8726 C   0  0  2  0  0  0  0  0  0  0  0  0
  -12.7905    8.2707   14.9092 O   0  0  0  0  0  0  0  0  0  0  0  0
  -12.3417    6.0059   14.2468 C   0  0  0  0  0  0  0  0  0  0  0  0
  -11.5235    6.7029   13.3098 O   0  0  0  0  0  0  0  0  0  0  0  0
  1  2  1  6  0  0  0
  1  3  1  0  0  0  0
  1  9  1  0  0  0  0
  3  4  1  6  0  0  0
  3  5  1  0  0  0  0
  5  6  1  0  0  0  0
  6  7  1  6  0  0  0
  6  8  1  0  0  0  0
  8  9  1  0  0  0  0
  8 10  1  1  0  0  0
 10 11  1  0  0  0  0
 12 13  1  6  0  0  0
 12 14  1  0  0  0  0
 12 20  1  0  0  0  0
 14 15  1  0  0  0  0
 15 16  1  1  0  0  0
 15 17  1  0  0  0  0
 17  2  1  1  0  0  0
 17 18  1  0  0  0  0
 18 19  1  6  0  0  0
 18 20  1  0  0  0  0
 20 21  1  6  0  0  0
 22 21  1  1  0  0  0
 22 23  1  0  0  0  0
 22 30  1  0  0  0  0
 23 24  1  1  0  0  0
 23 25  1  0  0  0  0
 25 26  1  6  0  0  0
 25 27  1  0  0  0  0
 27 28  1  1  0  0  0
 27 29  1  0  0  0  0
 29 30  1  0  0  0  0
 29 31  1  6  0  0  0
 31 32  1  0  0  0  0
M  CHG  5   4   1  11   1  13   1  16   1  26   1
M  END
>  <CHROM.1>
-172.39467607,46.93325721,67.99483075,42.34060434,63.41225848,-65.30806491
-172.68926669,-72.93967285,61.69256066,130.69540065,-159.72590568,96.85779441
51.37514664,-57.63248894,91.12364124,-63.28699028,-12.95316142,7.17312198
17.65085068,-0.01309066,-1.06772091,0.39828784

>  <Name>
1lc4

>  <RI>
0

>  <Rbt.Current_Directory>
/home/afrankz/demos/rdock_decoys_rna/rnas/1lc4

>  <Rbt.Executable>
rbdock ($Id: //depot/dev/client3/rdock/2013.1/src/exe/rbdock.cxx#4 $)

>  <Rbt.Library>
libRbt.so (2013.1, Build901 2013/11/27)

>  <Rbt.Parameter_File>
/export/apps/rDock/src/rDock_2013.1_src/data/scripts/dock_solv.prm

>  <Rbt.Receptor>
prm/pocket_docking_4.prm

>  <SCORE>
-61.2899

>  <SCORE.INTER>
-46.4321

>  <SCORE.INTER.CONST>
1

>  <SCORE.INTER.POLAR>
-7.86669

>  <SCORE.INTER.ROT>
6

>  <SCORE.INTER.SOLV>
22.3643

>  <SCORE.INTER.VDW>
-19.7872

>  <SCORE.INTER.norm>
-1.451

>  <SCORE.INTRA>
-14.8578

>  <SCORE.INTRA.DIHEDRAL>
-24.4181

>  <SCORE.INTRA.DIHEDRAL.0>
44.2576

>  <SCORE.INTRA.POLAR>
0.353283

>  <SCORE.INTRA.POLAR.0>
-0.381556

>  <SCORE.INTRA.REPUL>
0

>  <SCORE.INTRA.REPUL.0>
0

>  <SCORE.INTRA.SOLV>
-0.933418

>  <SCORE.INTRA.SOLV.lig_0>
-134.592

>  <SCORE.INTRA.VDW>
-3.38317

>  <SCORE.INTRA.VDW.0>
-1.01417

>  <SCORE.INTRA.norm>
-0.464306

>  <SCORE.RESTR>
0

>  <SCORE.RESTR.CAVITY>
0

>  <SCORE.RESTR.norm>
0

>  <SCORE.SYSTEM>
0

>  <SCORE.SYSTEM.CONST>
0

>  <SCORE.SYSTEM.DIHEDRAL>
0

>  <SCORE.SYSTEM.SOLV>
0

>  <SCORE.SYSTEM.norm>
0

>  <SCORE.heavy>
32

>  <SCORE.norm>
-1.91531

>  <RMSD>
2.962

$$$$
1lc4
 OpenBabel02141814113D
libRbt.so/2013.1/901 2013/11/27
 32 34  0  0  0  0  0  0  0  0999 V2000
  -10.5371    6.3755   18.8631 C   0  0  2  0  0  0  0  0  0  0  0  0
  -11.8801    6.4556   19.2704 O   0  0  0  0  0  0  0  0  0  0  0  0
   -9.9894    4.9964   19.2837 C   0  0  2  0  0  0  0  0  0  0  0  0
  -10.7905    3.9251   18.6837 N   0  3  0  0  0  0  0  0  0  0  0  0
   -9.9607    4.8832   20.8260 C   0  0  0  0  0  0  0  0  0  0  0  0
   -9.0690    6.0193   21.3571 C   0  0  2  0  0  0  0  0  0  0  0  0
   -8.9597    5.9434   22.7824 O   0  0  0  0  0  0  0  0  0  0  0  0
   -9.6556    7.3814   20.9097 C   0  0  2  0  0  0  0  0  0  0  0  0
   -9.7587    7.4370   19.4584 O   0  0  0  0  0  0  0  0  0  0  0  0
   -8.8124    8.5787   21.3413 C   0  0  0  0  0  0  0  0  0  0  0  0
   -9.0352    8.9053   22.7743 N   0  3  0  0  0  0  0  0  0  0  0  0
  -15.4482    7.9301   17.5229 C   0  0  2  0  0  0  0  0  0  0  0  0
  -16.4477    8.8091   16.8887 N   0  3  0  0  0  0  0  0  0  0  0  0
  -15.0535    8.4918   18.8820 C   0  0  0  0  0  0  0  0  0  0  0  0
  -14.0113    7.5883   19.5503 C   0  0  2  0  0  0  0  0  0  0  0  0
  -13.7465    8.1079   20.9150 N   0  3  0  0  0  0  0  0  0  0  0  0
  -12.7380    7.4431   18.6643 C   0  0  2  0  0  0  0  0  0  0  0  0
  -13.1430    6.9266   17.2596 C   0  0  2  0  0  0  0  0  0  0  0  0
  -12.0209    6.9522   16.4109 O   0  0  0  0  0  0  0  0  0  0  0  0
  -14.2128    7.8334   16.6300 C   0  0  1  0  0  0  0  0  0  0  0  0
  -14.5768    7.3023   15.3563 O   0  0  0  0  0  0  0  0  0  0  0  0
  -15.1675    6.0486   15.3369 C   0  0  2  0  0  0  0  0  0  0  0  0
  -14.5477    5.2257   14.1945 C   0  0  2  0  0  0  0  0  0  0  0  0
  -13.1484    5.1151   14.4217 O   0  0  0  0  0  0  0  0  0  0  0  0
  -14.8101    5.9327   12.8533 C   0  0  1  0  0  0  0  0  0  0  0  0
  -14.2119    5.1897   11.7069 N   0  3  0  0  0  0  0  0  0  0  0  0
  -16.3362    6.1029   12.6559 C   0  0  2  0  0  0  0  0  0  0  0  0
  -16.6096    6.7790   11.4308 O   0  0  0  0  0  0  0  0  0  0  0  0
  -16.9441    6.8695   13.8452 C   0  0  2  0  0  0  0  0  0  0  0  0
  -16.5927    6.2117   15.1166 O   0  0  0  0  0  0  0  0  0  0  0  0
  -18.4541    6.9248   13.7764 C   0  0  0  0  0  0  0  0  0  0  0  0
  -18.9024    7.6292   12.6205 O   0  0  0  0  0  0  0  0  0  0  0  0
  1  2  1  1  0  0  0
  1  3  1  0  0  0  0
  1  9  1  0  0  0  0
  3  4  1  6  0  0  0
  3  5  1  0  0  0  0
  5  6  1  0  0  0  0
  6  7  1  1  0  0  0
  6  8  1  0  0  0  0
  8  9  1  0  0  0  0
  8 10  1  6  0  0  0
 10 11  1  0  0  0  0
 12 13  1  6  0  0  0
 12 14  1  0  0  0  0
 12 20  1  0  0  0  0
 14 15  1  0  0  0  0
 15 16  1  1  0  0  0
 15 17  1  0  0  0  0
 17  2  1  1  0  0  0
 17 18  1  0  0  0  0
 18 19  1  6  0  0  0
 18 20  1  0  0  0  0
 20 21  1  6  0  0  0
 22 21  1  6  0  0  0
 22 23  1  0  0  0  0
 22 30  1  0  0  0  0
 23 24  1  1  0  0  0
 23 25  1  0  0  0  0
 25 26  1  6  0  0  0
 25 27  1  0  0  0  0
 27 28  1  6  0  0  0
 27 29  1  0  0  0  0
 29 30  1  0  0  0  0
 29 31  1  6  0  0  0
 31 32  1  0  0  0  0
M  CHG  5   4   1  11   1  13   1  16   1  26   1
M  END
>  <CHROM.1>
-161.38456715,-164.31642549,58.41451619,59.77744916,-78.33602219,37.97026364
-55.82481875,-63.91187375,175.81729482,-58.70198380,-136.59603468,71.97346828
70.97273502,68.12766023,-62.68054840,-51.88793503,-13.30154533,6.76044071
17.21908889,-0.73948279,0.50494629,-2.09054752

>  <Name>
1lc4

>  <RI>
0

>  <Rbt.Current_Directory>
/home/afrankz/demos/rdock_decoys_rna/rnas/1lc4

>  <Rbt.Executable>
rbdock ($Id: //depot/dev/client3/rdock/2013.1/src/exe/rbdock.cxx#4 $)

>  <Rbt.Library>
libRbt.so (2013.1, Build901 2013/11/27)

>  <Rbt.Parameter_File>
/export/apps/rDock/src/rDock_2013.1_src/data/scripts/dock_solv.prm

>  <Rbt.Receptor>
prm/pocket_docking_7.prm

>  <SCORE>
-57.6708

>  <SCORE.INTER>
-33.489

>  <SCORE.INTER.CONST>
1

>  <SCORE.INTER.POLAR>
-4.8873

>  <SCORE.INTER.ROT>
6

>  <SCORE.INTER.SOLV>
19.4427

>  <SCORE.INTER.VDW>
-20.1159

>  <SCORE.INTER.norm>
-1.04653

>  <SCORE.INTRA>
-24.1817

>  <SCORE.INTRA.DIHEDRAL>
-31.4919

>  <SCORE.INTRA.DIHEDRAL.0>
44.2576

>  <SCORE.INTRA.POLAR>
-1.31572

>  <SCORE.INTRA.POLAR.0>
-0.381556

>  <SCORE.INTRA.REPUL>
0

>  <SCORE.INTRA.REPUL.0>
0

>  <SCORE.INTRA.SOLV>
-1.49211

>  <SCORE.INTRA.SOLV.lig_0>
-134.592

>  <SCORE.INTRA.VDW>
-3.21627

>  <SCORE.INTRA.VDW.0>
-1.01417

>  <SCORE.INTRA.norm>
-0.755679

>  <SCORE.RESTR>
0

>  <SCORE.RESTR.CAVITY>
0

>  <SCORE.RESTR.norm>
0

>  <SCORE.SYSTEM>
0

>  <SCORE.SYSTEM.CONST>
0

>  <SCORE.SYSTEM.DIHEDRAL>
0

>  <SCORE.SYSTEM.SOLV>
0

>  <SCORE.SYSTEM.norm>
0

>  <SCORE.heavy>
32

>  <SCORE.norm>
-1.80221

>  <RMSD>
2.965

$$$$
1lc4
 OpenBabel02141814113D
libRbt.so/2013.1/901 2013/11/27
 32 34  0  0  0  0  0  0  0  0999 V2000
  -11.4555    6.0370   21.0717 C   0  0  2  0  0  0  0  0  0  0  0  0
  -10.6168    6.5935   20.0904 O   0  0  0  0  0  0  0  0  0  0  0  0
  -10.7108    4.8549   21.7252 C   0  0  2  0  0  0  0  0  0  0  0  0
   -9.4435    5.3091   22.3059 N   0  3  0  0  0  0  0  0  0  0  0  0
  -10.4850    3.7297   20.6882 C   0  0  0  0  0  0  0  0  0  0  0  0
  -11.8666    3.2953   20.1683 C   0  0  2  0  0  0  0  0  0  0  0  0
  -11.7327    2.2176   19.2356 O   0  0  0  0  0  0  0  0  0  0  0  0
  -12.5761    4.5120   19.5237 C   0  0  2  0  0  0  0  0  0  0  0  0
  -12.7012    5.5956   20.4882 O   0  0  0  0  0  0  0  0  0  0  0  0
  -13.9835    4.2002   19.0211 C   0  0  0  0  0  0  0  0  0  0  0  0
  -14.8864    3.8318   20.1431 N   0  3  0  0  0  0  0  0  0  0  0  0
  -13.3199    9.5887   18.7932 C   0  0  2  0  0  0  0  0  0  0  0  0
  -13.8894   10.8030   18.1809 N   0  3  0  0  0  0  0  0  0  0  0  0
  -12.3158    9.9748   19.8708 C   0  0  0  0  0  0  0  0  0  0  0  0
  -11.7134    8.7202   20.5128 C   0  0  2  0  0  0  0  0  0  0  0  0
  -10.8346    9.1420   21.6319 N   0  3  0  0  0  0  0  0  0  0  0  0
  -11.0088    7.8246   19.4504 C   0  0  2  0  0  0  0  0  0  0  0  0
  -12.0123    7.4774   18.3207 C   0  0  2  0  0  0  0  0  0  0  0  0
  -11.3356    6.8098   17.2832 O   0  0  0  0  0  0  0  0  0  0  0  0
  -12.6242    8.7534   17.7202 C   0  0  1  0  0  0  0  0  0  0  0  0
  -13.5626    8.3844   16.7103 O   0  0  0  0  0  0  0  0  0  0  0  0
  -13.2509    8.7188   15.4017 C   0  0  2  0  0  0  0  0  0  0  0  0
  -14.5334    9.1802   14.6886 C   0  0  2  0  0  0  0  0  0  0  0  0
  -15.0581   10.3062   15.3805 O   0  0  0  0  0  0  0  0  0  0  0  0
  -15.5606    8.0345   14.6902 C   0  0  1  0  0  0  0  0  0  0  0  0
  -16.8370    8.4314   14.0287 N   0  3  0  0  0  0  0  0  0  0  0  0
  -14.9462    6.7970   13.9914 C   0  0  2  0  0  0  0  0  0  0  0  0
  -15.8676    5.7091   14.0001 O   0  0  0  0  0  0  0  0  0  0  0  0
  -13.6285    6.3966   14.6806 C   0  0  2  0  0  0  0  0  0  0  0  0
  -12.7081    7.5463   14.7410 O   0  0  0  0  0  0  0  0  0  0  0  0
  -12.9101    5.2910   13.9394 C   0  0  0  0  0  0  0  0  0  0  0  0
  -13.6984    4.1046   13.8720 O   0  0  0  0  0  0  0  0  0  0  0  0
  1  2  1  6  0  0  0
  1  3  1  0  0  0  0
  1  9  1  0  0  0  0
  3  4  1  6  0  0  0
  3  5  1  0  0  0  0
  5  6  1  0  0  0  0
  6  7  1  6  0  0  0
  6  8  1  0  0  0  0
  8  9  1  0  0  0  0
  8 10  1  1  0  0  0
 10 11  1  0  0  0  0
 12 13  1  6  0  0  0
 12 14  1  0  0  0  0
 12 20  1  0  0  0  0
 14 15  1  0  0  0  0
 15 16  1  1  0  0  0
 15 17  1  0  0  0  0
 17  2  1  1  0  0  0
 17 18  1  0  0  0  0
 18 19  1  6  0  0  0
 18 20  1  0  0  0  0
 20 21  1  6  0  0  0
 22 21  1  1  0  0  0
 22 23  1  0  0  0  0
 22 30  1  0  0  0  0
 23 24  1  1  0  0  0
 23 25  1  0  0  0  0
 25 26  1  6  0  0  0
 25 27  1  0  0  0  0
 27 28  1  1  0  0  0
 27 29  1  0  0  0  0
 29 30  1  0  0  0  0
 29 31  1  6  0  0  0
 31 32  1  0  0  0  0
M  CHG  5   4   1  11   1  13   1  16   1  26   1
M  END
>  <CHROM.1>
-171.97463090,36.31552880,-170.58365070,176.71603066,63.98245047,177.23841874
59.22199419,57.73360257,60.46847756,124.89613804,-140.68672140,158.65643127
-71.00622145,-171.19544691,-61.03325592,-177.78656011,-12.90314125,6.80024816
17.86930988,-0.23142316,-1.06570279,0.09246672

>  <Name>
1lc4

>  <RI>
0

>  <Rbt.Current_Directory>
/home/afrankz/demos/rdock_decoys_rna/rnas/1lc4

>  <Rbt.Executable>
rbdock ($Id: //depot/dev/client3/rdock/2013.1/src/exe/rbdock.cxx#4 $)

>  <Rbt.Library>
libRbt.so (2013.1, Build901 2013/11/27)

>  <Rbt.Parameter_File>
/export/apps/rDock/src/rDock_2013.1_src/data/scripts/dock_solv.prm

>  <Rbt.Receptor>
prm/pocket_docking_4.prm

>  <SCORE>
-61.834

>  <SCORE.INTER>
-40.5212

>  <SCORE.INTER.CONST>
1

>  <SCORE.INTER.POLAR>
-6.60848

>  <SCORE.INTER.ROT>
6

>  <SCORE.INTER.SOLV>
22.7189

>  <SCORE.INTER.VDW>
-20.1588

>  <SCORE.INTER.norm>
-1.26629

>  <SCORE.INTRA>
-21.3128

>  <SCORE.INTRA.DIHEDRAL>
-25.9788

>  <SCORE.INTRA.DIHEDRAL.0>
44.2576

>  <SCORE.INTRA.POLAR>
-1.54081

>  <SCORE.INTRA.POLAR.0>
-0.381556

>  <SCORE.INTRA.REPUL>
0

>  <SCORE.INTRA.REPUL.0>
0

>  <SCORE.INTRA.SOLV>
0.672714

>  <SCORE.INTRA.SOLV.lig_0>
-134.592

>  <SCORE.INTRA.VDW>
-3.42101

>  <SCORE.INTRA.VDW.0>
-1.01417

>  <SCORE.INTRA.norm>
-0.666026

>  <SCORE.RESTR>
0

>  <SCORE.RESTR.CAVITY>
0

>  <SCORE.RESTR.norm>
0

>  <SCORE.SYSTEM>
0

>  <SCORE.SYSTEM.CONST>
0

>  <SCORE.SYSTEM.DIHEDRAL>
0

>  <SCORE.SYSTEM.SOLV>
0

>  <SCORE.SYSTEM.norm>
0

>  <SCORE.heavy>
32

>  <SCORE.norm>
-1.93231

>  <RMSD>
2.966

$$$$
1lc4
 OpenBabel02141814113D
libRbt.so/2013.1/901 2013/11/27
 32 34  0  0  0  0  0  0  0  0999 V2000
  -11.5608    6.0040   21.0130 C   0  0  2  0  0  0  0  0  0  0  0  0
  -10.7018    6.5478   20.0422 O   0  0  0  0  0  0  0  0  0  0  0  0
  -10.8167    4.8540   21.7221 C   0  0  2  0  0  0  0  0  0  0  0  0
   -9.5758    5.3467   22.3279 N   0  3  0  0  0  0  0  0  0  0  0  0
  -10.5400    3.7045   20.7248 C   0  0  0  0  0  0  0  0  0  0  0  0
  -11.8973    3.2312   20.1757 C   0  0  2  0  0  0  0  0  0  0  0  0
  -11.7164    2.1306   19.2785 O   0  0  0  0  0  0  0  0  0  0  0  0
  -12.6071    4.4168   19.4756 C   0  0  2  0  0  0  0  0  0  0  0  0
  -12.7802    5.5244   20.4047 O   0  0  0  0  0  0  0  0  0  0  0  0
  -13.9928    4.0661   18.9395 C   0  0  0  0  0  0  0  0  0  0  0  0
  -13.9104    3.0469   17.8605 N   0  3  0  0  0  0  0  0  0  0  0  0
  -13.3255    9.6195   18.7613 C   0  0  2  0  0  0  0  0  0  0  0  0
  -13.8635   10.8501   18.1531 N   0  3  0  0  0  0  0  0  0  0  0  0
  -12.3056    9.9759   19.8343 C   0  0  0  0  0  0  0  0  0  0  0  0
  -11.7358    8.7040   20.4722 C   0  0  2  0  0  0  0  0  0  0  0  0
  -10.8399    9.0996   21.5873 N   0  3  0  0  0  0  0  0  0  0  0  0
  -11.0619    7.7901   19.4054 C   0  0  2  0  0  0  0  0  0  0  0  0
  -12.0804    7.4726   18.2803 C   0  0  2  0  0  0  0  0  0  0  0  0
  -11.4278    6.7874   17.2388 O   0  0  0  0  0  0  0  0  0  0  0  0
  -12.6589    8.7662   17.6841 C   0  0  1  0  0  0  0  0  0  0  0  0
  -13.6123    8.4249   16.6784 O   0  0  0  0  0  0  0  0  0  0  0  0
  -13.4828    9.0440   15.4450 C   0  0  2  0  0  0  0  0  0  0  0  0
  -14.8854    9.2868   14.8620 C   0  0  2  0  0  0  0  0  0  0  0  0
  -15.6146   10.1124   15.7613 O   0  0  0  0  0  0  0  0  0  0  0  0
  -15.6054    7.9389   14.6818 C   0  0  1  0  0  0  0  0  0  0  0  0
  -16.9830    8.1130   14.1376 N   0  3  0  0  0  0  0  0  0  0  0  0
  -14.7631    7.0304   13.7532 C   0  0  2  0  0  0  0  0  0  0  0  0
  -15.3940    5.7626   13.5876 O   0  0  0  0  0  0  0  0  0  0  0  0
  -13.3427    6.8585   14.3228 C   0  0  2  0  0  0  0  0  0  0  0  0
  -12.7227    8.1732   14.5675 O   0  0  0  0  0  0  0  0  0  0  0  0
  -12.4343    6.1088   13.3738 C   0  0  0  0  0  0  0  0  0  0  0  0
  -12.8927    4.7774   13.1486 O   0  0  0  0  0  0  0  0  0  0  0  0
  1  2  1  6  0  0  0
  1  3  1  0  0  0  0
  1  9  1  0  0  0  0
  3  4  1  6  0  0  0
  3  5  1  0  0  0  0
  5  6  1  0  0  0  0
  6  7  1  6  0  0  0
  6  8  1  0  0  0  0
  8  9  1  0  0  0  0
  8 10  1  1  0  0  0
 10 11  1  0  0  0  0
 12 13  1  6  0  0  0
 12 14  1  0  0  0  0
 12 20  1  0  0  0  0
 14 15  1  0  0  0  0
 15 16  1  1  0  0  0
 15 17  1  0  0  0  0
 17  2  1  1  0  0  0
 17 18  1  0  0  0  0
 18 19  1  6  0  0  0
 18 20  1  0  0  0  0
 20 21  1  6  0  0  0
 22 21  1  1  0  0  0
 22 23  1  0  0  0  0
 22 30  1  0  0  0  0
 23 24  1  1  0  0  0
 23 25  1  0  0  0  0
 25 26  1  6  0  0  0
 25 27  1  0  0  0  0
 27 28  1  1  0  0  0
 27 29  1  0  0  0  0
 29 30  1  0  0  0  0
 29 31  1  6  0  0  0
 31 32  1  0  0  0  0
M  CHG  5   4   1  11   1  13   1  16   1  26   1
M  END
>  <CHROM.1>
-168.80367108,37.24313760,-46.90927775,-22.75906718,-64.61425681,167.84423060
69.03122047,57.83611491,63.54067067,108.37368491,-145.17516317,-79.25072457
-63.76781106,-170.74574005,-63.07862804,-176.76184444,-12.85972235,6.83619810
17.71161588,-0.08681820,-1.09267651,0.26722701

>  <Name>
1lc4

>  <RI>
0

>  <Rbt.Current_Directory>
/home/afrankz/demos/rdock_decoys_rna/rnas/1lc4

>  <Rbt.Executable>
rbdock ($Id: //depot/dev/client3/rdock/2013.1/src/exe/rbdock.cxx#4 $)

>  <Rbt.Library>
libRbt.so (2013.1, Build901 2013/11/27)

>  <Rbt.Parameter_File>
/export/apps/rDock/src/rDock_2013.1_src/data/scripts/dock_solv.prm

>  <Rbt.Receptor>
prm/pocket_docking_4.prm

>  <SCORE>
-58.3369

>  <SCORE.INTER>
-39.7713

>  <SCORE.INTER.CONST>
1

>  <SCORE.INTER.POLAR>
-6.35553

>  <SCORE.INTER.ROT>
6

>  <SCORE.INTER.SOLV>
20.9625

>  <SCORE.INTER.VDW>
-19.9166

>  <SCORE.INTER.norm>
-1.24285

>  <SCORE.INTRA>
-18.5693

>  <SCORE.INTRA.DIHEDRAL>
-22.0102

>  <SCORE.INTRA.DIHEDRAL.0>
44.2576

>  <SCORE.INTRA.POLAR>
-1.78507

>  <SCORE.INTRA.POLAR.0>
-0.381556

>  <SCORE.INTRA.REPUL>
0

>  <SCORE.INTRA.REPUL.0>
0

>  <SCORE.INTRA.SOLV>
1.37538

>  <SCORE.INTRA.SOLV.lig_0>
-134.592

>  <SCORE.INTRA.VDW>
-2.18269

>  <SCORE.INTRA.VDW.0>
-1.01417

>  <SCORE.INTRA.norm>
-0.580292

>  <SCORE.RESTR>
0.00375253

>  <SCORE.RESTR.CAVITY>
0.00375253

>  <SCORE.RESTR.norm>
0.000117267

>  <SCORE.SYSTEM>
0

>  <SCORE.SYSTEM.CONST>
0

>  <SCORE.SYSTEM.DIHEDRAL>
0

>  <SCORE.SYSTEM.SOLV>
0

>  <SCORE.SYSTEM.norm>
0

>  <SCORE.heavy>
32

>  <SCORE.norm>
-1.82303

>  <RMSD>
2.981

$$$$
1lc4
 OpenBabel02141814113D
libRbt.so/2013.1/901 2013/11/27
 32 34  0  0  0  0  0  0  0  0999 V2000
  -11.3043    8.1535   21.0758 C   0  0  2  0  0  0  0  0  0  0  0  0
  -10.9747    8.8355   19.8916 O   0  0  0  0  0  0  0  0  0  0  0  0
   -9.9929    7.7954   21.8043 C   0  0  2  0  0  0  0  0  0  0  0  0
   -9.2198    9.0084   22.0883 N   0  3  0  0  0  0  0  0  0  0  0  0
   -9.1741    6.7890   20.9621 C   0  0  0  0  0  0  0  0  0  0  0  0
  -10.0498    5.5413   20.7515 C   0  0  2  0  0  0  0  0  0  0  0  0
   -9.3310    4.5452   20.0165 O   0  0  0  0  0  0  0  0  0  0  0  0
  -11.3530    5.9488   20.0200 C   0  0  2  0  0  0  0  0  0  0  0  0
  -12.0675    6.9622   20.7834 O   0  0  0  0  0  0  0  0  0  0  0  0
  -12.3212    4.7875   19.8085 C   0  0  0  0  0  0  0  0  0  0  0  0
  -12.9131    4.3390   21.0961 N   0  3  0  0  0  0  0  0  0  0  0  0
  -14.9646    9.3409   18.5553 C   0  0  2  0  0  0  0  0  0  0  0  0
  -16.1566    9.8033   17.8210 N   0  3  0  0  0  0  0  0  0  0  0  0
  -14.3199   10.5117   19.2848 C   0  0  0  0  0  0  0  0  0  0  0  0
  -13.0765   10.0443   20.0496 C   0  0  2  0  0  0  0  0  0  0  0  0
  -12.5528   11.1882   20.8368 N   0  3  0  0  0  0  0  0  0  0  0  0
  -12.0327    9.3984   19.0900 C   0  0  2  0  0  0  0  0  0  0  0  0
  -12.7017    8.2428   18.3022 C   0  0  2  0  0  0  0  0  0  0  0  0
  -11.8110    7.7687   17.3214 O   0  0  0  0  0  0  0  0  0  0  0  0
  -13.9633    8.7345   17.5742 C   0  0  1  0  0  0  0  0  0  0  0  0
  -14.5612    7.6331   16.8915 O   0  0  0  0  0  0  0  0  0  0  0  0
  -14.2717    7.4890   15.5437 C   0  0  2  0  0  0  0  0  0  0  0  0
  -14.8709    8.6807   14.7774 C   0  0  2  0  0  0  0  0  0  0  0  0
  -14.3010    9.8803   15.2854 O   0  0  0  0  0  0  0  0  0  0  0  0
  -16.3973    8.6987   14.9709 C   0  0  1  0  0  0  0  0  0  0  0  0
  -17.0334    9.8486   14.2659 N   0  3  0  0  0  0  0  0  0  0  0  0
  -16.9908    7.3581   14.4733 C   0  0  2  0  0  0  0  0  0  0  0  0
  -18.4036    7.3354   14.6636 O   0  0  0  0  0  0  0  0  0  0  0  0
  -16.3263    6.1777   15.2059 C   0  0  2  0  0  0  0  0  0  0  0  0
  -14.8600    6.2483   15.0738 O   0  0  0  0  0  0  0  0  0  0  0  0
  -16.7590    4.8415   14.6443 C   0  0  0  0  0  0  0  0  0  0  0  0
  -18.0776    4.8998   14.1049 O   0  0  0  0  0  0  0  0  0  0  0  0
  1  2  1  6  0  0  0
  1  3  1  0  0  0  0
  1  9  1  0  0  0  0
  3  4  1  6  0  0  0
  3  5  1  0  0  0  0
  5  6  1  0  0  0  0
  6  7  1  6  0  0  0
  6  8  1  0  0  0  0
  8  9  1  0  0  0  0
  8 10  1  1  0  0  0
 10 11  1  0  0  0  0
 12 13  1  6  0  0  0
 12 14  1  0  0  0  0
 12 20  1  0  0  0  0
 14 15  1  0  0  0  0
 15 16  1  6  0  0  0
 15 17  1  0  0  0  0
 17  2  1  1  0  0  0
 17 18  1  0  0  0  0
 18 19  1  6  0  0  0
 18 20  1  0  0  0  0
 20 21  1  1  0  0  0
 22 21  1  1  0  0  0
 22 23  1  0  0  0  0
 22 30  1  0  0  0  0
 23 24  1  1  0  0  0
 23 25  1  0  0  0  0
 25 26  1  6  0  0  0
 25 27  1  0  0  0  0
 27 28  1  1  0  0  0
 27 29  1  0  0  0  0
 29 30  1  0  0  0  0
 29 31  1  6  0  0  0
 31 32  1  0  0  0  0
M  CHG  5   4   1  11   1  13   1  16   1  26   1
M  END
>  <CHROM.1>
-173.92807119,41.11933969,-54.07851054,-179.02698342,69.60645743,56.09353674
-154.95934685,8.56669351,61.09265576,140.73904903,-65.86574307,56.82505504
-157.86069315,-174.62622649,-29.48142453,104.43795453,-13.55864822,7.71111221
18.01658921,0.10840634,-0.77831557,0.16891229

>  <Name>
1lc4

>  <RI>
0

>  <Rbt.Current_Directory>
/home/afrankz/demos/rdock_decoys_rna/rnas/1lc4

>  <Rbt.Executable>
rbdock ($Id: //depot/dev/client3/rdock/2013.1/src/exe/rbdock.cxx#4 $)

>  <Rbt.Library>
libRbt.so (2013.1, Build901 2013/11/27)

>  <Rbt.Parameter_File>
/export/apps/rDock/src/rDock_2013.1_src/data/scripts/dock_solv.prm

>  <Rbt.Receptor>
prm/pocket_docking_3.prm

>  <SCORE>
-48.4132

>  <SCORE.INTER>
-36.3714

>  <SCORE.INTER.CONST>
1

>  <SCORE.INTER.POLAR>
-6.83248

>  <SCORE.INTER.ROT>
6

>  <SCORE.INTER.SOLV>
27.2976

>  <SCORE.INTER.VDW>
-18.1719

>  <SCORE.INTER.norm>
-1.13661

>  <SCORE.INTRA>
-12.0564

>  <SCORE.INTRA.DIHEDRAL>
-21.7017

>  <SCORE.INTRA.DIHEDRAL.0>
44.2576

>  <SCORE.INTRA.POLAR>
-0.946348

>  <SCORE.INTRA.POLAR.0>
-0.381556

>  <SCORE.INTRA.REPUL>
0

>  <SCORE.INTRA.REPUL.0>
0

>  <SCORE.INTRA.SOLV>
3.08134

>  <SCORE.INTRA.SOLV.lig_0>
-134.592

>  <SCORE.INTRA.VDW>
0.4714

>  <SCORE.INTRA.VDW.0>
-1.01417

>  <SCORE.INTRA.norm>
-0.376762

>  <SCORE.RESTR>
0.0145583

>  <SCORE.RESTR.CAVITY>
0.0145583

>  <SCORE.RESTR.norm>
0.000454948

>  <SCORE.SYSTEM>
0

>  <SCORE.SYSTEM.CONST>
0

>  <SCORE.SYSTEM.DIHEDRAL>
0

>  <SCORE.SYSTEM.SOLV>
0

>  <SCORE.SYSTEM.norm>
0

>  <SCORE.heavy>
32

>  <SCORE.norm>
-1.51291

>  <RMSD>
3.031

$$$$
1lc4
 OpenBabel02141814113D
libRbt.so/2013.1/901 2013/11/27
 32 34  0  0  0  0  0  0  0  0999 V2000
  -11.3881    6.0915   21.1135 C   0  0  2  0  0  0  0  0  0  0  0  0
  -10.5385    6.7842   20.2335 O   0  0  0  0  0  0  0  0  0  0  0  0
  -10.6445    4.8340   21.6082 C   0  0  2  0  0  0  0  0  0  0  0  0
   -9.3900    5.2098   22.2676 N   0  3  0  0  0  0  0  0  0  0  0  0
  -10.3935    3.8657   20.4283 C   0  0  0  0  0  0  0  0  0  0  0  0
  -11.7632    3.5003   19.8300 C   0  0  2  0  0  0  0  0  0  0  0  0
  -11.6061    2.5641   18.7584 O   0  0  0  0  0  0  0  0  0  0  0  0
  -12.4721    4.7911   19.3496 C   0  0  2  0  0  0  0  0  0  0  0  0
  -12.6210    5.7288   20.4535 O   0  0  0  0  0  0  0  0  0  0  0  0
  -13.8690    4.5445   18.7850 C   0  0  0  0  0  0  0  0  0  0  0  0
  -14.5982    5.8228   18.5755 N   0  3  0  0  0  0  0  0  0  0  0  0
  -13.4761    9.5453   18.9269 C   0  0  2  0  0  0  0  0  0  0  0  0
  -14.1447   10.6969   18.2940 N   0  3  0  0  0  0  0  0  0  0  0  0
  -12.4689   10.0347   19.9586 C   0  0  0  0  0  0  0  0  0  0  0  0
  -11.7640    8.8460   20.6215 C   0  0  2  0  0  0  0  0  0  0  0  0
  -10.8830    9.3642   21.6976 N   0  3  0  0  0  0  0  0  0  0  0  0
  -11.0320    7.9634   19.5667 C   0  0  2  0  0  0  0  0  0  0  0  0
  -12.0428    7.5110   18.4816 C   0  0  2  0  0  0  0  0  0  0  0  0
  -11.3534    6.8548   17.4452 O   0  0  0  0  0  0  0  0  0  0  0  0
  -12.7574    8.7218   17.8599 C   0  0  1  0  0  0  0  0  0  0  0  0
  -13.6982    8.2562   16.8930 O   0  0  0  0  0  0  0  0  0  0  0  0
  -13.2819    8.2141   15.5715 C   0  0  2  0  0  0  0  0  0  0  0  0
  -14.0923    9.2416   14.7630 C   0  0  2  0  0  0  0  0  0  0  0  0
  -13.8697   10.5325   15.3160 O   0  0  0  0  0  0  0  0  0  0  0  0
  -15.5878    8.8869   14.8369 C   0  0  1  0  0  0  0  0  0  0  0  0
  -16.4285    9.8637   14.0865 N   0  3  0  0  0  0  0  0  0  0  0  0
  -15.8000    7.4533   14.2921 C   0  0  2  0  0  0  0  0  0  0  0  0
  -17.1754    7.0866   14.3717 O   0  0  0  0  0  0  0  0  0  0  0  0
  -14.9266    6.4531   15.0722 C   0  0  2  0  0  0  0  0  0  0  0  0
  -13.5153    6.8781   15.0550 O   0  0  0  0  0  0  0  0  0  0  0  0
  -14.9794    5.0639   14.4762 C   0  0  0  0  0  0  0  0  0  0  0  0
  -16.3164    4.5738   14.4024 O   0  0  0  0  0  0  0  0  0  0  0  0
  1  2  1  6  0  0  0
  1  3  1  0  0  0  0
  1  9  1  0  0  0  0
  3  4  1  6  0  0  0
  3  5  1  0  0  0  0
  5  6  1  0  0  0  0
  6  7  1  6  0  0  0
  6  8  1  0  0  0  0
  8  9  1  0  0  0  0
  8 10  1  1  0  0  0
 10 11  1  0  0  0  0
 12 13  1  6  0  0  0
 12 14  1  0  0  0  0
 12 20  1  0  0  0  0
 14 15  1  0  0  0  0
 15 16  1  1  0  0  0
 15 17  1  0  0  0  0
 17  2  1  1  0  0  0
 17 18  1  0  0  0  0
 18 19  1  6  0  0  0
 18 20  1  0  0  0  0
 20 21  1  6  0  0  0
 22 21  1  1  0  0  0
 22 23  1  0  0  0  0
 22 30  1  0  0  0  0
 23 24  1  1  0  0  0
 23 25  1  0  0  0  0
 25 26  1  6  0  0  0
 25 27  1  0  0  0  0
 27 28  1  1  0  0  0
 27 29  1  0  0  0  0
 29 30  1  0  0  0  0
 29 31  1  6  0  0  0
 31 32  1  0  0  0  0
M  CHG  5   4   1  11   1  13   1  16   1  26   1
M  END
>  <CHROM.1>
176.34552808,45.75210192,-172.36484594,38.99712535,169.46208440,68.18952068
-144.07724564,170.46171717,72.01270732,143.05710549,-113.66585632,101.62220816
-150.36873647,-52.97362908,-56.60092044,-171.65277963,-13.11423248,7.06143277
17.89716430,-0.26064804,-0.93724878,0.03752709

>  <Name>
1lc4

>  <RI>
0

>  <Rbt.Current_Directory>
/home/afrankz/demos/rdock_decoys_rna/rnas/1lc4

>  <Rbt.Executable>
rbdock ($Id: //depot/dev/client3/rdock/2013.1/src/exe/rbdock.cxx#4 $)

>  <Rbt.Library>
libRbt.so (2013.1, Build901 2013/11/27)

>  <Rbt.Parameter_File>
/export/apps/rDock/src/rDock_2013.1_src/data/scripts/dock_solv.prm

>  <Rbt.Receptor>
prm/pocket_docking_3.prm

>  <SCORE>
-53.4009

>  <SCORE.INTER>
-39.1608

>  <SCORE.INTER.CONST>
1

>  <SCORE.INTER.POLAR>
-7.30196

>  <SCORE.INTER.ROT>
6

>  <SCORE.INTER.SOLV>
27.5967

>  <SCORE.INTER.VDW>
-18.5662

>  <SCORE.INTER.norm>
-1.22377

>  <SCORE.INTRA>
-14.4069

>  <SCORE.INTRA.DIHEDRAL>
-17.3085

>  <SCORE.INTRA.DIHEDRAL.0>
44.2576

>  <SCORE.INTRA.POLAR>
-1.7103

>  <SCORE.INTRA.POLAR.0>
-0.381556

>  <SCORE.INTRA.REPUL>
0

>  <SCORE.INTRA.REPUL.0>
0

>  <SCORE.INTRA.SOLV>
5.1203

>  <SCORE.INTRA.SOLV.lig_0>
-134.592

>  <SCORE.INTRA.VDW>
-2.49774

>  <SCORE.INTRA.VDW.0>
-1.01417

>  <SCORE.INTRA.norm>
-0.450215

>  <SCORE.RESTR>
0.166731

>  <SCORE.RESTR.CAVITY>
0.166731

>  <SCORE.RESTR.norm>
0.00521034

>  <SCORE.SYSTEM>
0

>  <SCORE.SYSTEM.CONST>
0

>  <SCORE.SYSTEM.DIHEDRAL>
0

>  <SCORE.SYSTEM.SOLV>
0

>  <SCORE.SYSTEM.norm>
0

>  <SCORE.heavy>
32

>  <SCORE.norm>
-1.66878

>  <RMSD>
3.040

$$$$
1lc4
 OpenBabel02141814113D
libRbt.so/2013.1/901 2013/11/27
 32 34  0  0  0  0  0  0  0  0999 V2000
  -10.4696    4.8481   19.9823 C   0  0  2  0  0  0  0  0  0  0  0  0
  -11.4787    5.8098   20.1634 O   0  0  0  0  0  0  0  0  0  0  0  0
  -10.6491    3.7560   21.0565 C   0  0  2  0  0  0  0  0  0  0  0  0
  -11.9815    3.1530   20.9528 N   0  3  0  0  0  0  0  0  0  0  0  0
  -10.4065    4.3494   22.4642 C   0  0  0  0  0  0  0  0  0  0  0  0
   -8.9774    4.9193   22.4864 C   0  0  2  0  0  0  0  0  0  0  0  0
   -8.6691    5.4437   23.7822 O   0  0  0  0  0  0  0  0  0  0  0  0
   -8.8440    6.0082   21.3928 C   0  0  2  0  0  0  0  0  0  0  0  0
   -9.1622    5.4544   20.0843 O   0  0  0  0  0  0  0  0  0  0  0  0
   -7.4416    6.6034   21.2939 C   0  0  0  0  0  0  0  0  0  0  0  0
   -7.4621    8.0710   21.5288 N   0  3  0  0  0  0  0  0  0  0  0  0
  -13.0762    8.2253   17.0692 C   0  0  2  0  0  0  0  0  0  0  0  0
  -13.2779    9.3077   16.0886 N   0  3  0  0  0  0  0  0  0  0  0  0
  -13.0986    8.7954   18.4809 C   0  0  0  0  0  0  0  0  0  0  0  0
  -12.8861    7.6797   19.5102 C   0  0  2  0  0  0  0  0  0  0  0  0
  -13.0337    8.2601   20.8680 N   0  3  0  0  0  0  0  0  0  0  0  0
  -11.5334    6.9435   19.2742 C   0  0  2  0  0  0  0  0  0  0  0  0
  -11.4823    6.4119   17.8186 C   0  0  2  0  0  0  0  0  0  0  0  0
  -10.2008    5.8938   17.5550 O   0  0  0  0  0  0  0  0  0  0  0  0
  -11.7322    7.5466   16.8120 C   0  0  1  0  0  0  0  0  0  0  0  0
  -11.7082    7.0059   15.4915 O   0  0  0  0  0  0  0  0  0  0  0  0
  -12.6892    6.0823   15.1660 C   0  0  2  0  0  0  0  0  0  0  0  0
  -12.0807    5.0191   14.2357 C   0  0  2  0  0  0  0  0  0  0  0  0
  -11.0032    4.3854   14.9135 O   0  0  0  0  0  0  0  0  0  0  0  0
  -11.5710    5.6944   12.9504 C   0  0  1  0  0  0  0  0  0  0  0  0
  -10.9489    4.7128   12.0159 N   0  3  0  0  0  0  0  0  0  0  0  0
  -12.7444    6.4340   12.2626 C   0  0  2  0  0  0  0  0  0  0  0  0
  -12.2962    7.0919   11.0798 O   0  0  0  0  0  0  0  0  0  0  0  0
  -13.3807    7.4435   13.2361 C   0  0  2  0  0  0  0  0  0  0  0  0
  -13.7710    6.7747   14.4903 O   0  0  0  0  0  0  0  0  0  0  0  0
  -14.6288    8.0785   12.6643 C   0  0  0  0  0  0  0  0  0  0  0  0
  -15.1972    9.0257   13.5660 O   0  0  0  0  0  0  0  0  0  0  0  0
  1  2  1  1  0  0  0
  1  3  1  0  0  0  0
  1  9  1  0  0  0  0
  3  4  1  1  0  0  0
  3  5  1  0  0  0  0
  5  6  1  0  0  0  0
  6  7  1  1  0  0  0
  6  8  1  0  0  0  0
  8  9  1  0  0  0  0
  8 10  1  6  0  0  0
 10 11  1  0  0  0  0
 12 13  1  6  0  0  0
 12 14  1  0  0  0  0
 12 20  1  0  0  0  0
 14 15  1  0  0  0  0
 15 16  1  1  0  0  0
 15 17  1  0  0  0  0
 17  2  1  1  0  0  0
 17 18  1  0  0  0  0
 18 19  1  6  0  0  0
 18 20  1  0  0  0  0
 20 21  1  6  0  0  0
 22 21  1  6  0  0  0
 22 23  1  0  0  0  0
 22 30  1  0  0  0  0
 23 24  1  1  0  0  0
 23 25  1  0  0  0  0
 25 26  1  6  0  0  0
 25 27  1  0  0  0  0
 27 28  1  6  0  0  0
 27 29  1  0  0  0  0
 29 30  1  0  0  0  0
 29 31  1  6  0  0  0
 31 32  1  0  0  0  0
M  CHG  5   4   1  11   1  13   1  16   1  26   1
M  END
>  <CHROM.1>
-179.80760877,168.81366260,68.42588025,60.74237407,-120.73876000,-96.26495008
88.44208149,-172.68608973,172.82653073,-58.07198388,-143.95965792,178.00410547
-67.14241953,-57.86366286,-179.11454896,179.12202660,-11.48981790,6.42491239
17.50723225,-0.98512555,0.84990068,-1.87806083

>  <Name>
1lc4

>  <RI>
0

>  <Rbt.Current_Directory>
/home/afrankz/demos/rdock_decoys_rna/rnas/1lc4

>  <Rbt.Executable>
rbdock ($Id: //depot/dev/client3/rdock/2013.1/src/exe/rbdock.cxx#4 $)

>  <Rbt.Library>
libRbt.so (2013.1, Build901 2013/11/27)

>  <Rbt.Parameter_File>
/export/apps/rDock/src/rDock_2013.1_src/data/scripts/dock_solv.prm

>  <Rbt.Receptor>
prm/pocket_docking_3.prm

>  <SCORE>
-61.1543

>  <SCORE.INTER>
-39.1227

>  <SCORE.INTER.CONST>
1

>  <SCORE.INTER.POLAR>
-4.58164

>  <SCORE.INTER.ROT>
6

>  <SCORE.INTER.SOLV>
21.2937

>  <SCORE.INTER.VDW>
-25.5076

>  <SCORE.INTER.norm>
-1.22258

>  <SCORE.INTRA>
-22.0462

>  <SCORE.INTRA.DIHEDRAL>
-28.7808

>  <SCORE.INTRA.DIHEDRAL.0>
44.2576

>  <SCORE.INTRA.POLAR>
-1.652

>  <SCORE.INTRA.POLAR.0>
-0.381556

>  <SCORE.INTRA.REPUL>
0

>  <SCORE.INTRA.REPUL.0>
0

>  <SCORE.INTRA.SOLV>
-2.26253

>  <SCORE.INTRA.SOLV.lig_0>
-134.592

>  <SCORE.INTRA.VDW>
-0.907741

>  <SCORE.INTRA.VDW.0>
-1.01417

>  <SCORE.INTRA.norm>
-0.688943

>  <SCORE.RESTR>
0.0145962

>  <SCORE.RESTR.CAVITY>
0.0145962

>  <SCORE.RESTR.norm>
0.000456132

>  <SCORE.SYSTEM>
0

>  <SCORE.SYSTEM.CONST>
0

>  <SCORE.SYSTEM.DIHEDRAL>
0

>  <SCORE.SYSTEM.SOLV>
0

>  <SCORE.SYSTEM.norm>
0

>  <SCORE.heavy>
32

>  <SCORE.norm>
-1.91107

>  <RMSD>
3.102

$$$$
1lc4
 OpenBabel02141814113D
libRbt.so/2013.1/901 2013/11/27
 32 34  0  0  0  0  0  0  0  0999 V2000
  -12.0185    8.2852   20.3649 C   0  0  2  0  0  0  0  0  0  0  0  0
  -11.5659    9.1331   19.3391 O   0  0  0  0  0  0  0  0  0  0  0  0
  -10.7874    7.7574   21.1295 C   0  0  2  0  0  0  0  0  0  0  0  0
  -10.0058    8.8739   21.6702 N   0  3  0  0  0  0  0  0  0  0  0  0
   -9.9288    6.8640   20.2037 C   0  0  0  0  0  0  0  0  0  0  0  0
  -10.8200    5.7061   19.7212 C   0  0  2  0  0  0  0  0  0  0  0  0
  -10.0700    4.8100   18.8943 O   0  0  0  0  0  0  0  0  0  0  0  0
  -12.0411    6.2827   18.9623 C   0  0  2  0  0  0  0  0  0  0  0  0
  -12.7887    7.1910   19.8203 O   0  0  0  0  0  0  0  0  0  0  0  0
  -13.0217    5.2141   18.4855 C   0  0  0  0  0  0  0  0  0  0  0  0
  -12.6928    4.7574   17.1096 N   0  3  0  0  0  0  0  0  0  0  0  0
  -15.3475   10.8619   18.5203 C   0  0  2  0  0  0  0  0  0  0  0  0
  -16.4120   11.7459   18.0112 N   0  3  0  0  0  0  0  0  0  0  0  0
  -14.3944   11.6555   19.4037 C   0  0  0  0  0  0  0  0  0  0  0  0
  -13.2802   10.7478   19.9365 C   0  0  2  0  0  0  0  0  0  0  0  0
  -12.4484   11.5326   20.8825 N   0  3  0  0  0  0  0  0  0  0  0  0
  -12.4782   10.0945   18.7716 C   0  0  2  0  0  0  0  0  0  0  0  0
  -13.4533    9.3337   17.8367 C   0  0  2  0  0  0  0  0  0  0  0  0
  -12.7561    8.8843   16.7000 O   0  0  0  0  0  0  0  0  0  0  0  0
  -14.5773   10.2608   17.3462 C   0  0  1  0  0  0  0  0  0  0  0  0
  -15.4655    9.5113   16.5179 O   0  0  0  0  0  0  0  0  0  0  0  0
  -15.8729   10.0984   15.3302 C   0  0  2  0  0  0  0  0  0  0  0  0
  -17.2897    9.6036   14.9925 C   0  0  2  0  0  0  0  0  0  0  0  0
  -18.1629    9.9666   16.0545 O   0  0  0  0  0  0  0  0  0  0  0  0
  -17.2714    8.0742   14.8242 C   0  0  1  0  0  0  0  0  0  0  0  0
  -18.6264    7.5328   14.5157 N   0  3  0  0  0  0  0  0  0  0  0  0
  -16.2660    7.6953   13.7094 C   0  0  2  0  0  0  0  0  0  0  0  0
  -16.2086    6.2799   13.5478 O   0  0  0  0  0  0  0  0  0  0  0  0
  -14.8713    8.2603   14.0366 C   0  0  2  0  0  0  0  0  0  0  0  0
  -14.9473    9.7118   14.2814 O   0  0  0  0  0  0  0  0  0  0  0  0
  -13.8912    8.0517   12.9035 C   0  0  0  0  0  0  0  0  0  0  0  0
  -13.5737    6.6725   12.7301 O   0  0  0  0  0  0  0  0  0  0  0  0
  1  2  1  6  0  0  0
  1  3  1  0  0  0  0
  1  9  1  0  0  0  0
  3  4  1  6  0  0  0
  3  5  1  0  0  0  0
  5  6  1  0  0  0  0
  6  7  1  6  0  0  0
  6  8  1  0  0  0  0
  8  9  1  0  0  0  0
  8 10  1  1  0  0  0
 10 11  1  0  0  0  0
 12 13  1  6  0  0  0
 12 14  1  0  0  0  0
 12 20  1  0  0  0  0
 14 15  1  0  0  0  0
 15 16  1  1  0  0  0
 15 17  1  0  0  0  0
 17  2  1  1  0  0  0
 17 18  1  0  0  0  0
 18 19  1  6  0  0  0
 18 20  1  0  0  0  0
 20 21  1  6  0  0  0
 22 21  1  1  0  0  0
 22 23  1  0  0  0  0
 22 30  1  0  0  0  0
 23 24  1  1  0  0  0
 23 25  1  0  0  0  0
 25 26  1  6  0  0  0
 25 27  1  0  0  0  0
 27 28  1  1  0  0  0
 27 29  1  0  0  0  0
 29 30  1  0  0  0  0
 29 31  1  6  0  0  0
 31 32  1  0  0  0  0
M  CHG  5   4   1  11   1  13   1  16   1  26   1
M  END
>  <CHROM.1>
-159.33325205,42.80097114,-179.05766731,174.71849018,-91.35887542,-77.40027352
-176.37941948,8.96543238,57.08804658,103.03231730,-149.07636461,-67.50404397
68.70356283,61.96394594,-68.31200521,-60.22536079,-13.86242484,8.45371012
17.36801304,0.43685095,-0.73295890,0.72021133

>  <Name>
1lc4

>  <RI>
0

>  <Rbt.Current_Directory>
/home/afrankz/demos/rdock_decoys_rna/rnas/1lc4

>  <Rbt.Executable>
rbdock ($Id: //depot/dev/client3/rdock/2013.1/src/exe/rbdock.cxx#4 $)

>  <Rbt.Library>
libRbt.so (2013.1, Build901 2013/11/27)

>  <Rbt.Parameter_File>
/export/apps/rDock/src/rDock_2013.1_src/data/scripts/dock_solv.prm

>  <Rbt.Receptor>
prm/pocket_docking_7.prm

>  <SCORE>
-44.457

>  <SCORE.INTER>
-30.8406

>  <SCORE.INTER.CONST>
1

>  <SCORE.INTER.POLAR>
-4.36062

>  <SCORE.INTER.ROT>
6

>  <SCORE.INTER.SOLV>
22.9719

>  <SCORE.INTER.VDW>
-21.2823

>  <SCORE.INTER.norm>
-0.963769

>  <SCORE.INTRA>
-13.6164

>  <SCORE.INTRA.DIHEDRAL>
-23.4723

>  <SCORE.INTRA.DIHEDRAL.0>
44.2576

>  <SCORE.INTRA.POLAR>
-0.00849468

>  <SCORE.INTRA.POLAR.0>
-0.381556

>  <SCORE.INTRA.REPUL>
0.0214594

>  <SCORE.INTRA.REPUL.0>
0

>  <SCORE.INTRA.SOLV>
2.27523

>  <SCORE.INTRA.SOLV.lig_0>
-134.592

>  <SCORE.INTRA.VDW>
-3.0963

>  <SCORE.INTRA.VDW.0>
-1.01417

>  <SCORE.INTRA.norm>
-0.425513

>  <SCORE.RESTR>
0

>  <SCORE.RESTR.CAVITY>
0

>  <SCORE.RESTR.norm>
0

>  <SCORE.SYSTEM>
0

>  <SCORE.SYSTEM.CONST>
0

>  <SCORE.SYSTEM.DIHEDRAL>
0

>  <SCORE.SYSTEM.SOLV>
0

>  <SCORE.SYSTEM.norm>
0

>  <SCORE.heavy>
32

>  <SCORE.norm>
-1.38928

>  <RMSD>
3.119

$$$$
1lc4
 OpenBabel02141814113D
libRbt.so/2013.1/901 2013/11/27
 32 34  0  0  0  0  0  0  0  0999 V2000
  -13.1010    5.2660   19.9059 C   0  0  2  0  0  0  0  0  0  0  0  0
  -13.9943    6.0985   20.6022 O   0  0  0  0  0  0  0  0  0  0  0  0
  -12.6014    4.1783   20.8786 C   0  0  2  0  0  0  0  0  0  0  0  0
  -13.7325    3.4135   21.4129 N   0  3  0  0  0  0  0  0  0  0  0  0
  -11.7687    4.8206   22.0128 C   0  0  0  0  0  0  0  0  0  0  0  0
  -10.5903    5.5630   21.3586 C   0  0  2  0  0  0  0  0  0  0  0  0
   -9.7479    6.1431   22.3601 O   0  0  0  0  0  0  0  0  0  0  0  0
  -11.1389    6.6415   20.3915 C   0  0  2  0  0  0  0  0  0  0  0  0
  -11.9927    6.0308   19.3825 O   0  0  0  0  0  0  0  0  0  0  0  0
  -10.0461    7.4037   19.6462 C   0  0  0  0  0  0  0  0  0  0  0  0
   -9.1532    8.1251   20.5907 N   0  3  0  0  0  0  0  0  0  0  0  0
  -16.9970    8.5631   18.9083 C   0  0  2  0  0  0  0  0  0  0  0  0
  -17.6941    9.6778   18.2408 N   0  3  0  0  0  0  0  0  0  0  0  0
  -16.3182    9.0626   20.1763 C   0  0  0  0  0  0  0  0  0  0  0  0
  -15.5865    7.9131   20.8780 C   0  0  2  0  0  0  0  0  0  0  0  0
  -15.0432    8.4184   22.1633 N   0  3  0  0  0  0  0  0  0  0  0  0
  -14.5197    7.2684   19.9433 C   0  0  2  0  0  0  0  0  0  0  0  0
  -15.1968    6.8110   18.6257 C   0  0  2  0  0  0  0  0  0  0  0  0
  -14.2110    6.3810   17.7184 O   0  0  0  0  0  0  0  0  0  0  0  0
  -15.9500    7.9762   17.9637 C   0  0  1  0  0  0  0  0  0  0  0  0
  -16.5821    7.5017   16.7755 O   0  0  0  0  0  0  0  0  0  0  0  0
  -15.7583    7.0918   15.7387 C   0  0  2  0  0  0  0  0  0  0  0  0
  -16.3559    7.5794   14.4078 C   0  0  2  0  0  0  0  0  0  0  0  0
  -16.4464    8.9980   14.4430 O   0  0  0  0  0  0  0  0  0  0  0  0
  -17.7545    6.9662   14.2192 C   0  0  1  0  0  0  0  0  0  0  0  0
  -18.3946    7.4213   12.9515 N   0  3  0  0  0  0  0  0  0  0  0  0
  -17.6434    5.4223   14.2503 C   0  0  2  0  0  0  0  0  0  0  0  0
  -18.9298    4.8254   14.1031 O   0  0  0  0  0  0  0  0  0  0  0  0
  -16.9800    4.9630   15.5620 C   0  0  2  0  0  0  0  0  0  0  0  0
  -15.6856    5.6424   15.7506 O   0  0  0  0  0  0  0  0  0  0  0  0
  -16.7064    3.4754   15.5726 C   0  0  0  0  0  0  0  0  0  0  0  0
  -16.3226    3.0205   16.8683 O   0  0  0  0  0  0  0  0  0  0  0  0
  1  2  1  1  0  0  0
  1  3  1  0  0  0  0
  1  9  1  0  0  0  0
  3  4  1  1  0  0  0
  3  5  1  0  0  0  0
  5  6  1  0  0  0  0
  6  7  1  1  0  0  0
  6  8  1  0  0  0  0
  8  9  1  0  0  0  0
  8 10  1  6  0  0  0
 10 11  1  0  0  0  0
 12 13  1  6  0  0  0
 12 14  1  0  0  0  0
 12 20  1  0  0  0  0
 14 15  1  0  0  0  0
 15 16  1  1  0  0  0
 15 17  1  0  0  0  0
 17  2  1  1  0  0  0
 17 18  1  0  0  0  0
 18 19  1  6  0  0  0
 18 20  1  0  0  0  0
 20 21  1  6  0  0  0
 22 21  1  1  0  0  0
 22 23  1  0  0  0  0
 22 30  1  0  0  0  0
 23 24  1  1  0  0  0
 23 25  1  0  0  0  0
 25 26  1  6  0  0  0
 25 27  1  0  0  0  0
 27 28  1  1  0  0  0
 27 29  1  0  0  0  0
 29 30  1  0  0  0  0
 29 31  1  6  0  0  0
 31 32  1  0  0  0  0
M  CHG  5   4   1  11   1  13   1  16   1  26   1
M  END
>  <CHROM.1>
174.83071328,174.07056276,-163.95208764,61.23977171,-60.88685806,151.71693968
-56.10501873,-158.28353066,-59.05121924,172.03349310,-139.44502580,170.59598240
-20.50073786,70.38766224,-169.33870127,66.73670996,-14.78304909,6.52759244
18.23661096,-0.27293194,0.78091474,-2.71579221

>  <Name>
1lc4

>  <RI>
0

>  <Rbt.Current_Directory>
/home/afrankz/demos/rdock_decoys_rna/rnas/1lc4

>  <Rbt.Executable>
rbdock ($Id: //depot/dev/client3/rdock/2013.1/src/exe/rbdock.cxx#4 $)

>  <Rbt.Library>
libRbt.so (2013.1, Build901 2013/11/27)

>  <Rbt.Parameter_File>
/export/apps/rDock/src/rDock_2013.1_src/data/scripts/dock_solv.prm

>  <Rbt.Receptor>
prm/pocket_docking_8.prm

>  <SCORE>
-60.506

>  <SCORE.INTER>
-42.0494

>  <SCORE.INTER.CONST>
1

>  <SCORE.INTER.POLAR>
-8.16156

>  <SCORE.INTER.ROT>
6

>  <SCORE.INTER.SOLV>
20.333

>  <SCORE.INTER.VDW>
-15.2054

>  <SCORE.INTER.norm>
-1.31405

>  <SCORE.INTRA>
-18.4566

>  <SCORE.INTRA.DIHEDRAL>
-30.5085

>  <SCORE.INTRA.DIHEDRAL.0>
44.2576

>  <SCORE.INTRA.POLAR>
-0.680439

>  <SCORE.INTRA.POLAR.0>
-0.381556

>  <SCORE.INTRA.REPUL>
0

>  <SCORE.INTRA.REPUL.0>
0

>  <SCORE.INTRA.SOLV>
-3.22477

>  <SCORE.INTRA.SOLV.lig_0>
-134.592

>  <SCORE.INTRA.VDW>
0.723559

>  <SCORE.INTRA.VDW.0>
-1.01417

>  <SCORE.INTRA.norm>
-0.576769

>  <SCORE.RESTR>
0

>  <SCORE.RESTR.CAVITY>
0

>  <SCORE.RESTR.norm>
0

>  <SCORE.SYSTEM>
0

>  <SCORE.SYSTEM.CONST>
0

>  <SCORE.SYSTEM.DIHEDRAL>
0

>  <SCORE.SYSTEM.SOLV>
0

>  <SCORE.SYSTEM.norm>
0

>  <SCORE.heavy>
32

>  <SCORE.norm>
-1.89081

>  <RMSD>
3.222

$$$$
1lc4
 OpenBabel02141814113D
libRbt.so/2013.1/901 2013/11/27
 32 34  0  0  0  0  0  0  0  0999 V2000
  -10.5726    6.3161   17.9868 C   0  0  2  0  0  0  0  0  0  0  0  0
  -11.8506    6.8824   18.1349 O   0  0  0  0  0  0  0  0  0  0  0  0
  -10.7153    4.7823   18.0642 C   0  0  2  0  0  0  0  0  0  0  0  0
  -11.6319    4.3024   17.0254 N   0  3  0  0  0  0  0  0  0  0  0  0
  -11.1921    4.3629   19.4747 C   0  0  0  0  0  0  0  0  0  0  0  0
  -10.1515    4.8746   20.4862 C   0  0  2  0  0  0  0  0  0  0  0  0
  -10.5086    4.4768   21.8142 O   0  0  0  0  0  0  0  0  0  0  0  0
  -10.0413    6.4154   20.3712 C   0  0  2  0  0  0  0  0  0  0  0  0
   -9.6783    6.7980   19.0140 O   0  0  0  0  0  0  0  0  0  0  0  0
   -8.9916    7.0217   21.2992 C   0  0  0  0  0  0  0  0  0  0  0  0
   -8.6296    8.3996   20.8749 N   0  3  0  0  0  0  0  0  0  0  0  0
  -14.6185    8.9122   15.6492 C   0  0  2  0  0  0  0  0  0  0  0  0
  -15.2240    9.8572   14.6931 N   0  3  0  0  0  0  0  0  0  0  0  0
  -14.0753    9.6706   16.8526 C   0  0  0  0  0  0  0  0  0  0  0  0
  -13.4395    8.6988   17.8530 C   0  0  2  0  0  0  0  0  0  0  0  0
  -13.0328    9.4651   19.0571 N   0  3  0  0  0  0  0  0  0  0  0  0
  -12.2857    7.8848   17.1945 C   0  0  2  0  0  0  0  0  0  0  0  0
  -12.8212    7.1574   15.9344 C   0  0  2  0  0  0  0  0  0  0  0  0
  -11.7481    6.5583   15.2491 O   0  0  0  0  0  0  0  0  0  0  0  0
  -13.4825    8.1525   14.9670 C   0  0  1  0  0  0  0  0  0  0  0  0
  -13.9876    7.4355   13.8411 O   0  0  0  0  0  0  0  0  0  0  0  0
  -14.5188    6.1771   14.0764 C   0  0  2  0  0  0  0  0  0  0  0  0
  -14.8095    5.5007   12.7258 C   0  0  2  0  0  0  0  0  0  0  0  0
  -13.5929    5.4010   11.9965 O   0  0  0  0  0  0  0  0  0  0  0  0
  -15.8282    6.3442   11.9394 C   0  0  1  0  0  0  0  0  0  0  0  0
  -16.1340    5.7470   10.6074 N   0  3  0  0  0  0  0  0  0  0  0  0
  -17.1205    6.4966   12.7782 C   0  0  2  0  0  0  0  0  0  0  0  0
  -18.0755    7.2964   12.0845 O   0  0  0  0  0  0  0  0  0  0  0  0
  -16.7937    7.1122   14.1515 C   0  0  2  0  0  0  0  0  0  0  0  0
  -15.7483    6.3275   14.8327 O   0  0  0  0  0  0  0  0  0  0  0  0
  -17.9978    7.1368   15.0667 C   0  0  0  0  0  0  0  0  0  0  0  0
  -19.1680    7.5819   14.3843 O   0  0  0  0  0  0  0  0  0  0  0  0
  1  2  1  1  0  0  0
  1  3  1  0  0  0  0
  1  9  1  0  0  0  0
  3  4  1  6  0  0  0
  3  5  1  0  0  0  0
  5  6  1  0  0  0  0
  6  7  1  1  0  0  0
  6  8  1  0  0  0  0
  8  9  1  0  0  0  0
  8 10  1  1  0  0  0
 10 11  1  0  0  0  0
 12 13  1  6  0  0  0
 12 14  1  0  0  0  0
 12 20  1  0  0  0  0
 14 15  1  0  0  0  0
 15 16  1  1  0  0  0
 15 17  1  0  0  0  0
 17  2  1  1  0  0  0
 17 18  1  0  0  0  0
 18 19  1  6  0  0  0
 18 20  1  0  0  0  0
 20 21  1  6  0  0  0
 22 21  1  6  0  0  0
 22 23  1  0  0  0  0
 22 30  1  0  0  0  0
 23 24  1  6  0  0  0
 23 25  1  0  0  0  0
 25 26  1  6  0  0  0
 25 27  1  0  0  0  0
 27 28  1  6  0  0  0
 27 29  1  0  0  0  0
 29 30  1  0  0  0  0
 29 31  1  1  0  0  0
 31 32  1  0  0  0  0
M  CHG  5   4   1  11   1  13   1  16   1  26   1
M  END
>  <CHROM.1>
-131.01082174,-159.31860405,168.35669361,179.47619522,162.69788568,-65.39291716
66.68627552,68.11923058,-175.90516138,-85.57551051,-171.73309246,-53.94797344
51.35161662,65.71897797,-44.38642891,168.13493807,-13.40699538,6.86995265
16.24013935,-0.49528007,0.70680083,-2.37122616

>  <Name>
1lc4

>  <RI>
0

>  <Rbt.Current_Directory>
/home/afrankz/demos/rdock_decoys_rna/rnas/1lc4

>  <Rbt.Executable>
rbdock ($Id: //depot/dev/client3/rdock/2013.1/src/exe/rbdock.cxx#4 $)

>  <Rbt.Library>
libRbt.so (2013.1, Build901 2013/11/27)

>  <Rbt.Parameter_File>
/export/apps/rDock/src/rDock_2013.1_src/data/scripts/dock_solv.prm

>  <Rbt.Receptor>
prm/pocket_docking_6.prm

>  <SCORE>
-56.6826

>  <SCORE.INTER>
-41.1773

>  <SCORE.INTER.CONST>
1

>  <SCORE.INTER.POLAR>
-6.35643

>  <SCORE.INTER.ROT>
6

>  <SCORE.INTER.SOLV>
28.6742

>  <SCORE.INTER.VDW>
-23.4215

>  <SCORE.INTER.norm>
-1.28679

>  <SCORE.INTRA>
-15.5053

>  <SCORE.INTRA.DIHEDRAL>
-28.7535

>  <SCORE.INTRA.DIHEDRAL.0>
44.2576

>  <SCORE.INTRA.POLAR>
-0.220736

>  <SCORE.INTRA.POLAR.0>
-0.381556

>  <SCORE.INTRA.REPUL>
0

>  <SCORE.INTRA.REPUL.0>
0

>  <SCORE.INTRA.SOLV>
0.587061

>  <SCORE.INTRA.SOLV.lig_0>
-134.592

>  <SCORE.INTRA.VDW>
-0.671639

>  <SCORE.INTRA.VDW.0>
-1.01417

>  <SCORE.INTRA.norm>
-0.484542

>  <SCORE.RESTR>
0

>  <SCORE.RESTR.CAVITY>
0

>  <SCORE.RESTR.norm>
0

>  <SCORE.SYSTEM>
0

>  <SCORE.SYSTEM.CONST>
0

>  <SCORE.SYSTEM.DIHEDRAL>
0

>  <SCORE.SYSTEM.SOLV>
0

>  <SCORE.SYSTEM.norm>
0

>  <SCORE.heavy>
32

>  <SCORE.norm>
-1.77133

>  <RMSD>
3.241

$$$$
1lc4
 OpenBabel02141814113D
libRbt.so/2013.1/901 2013/11/27
 32 34  0  0  0  0  0  0  0  0999 V2000
  -10.3415    5.8419   19.1172 C   0  0  2  0  0  0  0  0  0  0  0  0
  -11.6927    6.1888   19.2903 O   0  0  0  0  0  0  0  0  0  0  0  0
  -10.1590    4.3801   19.5742 C   0  0  2  0  0  0  0  0  0  0  0  0
  -11.0373    3.4924   18.8060 N   0  3  0  0  0  0  0  0  0  0  0  0
  -10.4251    4.2604   21.0932 C   0  0  0  0  0  0  0  0  0  0  0  0
   -9.4346    5.1936   21.8116 C   0  0  2  0  0  0  0  0  0  0  0  0
   -9.5950    5.0945   23.2307 O   0  0  0  0  0  0  0  0  0  0  0  0
   -9.6533    6.6465   21.3210 C   0  0  2  0  0  0  0  0  0  0  0  0
   -9.4864    6.7246   19.8767 O   0  0  0  0  0  0  0  0  0  0  0  0
   -8.6801    7.6496   21.9354 C   0  0  0  0  0  0  0  0  0  0  0  0
   -7.2987    7.4388   21.4286 N   0  3  0  0  0  0  0  0  0  0  0  0
  -14.3044    7.6942   16.3115 C   0  0  2  0  0  0  0  0  0  0  0  0
  -14.9975    8.5896   15.3673 N   0  3  0  0  0  0  0  0  0  0  0  0
  -14.5205    8.1796   17.7384 C   0  0  0  0  0  0  0  0  0  0  0  0
  -13.8012    7.2584   18.7300 C   0  0  2  0  0  0  0  0  0  0  0  0
  -14.1363    7.6989   20.1070 N   0  3  0  0  0  0  0  0  0  0  0  0
  -12.2728    7.1938   18.4345 C   0  0  2  0  0  0  0  0  0  0  0  0
  -12.0495    6.7560   16.9641 C   0  0  2  0  0  0  0  0  0  0  0  0
  -10.6817    6.8564   16.6491 O   0  0  0  0  0  0  0  0  0  0  0  0
  -12.8099    7.6776   15.9967 C   0  0  1  0  0  0  0  0  0  0  0  0
  -12.6017    7.2181   14.6617 O   0  0  0  0  0  0  0  0  0  0  0  0
  -13.0915    5.9621   14.3392 C   0  0  2  0  0  0  0  0  0  0  0  0
  -12.0201    5.2022   13.5386 C   0  0  2  0  0  0  0  0  0  0  0  0
  -10.8490    5.0918   14.3377 O   0  0  0  0  0  0  0  0  0  0  0  0
  -11.7050    5.9732   12.2448 C   0  0  1  0  0  0  0  0  0  0  0  0
  -10.6536    5.2931   11.4346 N   0  3  0  0  0  0  0  0  0  0  0  0
  -13.0050    6.1406   11.4208 C   0  0  2  0  0  0  0  0  0  0  0  0
  -12.7486    6.8748   10.2258 O   0  0  0  0  0  0  0  0  0  0  0  0
  -14.0841    6.8420   12.2666 C   0  0  2  0  0  0  0  0  0  0  0  0
  -14.2903    6.1245   13.5375 O   0  0  0  0  0  0  0  0  0  0  0  0
  -15.4212    6.8884   11.5608 C   0  0  0  0  0  0  0  0  0  0  0  0
  -16.0851    5.6274   11.6087 O   0  0  0  0  0  0  0  0  0  0  0  0
  1  2  1  1  0  0  0
  1  3  1  0  0  0  0
  1  9  1  0  0  0  0
  3  4  1  6  0  0  0
  3  5  1  0  0  0  0
  5  6  1  0  0  0  0
  6  7  1  1  0  0  0
  6  8  1  0  0  0  0
  8  9  1  0  0  0  0
  8 10  1  1  0  0  0
 10 11  1  0  0  0  0
 12 13  1  6  0  0  0
 12 14  1  0  0  0  0
 12 20  1  0  0  0  0
 14 15  1  0  0  0  0
 15 16  1  1  0  0  0
 15 17  1  0  0  0  0
 17  2  1  1  0  0  0
 17 18  1  0  0  0  0
 18 19  1  6  0  0  0
 18 20  1  0  0  0  0
 20 21  1  6  0  0  0
 22 21  1  6  0  0  0
 22 23  1  0  0  0  0
 22 30  1  0  0  0  0
 23 24  1  1  0  0  0
 23 25  1  0  0  0  0
 25 26  1  6  0  0  0
 25 27  1  0  0  0  0
 27 28  1  6  0  0  0
 27 29  1  0  0  0  0
 29 30  1  0  0  0  0
 29 31  1  6  0  0  0
 31 32  1  0  0  0  0
M  CHG  5   4   1  11   1  13   1  16   1  26   1
M  END
>  <CHROM.1>
-151.91690564,173.50743319,32.68203977,66.40053635,69.40937125,-33.21601635
73.11677545,-49.90526736,171.64954063,-58.00359533,-135.46097422,76.58950301
-167.65350525,-46.65776674,76.76452832,172.44265012,-11.98396923,6.36701586
16.69628228,-1.12181378,0.43418803,-1.73205721

>  <Name>
1lc4

>  <RI>
0

>  <Rbt.Current_Directory>
/home/afrankz/demos/rdock_decoys_rna/rnas/1lc4

>  <Rbt.Executable>
rbdock ($Id: //depot/dev/client3/rdock/2013.1/src/exe/rbdock.cxx#4 $)

>  <Rbt.Library>
libRbt.so (2013.1, Build901 2013/11/27)

>  <Rbt.Parameter_File>
/export/apps/rDock/src/rDock_2013.1_src/data/scripts/dock_solv.prm

>  <Rbt.Receptor>
prm/pocket_docking_3.prm

>  <SCORE>
-56.12

>  <SCORE.INTER>
-38.0041

>  <SCORE.INTER.CONST>
1

>  <SCORE.INTER.POLAR>
-5.16826

>  <SCORE.INTER.ROT>
6

>  <SCORE.INTER.SOLV>
17.8729

>  <SCORE.INTER.VDW>
-21.6662

>  <SCORE.INTER.norm>
-1.18763

>  <SCORE.INTRA>
-18.218

>  <SCORE.INTRA.DIHEDRAL>
-26.3396

>  <SCORE.INTRA.DIHEDRAL.0>
44.2576

>  <SCORE.INTRA.POLAR>
-0.754784

>  <SCORE.INTRA.POLAR.0>
-0.381556

>  <SCORE.INTRA.REPUL>
0

>  <SCORE.INTRA.REPUL.0>
0

>  <SCORE.INTRA.SOLV>
-1.44287

>  <SCORE.INTRA.SOLV.lig_0>
-134.592

>  <SCORE.INTRA.VDW>
-1.76054

>  <SCORE.INTRA.VDW.0>
-1.01417

>  <SCORE.INTRA.norm>
-0.569313

>  <SCORE.RESTR>
0.102125

>  <SCORE.RESTR.CAVITY>
0.102125

>  <SCORE.RESTR.norm>
0.0031914

>  <SCORE.SYSTEM>
0

>  <SCORE.SYSTEM.CONST>
0

>  <SCORE.SYSTEM.DIHEDRAL>
0

>  <SCORE.SYSTEM.SOLV>
0

>  <SCORE.SYSTEM.norm>
0

>  <SCORE.heavy>
32

>  <SCORE.norm>
-1.75375

>  <RMSD>
3.263

$$$$
1lc4
 OpenBabel02141814113D
libRbt.so/2013.1/901 2013/11/27
 32 34  0  0  0  0  0  0  0  0999 V2000
  -11.6542    7.1517   19.9415 C   0  0  2  0  0  0  0  0  0  0  0  0
  -11.2394    7.8974   18.8243 O   0  0  0  0  0  0  0  0  0  0  0  0
  -10.4522    6.3227   20.4383 C   0  0  2  0  0  0  0  0  0  0  0  0
   -9.3297    7.2036   20.7755 N   0  3  0  0  0  0  0  0  0  0  0  0
  -10.0487    5.2782   19.3711 C   0  0  0  0  0  0  0  0  0  0  0  0
  -11.2727    4.3815   19.1150 C   0  0  2  0  0  0  0  0  0  0  0  0
  -10.9517    3.3575   18.1676 O   0  0  0  0  0  0  0  0  0  0  0  0
  -12.4522    5.2554   18.6206 C   0  0  2  0  0  0  0  0  0  0  0  0
  -12.7614    6.2898   19.5976 O   0  0  0  0  0  0  0  0  0  0  0  0
  -13.7383    4.4666   18.3870 C   0  0  0  0  0  0  0  0  0  0  0  0
  -14.1607    3.7490   19.6184 N   0  3  0  0  0  0  0  0  0  0  0  0
  -15.1180    9.0694   17.5823 C   0  0  2  0  0  0  0  0  0  0  0  0
  -16.2340    9.7737   16.9249 N   0  3  0  0  0  0  0  0  0  0  0  0
  -14.3490   10.0360   18.4727 C   0  0  0  0  0  0  0  0  0  0  0  0
  -13.1831    9.3162   19.1595 C   0  0  2  0  0  0  0  0  0  0  0  0
  -12.5384   10.2628   20.1033 N   0  3  0  0  0  0  0  0  0  0  0  0
  -12.2093    8.6938   18.1146 C   0  0  2  0  0  0  0  0  0  0  0  0
  -12.9996    7.7534   17.1687 C   0  0  2  0  0  0  0  0  0  0  0  0
  -12.1568    7.3213   16.1280 O   0  0  0  0  0  0  0  0  0  0  0  0
  -14.1813    8.4940   16.5219 C   0  0  1  0  0  0  0  0  0  0  0  0
  -14.8963    7.5830   15.6878 O   0  0  0  0  0  0  0  0  0  0  0  0
  -14.5465    7.5419   14.3472 C   0  0  2  0  0  0  0  0  0  0  0  0
  -15.7611    7.9669   13.5042 C   0  0  2  0  0  0  0  0  0  0  0  0
  -16.1375    9.2851   13.8821 O   0  0  0  0  0  0  0  0  0  0  0  0
  -16.9255    6.9931   13.7565 C   0  0  1  0  0  0  0  0  0  0  0  0
  -18.1420    7.3683   12.9797 N   0  3  0  0  0  0  0  0  0  0  0  0
  -16.4742    5.5551   13.4022 C   0  0  2  0  0  0  0  0  0  0  0  0
  -17.5264    4.6255   13.6503 O   0  0  0  0  0  0  0  0  0  0  0  0
  -15.2171    5.1784   14.2080 C   0  0  2  0  0  0  0  0  0  0  0  0
  -14.1580    6.1845   14.0115 O   0  0  0  0  0  0  0  0  0  0  0  0
  -14.6461    3.8437   13.7832 C   0  0  0  0  0  0  0  0  0  0  0  0
  -13.6329    3.3955   14.6810 O   0  0  0  0  0  0  0  0  0  0  0  0
  1  2  1  6  0  0  0
  1  3  1  0  0  0  0
  1  9  1  0  0  0  0
  3  4  1  6  0  0  0
  3  5  1  0  0  0  0
  5  6  1  0  0  0  0
  6  7  1  6  0  0  0
  6  8  1  0  0  0  0
  8  9  1  0  0  0  0
  8 10  1  1  0  0  0
 10 11  1  0  0  0  0
 12 13  1  6  0  0  0
 12 14  1  0  0  0  0
 12 20  1  0  0  0  0
 14 15  1  0  0  0  0
 15 16  1  6  0  0  0
 15 17  1  0  0  0  0
 17  2  1  1  0  0  0
 17 18  1  0  0  0  0
 18 19  1  6  0  0  0
 18 20  1  0  0  0  0
 20 21  1  6  0  0  0
 22 21  1  1  0  0  0
 22 23  1  0  0  0  0
 22 30  1  0  0  0  0
 23 24  1  1  0  0  0
 23 25  1  0  0  0  0
 25 26  1  6  0  0  0
 25 27  1  0  0  0  0
 27 28  1  1  0  0  0
 27 29  1  0  0  0  0
 29 30  1  0  0  0  0
 29 31  1  6  0  0  0
 31 32  1  0  0  0  0
M  CHG  5   4   1  11   1  13   1  16   1  26   1
M  END
>  <CHROM.1>
175.90418059,37.78755060,-58.75520436,67.61832765,57.06784447,-56.96692126
29.77650184,104.29286282,60.95660246,144.65084649,-117.74526902,165.58396910
-16.02728721,66.94864437,-169.78641054,-54.89045158,-13.73584552,6.78671557
16.89519139,0.26330274,-0.82792268,0.35564450

>  <Name>
1lc4

>  <RI>
0

>  <Rbt.Current_Directory>
/home/afrankz/demos/rdock_decoys_rna/rnas/1lc4

>  <Rbt.Executable>
rbdock ($Id: //depot/dev/client3/rdock/2013.1/src/exe/rbdock.cxx#4 $)

>  <Rbt.Library>
libRbt.so (2013.1, Build901 2013/11/27)

>  <Rbt.Parameter_File>
/export/apps/rDock/src/rDock_2013.1_src/data/scripts/dock_solv.prm

>  <Rbt.Receptor>
prm/pocket_docking_4.prm

>  <SCORE>
-50.5875

>  <SCORE.INTER>
-35.755

>  <SCORE.INTER.CONST>
1

>  <SCORE.INTER.POLAR>
-6.47861

>  <SCORE.INTER.ROT>
6

>  <SCORE.INTER.SOLV>
16.5783

>  <SCORE.INTER.VDW>
-15.3674

>  <SCORE.INTER.norm>
-1.11734

>  <SCORE.INTRA>
-14.8326

>  <SCORE.INTRA.DIHEDRAL>
-20.3004

>  <SCORE.INTRA.DIHEDRAL.0>
44.2576

>  <SCORE.INTRA.POLAR>
-0.815652

>  <SCORE.INTRA.POLAR.0>
-0.381556

>  <SCORE.INTRA.REPUL>
0.000281063

>  <SCORE.INTRA.REPUL.0>
0

>  <SCORE.INTRA.SOLV>
-0.746543

>  <SCORE.INTRA.SOLV.lig_0>
-134.592

>  <SCORE.INTRA.VDW>
-1.53728

>  <SCORE.INTRA.VDW.0>
-1.01417

>  <SCORE.INTRA.norm>
-0.463518

>  <SCORE.RESTR>
0

>  <SCORE.RESTR.CAVITY>
0

>  <SCORE.RESTR.norm>
0

>  <SCORE.SYSTEM>
0

>  <SCORE.SYSTEM.CONST>
0

>  <SCORE.SYSTEM.DIHEDRAL>
0

>  <SCORE.SYSTEM.SOLV>
0

>  <SCORE.SYSTEM.norm>
0

>  <SCORE.heavy>
32

>  <SCORE.norm>
-1.58086

>  <RMSD>
3.294

$$$$
1lc4
 OpenBabel02141814113D
libRbt.so/2013.1/901 2013/11/27
 32 34  0  0  0  0  0  0  0  0999 V2000
  -10.7072    5.3567   20.0105 C   0  0  2  0  0  0  0  0  0  0  0  0
  -11.5427    6.3632   20.5252 O   0  0  0  0  0  0  0  0  0  0  0  0
  -10.7231    4.1697   20.9952 C   0  0  2  0  0  0  0  0  0  0  0  0
  -12.0923    3.6792   21.1805 N   0  3  0  0  0  0  0  0  0  0  0  0
  -10.0863    4.5868   22.3417 C   0  0  0  0  0  0  0  0  0  0  0  0
   -8.6469    5.0462   22.0504 C   0  0  2  0  0  0  0  0  0  0  0  0
   -7.9809    5.4025   23.2665 O   0  0  0  0  0  0  0  0  0  0  0  0
   -8.6806    6.2355   21.0585 C   0  0  2  0  0  0  0  0  0  0  0  0
   -9.3622    5.8523   19.8302 O   0  0  0  0  0  0  0  0  0  0  0  0
   -7.2943    6.7352   20.6597 C   0  0  0  0  0  0  0  0  0  0  0  0
   -6.8739    7.8856   21.5021 N   0  3  0  0  0  0  0  0  0  0  0  0
  -13.7875    9.6744   19.1264 C   0  0  2  0  0  0  0  0  0  0  0  0
  -14.2120   10.8779   18.3880 N   0  3  0  0  0  0  0  0  0  0  0  0
  -12.5245    9.9743   19.9222 C   0  0  0  0  0  0  0  0  0  0  0  0
  -12.0707    8.7289   20.6919 C   0  0  2  0  0  0  0  0  0  0  0  0
  -10.9117    9.0995   21.5416 N   0  3  0  0  0  0  0  0  0  0  0  0
  -11.7996    7.5361   19.7271 C   0  0  2  0  0  0  0  0  0  0  0  0
  -13.0650    7.2652   18.8731 C   0  0  2  0  0  0  0  0  0  0  0  0
  -12.7689    6.3014   17.8915 O   0  0  0  0  0  0  0  0  0  0  0  0
  -13.5149    8.5398   18.1408 C   0  0  1  0  0  0  0  0  0  0  0  0
  -14.6975    8.2513   17.3960 O   0  0  0  0  0  0  0  0  0  0  0  0
  -15.6673    7.4810   18.0183 C   0  0  2  0  0  0  0  0  0  0  0  0
  -16.5950    6.8881   16.9440 C   0  0  2  0  0  0  0  0  0  0  0  0
  -15.8159    6.0921   16.0600 O   0  0  0  0  0  0  0  0  0  0  0  0
  -17.2733    8.0296   16.1665 C   0  0  1  0  0  0  0  0  0  0  0  0
  -18.1717    7.5142   15.0935 N   0  3  0  0  0  0  0  0  0  0  0  0
  -18.0617    8.9227   17.1554 C   0  0  2  0  0  0  0  0  0  0  0  0
  -18.6816   10.0058   16.4660 O   0  0  0  0  0  0  0  0  0  0  0  0
  -17.1258    9.4481   18.2598 C   0  0  2  0  0  0  0  0  0  0  0  0
  -16.4262    8.3300   18.9179 O   0  0  0  0  0  0  0  0  0  0  0  0
  -17.8787   10.1966   19.3372 C   0  0  0  0  0  0  0  0  0  0  0  0
  -18.4162   11.4233   18.8477 O   0  0  0  0  0  0  0  0  0  0  0  0
  1  2  1  1  0  0  0
  1  3  1  0  0  0  0
  1  9  1  0  0  0  0
  3  4  1  1  0  0  0
  3  5  1  0  0  0  0
  5  6  1  0  0  0  0
  6  7  1  1  0  0  0
  6  8  1  0  0  0  0
  8  9  1  0  0  0  0
  8 10  1  6  0  0  0
 10 11  1  0  0  0  0
 12 13  1  6  0  0  0
 12 14  1  0  0  0  0
 12 20  1  0  0  0  0
 14 15  1  0  0  0  0
 15 16  1  6  0  0  0
 15 17  1  0  0  0  0
 17  2  1  1  0  0  0
 17 18  1  0  0  0  0
 18 19  1  6  0  0  0
 18 20  1  0  0  0  0
 20 21  1  1  0  0  0
 22 21  1  6  0  0  0
 22 23  1  0  0  0  0
 22 30  1  0  0  0  0
 23 24  1  6  0  0  0
 23 25  1  0  0  0  0
 25 26  1  6  0  0  0
 25 27  1  0  0  0  0
 27 28  1  6  0  0  0
 27 29  1  0  0  0  0
 29 30  1  0  0  0  0
 29 31  1  1  0  0  0
 31 32  1  0  0  0  0
M  CHG  5   4   1  11   1  13   1  16   1  26   1
M  END
>  <CHROM.1>
-174.24403205,-151.09665080,-172.74225160,167.24945325,-95.41825216,118.95180051
-179.36935543,-169.59883456,-58.15850040,-79.18039506,-160.75731194,175.17241560
179.39178176,70.32591556,-68.11829431,51.70623191,-13.24844446,7.57685122
19.24466975,0.18544128,0.52773618,-2.87710755

>  <Name>
1lc4

>  <RI>
0

>  <Rbt.Current_Directory>
/home/afrankz/demos/rdock_decoys_rna/rnas/1lc4

>  <Rbt.Executable>
rbdock ($Id: //depot/dev/client3/rdock/2013.1/src/exe/rbdock.cxx#4 $)

>  <Rbt.Library>
libRbt.so (2013.1, Build901 2013/11/27)

>  <Rbt.Parameter_File>
/export/apps/rDock/src/rDock_2013.1_src/data/scripts/dock_solv.prm

>  <Rbt.Receptor>
prm/pocket_docking_8.prm

>  <SCORE>
-60.1862

>  <SCORE.INTER>
-42.9714

>  <SCORE.INTER.CONST>
1

>  <SCORE.INTER.POLAR>
-6.45644

>  <SCORE.INTER.ROT>
6

>  <SCORE.INTER.SOLV>
22.5071

>  <SCORE.INTER.VDW>
-22.2285

>  <SCORE.INTER.norm>
-1.34285

>  <SCORE.INTRA>
-17.2148

>  <SCORE.INTRA.DIHEDRAL>
-27.9334

>  <SCORE.INTRA.DIHEDRAL.0>
44.2576

>  <SCORE.INTRA.POLAR>
-0.286976

>  <SCORE.INTRA.POLAR.0>
-0.381556

>  <SCORE.INTRA.REPUL>
0

>  <SCORE.INTRA.REPUL.0>
0

>  <SCORE.INTRA.SOLV>
0.30689

>  <SCORE.INTRA.SOLV.lig_0>
-134.592

>  <SCORE.INTRA.VDW>
-2.42586

>  <SCORE.INTRA.VDW.0>
-1.01417

>  <SCORE.INTRA.norm>
-0.537963

>  <SCORE.RESTR>
0

>  <SCORE.RESTR.CAVITY>
0

>  <SCORE.RESTR.norm>
0

>  <SCORE.SYSTEM>
0

>  <SCORE.SYSTEM.CONST>
0

>  <SCORE.SYSTEM.DIHEDRAL>
0

>  <SCORE.SYSTEM.SOLV>
0

>  <SCORE.SYSTEM.norm>
0

>  <SCORE.heavy>
32

>  <SCORE.norm>
-1.88082

>  <RMSD>
3.418

$$$$
1lc4
 OpenBabel02141814113D
libRbt.so/2013.1/901 2013/11/27
 32 34  0  0  0  0  0  0  0  0999 V2000
  -12.9744    8.4702   19.6307 C   0  0  2  0  0  0  0  0  0  0  0  0
  -12.2939    9.1292   18.5921 O   0  0  0  0  0  0  0  0  0  0  0  0
  -12.2821    8.8289   20.9615 C   0  0  2  0  0  0  0  0  0  0  0  0
  -12.2854   10.2812   21.1627 N   0  3  0  0  0  0  0  0  0  0  0  0
  -10.8440    8.2597   20.9834 C   0  0  0  0  0  0  0  0  0  0  0  0
  -10.9470    6.7348   20.8055 C   0  0  2  0  0  0  0  0  0  0  0  0
   -9.6479    6.1364   20.8651 O   0  0  0  0  0  0  0  0  0  0  0  0
  -11.6485    6.4231   19.4601 C   0  0  2  0  0  0  0  0  0  0  0  0
  -12.9664    7.0410   19.4203 O   0  0  0  0  0  0  0  0  0  0  0  0
  -11.8500    4.9307   19.2098 C   0  0  0  0  0  0  0  0  0  0  0  0
  -12.7861    4.6961   18.0791 N   0  3  0  0  0  0  0  0  0  0  0  0
  -15.7660    9.8600   16.2747 C   0  0  2  0  0  0  0  0  0  0  0  0
  -16.6827   10.3300   15.2199 N   0  3  0  0  0  0  0  0  0  0  0  0
  -15.1352   11.0524   16.9809 C   0  0  0  0  0  0  0  0  0  0  0  0
  -14.1766   10.5766   18.0781 C   0  0  2  0  0  0  0  0  0  0  0  0
  -13.6792   11.7655   18.8141 N   0  3  0  0  0  0  0  0  0  0  0  0
  -13.0517    9.6718   17.4921 C   0  0  2  0  0  0  0  0  0  0  0  0
  -13.6906    8.4876   16.7219 C   0  0  2  0  0  0  0  0  0  0  0  0
  -12.6832    7.7652   16.0561 O   0  0  0  0  0  0  0  0  0  0  0  0
  -14.6715    8.9952   15.6525 C   0  0  1  0  0  0  0  0  0  0  0  0
  -15.2575    7.8730   14.9936 O   0  0  0  0  0  0  0  0  0  0  0  0
  -15.7396    8.0718   13.7093 C   0  0  2  0  0  0  0  0  0  0  0  0
  -16.9924    7.2019   13.5095 C   0  0  2  0  0  0  0  0  0  0  0  0
  -17.9670    7.5808   14.4732 O   0  0  0  0  0  0  0  0  0  0  0  0
  -16.6209    5.7197   13.6899 C   0  0  1  0  0  0  0  0  0  0  0  0
  -17.8041    4.8264   13.5283 N   0  3  0  0  0  0  0  0  0  0  0  0
  -15.5119    5.3445   12.6767 C   0  0  2  0  0  0  0  0  0  0  0  0
  -15.1284    3.9807   12.8375 O   0  0  0  0  0  0  0  0  0  0  0  0
  -14.2960    6.2734   12.8508 C   0  0  2  0  0  0  0  0  0  0  0  0
  -14.7092    7.6855   12.7631 O   0  0  0  0  0  0  0  0  0  0  0  0
  -13.2496    6.0497   11.7817 C   0  0  0  0  0  0  0  0  0  0  0  0
  -12.0007    6.6392   12.1366 O   0  0  0  0  0  0  0  0  0  0  0  0
  1  2  1  6  0  0  0
  1  3  1  0  0  0  0
  1  9  1  0  0  0  0
  3  4  1  6  0  0  0
  3  5  1  0  0  0  0
  5  6  1  0  0  0  0
  6  7  1  6  0  0  0
  6  8  1  0  0  0  0
  8  9  1  0  0  0  0
  8 10  1  1  0  0  0
 10 11  1  0  0  0  0
 12 13  1  6  0  0  0
 12 14  1  0  0  0  0
 12 20  1  0  0  0  0
 14 15  1  0  0  0  0
 15 16  1  6  0  0  0
 15 17  1  0  0  0  0
 17  2  1  1  0  0  0
 17 18  1  0  0  0  0
 18 19  1  6  0  0  0
 18 20  1  0  0  0  0
 20 21  1  1  0  0  0
 22 21  1  1  0  0  0
 22 23  1  0  0  0  0
 22 30  1  0  0  0  0
 23 24  1  1  0  0  0
 23 25  1  0  0  0  0
 25 26  1  6  0  0  0
 25 27  1  0  0  0  0
 27 28  1  1  0  0  0
 27 29  1  0  0  0  0
 29 30  1  0  0  0  0
 29 31  1  6  0  0  0
 31 32  1  0  0  0  0
M  CHG  5   4   1  11   1  13   1  16   1  26   1
M  END
>  <CHROM.1>
-142.10217888,52.45107958,-75.86213978,-56.66120030,167.08981989,76.32395490
72.98069210,-33.48313358,-176.14280239,82.56984016,-145.23923874,179.32714185
67.25042881,65.00390888,-164.59686248,-59.24607660,-13.92427300,7.68934157
16.52319533,0.77694551,-0.83981864,0.66592871

>  <Name>
1lc4

>  <RI>
0

>  <Rbt.Current_Directory>
/home/afrankz/demos/rdock_decoys_rna/rnas/1lc4

>  <Rbt.Executable>
rbdock ($Id: //depot/dev/client3/rdock/2013.1/src/exe/rbdock.cxx#4 $)

>  <Rbt.Library>
libRbt.so (2013.1, Build901 2013/11/27)

>  <Rbt.Parameter_File>
/export/apps/rDock/src/rDock_2013.1_src/data/scripts/dock_solv.prm

>  <Rbt.Receptor>
prm/pocket_docking_2.prm

>  <SCORE>
-41.9389

>  <SCORE.INTER>
-28.1798

>  <SCORE.INTER.CONST>
1

>  <SCORE.INTER.POLAR>
-4.46652

>  <SCORE.INTER.ROT>
6

>  <SCORE.INTER.SOLV>
19.926

>  <SCORE.INTER.VDW>
-18.1401

>  <SCORE.INTER.norm>
-0.880619

>  <SCORE.INTRA>
-16.2321

>  <SCORE.INTRA.DIHEDRAL>
-27.2899

>  <SCORE.INTRA.DIHEDRAL.0>
44.2576

>  <SCORE.INTRA.POLAR>
-0.951122

>  <SCORE.INTRA.POLAR.0>
-0.381556

>  <SCORE.INTRA.REPUL>
0

>  <SCORE.INTRA.REPUL.0>
0

>  <SCORE.INTRA.SOLV>
5.37127

>  <SCORE.INTRA.SOLV.lig_0>
-134.592

>  <SCORE.INTRA.VDW>
-2.03895

>  <SCORE.INTRA.VDW.0>
-1.01417

>  <SCORE.INTRA.norm>
-0.507253

>  <SCORE.RESTR>
2.47298

>  <SCORE.RESTR.CAVITY>
2.47298

>  <SCORE.RESTR.norm>
0.0772807

>  <SCORE.SYSTEM>
0

>  <SCORE.SYSTEM.CONST>
0

>  <SCORE.SYSTEM.DIHEDRAL>
0

>  <SCORE.SYSTEM.SOLV>
0

>  <SCORE.SYSTEM.norm>
0

>  <SCORE.heavy>
32

>  <SCORE.norm>
-1.31059

>  <RMSD>
3.484

$$$$
1lc4
 OpenBabel02141814113D
libRbt.so/2013.1/901 2013/11/27
 32 34  0  0  0  0  0  0  0  0999 V2000
  -12.6577    5.5993   19.3971 C   0  0  2  0  0  0  0  0  0  0  0  0
  -11.7027    6.3874   18.7316 O   0  0  0  0  0  0  0  0  0  0  0  0
  -11.9100    4.6285   20.3339 C   0  0  2  0  0  0  0  0  0  0  0  0
  -11.0817    5.3751   21.2859 N   0  3  0  0  0  0  0  0  0  0  0  0
  -11.0612    3.6365   19.5045 C   0  0  0  0  0  0  0  0  0  0  0  0
  -12.0188    2.8774   18.5693 C   0  0  2  0  0  0  0  0  0  0  0  0
  -11.3011    1.9039   17.8033 O   0  0  0  0  0  0  0  0  0  0  0  0
  -12.7466    3.8905   17.6508 C   0  0  2  0  0  0  0  0  0  0  0  0
  -13.4688    4.8708   18.4492 O   0  0  0  0  0  0  0  0  0  0  0  0
  -13.7647    3.2424   16.7158 C   0  0  0  0  0  0  0  0  0  0  0  0
  -14.9080    2.6733   17.4765 N   0  3  0  0  0  0  0  0  0  0  0  0
  -14.4053    9.5098   17.7794 C   0  0  2  0  0  0  0  0  0  0  0  0
  -14.9867   10.7583   17.2531 N   0  3  0  0  0  0  0  0  0  0  0  0
  -13.2819    9.8332   18.7549 C   0  0  0  0  0  0  0  0  0  0  0  0
  -12.6664    8.5425   19.3066 C   0  0  2  0  0  0  0  0  0  0  0  0
  -11.6618    8.9052   20.3371 N   0  3  0  0  0  0  0  0  0  0  0  0
  -12.1098    7.6468   18.1597 C   0  0  2  0  0  0  0  0  0  0  0  0
  -13.2365    7.3635   17.1331 C   0  0  2  0  0  0  0  0  0  0  0  0
  -12.6961    6.6961   16.0184 O   0  0  0  0  0  0  0  0  0  0  0  0
  -13.8563    8.6750   16.6241 C   0  0  1  0  0  0  0  0  0  0  0  0
  -14.9069    8.3647   15.7094 O   0  0  0  0  0  0  0  0  0  0  0  0
  -14.6854    8.6444   14.3700 C   0  0  2  0  0  0  0  0  0  0  0  0
  -16.0433    8.7704   13.6583 C   0  0  2  0  0  0  0  0  0  0  0  0
  -16.7823    9.8188   14.2721 O   0  0  0  0  0  0  0  0  0  0  0  0
  -16.8107    7.4424   13.7806 C   0  0  1  0  0  0  0  0  0  0  0  0
  -18.1487    7.5113   13.1254 N   0  3  0  0  0  0  0  0  0  0  0  0
  -15.9609    6.3032   13.1666 C   0  0  2  0  0  0  0  0  0  0  0  0
  -16.6368    5.0538   13.2884 O   0  0  0  0  0  0  0  0  0  0  0  0
  -14.5815    6.2418   13.8486 C   0  0  2  0  0  0  0  0  0  0  0  0
  -13.9186    7.5570   13.7906 O   0  0  0  0  0  0  0  0  0  0  0  0
  -13.6577    5.2490   13.1787 C   0  0  0  0  0  0  0  0  0  0  0  0
  -13.3078    5.6631   11.8598 O   0  0  0  0  0  0  0  0  0  0  0  0
  1  2  1  6  0  0  0
  1  3  1  0  0  0  0
  1  9  1  0  0  0  0
  3  4  1  1  0  0  0
  3  5  1  0  0  0  0
  5  6  1  0  0  0  0
  6  7  1  6  0  0  0
  6  8  1  0  0  0  0
  8  9  1  0  0  0  0
  8 10  1  6  0  0  0
 10 11  1  0  0  0  0
 12 13  1  6  0  0  0
 12 14  1  0  0  0  0
 12 20  1  0  0  0  0
 14 15  1  0  0  0  0
 15 16  1  1  0  0  0
 15 17  1  0  0  0  0
 17  2  1  1  0  0  0
 17 18  1  0  0  0  0
 18 19  1  6  0  0  0
 18 20  1  0  0  0  0
 20 21  1  6  0  0  0
 22 21  1  1  0  0  0
 22 23  1  0  0  0  0
 22 30  1  0  0  0  0
 23 24  1  1  0  0  0
 23 25  1  0  0  0  0
 25 26  1  6  0  0  0
 25 27  1  0  0  0  0
 27 28  1  1  0  0  0
 27 29  1  0  0  0  0
 29 30  1  0  0  0  0
 29 31  1  6  0  0  0
 31 32  1  0  0  0  0
M  CHG  5   4   1  11   1  13   1  16   1  26   1
M  END
>  <CHROM.1>
-159.16068953,59.62924966,-178.62524472,44.75591283,66.79699007,61.66952928
33.44197366,-53.61335243,58.93409198,128.68785323,-158.11508987,-59.00728688
18.37206139,76.06556856,66.70171329,61.54010890,-13.79755199,6.53977729,16.58682806
-0.06056382,-1.00484613,0.37616346

>  <Name>
1lc4

>  <RI>
0

>  <Rbt.Current_Directory>
/home/afrankz/demos/rdock_decoys_rna/rnas/1lc4

>  <Rbt.Executable>
rbdock ($Id: //depot/dev/client3/rdock/2013.1/src/exe/rbdock.cxx#4 $)

>  <Rbt.Library>
libRbt.so (2013.1, Build901 2013/11/27)

>  <Rbt.Parameter_File>
/export/apps/rDock/src/rDock_2013.1_src/data/scripts/dock_solv.prm

>  <Rbt.Receptor>
prm/pocket_docking_5.prm

>  <SCORE>
-45.8298

>  <SCORE.INTER>
-31.942

>  <SCORE.INTER.CONST>
1

>  <SCORE.INTER.POLAR>
-6.28672

>  <SCORE.INTER.ROT>
6

>  <SCORE.INTER.SOLV>
16.5713

>  <SCORE.INTER.VDW>
-13.4627

>  <SCORE.INTER.norm>
-0.998189

>  <SCORE.INTRA>
-13.8878

>  <SCORE.INTRA.DIHEDRAL>
-26.2337

>  <SCORE.INTRA.DIHEDRAL.0>
44.2576

>  <SCORE.INTRA.POLAR>
0.374749

>  <SCORE.INTRA.POLAR.0>
-0.381556

>  <SCORE.INTRA.REPUL>
0

>  <SCORE.INTRA.REPUL.0>
0

>  <SCORE.INTRA.SOLV>
0.962401

>  <SCORE.INTRA.SOLV.lig_0>
-134.592

>  <SCORE.INTRA.VDW>
-2.52627

>  <SCORE.INTRA.VDW.0>
-1.01417

>  <SCORE.INTRA.norm>
-0.433993

>  <SCORE.RESTR>
0

>  <SCORE.RESTR.CAVITY>
0

>  <SCORE.RESTR.norm>
0

>  <SCORE.SYSTEM>
0

>  <SCORE.SYSTEM.CONST>
0

>  <SCORE.SYSTEM.DIHEDRAL>
0

>  <SCORE.SYSTEM.SOLV>
0

>  <SCORE.SYSTEM.norm>
0

>  <SCORE.heavy>
32

>  <SCORE.norm>
-1.43218

>  <RMSD>
3.521

$$$$
1lc4
 OpenBabel02141814113D
libRbt.so/2013.1/901 2013/11/27
 32 34  0  0  0  0  0  0  0  0999 V2000
  -10.1188    6.1551   19.3947 C   0  0  2  0  0  0  0  0  0  0  0  0
  -11.4181    6.4722   19.8275 O   0  0  0  0  0  0  0  0  0  0  0  0
   -9.8849    4.6505   19.6405 C   0  0  2  0  0  0  0  0  0  0  0  0
  -10.8902    3.8553   18.9285 N   0  3  0  0  0  0  0  0  0  0  0  0
   -9.8997    4.3506   21.1578 C   0  0  0  0  0  0  0  0  0  0  0  0
   -8.7914    5.1973   21.8078 C   0  0  2  0  0  0  0  0  0  0  0  0
   -8.7180    4.9303   23.2123 O   0  0  0  0  0  0  0  0  0  0  0  0
   -9.0666    6.6969   21.5341 C   0  0  2  0  0  0  0  0  0  0  0  0
   -9.1379    6.9461   20.1013 O   0  0  0  0  0  0  0  0  0  0  0  0
   -7.9913    7.6252   22.0933 C   0  0  0  0  0  0  0  0  0  0  0  0
   -7.8279    8.8334   21.2428 N   0  3  0  0  0  0  0  0  0  0  0  0
  -14.5794    9.2487   19.3207 C   0  0  2  0  0  0  0  0  0  0  0  0
  -15.3981   10.3812   18.8505 N   0  3  0  0  0  0  0  0  0  0  0  0
  -13.2903    9.7659   19.9443 C   0  0  0  0  0  0  0  0  0  0  0  0
  -12.4282    8.5971   20.4340 C   0  0  2  0  0  0  0  0  0  0  0  0
  -11.2442    9.1504   21.1374 N   0  3  0  0  0  0  0  0  0  0  0  0
  -12.0810    7.6238   19.2681 C   0  0  2  0  0  0  0  0  0  0  0  0
  -13.3900    7.1402   18.5925 C   0  0  2  0  0  0  0  0  0  0  0  0
  -13.0742    6.3953   17.4412 O   0  0  0  0  0  0  0  0  0  0  0  0
  -14.2480    8.3341   18.1431 C   0  0  1  0  0  0  0  0  0  0  0  0
  -15.4533    7.8423   17.5582 O   0  0  0  0  0  0  0  0  0  0  0  0
  -16.2720    7.0584   18.3561 C   0  0  2  0  0  0  0  0  0  0  0  0
  -16.9344    5.9813   17.4802 C   0  0  2  0  0  0  0  0  0  0  0  0
  -15.9144    5.1911   16.8825 O   0  0  0  0  0  0  0  0  0  0  0  0
  -17.7836    6.6586   16.3902 C   0  0  1  0  0  0  0  0  0  0  0  0
  -18.4356    5.6611   15.4937 N   0  3  0  0  0  0  0  0  0  0  0  0
  -18.8447    7.5656   17.0599 C   0  0  2  0  0  0  0  0  0  0  0  0
  -19.6318    8.2274   16.0724 O   0  0  0  0  0  0  0  0  0  0  0  0
  -18.1614    8.5904   17.9844 C   0  0  2  0  0  0  0  0  0  0  0  0
  -17.2861    7.9072   18.9538 O   0  0  0  0  0  0  0  0  0  0  0  0
  -19.1629    9.3963   18.7814 C   0  0  0  0  0  0  0  0  0  0  0  0
  -20.0129   10.1657   17.9334 O   0  0  0  0  0  0  0  0  0  0  0  0
  1  2  1  1  0  0  0
  1  3  1  0  0  0  0
  1  9  1  0  0  0  0
  3  4  1  6  0  0  0
  3  5  1  0  0  0  0
  5  6  1  0  0  0  0
  6  7  1  1  0  0  0
  6  8  1  0  0  0  0
  8  9  1  0  0  0  0
  8 10  1  6  0  0  0
 10 11  1  0  0  0  0
 12 13  1  6  0  0  0
 12 14  1  0  0  0  0
 12 20  1  0  0  0  0
 14 15  1  0  0  0  0
 15 16  1  6  0  0  0
 15 17  1  0  0  0  0
 17  2  1  1  0  0  0
 17 18  1  0  0  0  0
 18 19  1  6  0  0  0
 18 20  1  0  0  0  0
 20 21  1  1  0  0  0
 22 21  1  6  0  0  0
 22 23  1  0  0  0  0
 22 30  1  0  0  0  0
 23 24  1  6  0  0  0
 23 25  1  0  0  0  0
 25 26  1  1  0  0  0
 25 27  1  0  0  0  0
 27 28  1  6  0  0  0
 27 29  1  0  0  0  0
 29 30  1  0  0  0  0
 29 31  1  1  0  0  0
 31 32  1  0  0  0  0
M  CHG  5   4   1  11   1  13   1  16   1  26   1
M  END
>  <CHROM.1>
-156.11710187,-120.86589953,-79.84900913,177.06546732,147.88343809,55.68318504
-178.76539998,56.93936383,-65.57122904,-62.31967881,-145.16332994,-179.45830606
6.65078993,70.19822954,-62.20044574,-57.50940956,-13.68751305,7.27695800
19.06759170,-0.00216187,0.43236134,-2.75014552

>  <Name>
1lc4

>  <RI>
0

>  <Rbt.Current_Directory>
/home/afrankz/demos/rdock_decoys_rna/rnas/1lc4

>  <Rbt.Executable>
rbdock ($Id: //depot/dev/client3/rdock/2013.1/src/exe/rbdock.cxx#4 $)

>  <Rbt.Library>
libRbt.so (2013.1, Build901 2013/11/27)

>  <Rbt.Parameter_File>
/export/apps/rDock/src/rDock_2013.1_src/data/scripts/dock_solv.prm

>  <Rbt.Receptor>
prm/pocket_docking_6.prm

>  <SCORE>
-55.0911

>  <SCORE.INTER>
-47.0134

>  <SCORE.INTER.CONST>
1

>  <SCORE.INTER.POLAR>
-7.83707

>  <SCORE.INTER.ROT>
6

>  <SCORE.INTER.SOLV>
21.2627

>  <SCORE.INTER.VDW>
-19.9063

>  <SCORE.INTER.norm>
-1.46917

>  <SCORE.INTRA>
-8.11506

>  <SCORE.INTRA.DIHEDRAL>
-21.8841

>  <SCORE.INTRA.DIHEDRAL.0>
44.2576

>  <SCORE.INTRA.POLAR>
0.376465

>  <SCORE.INTRA.POLAR.0>
-0.381556

>  <SCORE.INTRA.REPUL>
0.00131023

>  <SCORE.INTRA.REPUL.0>
0

>  <SCORE.INTRA.SOLV>
5.60266

>  <SCORE.INTRA.SOLV.lig_0>
-134.592

>  <SCORE.INTRA.VDW>
-1.26087

>  <SCORE.INTRA.VDW.0>
-1.01417

>  <SCORE.INTRA.norm>
-0.253596

>  <SCORE.RESTR>
0.0373644

>  <SCORE.RESTR.CAVITY>
0.0373644

>  <SCORE.RESTR.norm>
0.00116764

>  <SCORE.SYSTEM>
0

>  <SCORE.SYSTEM.CONST>
0

>  <SCORE.SYSTEM.DIHEDRAL>
0

>  <SCORE.SYSTEM.SOLV>
0

>  <SCORE.SYSTEM.norm>
0

>  <SCORE.heavy>
32

>  <SCORE.norm>
-1.7216

>  <RMSD>
3.626

$$$$
1lc4
 OpenBabel02141814113D
libRbt.so/2013.1/901 2013/11/27
 32 34  0  0  0  0  0  0  0  0999 V2000
   -8.6807    6.0121   21.2295 C   0  0  2  0  0  0  0  0  0  0  0  0
   -9.8666    6.7626   21.3094 O   0  0  0  0  0  0  0  0  0  0  0  0
   -8.9557    4.6154   21.8232 C   0  0  2  0  0  0  0  0  0  0  0  0
  -10.0485    3.9595   21.0985 N   0  3  0  0  0  0  0  0  0  0  0  0
   -9.2701    4.7317   23.3333 C   0  0  0  0  0  0  0  0  0  0  0  0
   -8.0559    5.3922   24.0094 C   0  0  2  0  0  0  0  0  0  0  0  0
   -8.2618    5.4866   25.4229 O   0  0  0  0  0  0  0  0  0  0  0  0
   -7.8175    6.7880   23.3814 C   0  0  2  0  0  0  0  0  0  0  0  0
   -7.6113    6.6692   21.9449 O   0  0  0  0  0  0  0  0  0  0  0  0
   -6.5969    7.5097   23.9470 C   0  0  0  0  0  0  0  0  0  0  0  0
   -5.3451    6.7663   23.6469 N   0  3  0  0  0  0  0  0  0  0  0  0
  -12.7956    7.6512   18.3783 C   0  0  2  0  0  0  0  0  0  0  0  0
  -13.4809    8.1912   17.1898 N   0  3  0  0  0  0  0  0  0  0  0  0
  -12.3370    8.7935   19.2747 C   0  0  0  0  0  0  0  0  0  0  0  0
  -11.6194    8.2448   20.5128 C   0  0  2  0  0  0  0  0  0  0  0  0
  -11.2975    9.3819   21.4105 N   0  3  0  0  0  0  0  0  0  0  0  0
  -10.3878    7.3777   20.1141 C   0  0  2  0  0  0  0  0  0  0  0  0
  -10.8413    6.2479   19.1541 C   0  0  2  0  0  0  0  0  0  0  0  0
   -9.7104    5.5682   18.6650 O   0  0  0  0  0  0  0  0  0  0  0  0
  -11.5868    6.8265   17.9405 C   0  0  1  0  0  0  0  0  0  0  0  0
  -12.0120    5.7512   17.1042 O   0  0  0  0  0  0  0  0  0  0  0  0
  -12.3832    6.0653   15.8062 C   0  0  2  0  0  0  0  0  0  0  0  0
  -13.0929    4.8500   15.1851 C   0  0  2  0  0  0  0  0  0  0  0  0
  -14.2370    4.5413   15.9712 O   0  0  0  0  0  0  0  0  0  0  0  0
  -12.1292    3.6506   15.1627 C   0  0  1  0  0  0  0  0  0  0  0  0
  -12.7708    2.4327   14.5888 N   0  3  0  0  0  0  0  0  0  0  0  0
  -10.8615    4.0293   14.3586 C   0  0  2  0  0  0  0  0  0  0  0  0
   -9.9372    2.9439   14.3418 O   0  0  0  0  0  0  0  0  0  0  0  0
  -10.2079    5.2884   14.9579 C   0  0  2  0  0  0  0  0  0  0  0  0
  -11.1883    6.3854   15.0474 O   0  0  0  0  0  0  0  0  0  0  0  0
   -9.0563    5.7895   14.1149 C   0  0  0  0  0  0  0  0  0  0  0  0
   -9.4823    6.1469   12.8019 O   0  0  0  0  0  0  0  0  0  0  0  0
  1  2  1  1  0  0  0
  1  3  1  0  0  0  0
  1  9  1  0  0  0  0
  3  4  1  6  0  0  0
  3  5  1  0  0  0  0
  5  6  1  0  0  0  0
  6  7  1  1  0  0  0
  6  8  1  0  0  0  0
  8  9  1  0  0  0  0
  8 10  1  1  0  0  0
 10 11  1  0  0  0  0
 12 13  1  6  0  0  0
 12 14  1  0  0  0  0
 12 20  1  0  0  0  0
 14 15  1  0  0  0  0
 15 16  1  1  0  0  0
 15 17  1  0  0  0  0
 17  2  1  1  0  0  0
 17 18  1  0  0  0  0
 18 19  1  6  0  0  0
 18 20  1  0  0  0  0
 20 21  1  6  0  0  0
 22 21  1  1  0  0  0
 22 23  1  0  0  0  0
 22 30  1  0  0  0  0
 23 24  1  1  0  0  0
 23 25  1  0  0  0  0
 25 26  1  6  0  0  0
 25 27  1  0  0  0  0
 27 28  1  1  0  0  0
 27 29  1  0  0  0  0
 29 30  1  0  0  0  0
 29 31  1  6  0  0  0
 31 32  1  0  0  0  0
M  CHG  5   4   1  11   1  13   1  16   1  26   1
M  END
>  <CHROM.1>
-126.13257271,-174.86631666,176.09520821,64.54866464,63.33963992,-171.01950480
-160.61708900,-52.64910315,-175.07015496,74.66774241,-167.53553893,-51.89082122
-168.78513733,67.41946166,60.85089943,-176.39988716,-10.36624060,5.93947937
18.83010020,-1.05994904,0.66002729,-2.07381484

>  <Name>
1lc4

>  <RI>
0

>  <Rbt.Current_Directory>
/home/afrankz/demos/rdock_decoys_rna/rnas/1lc4

>  <Rbt.Executable>
rbdock ($Id: //depot/dev/client3/rdock/2013.1/src/exe/rbdock.cxx#4 $)

>  <Rbt.Library>
libRbt.so (2013.1, Build901 2013/11/27)

>  <Rbt.Parameter_File>
/export/apps/rDock/src/rDock_2013.1_src/data/scripts/dock_solv.prm

>  <Rbt.Receptor>
prm/pocket_docking_5.prm

>  <SCORE>
-42.7684

>  <SCORE.INTER>
-25.2019

>  <SCORE.INTER.CONST>
1

>  <SCORE.INTER.POLAR>
-2.78278

>  <SCORE.INTER.ROT>
6

>  <SCORE.INTER.SOLV>
25.1228

>  <SCORE.INTER.VDW>
-23.4996

>  <SCORE.INTER.norm>
-0.787559

>  <SCORE.INTRA>
-17.5665

>  <SCORE.INTRA.DIHEDRAL>
-32.8284

>  <SCORE.INTRA.DIHEDRAL.0>
44.2576

>  <SCORE.INTRA.POLAR>
0.143123

>  <SCORE.INTRA.POLAR.0>
-0.381556

>  <SCORE.INTRA.REPUL>
0

>  <SCORE.INTRA.REPUL.0>
0

>  <SCORE.INTRA.SOLV>
1.31915

>  <SCORE.INTRA.SOLV.lig_0>
-134.592

>  <SCORE.INTRA.VDW>
-2.29849

>  <SCORE.INTRA.VDW.0>
-1.01417

>  <SCORE.INTRA.norm>
-0.548953

>  <SCORE.RESTR>
0

>  <SCORE.RESTR.CAVITY>
0

>  <SCORE.RESTR.norm>
0

>  <SCORE.SYSTEM>
0

>  <SCORE.SYSTEM.CONST>
0

>  <SCORE.SYSTEM.DIHEDRAL>
0

>  <SCORE.SYSTEM.SOLV>
0

>  <SCORE.SYSTEM.norm>
0

>  <SCORE.heavy>
32

>  <SCORE.norm>
-1.33651

>  <RMSD>
3.634

$$$$
1lc4
 OpenBabel02141814113D
libRbt.so/2013.1/901 2013/11/27
 32 34  0  0  0  0  0  0  0  0999 V2000
   -9.6591    5.0765   20.5813 C   0  0  2  0  0  0  0  0  0  0  0  0
  -10.6477    6.0735   20.6497 O   0  0  0  0  0  0  0  0  0  0  0  0
  -10.0066    3.9843   21.6133 C   0  0  2  0  0  0  0  0  0  0  0  0
  -11.3372    3.4314   21.3421 N   0  3  0  0  0  0  0  0  0  0  0  0
   -9.9158    4.5584   23.0467 C   0  0  0  0  0  0  0  0  0  0  0  0
   -8.4805    5.0751   23.2483 C   0  0  2  0  0  0  0  0  0  0  0  0
   -8.3133    5.5786   24.5779 O   0  0  0  0  0  0  0  0  0  0  0  0
   -8.1765    6.1660   22.1914 C   0  0  2  0  0  0  0  0  0  0  0  0
   -8.3530    5.6335   20.8478 O   0  0  0  0  0  0  0  0  0  0  0  0
   -6.7521    6.7098   22.2700 C   0  0  0  0  0  0  0  0  0  0  0  0
   -6.6725    8.0907   21.7257 N   0  3  0  0  0  0  0  0  0  0  0  0
  -13.0436    7.7175   17.5648 C   0  0  2  0  0  0  0  0  0  0  0  0
  -13.4922    8.4689   16.3782 N   0  3  0  0  0  0  0  0  0  0  0  0
  -12.4950    8.6798   18.6096 C   0  0  0  0  0  0  0  0  0  0  0  0
  -12.0215    7.9099   19.8474 C   0  0  2  0  0  0  0  0  0  0  0  0
  -11.6078    8.8919   20.8804 N   0  3  0  0  0  0  0  0  0  0  0  0
  -10.9221    6.8692   19.4792 C   0  0  2  0  0  0  0  0  0  0  0  0
  -11.4567    5.9234   18.3731 C   0  0  2  0  0  0  0  0  0  0  0  0
  -10.4136    5.0920   17.9248 O   0  0  0  0  0  0  0  0  0  0  0  0
  -11.9549    6.7256   17.1600 C   0  0  1  0  0  0  0  0  0  0  0  0
  -12.4658    5.8179   16.1844 O   0  0  0  0  0  0  0  0  0  0  0  0
  -11.5424    5.1139   15.4276 C   0  0  2  0  0  0  0  0  0  0  0  0
  -12.1742    4.7700   14.0678 C   0  0  2  0  0  0  0  0  0  0  0  0
  -12.5355    5.9808   13.4156 O   0  0  0  0  0  0  0  0  0  0  0  0
  -13.4221    3.8974   14.2890 C   0  0  1  0  0  0  0  0  0  0  0  0
  -14.0917    3.5489   13.0028 N   0  3  0  0  0  0  0  0  0  0  0  0
  -13.0189    2.6159   15.0586 C   0  0  2  0  0  0  0  0  0  0  0  0
  -14.1612    1.7979   15.3009 O   0  0  0  0  0  0  0  0  0  0  0  0
  -12.3271    2.9866   16.3836 C   0  0  2  0  0  0  0  0  0  0  0  0
  -11.1941    3.8966   16.1368 O   0  0  0  0  0  0  0  0  0  0  0  0
  -11.7747    1.7730   17.0977 C   0  0  0  0  0  0  0  0  0  0  0  0
  -11.6493    1.9997   18.4999 O   0  0  0  0  0  0  0  0  0  0  0  0
  1  2  1  1  0  0  0
  1  3  1  0  0  0  0
  1  9  1  0  0  0  0
  3  4  1  6  0  0  0
  3  5  1  0  0  0  0
  5  6  1  0  0  0  0
  6  7  1  1  0  0  0
  6  8  1  0  0  0  0
  8  9  1  0  0  0  0
  8 10  1  6  0  0  0
 10 11  1  0  0  0  0
 12 13  1  6  0  0  0
 12 14  1  0  0  0  0
 12 20  1  0  0  0  0
 14 15  1  0  0  0  0
 15 16  1  1  0  0  0
 15 17  1  0  0  0  0
 17  2  1  1  0  0  0
 17 18  1  0  0  0  0
 18 19  1  6  0  0  0
 18 20  1  0  0  0  0
 20 21  1  6  0  0  0
 22 21  1  1  0  0  0
 22 23  1  0  0  0  0
 22 30  1  0  0  0  0
 23 24  1  1  0  0  0
 23 25  1  0  0  0  0
 25 26  1  6  0  0  0
 25 27  1  0  0  0  0
 27 28  1  1  0  0  0
 27 29  1  0  0  0  0
 29 30  1  0  0  0  0
 29 31  1  6  0  0  0
 31 32  1  0  0  0  0
M  CHG  5   4   1  11   1  13   1  16   1  26   1
M  END
>  <CHROM.1>
-152.98419939,-178.46984038,64.86735966,174.79676427,-154.29044471,57.64012197
64.37916346,166.99003647,-60.38159935,161.72526444,-152.40126321,177.87017007
171.80981983,177.46133026,-155.72433246,59.05332504,-11.13495536,5.33961764
18.52582763,-0.26866535,1.04461513,-3.09164492

>  <Name>
1lc4

>  <RI>
0

>  <Rbt.Current_Directory>
/home/afrankz/demos/rdock_decoys_rna/rnas/1lc4

>  <Rbt.Executable>
rbdock ($Id: //depot/dev/client3/rdock/2013.1/src/exe/rbdock.cxx#4 $)

>  <Rbt.Library>
libRbt.so (2013.1, Build901 2013/11/27)

>  <Rbt.Parameter_File>
/export/apps/rDock/src/rDock_2013.1_src/data/scripts/dock_solv.prm

>  <Rbt.Receptor>
prm/pocket_docking_6.prm

>  <SCORE>
-51.6989

>  <SCORE.INTER>
-31.2651

>  <SCORE.INTER.CONST>
1

>  <SCORE.INTER.POLAR>
-3.98841

>  <SCORE.INTER.ROT>
6

>  <SCORE.INTER.SOLV>
21.4403

>  <SCORE.INTER.VDW>
-22.2955

>  <SCORE.INTER.norm>
-0.977036

>  <SCORE.INTRA>
-20.4337

>  <SCORE.INTRA.DIHEDRAL>
-31.6319

>  <SCORE.INTRA.DIHEDRAL.0>
44.2576

>  <SCORE.INTRA.POLAR>
-0.710794

>  <SCORE.INTRA.POLAR.0>
-0.381556

>  <SCORE.INTRA.REPUL>
0

>  <SCORE.INTRA.REPUL.0>
0

>  <SCORE.INTRA.SOLV>
-3.11654

>  <SCORE.INTRA.SOLV.lig_0>
-134.592

>  <SCORE.INTRA.VDW>
-0.642813

>  <SCORE.INTRA.VDW.0>
-1.01417

>  <SCORE.INTRA.norm>
-0.638555

>  <SCORE.RESTR>
0

>  <SCORE.RESTR.CAVITY>
0

>  <SCORE.RESTR.norm>
0

>  <SCORE.SYSTEM>
0

>  <SCORE.SYSTEM.CONST>
0

>  <SCORE.SYSTEM.DIHEDRAL>
0

>  <SCORE.SYSTEM.SOLV>
0

>  <SCORE.SYSTEM.norm>
0

>  <SCORE.heavy>
32

>  <SCORE.norm>
-1.61559

>  <RMSD>
3.644

$$$$
1lc4
 OpenBabel02141814113D
libRbt.so/2013.1/901 2013/11/27
 32 34  0  0  0  0  0  0  0  0999 V2000
  -12.7475    8.2081   19.2034 C   0  0  2  0  0  0  0  0  0  0  0  0
  -12.1928    9.0851   18.2551 O   0  0  0  0  0  0  0  0  0  0  0  0
  -11.9453    8.3479   20.5133 C   0  0  2  0  0  0  0  0  0  0  0  0
  -11.9818    9.7346   20.9879 N   0  3  0  0  0  0  0  0  0  0  0  0
  -10.4922    7.8621   20.3016 C   0  0  0  0  0  0  0  0  0  0  0  0
  -10.5567    6.3941   19.8450 C   0  0  2  0  0  0  0  0  0  0  0  0
   -9.2371    5.8652   19.6766 O   0  0  0  0  0  0  0  0  0  0  0  0
  -11.3711    6.3027   18.5305 C   0  0  2  0  0  0  0  0  0  0  0  0
  -12.7082    6.8459   18.7236 O   0  0  0  0  0  0  0  0  0  0  0  0
  -11.5417    4.8749   18.0179 C   0  0  0  0  0  0  0  0  0  0  0  0
  -12.3537    4.0588   18.9583 N   0  3  0  0  0  0  0  0  0  0  0  0
  -15.7482    9.4649   15.9802 C   0  0  2  0  0  0  0  0  0  0  0  0
  -16.7315    9.8742   14.9607 N   0  3  0  0  0  0  0  0  0  0  0  0
  -15.3028   10.6778   16.7857 C   0  0  0  0  0  0  0  0  0  0  0  0
  -14.2769   10.2657   17.8473 C   0  0  2  0  0  0  0  0  0  0  0  0
  -13.9627   11.4525   18.6812 N   0  3  0  0  0  0  0  0  0  0  0  0
  -13.0304    9.5938   17.1975 C   0  0  2  0  0  0  0  0  0  0  0  0
  -13.4854    8.3930   16.3289 C   0  0  2  0  0  0  0  0  0  0  0  0
  -12.3833    7.8893   15.6136 O   0  0  0  0  0  0  0  0  0  0  0  0
  -14.5380    8.8307   15.2974 C   0  0  1  0  0  0  0  0  0  0  0  0
  -14.9496    7.6900   14.5451 O   0  0  0  0  0  0  0  0  0  0  0  0
  -14.8181    7.7575   13.1669 C   0  0  2  0  0  0  0  0  0  0  0  0
  -15.8057    6.7679   12.5252 C   0  0  2  0  0  0  0  0  0  0  0  0
  -17.1251    7.1228   12.9193 O   0  0  0  0  0  0  0  0  0  0  0  0
  -15.4800    5.3403   12.9981 C   0  0  1  0  0  0  0  0  0  0  0  0
  -16.4212    4.3362   12.4235 N   0  3  0  0  0  0  0  0  0  0  0  0
  -14.0187    4.9977   12.6186 C   0  0  2  0  0  0  0  0  0  0  0  0
  -13.6795    3.6876   13.0673 O   0  0  0  0  0  0  0  0  0  0  0  0
  -13.0556    6.0409   13.2151 C   0  0  2  0  0  0  0  0  0  0  0  0
  -13.4563    7.4014   12.8137 O   0  0  0  0  0  0  0  0  0  0  0  0
  -11.6328    5.8395   12.7429 C   0  0  0  0  0  0  0  0  0  0  0  0
  -11.0957    4.6019   13.2048 O   0  0  0  0  0  0  0  0  0  0  0  0
  1  2  1  6  0  0  0
  1  3  1  0  0  0  0
  1  9  1  0  0  0  0
  3  4  1  6  0  0  0
  3  5  1  0  0  0  0
  5  6  1  0  0  0  0
  6  7  1  6  0  0  0
  6  8  1  0  0  0  0
  8  9  1  0  0  0  0
  8 10  1  1  0  0  0
 10 11  1  0  0  0  0
 12 13  1  6  0  0  0
 12 14  1  0  0  0  0
 12 20  1  0  0  0  0
 14 15  1  0  0  0  0
 15 16  1  6  0  0  0
 15 17  1  0  0  0  0
 17  2  1  1  0  0  0
 17 18  1  0  0  0  0
 18 19  1  6  0  0  0
 18 20  1  0  0  0  0
 20 21  1  1  0  0  0
 22 21  1  1  0  0  0
 22 23  1  0  0  0  0
 22 30  1  0  0  0  0
 23 24  1  1  0  0  0
 23 25  1  0  0  0  0
 25 26  1  6  0  0  0
 25 27  1  0  0  0  0
 27 28  1  1  0  0  0
 27 29  1  0  0  0  0
 29 30  1  0  0  0  0
 29 31  1  6  0  0  0
 31 32  1  0  0  0  0
M  CHG  5   4   1  11   1  13   1  16   1  26   1
M  END
>  <CHROM.1>
-153.27264949,54.78137874,-73.53511118,65.75115802,64.96944622,-176.29315969
54.85551876,-54.15223763,71.36997815,114.29895226,-156.47662262,56.18679520
-149.89923242,66.03171242,-64.83747995,-179.24672355,-13.37889541,7.33109475
16.18055820,0.94625474,-0.79053817,0.80755444

>  <Name>
1lc4

>  <RI>
0

>  <Rbt.Current_Directory>
/home/afrankz/demos/rdock_decoys_rna/rnas/1lc4

>  <Rbt.Executable>
rbdock ($Id: //depot/dev/client3/rdock/2013.1/src/exe/rbdock.cxx#4 $)

>  <Rbt.Library>
libRbt.so (2013.1, Build901 2013/11/27)

>  <Rbt.Parameter_File>
/export/apps/rDock/src/rDock_2013.1_src/data/scripts/dock_solv.prm

>  <Rbt.Receptor>
prm/pocket_docking_8.prm

>  <SCORE>
-55.3541

>  <SCORE.INTER>
-39.8184

>  <SCORE.INTER.CONST>
1

>  <SCORE.INTER.POLAR>
-6.85415

>  <SCORE.INTER.ROT>
6

>  <SCORE.INTER.SOLV>
19.9534

>  <SCORE.INTER.VDW>
-17.9496

>  <SCORE.INTER.norm>
-1.24433

>  <SCORE.INTRA>
-15.5357

>  <SCORE.INTRA.DIHEDRAL>
-27.982

>  <SCORE.INTRA.DIHEDRAL.0>
44.2576

>  <SCORE.INTRA.POLAR>
0.345956

>  <SCORE.INTRA.POLAR.0>
-0.381556

>  <SCORE.INTRA.REPUL>
0

>  <SCORE.INTRA.REPUL.0>
0

>  <SCORE.INTRA.SOLV>
2.43641

>  <SCORE.INTRA.SOLV.lig_0>
-134.592

>  <SCORE.INTRA.VDW>
-3.93919

>  <SCORE.INTRA.VDW.0>
-1.01417

>  <SCORE.INTRA.norm>
-0.485491

>  <SCORE.RESTR>
0

>  <SCORE.RESTR.CAVITY>
0

>  <SCORE.RESTR.norm>
0

>  <SCORE.SYSTEM>
0

>  <SCORE.SYSTEM.CONST>
0

>  <SCORE.SYSTEM.DIHEDRAL>
0

>  <SCORE.SYSTEM.SOLV>
0

>  <SCORE.SYSTEM.norm>
0

>  <SCORE.heavy>
32

>  <SCORE.norm>
-1.72982

>  <RMSD>
3.647

$$$$
1lc4
 OpenBabel02141814113D
libRbt.so/2013.1/901 2013/11/27
 32 34  0  0  0  0  0  0  0  0999 V2000
  -10.7060    7.4367   21.0978 C   0  0  2  0  0  0  0  0  0  0  0  0
  -10.7044    7.1904   19.7138 O   0  0  0  0  0  0  0  0  0  0  0  0
   -9.2434    7.6063   21.5568 C   0  0  2  0  0  0  0  0  0  0  0  0
   -8.6028    8.7026   20.8237 N   0  3  0  0  0  0  0  0  0  0  0  0
   -8.4711    6.2786   21.3743 C   0  0  0  0  0  0  0  0  0  0  0  0
   -9.1927    5.2051   22.2077 C   0  0  2  0  0  0  0  0  0  0  0  0
   -8.4985    3.9561   22.1216 O   0  0  0  0  0  0  0  0  0  0  0  0
  -10.6546    5.0711   21.7134 C   0  0  2  0  0  0  0  0  0  0  0  0
  -11.3415    6.3514   21.8087 O   0  0  0  0  0  0  0  0  0  0  0  0
  -11.4780    4.0648   22.5133 C   0  0  0  0  0  0  0  0  0  0  0  0
  -12.9046    4.4758   22.5892 N   0  3  0  0  0  0  0  0  0  0  0  0
  -13.7291    8.2032   16.9236 C   0  0  2  0  0  0  0  0  0  0  0  0
  -14.5917    8.9502   15.9899 N   0  3  0  0  0  0  0  0  0  0  0  0
  -13.8412    8.7987   18.3205 C   0  0  0  0  0  0  0  0  0  0  0  0
  -12.9457    8.0325   19.3004 C   0  0  2  0  0  0  0  0  0  0  0  0
  -13.1769    8.5693   20.6646 N   0  3  0  0  0  0  0  0  0  0  0  0
  -11.4556    8.0632   18.8463 C   0  0  2  0  0  0  0  0  0  0  0  0
  -11.3450    7.5117   17.4015 C   0  0  2  0  0  0  0  0  0  0  0  0
  -10.0308    7.6916   16.9319 O   0  0  0  0  0  0  0  0  0  0  0  0
  -12.2789    8.2771   16.4500 C   0  0  1  0  0  0  0  0  0  0  0  0
  -12.1676    7.7152   15.1429 O   0  0  0  0  0  0  0  0  0  0  0  0
  -12.8450    6.5302   14.9017 C   0  0  2  0  0  0  0  0  0  0  0  0
  -11.8549    5.4996   14.3326 C   0  0  2  0  0  0  0  0  0  0  0  0
  -10.8152    5.2966   15.2811 O   0  0  0  0  0  0  0  0  0  0  0  0
  -11.2682    6.0282   13.0120 C   0  0  1  0  0  0  0  0  0  0  0  0
  -10.2820    5.0777   12.4221 N   0  3  0  0  0  0  0  0  0  0  0  0
  -12.4208    6.3057   12.0163 C   0  0  2  0  0  0  0  0  0  0  0  0
  -11.9087    6.8215   10.7897 O   0  0  0  0  0  0  0  0  0  0  0  0
  -13.4340    7.2865   12.6354 C   0  0  2  0  0  0  0  0  0  0  0  0
  -13.9020    6.7883   13.9413 O   0  0  0  0  0  0  0  0  0  0  0  0
  -14.6576    7.4677   11.7648 C   0  0  0  0  0  0  0  0  0  0  0  0
  -14.3075    7.8734   10.4434 O   0  0  0  0  0  0  0  0  0  0  0  0
  1  2  1  6  0  0  0
  1  3  1  0  0  0  0
  1  9  1  0  0  0  0
  3  4  1  6  0  0  0
  3  5  1  0  0  0  0
  5  6  1  0  0  0  0
  6  7  1  6  0  0  0
  6  8  1  0  0  0  0
  8  9  1  0  0  0  0
  8 10  1  1  0  0  0
 10 11  1  0  0  0  0
 12 13  1  6  0  0  0
 12 14  1  0  0  0  0
 12 20  1  0  0  0  0
 14 15  1  0  0  0  0
 15 16  1  1  0  0  0
 15 17  1  0  0  0  0
 17  2  1  1  0  0  0
 17 18  1  0  0  0  0
 18 19  1  6  0  0  0
 18 20  1  0  0  0  0
 20 21  1  6  0  0  0
 22 21  1  6  0  0  0
 22 23  1  0  0  0  0
 22 30  1  0  0  0  0
 23 24  1  1  0  0  0
 23 25  1  0  0  0  0
 25 26  1  6  0  0  0
 25 27  1  0  0  0  0
 27 28  1  6  0  0  0
 27 29  1  0  0  0  0
 29 30  1  0  0  0  0
 29 31  1  6  0  0  0
 31 32  1  0  0  0  0
M  CHG  5   4   1  11   1  13   1  16   1  26   1
M  END
>  <CHROM.1>
-123.25276059,-58.36445870,156.15759019,65.70219802,147.51762975,179.35513523
-170.54881239,162.52765514,-24.42416471,-43.50264938,-126.89198017,177.65663531
56.39320550,67.08104415,-55.14401591,-166.27788959,-11.71169356,6.84352450
17.31508537,1.23278984,-0.64923082,1.45263314

>  <Name>
1lc4

>  <RI>
0

>  <Rbt.Current_Directory>
/home/afrankz/demos/rdock_decoys_rna/rnas/1lc4

>  <Rbt.Executable>
rbdock ($Id: //depot/dev/client3/rdock/2013.1/src/exe/rbdock.cxx#4 $)

>  <Rbt.Library>
libRbt.so (2013.1, Build901 2013/11/27)

>  <Rbt.Parameter_File>
/export/apps/rDock/src/rDock_2013.1_src/data/scripts/dock_solv.prm

>  <Rbt.Receptor>
prm/blind_docking_80.prm

>  <SCORE>
-15.3587

>  <SCORE.INTER>
-11.0419

>  <SCORE.INTER.CONST>
1

>  <SCORE.INTER.POLAR>
-4.2881

>  <SCORE.INTER.ROT>
6

>  <SCORE.INTER.SOLV>
29.3576

>  <SCORE.INTER.VDW>
-10.4534

>  <SCORE.INTER.norm>
-0.345059

>  <SCORE.INTRA>
-10.6714

>  <SCORE.INTRA.DIHEDRAL>
-17.6018

>  <SCORE.INTRA.DIHEDRAL.0>
44.2576

>  <SCORE.INTRA.POLAR>
-1.35124

>  <SCORE.INTRA.POLAR.0>
-0.381556

>  <SCORE.INTRA.REPUL>
0.0923193

>  <SCORE.INTRA.REPUL.0>
0

>  <SCORE.INTRA.SOLV>
1.36446

>  <SCORE.INTRA.SOLV.lig_0>
-134.592

>  <SCORE.INTRA.VDW>
1.5799

>  <SCORE.INTRA.VDW.0>
-1.01417

>  <SCORE.INTRA.norm>
-0.33348

>  <SCORE.RESTR>
6.35451

>  <SCORE.RESTR.CAVITY>
6.35451

>  <SCORE.RESTR.norm>
0.198578

>  <SCORE.SYSTEM>
0

>  <SCORE.SYSTEM.CONST>
0

>  <SCORE.SYSTEM.DIHEDRAL>
0

>  <SCORE.SYSTEM.SOLV>
0

>  <SCORE.SYSTEM.norm>
0

>  <SCORE.heavy>
32

>  <SCORE.norm>
-0.479961

>  <RMSD>
3.674

$$$$
1lc4
 OpenBabel02141814113D
libRbt.so/2013.1/901 2013/11/27
 32 34  0  0  0  0  0  0  0  0999 V2000
  -11.7288    4.5050   20.0480 C   0  0  2  0  0  0  0  0  0  0  0  0
  -12.9284    4.8284   20.7055 O   0  0  0  0  0  0  0  0  0  0  0  0
  -11.1404    3.2450   20.7152 C   0  0  2  0  0  0  0  0  0  0  0  0
  -12.0984    2.1372   20.6465 N   0  3  0  0  0  0  0  0  0  0  0  0
  -10.7399    3.5547   22.1768 C   0  0  0  0  0  0  0  0  0  0  0  0
   -9.7090    4.6965   22.1423 C   0  0  2  0  0  0  0  0  0  0  0  0
   -9.2578    5.0018   23.4661 O   0  0  0  0  0  0  0  0  0  0  0  0
  -10.3421    5.9368   21.4639 C   0  0  2  0  0  0  0  0  0  0  0  0
  -10.7943    5.6044   20.1203 O   0  0  0  0  0  0  0  0  0  0  0  0
   -9.3804    7.1149   21.3300 C   0  0  0  0  0  0  0  0  0  0  0  0
  -10.0823    8.3293   20.8378 N   0  3  0  0  0  0  0  0  0  0  0  0
  -15.2024    8.4021   20.8376 C   0  0  2  0  0  0  0  0  0  0  0  0
  -15.6327    9.7898   21.0886 N   0  3  0  0  0  0  0  0  0  0  0  0
  -14.9356    7.6960   22.1600 C   0  0  0  0  0  0  0  0  0  0  0  0
  -14.4838    6.2525   21.9123 C   0  0  2  0  0  0  0  0  0  0  0  0
  -14.3510    5.5711   23.2240 N   0  3  0  0  0  0  0  0  0  0  0  0
  -13.1967    6.2060   21.0355 C   0  0  2  0  0  0  0  0  0  0  0  0
  -13.4456    6.9746   19.7123 C   0  0  2  0  0  0  0  0  0  0  0  0
  -12.2388    7.0743   18.9955 O   0  0  0  0  0  0  0  0  0  0  0  0
  -13.9297    8.4064   19.9932 C   0  0  1  0  0  0  0  0  0  0  0  0
  -14.1761    9.0627   18.7501 O   0  0  0  0  0  0  0  0  0  0  0  0
  -13.1988    9.9288   18.2851 C   0  0  2  0  0  0  0  0  0  0  0  0
  -13.5324   11.3537   18.7589 C   0  0  2  0  0  0  0  0  0  0  0  0
  -13.5722   11.3622   20.1803 O   0  0  0  0  0  0  0  0  0  0  0  0
  -14.8986   11.7757   18.1905 C   0  0  1  0  0  0  0  0  0  0  0  0
  -15.2865   13.1454   18.6351 N   0  3  0  0  0  0  0  0  0  0  0  0
  -14.8552   11.6959   16.6449 C   0  0  2  0  0  0  0  0  0  0  0  0
  -16.1176   12.0577   16.0899 O   0  0  0  0  0  0  0  0  0  0  0  0
  -14.4522   10.2788   16.1966 C   0  0  2  0  0  0  0  0  0  0  0  0
  -13.1860    9.8765   16.8348 O   0  0  0  0  0  0  0  0  0  0  0  0
  -14.2432   10.1915   14.7011 C   0  0  0  0  0  0  0  0  0  0  0  0
  -13.0035    9.5647   14.3791 O   0  0  0  0  0  0  0  0  0  0  0  0
  1  2  1  1  0  0  0
  1  3  1  0  0  0  0
  1  9  1  0  0  0  0
  3  4  1  1  0  0  0
  3  5  1  0  0  0  0
  5  6  1  0  0  0  0
  6  7  1  1  0  0  0
  6  8  1  0  0  0  0
  8  9  1  0  0  0  0
  8 10  1  6  0  0  0
 10 11  1  0  0  0  0
 12 13  1  1  0  0  0
 12 14  1  0  0  0  0
 12 20  1  0  0  0  0
 14 15  1  0  0  0  0
 15 16  1  1  0  0  0
 15 17  1  0  0  0  0
 17  2  1  6  0  0  0
 17 18  1  0  0  0  0
 18 19  1  1  0  0  0
 18 20  1  0  0  0  0
 20 21  1  6  0  0  0
 22 21  1  6  0  0  0
 22 23  1  0  0  0  0
 22 30  1  0  0  0  0
 23 24  1  1  0  0  0
 23 25  1  0  0  0  0
 25 26  1  6  0  0  0
 25 27  1  0  0  0  0
 27 28  1  6  0  0  0
 27 29  1  0  0  0  0
 29 30  1  0  0  0  0
 29 31  1  6  0  0  0
 31 32  1  0  0  0  0
M  CHG  5   4   1  11   1  13   1  16   1  26   1
M  END
>  <CHROM.1>
136.37785898,-172.67985169,-12.53362673,-82.92359555,-172.62806586,-170.37040608
-28.54337453,-54.27295897,166.77722408,137.79155972,-93.23081127,173.44980981
64.40695334,-63.88459028,130.45690840,63.89166803,-13.01344210,7.89316872
19.69232505,-0.93261534,0.84874719,-1.10953918

>  <Name>
1lc4

>  <RI>
0

>  <Rbt.Current_Directory>
/home/afrankz/demos/rdock_decoys_rna/rnas/1lc4

>  <Rbt.Executable>
rbdock ($Id: //depot/dev/client3/rdock/2013.1/src/exe/rbdock.cxx#4 $)

>  <Rbt.Library>
libRbt.so (2013.1, Build901 2013/11/27)

>  <Rbt.Parameter_File>
/export/apps/rDock/src/rDock_2013.1_src/data/scripts/dock_solv.prm

>  <Rbt.Receptor>
prm/blind_docking_60.prm

>  <SCORE>
-29.774

>  <SCORE.INTER>
-23.754

>  <SCORE.INTER.CONST>
1

>  <SCORE.INTER.POLAR>
-3.18574

>  <SCORE.INTER.ROT>
6

>  <SCORE.INTER.SOLV>
24.3294

>  <SCORE.INTER.VDW>
-20.9267

>  <SCORE.INTER.norm>
-0.742312

>  <SCORE.INTRA>
-12.5855

>  <SCORE.INTRA.DIHEDRAL>
-13.9455

>  <SCORE.INTRA.DIHEDRAL.0>
44.2576

>  <SCORE.INTRA.POLAR>
-1.98582

>  <SCORE.INTRA.POLAR.0>
-0.381556

>  <SCORE.INTRA.REPUL>
0.0116447

>  <SCORE.INTRA.REPUL.0>
0

>  <SCORE.INTRA.SOLV>
2.43547

>  <SCORE.INTRA.SOLV.lig_0>
-134.592

>  <SCORE.INTRA.VDW>
-0.136918

>  <SCORE.INTRA.VDW.0>
-1.01417

>  <SCORE.INTRA.norm>
-0.393297

>  <SCORE.RESTR>
6.56548

>  <SCORE.RESTR.CAVITY>
6.56548

>  <SCORE.RESTR.norm>
0.205171

>  <SCORE.SYSTEM>
0

>  <SCORE.SYSTEM.CONST>
0

>  <SCORE.SYSTEM.DIHEDRAL>
0

>  <SCORE.SYSTEM.SOLV>
0

>  <SCORE.SYSTEM.norm>
0

>  <SCORE.heavy>
32

>  <SCORE.norm>
-0.930438

>  <RMSD>
3.686

$$$$
1lc4
 OpenBabel02141814113D
libRbt.so/2013.1/901 2013/11/27
 32 34  0  0  0  0  0  0  0  0999 V2000
  -12.7140    6.7093   18.0212 C   0  0  2  0  0  0  0  0  0  0  0  0
  -12.3354    8.0503   17.8358 O   0  0  0  0  0  0  0  0  0  0  0  0
  -12.5905    6.3790   19.5227 C   0  0  2  0  0  0  0  0  0  0  0  0
  -13.4317    7.2820   20.3143 N   0  3  0  0  0  0  0  0  0  0  0  0
  -11.1100    6.4551   19.9642 C   0  0  0  0  0  0  0  0  0  0  0  0
  -10.3196    5.4498   19.1085 C   0  0  2  0  0  0  0  0  0  0  0  0
   -8.9429    5.4344   19.5007 O   0  0  0  0  0  0  0  0  0  0  0  0
  -10.4739    5.8194   17.6121 C   0  0  2  0  0  0  0  0  0  0  0  0
  -11.8801    5.8299   17.2348 O   0  0  0  0  0  0  0  0  0  0  0  0
   -9.7683    4.8480   16.6691 C   0  0  0  0  0  0  0  0  0  0  0  0
  -10.1584    3.4422   16.9541 N   0  3  0  0  0  0  0  0  0  0  0  0
  -15.5733    9.2824   15.3948 C   0  0  2  0  0  0  0  0  0  0  0  0
  -16.3909    9.9792   14.3849 N   0  3  0  0  0  0  0  0  0  0  0  0
  -15.0507   10.2824   16.4171 C   0  0  0  0  0  0  0  0  0  0  0  0
  -14.1956    9.5703   17.4711 C   0  0  2  0  0  0  0  0  0  0  0  0
  -13.8086   10.5598   18.5074 N   0  3  0  0  0  0  0  0  0  0  0  0
  -12.9924    8.8288   16.8155 C   0  0  2  0  0  0  0  0  0  0  0  0
  -13.5168    7.8514   15.7322 C   0  0  2  0  0  0  0  0  0  0  0  0
  -12.4274    7.3053   15.0286 O   0  0  0  0  0  0  0  0  0  0  0  0
  -14.3977    8.5880   14.7101 C   0  0  1  0  0  0  0  0  0  0  0  0
  -14.8825    7.6455   13.7543 O   0  0  0  0  0  0  0  0  0  0  0  0
  -14.7887    7.9936   12.4159 C   0  0  2  0  0  0  0  0  0  0  0  0
  -15.6400    7.0157   11.5881 C   0  0  2  0  0  0  0  0  0  0  0  0
  -16.9882    7.0984   12.0326 O   0  0  0  0  0  0  0  0  0  0  0  0
  -15.1082    5.5846   11.7802 C   0  0  1  0  0  0  0  0  0  0  0  0
  -15.9102    4.5864   11.0157 N   0  3  0  0  0  0  0  0  0  0  0  0
  -13.6209    5.5311   11.3534 C   0  0  2  0  0  0  0  0  0  0  0  0
  -13.0927    4.2207   11.5444 O   0  0  0  0  0  0  0  0  0  0  0  0
  -12.8023    6.5664   12.1470 C   0  0  2  0  0  0  0  0  0  0  0  0
  -13.3975    7.9080   12.0116 O   0  0  0  0  0  0  0  0  0  0  0  0
  -11.3747    6.6623   11.6562 C   0  0  0  0  0  0  0  0  0  0  0  0
  -11.3126    7.1100   10.3038 O   0  0  0  0  0  0  0  0  0  0  0  0
  1  2  1  1  0  0  0
  1  3  1  0  0  0  0
  1  9  1  0  0  0  0
  3  4  1  1  0  0  0
  3  5  1  0  0  0  0
  5  6  1  0  0  0  0
  6  7  1  1  0  0  0
  6  8  1  0  0  0  0
  8  9  1  0  0  0  0
  8 10  1  6  0  0  0
 10 11  1  0  0  0  0
 12 13  1  6  0  0  0
 12 14  1  0  0  0  0
 12 20  1  0  0  0  0
 14 15  1  0  0  0  0
 15 16  1  1  0  0  0
 15 17  1  0  0  0  0
 17  2  1  1  0  0  0
 17 18  1  0  0  0  0
 18 19  1  6  0  0  0
 18 20  1  0  0  0  0
 20 21  1  6  0  0  0
 22 21  1  1  0  0  0
 22 23  1  0  0  0  0
 22 30  1  0  0  0  0
 23 24  1  1  0  0  0
 23 25  1  0  0  0  0
 25 26  1  6  0  0  0
 25 27  1  0  0  0  0
 27 28  1  1  0  0  0
 27 29  1  0  0  0  0
 29 30  1  0  0  0  0
 29 31  1  6  0  0  0
 31 32  1  0  0  0  0
M  CHG  5   4   1  11   1  13   1  16   1  26   1
M  END
>  <CHROM.1>
-146.15296879,92.71976165,78.70477574,62.41039810,51.75724727,-69.31056586
38.46331969,71.51273682,70.69341673,104.93632549,-167.17336982,-176.19060260
-173.22265774,-60.64018758,62.79408850,-173.89535490,-13.15348014,7.03208182
15.25887041,0.99183436,-0.74028609,1.17528280

>  <Name>
1lc4

>  <RI>
0

>  <Rbt.Current_Directory>
/home/afrankz/demos/rdock_decoys_rna/rnas/1lc4

>  <Rbt.Executable>
rbdock ($Id: //depot/dev/client3/rdock/2013.1/src/exe/rbdock.cxx#4 $)

>  <Rbt.Library>
libRbt.so (2013.1, Build901 2013/11/27)

>  <Rbt.Parameter_File>
/export/apps/rDock/src/rDock_2013.1_src/data/scripts/dock_solv.prm

>  <Rbt.Receptor>
prm/pocket_docking_4.prm

>  <SCORE>
-72.1169

>  <SCORE.INTER>
-57.4933

>  <SCORE.INTER.CONST>
1

>  <SCORE.INTER.POLAR>
-9.40874

>  <SCORE.INTER.ROT>
6

>  <SCORE.INTER.SOLV>
26.3316

>  <SCORE.INTER.VDW>
-23.3436

>  <SCORE.INTER.norm>
-1.79667

>  <SCORE.INTRA>
-14.648

>  <SCORE.INTRA.DIHEDRAL>
-25.2733

>  <SCORE.INTRA.DIHEDRAL.0>
44.2576

>  <SCORE.INTRA.POLAR>
-0.448259

>  <SCORE.INTRA.POLAR.0>
-0.381556

>  <SCORE.INTRA.REPUL>
0

>  <SCORE.INTRA.REPUL.0>
0

>  <SCORE.INTRA.SOLV>
0.628531

>  <SCORE.INTRA.SOLV.lig_0>
-134.592

>  <SCORE.INTRA.VDW>
-0.801517

>  <SCORE.INTRA.VDW.0>
-1.01417

>  <SCORE.INTRA.norm>
-0.457749

>  <SCORE.RESTR>
0.0244108

>  <SCORE.RESTR.CAVITY>
0.0244108

>  <SCORE.RESTR.norm>
0.000762837

>  <SCORE.SYSTEM>
0

>  <SCORE.SYSTEM.CONST>
0

>  <SCORE.SYSTEM.DIHEDRAL>
0

>  <SCORE.SYSTEM.SOLV>
0

>  <SCORE.SYSTEM.norm>
0

>  <SCORE.heavy>
32

>  <SCORE.norm>
-2.25365

>  <RMSD>
3.765

$$$$
1lc4
 OpenBabel02141814113D
libRbt.so/2013.1/901 2013/11/27
 32 34  0  0  0  0  0  0  0  0999 V2000
  -11.7587    4.1187   19.9557 C   0  0  2  0  0  0  0  0  0  0  0  0
  -13.0131    4.3765   20.5354 O   0  0  0  0  0  0  0  0  0  0  0  0
  -11.1051    2.9525   20.7249 C   0  0  2  0  0  0  0  0  0  0  0  0
  -11.9648    1.7658   20.6788 N   0  3  0  0  0  0  0  0  0  0  0  0
  -10.8073    3.3770   22.1822 C   0  0  0  0  0  0  0  0  0  0  0  0
   -9.8723    4.5979   22.1268 C   0  0  2  0  0  0  0  0  0  0  0  0
   -9.5165    5.0146   23.4493 O   0  0  0  0  0  0  0  0  0  0  0  0
  -10.5683    5.7400   21.3455 C   0  0  2  0  0  0  0  0  0  0  0  0
  -10.9219    5.2953   20.0049 O   0  0  0  0  0  0  0  0  0  0  0  0
   -9.7001    6.9856   21.1856 C   0  0  0  0  0  0  0  0  0  0  0  0
  -10.5336    8.2032   21.0061 N   0  3  0  0  0  0  0  0  0  0  0  0
  -15.1148    7.7995   21.8865 C   0  0  2  0  0  0  0  0  0  0  0  0
  -15.4688    9.0557   22.5725 N   0  3  0  0  0  0  0  0  0  0  0  0
  -14.8116    6.7170   22.9135 C   0  0  0  0  0  0  0  0  0  0  0  0
  -14.4383    5.4062   22.2124 C   0  0  2  0  0  0  0  0  0  0  0  0
  -14.2682    4.3540   23.2452 N   0  3  0  0  0  0  0  0  0  0  0  0
  -13.2019    5.5946   21.2833 C   0  0  2  0  0  0  0  0  0  0  0  0
  -13.4846    6.7364   20.2733 C   0  0  2  0  0  0  0  0  0  0  0  0
  -12.3134    7.0173   19.5457 O   0  0  0  0  0  0  0  0  0  0  0  0
  -13.8888    8.0269   21.0044 C   0  0  1  0  0  0  0  0  0  0  0  0
  -14.1698    9.0372   20.0365 O   0  0  0  0  0  0  0  0  0  0  0  0
  -13.1101    9.8259   19.6165 C   0  0  2  0  0  0  0  0  0  0  0  0
  -13.6686   11.0605   18.8883 C   0  0  2  0  0  0  0  0  0  0  0  0
  -14.5015   11.7806   19.7881 O   0  0  0  0  0  0  0  0  0  0  0  0
  -14.4827   10.6078   17.6635 C   0  0  1  0  0  0  0  0  0  0  0  0
  -15.0690   11.7647   16.9273 N   0  3  0  0  0  0  0  0  0  0  0  0
  -13.5762    9.7698   16.7293 C   0  0  2  0  0  0  0  0  0  0  0  0
  -14.3114    9.3142   15.5958 O   0  0  0  0  0  0  0  0  0  0  0  0
  -12.9748    8.5793   17.4992 C   0  0  2  0  0  0  0  0  0  0  0  0
  -12.2828    9.0472   18.7136 O   0  0  0  0  0  0  0  0  0  0  0  0
  -11.9594    7.8205   16.6739 C   0  0  0  0  0  0  0  0  0  0  0  0
  -11.9248    6.4385   17.0234 O   0  0  0  0  0  0  0  0  0  0  0  0
  1  2  1  1  0  0  0
  1  3  1  0  0  0  0
  1  9  1  0  0  0  0
  3  4  1  1  0  0  0
  3  5  1  0  0  0  0
  5  6  1  0  0  0  0
  6  7  1  1  0  0  0
  6  8  1  0  0  0  0
  8  9  1  0  0  0  0
  8 10  1  6  0  0  0
 10 11  1  0  0  0  0
 12 13  1  1  0  0  0
 12 14  1  0  0  0  0
 12 20  1  0  0  0  0
 14 15  1  0  0  0  0
 15 16  1  1  0  0  0
 15 17  1  0  0  0  0
 17  2  1  6  0  0  0
 17 18  1  0  0  0  0
 18 19  1  1  0  0  0
 18 20  1  0  0  0  0
 20 21  1  6  0  0  0
 22 21  1  6  0  0  0
 22 23  1  0  0  0  0
 22 30  1  0  0  0  0
 23 24  1  1  0  0  0
 23 25  1  0  0  0  0
 25 26  1  6  0  0  0
 25 27  1  0  0  0  0
 27 28  1  6  0  0  0
 27 29  1  0  0  0  0
 29 30  1  0  0  0  0
 29 31  1  6  0  0  0
 31 32  1  0  0  0  0
M  CHG  5   4   1  11   1  13   1  16   1  26   1
M  END
>  <CHROM.1>
110.02239834,-160.03356427,23.81851296,-54.04140106,-154.64634032,-177.09773413
66.45029759,81.29352615,79.06357933,149.15848533,-165.05820361,-146.45285281
52.07259765,67.85562084,-149.54800643,-163.55694502,-12.78552988,7.14939346
20.08875971,-1.03094180,0.85718810,-0.97802193

>  <Name>
1lc4

>  <RI>
0

>  <Rbt.Current_Directory>
/home/afrankz/demos/rdock_decoys_rna/rnas/1lc4

>  <Rbt.Executable>
rbdock ($Id: //depot/dev/client3/rdock/2013.1/src/exe/rbdock.cxx#4 $)

>  <Rbt.Library>
libRbt.so (2013.1, Build901 2013/11/27)

>  <Rbt.Parameter_File>
/export/apps/rDock/src/rDock_2013.1_src/data/scripts/dock_solv.prm

>  <Rbt.Receptor>
prm/blind_docking_60.prm

>  <SCORE>
-19.7204

>  <SCORE.INTER>
-20.3584

>  <SCORE.INTER.CONST>
1

>  <SCORE.INTER.POLAR>
-3.32517

>  <SCORE.INTER.ROT>
6

>  <SCORE.INTER.SOLV>
26.2781

>  <SCORE.INTER.VDW>
-18.8477

>  <SCORE.INTER.norm>
-0.6362

>  <SCORE.INTRA>
-3.95348

>  <SCORE.INTRA.DIHEDRAL>
-14.8707

>  <SCORE.INTRA.DIHEDRAL.0>
44.2576

>  <SCORE.INTRA.POLAR>
-2.31141

>  <SCORE.INTRA.POLAR.0>
-0.381556

>  <SCORE.INTRA.REPUL>
0.0779319

>  <SCORE.INTRA.REPUL.0>
0

>  <SCORE.INTRA.SOLV>
6.57221

>  <SCORE.INTRA.SOLV.lig_0>
-134.592

>  <SCORE.INTRA.VDW>
7.6649

>  <SCORE.INTRA.VDW.0>
-1.01417

>  <SCORE.INTRA.norm>
-0.123546

>  <SCORE.RESTR>
4.59148

>  <SCORE.RESTR.CAVITY>
4.59148

>  <SCORE.RESTR.norm>
0.143484

>  <SCORE.SYSTEM>
0

>  <SCORE.SYSTEM.CONST>
0

>  <SCORE.SYSTEM.DIHEDRAL>
0

>  <SCORE.SYSTEM.SOLV>
0

>  <SCORE.SYSTEM.norm>
0

>  <SCORE.heavy>
32

>  <SCORE.norm>
-0.616262

>  <RMSD>
3.841

$$$$
1lc4
 OpenBabel02141814113D
libRbt.so/2013.1/901 2013/11/27
 32 34  0  0  0  0  0  0  0  0999 V2000
  -12.7013    7.1145   18.2837 C   0  0  2  0  0  0  0  0  0  0  0  0
  -12.1927    8.3217   17.7736 O   0  0  0  0  0  0  0  0  0  0  0  0
  -12.4500    7.0927   19.8053 C   0  0  2  0  0  0  0  0  0  0  0  0
  -13.0869    8.2487   20.4438 N   0  3  0  0  0  0  0  0  0  0  0  0
  -10.9307    7.0554   20.0932 C   0  0  0  0  0  0  0  0  0  0  0  0
  -10.3627    5.7940   19.4193 C   0  0  2  0  0  0  0  0  0  0  0  0
   -8.9620    5.6720   19.6884 O   0  0  0  0  0  0  0  0  0  0  0  0
  -10.6393    5.8591   17.8966 C   0  0  2  0  0  0  0  0  0  0  0  0
  -12.0681    5.9836   17.6456 O   0  0  0  0  0  0  0  0  0  0  0  0
  -10.1610    4.6239   17.1375 C   0  0  0  0  0  0  0  0  0  0  0  0
  -10.8597    3.3991   17.6080 N   0  3  0  0  0  0  0  0  0  0  0  0
  -15.5312    9.2060   15.3175 C   0  0  2  0  0  0  0  0  0  0  0  0
  -16.4015    9.7860   14.2783 N   0  3  0  0  0  0  0  0  0  0  0  0
  -15.0477   10.3015   16.2581 C   0  0  0  0  0  0  0  0  0  0  0  0
  -14.1385    9.7113   17.3416 C   0  0  2  0  0  0  0  0  0  0  0  0
  -13.7896   10.7899   18.2995 N   0  3  0  0  0  0  0  0  0  0  0  0
  -12.9072    8.9909   16.7152 C   0  0  2  0  0  0  0  0  0  0  0  0
  -13.3947    7.9137   15.7123 C   0  0  2  0  0  0  0  0  0  0  0  0
  -12.2885    7.3785   15.0269 O   0  0  0  0  0  0  0  0  0  0  0  0
  -14.3306    8.5291   14.6593 C   0  0  1  0  0  0  0  0  0  0  0  0
  -14.7784    7.4976   13.7805 O   0  0  0  0  0  0  0  0  0  0  0  0
  -13.8318    6.9133   12.9535 C   0  0  2  0  0  0  0  0  0  0  0  0
  -14.5017    6.5375   11.6207 C   0  0  2  0  0  0  0  0  0  0  0  0
  -15.0240    7.7187   11.0258 O   0  0  0  0  0  0  0  0  0  0  0  0
  -15.6373    5.5330   11.8837 C   0  0  1  0  0  0  0  0  0  0  0  0
  -16.3400    5.1468   10.6262 N   0  3  0  0  0  0  0  0  0  0  0  0
  -15.0594    4.2831   12.5914 C   0  0  2  0  0  0  0  0  0  0  0  0
  -16.0947    3.3435   12.8712 O   0  0  0  0  0  0  0  0  0  0  0  0
  -14.3348    4.6928   13.8870 C   0  0  2  0  0  0  0  0  0  0  0  0
  -13.3187    5.7228   13.6059 O   0  0  0  0  0  0  0  0  0  0  0  0
  -13.6190    3.5274   14.5332 C   0  0  0  0  0  0  0  0  0  0  0  0
  -13.2787    3.8060   15.8896 O   0  0  0  0  0  0  0  0  0  0  0  0
  1  2  1  6  0  0  0
  1  3  1  0  0  0  0
  1  9  1  0  0  0  0
  3  4  1  1  0  0  0
  3  5  1  0  0  0  0
  5  6  1  0  0  0  0
  6  7  1  6  0  0  0
  6  8  1  0  0  0  0
  8  9  1  0  0  0  0
  8 10  1  6  0  0  0
 10 11  1  0  0  0  0
 12 13  1  6  0  0  0
 12 14  1  0  0  0  0
 12 20  1  0  0  0  0
 14 15  1  0  0  0  0
 15 16  1  1  0  0  0
 15 17  1  0  0  0  0
 17  2  1  1  0  0  0
 17 18  1  0  0  0  0
 18 19  1  6  0  0  0
 18 20  1  0  0  0  0
 20 21  1  6  0  0  0
 22 21  1  1  0  0  0
 22 23  1  0  0  0  0
 22 30  1  0  0  0  0
 23 24  1  1  0  0  0
 23 25  1  0  0  0  0
 25 26  1  6  0  0  0
 25 27  1  0  0  0  0
 27 28  1  1  0  0  0
 27 29  1  0  0  0  0
 29 30  1  0  0  0  0
 29 31  1  6  0  0  0
 31 32  1  0  0  0  0
M  CHG  5   4   1  11   1  13   1  16   1  26   1
M  END
>  <CHROM.1>
-142.65456478,77.07475123,42.63810622,64.23870882,61.62428423,-12.60308490
143.80572562,-174.67515958,72.94133920,170.74147061,-146.17118861,179.72027701
-72.47770682,-178.86383608,-163.51437661,-48.36014520,-13.38326135,6.74521088
15.76584999,0.61942836,-0.90607736,0.61292705

>  <Name>
1lc4

>  <RI>
0

>  <Rbt.Current_Directory>
/home/afrankz/demos/rdock_decoys_rna/rnas/1lc4

>  <Rbt.Executable>
rbdock ($Id: //depot/dev/client3/rdock/2013.1/src/exe/rbdock.cxx#4 $)

>  <Rbt.Library>
libRbt.so (2013.1, Build901 2013/11/27)

>  <Rbt.Parameter_File>
/export/apps/rDock/src/rDock_2013.1_src/data/scripts/dock_solv.prm

>  <Rbt.Receptor>
prm/pocket_docking_5.prm

>  <SCORE>
-62.4471

>  <SCORE.INTER>
-46.6915

>  <SCORE.INTER.CONST>
1

>  <SCORE.INTER.POLAR>
-8.13513

>  <SCORE.INTER.ROT>
6

>  <SCORE.INTER.SOLV>
27.2476

>  <SCORE.INTER.VDW>
-20.6931

>  <SCORE.INTER.norm>
-1.45911

>  <SCORE.INTRA>
-15.7556

>  <SCORE.INTRA.DIHEDRAL>
-23.9221

>  <SCORE.INTRA.DIHEDRAL.0>
44.2576

>  <SCORE.INTRA.POLAR>
-1.50137

>  <SCORE.INTRA.POLAR.0>
-0.381556

>  <SCORE.INTRA.REPUL>
0.000708952

>  <SCORE.INTRA.REPUL.0>
0

>  <SCORE.INTRA.SOLV>
4.59057

>  <SCORE.INTRA.SOLV.lig_0>
-134.592

>  <SCORE.INTRA.VDW>
-0.988698

>  <SCORE.INTRA.VDW.0>
-1.01417

>  <SCORE.INTRA.norm>
-0.492362

>  <SCORE.RESTR>
0

>  <SCORE.RESTR.CAVITY>
0

>  <SCORE.RESTR.norm>
0

>  <SCORE.SYSTEM>
0

>  <SCORE.SYSTEM.CONST>
0

>  <SCORE.SYSTEM.DIHEDRAL>
0

>  <SCORE.SYSTEM.SOLV>
0

>  <SCORE.SYSTEM.norm>
0

>  <SCORE.heavy>
32

>  <SCORE.norm>
-1.95147

>  <RMSD>
3.842

$$$$
1lc4
 OpenBabel02141814113D
libRbt.so/2013.1/901 2013/11/27
 32 34  0  0  0  0  0  0  0  0999 V2000
  -12.8151    7.0557   18.7067 C   0  0  2  0  0  0  0  0  0  0  0  0
  -12.0559    8.0354   18.0436 O   0  0  0  0  0  0  0  0  0  0  0  0
  -12.4409    7.0895   20.2026 C   0  0  2  0  0  0  0  0  0  0  0  0
  -12.6908    8.4221   20.7607 N   0  3  0  0  0  0  0  0  0  0  0  0
  -10.9651    6.6666   20.3916 C   0  0  0  0  0  0  0  0  0  0  0  0
  -10.8124    5.2486   19.8139 C   0  0  2  0  0  0  0  0  0  0  0  0
   -9.4745    4.7749   20.0006 O   0  0  0  0  0  0  0  0  0  0  0  0
  -11.1996    5.2630   18.3141 C   0  0  2  0  0  0  0  0  0  0  0  0
  -12.5622    5.7481   18.1468 O   0  0  0  0  0  0  0  0  0  0  0  0
  -11.1339    3.8875   17.6550 C   0  0  0  0  0  0  0  0  0  0  0  0
  -12.0486    2.9258   18.3243 N   0  3  0  0  0  0  0  0  0  0  0  0
  -15.0569    8.9720   15.2016 C   0  0  2  0  0  0  0  0  0  0  0  0
  -15.7769    9.5461   14.0502 N   0  3  0  0  0  0  0  0  0  0  0  0
  -14.6172   10.0844   16.1438 C   0  0  0  0  0  0  0  0  0  0  0  0
  -13.8638    9.5002   17.3440 C   0  0  2  0  0  0  0  0  0  0  0  0
  -13.5605   10.6034   18.2893 N   0  3  0  0  0  0  0  0  0  0  0  0
  -12.6142    8.6897   16.8866 C   0  0  2  0  0  0  0  0  0  0  0  0
  -13.0502    7.5928   15.8813 C   0  0  2  0  0  0  0  0  0  0  0  0
  -11.9082    6.9707   15.3440 O   0  0  0  0  0  0  0  0  0  0  0  0
  -13.8319    8.2049   14.7076 C   0  0  1  0  0  0  0  0  0  0  0  0
  -14.2393    7.1575   13.8280 O   0  0  0  0  0  0  0  0  0  0  0  0
  -13.5045    6.9832   12.6657 C   0  0  2  0  0  0  0  0  0  0  0  0
  -14.4443    6.4847   11.5546 C   0  0  2  0  0  0  0  0  0  0  0  0
  -15.4683    7.4515   11.3580 O   0  0  0  0  0  0  0  0  0  0  0  0
  -15.0626    5.1391   11.9723 C   0  0  1  0  0  0  0  0  0  0  0  0
  -16.0027    4.6150   10.9400 N   0  3  0  0  0  0  0  0  0  0  0  0
  -13.9298    4.1198   12.2460 C   0  0  2  0  0  0  0  0  0  0  0  0
  -14.4726    2.8682   12.6603 O   0  0  0  0  0  0  0  0  0  0  0  0
  -12.9642    4.6710   13.3115 C   0  0  2  0  0  0  0  0  0  0  0  0
  -12.4661    6.0011   12.9173 O   0  0  0  0  0  0  0  0  0  0  0  0
  -11.7551    3.7820   13.5002 C   0  0  0  0  0  0  0  0  0  0  0  0
  -11.0632    4.0850   14.7096 O   0  0  0  0  0  0  0  0  0  0  0  0
  1  2  1  6  0  0  0
  1  3  1  0  0  0  0
  1  9  1  0  0  0  0
  3  4  1  6  0  0  0
  3  5  1  0  0  0  0
  5  6  1  0  0  0  0
  6  7  1  6  0  0  0
  6  8  1  0  0  0  0
  8  9  1  0  0  0  0
  8 10  1  1  0  0  0
 10 11  1  0  0  0  0
 12 13  1  6  0  0  0
 12 14  1  0  0  0  0
 12 20  1  0  0  0  0
 14 15  1  0  0  0  0
 15 16  1  1  0  0  0
 15 17  1  0  0  0  0
 17  2  1  1  0  0  0
 17 18  1  0  0  0  0
 18 19  1  6  0  0  0
 18 20  1  0  0  0  0
 20 21  1  6  0  0  0
 22 21  1  1  0  0  0
 22 23  1  0  0  0  0
 22 30  1  0  0  0  0
 23 24  1  1  0  0  0
 23 25  1  0  0  0  0
 25 26  1  6  0  0  0
 25 27  1  0  0  0  0
 27 28  1  1  0  0  0
 27 29  1  0  0  0  0
 29 30  1  0  0  0  0
 29 31  1  6  0  0  0
 31 32  1  0  0  0  0
M  CHG  5   4   1  11   1  13   1  16   1  26   1
M  END
>  <CHROM.1>
-148.88463111,64.30612396,169.64829884,-58.68780292,59.60263510,59.93404419
-125.43624688,177.88639411,-164.19128530,136.26521302,-147.49984768,64.59474250
-80.85968725,179.19912705,-164.13643301,-48.21960300,-13.06034123,6.50240629
15.79932414,0.82646352,-1.00404436,0.77825333

>  <Name>
1lc4

>  <RI>
0

>  <Rbt.Current_Directory>
/home/afrankz/demos/rdock_decoys_rna/rnas/1lc4

>  <Rbt.Executable>
rbdock ($Id: //depot/dev/client3/rdock/2013.1/src/exe/rbdock.cxx#4 $)

>  <Rbt.Library>
libRbt.so (2013.1, Build901 2013/11/27)

>  <Rbt.Parameter_File>
/export/apps/rDock/src/rDock_2013.1_src/data/scripts/dock_solv.prm

>  <Rbt.Receptor>
prm/pocket_docking_6.prm

>  <SCORE>
-42.2999

>  <SCORE.INTER>
-29.3709

>  <SCORE.INTER.CONST>
1

>  <SCORE.INTER.POLAR>
-4.91053

>  <SCORE.INTER.ROT>
6

>  <SCORE.INTER.SOLV>
21.6937

>  <SCORE.INTER.VDW>
-18.0434

>  <SCORE.INTER.norm>
-0.917842

>  <SCORE.INTRA>
-12.929

>  <SCORE.INTRA.DIHEDRAL>
-22.6509

>  <SCORE.INTRA.DIHEDRAL.0>
44.2576

>  <SCORE.INTRA.POLAR>
-0.804293

>  <SCORE.INTRA.POLAR.0>
-0.381556

>  <SCORE.INTRA.REPUL>
0

>  <SCORE.INTRA.REPUL.0>
0

>  <SCORE.INTRA.SOLV>
2.76468

>  <SCORE.INTRA.SOLV.lig_0>
-134.592

>  <SCORE.INTRA.VDW>
-0.251239

>  <SCORE.INTRA.VDW.0>
-1.01417

>  <SCORE.INTRA.norm>
-0.40403

>  <SCORE.RESTR>
0

>  <SCORE.RESTR.CAVITY>
0

>  <SCORE.RESTR.norm>
0

>  <SCORE.SYSTEM>
0

>  <SCORE.SYSTEM.CONST>
0

>  <SCORE.SYSTEM.DIHEDRAL>
0

>  <SCORE.SYSTEM.SOLV>
0

>  <SCORE.SYSTEM.norm>
0

>  <SCORE.heavy>
32

>  <SCORE.norm>
-1.32187

>  <RMSD>
3.898

$$$$
1lc4
 OpenBabel02141814113D
libRbt.so/2013.1/901 2013/11/27
 32 34  0  0  0  0  0  0  0  0999 V2000
  -11.9925    6.7521   20.0089 C   0  0  2  0  0  0  0  0  0  0  0  0
  -11.4328    6.5521   18.7350 O   0  0  0  0  0  0  0  0  0  0  0  0
  -11.2736    7.9477   20.6666 C   0  0  2  0  0  0  0  0  0  0  0  0
  -11.4102    9.1461   19.8331 N   0  3  0  0  0  0  0  0  0  0  0  0
   -9.7871    7.6019   20.9181 C   0  0  0  0  0  0  0  0  0  0  0  0
   -9.7478    6.3622   21.8287 C   0  0  2  0  0  0  0  0  0  0  0  0
   -8.3947    6.0154   22.1418 O   0  0  0  0  0  0  0  0  0  0  0  0
  -10.4812    5.1906   21.1294 C   0  0  2  0  0  0  0  0  0  0  0  0
  -11.8540    5.5644   20.8196 O   0  0  0  0  0  0  0  0  0  0  0  0
  -10.5467    3.9215   21.9755 C   0  0  0  0  0  0  0  0  0  0  0  0
  -11.5178    2.9479   21.4110 N   0  3  0  0  0  0  0  0  0  0  0  0
  -12.4686    4.7691   15.0326 C   0  0  2  0  0  0  0  0  0  0  0  0
  -12.9990    3.8454   14.0131 N   0  3  0  0  0  0  0  0  0  0  0  0
  -11.4223    4.0585   15.8803 C   0  0  0  0  0  0  0  0  0  0  0  0
  -10.8654    5.0079   16.9470 C   0  0  2  0  0  0  0  0  0  0  0  0
   -9.7703    4.3125   17.6678 N   0  3  0  0  0  0  0  0  0  0  0  0
  -11.9983    5.5452   17.8719 C   0  0  2  0  0  0  0  0  0  0  0  0
  -13.0949    6.2183   17.0070 C   0  0  2  0  0  0  0  0  0  0  0  0
  -14.1914    6.5556   17.8219 O   0  0  0  0  0  0  0  0  0  0  0  0
  -13.6089    5.2537   15.9259 C   0  0  1  0  0  0  0  0  0  0  0  0
  -14.5900    5.9253   15.1366 O   0  0  0  0  0  0  0  0  0  0  0  0
  -14.1347    6.8513   14.2111 C   0  0  2  0  0  0  0  0  0  0  0  0
  -14.9102    8.1660   14.4019 C   0  0  2  0  0  0  0  0  0  0  0  0
  -14.6915    8.6344   15.7266 O   0  0  0  0  0  0  0  0  0  0  0  0
  -16.4107    7.9132   14.1729 C   0  0  1  0  0  0  0  0  0  0  0  0
  -17.2187    9.1518   14.3658 N   0  3  0  0  0  0  0  0  0  0  0  0
  -16.6206    7.3414   12.7495 C   0  0  2  0  0  0  0  0  0  0  0  0
  -18.0014    7.0729   12.5172 O   0  0  0  0  0  0  0  0  0  0  0  0
  -15.7810    6.0643   12.5602 C   0  0  2  0  0  0  0  0  0  0  0  0
  -14.3657    6.3258   12.8782 O   0  0  0  0  0  0  0  0  0  0  0  0
  -15.8296    5.5555   11.1366 C   0  0  0  0  0  0  0  0  0  0  0  0
  -16.4193    4.2594   11.0613 O   0  0  0  0  0  0  0  0  0  0  0  0
  1  2  1  6  0  0  0
  1  3  1  0  0  0  0
  1  9  1  0  0  0  0
  3  4  1  6  0  0  0
  3  5  1  0  0  0  0
  5  6  1  0  0  0  0
  6  7  1  6  0  0  0
  6  8  1  0  0  0  0
  8  9  1  0  0  0  0
  8 10  1  1  0  0  0
 10 11  1  0  0  0  0
 12 13  1  6  0  0  0
 12 14  1  0  0  0  0
 12 20  1  0  0  0  0
 14 15  1  0  0  0  0
 15 16  1  1  0  0  0
 15 17  1  0  0  0  0
 17  2  1  1  0  0  0
 17 18  1  0  0  0  0
 18 19  1  1  0  0  0
 18 20  1  0  0  0  0
 20 21  1  6  0  0  0
 22 21  1  1  0  0  0
 22 23  1  0  0  0  0
 22 30  1  0  0  0  0
 23 24  1  1  0  0  0
 23 25  1  0  0  0  0
 25 26  1  6  0  0  0
 25 27  1  0  0  0  0
 27 28  1  1  0  0  0
 27 29  1  0  0  0  0
 29 30  1  0  0  0  0
 29 31  1  6  0  0  0
 31 32  1  0  0  0  0
M  CHG  5   4   1  11   1  13   1  16   1  26   1
M  END
>  <CHROM.1>
-175.67711496,-150.83442397,63.58079816,66.48385336,166.65716424,78.25586841
68.07230004,-174.54476243,-60.30608591,-46.19152381,-129.25851674,175.57464039
77.72855416,-62.25652020,-117.36253860,62.57927196,-13.08706575,6.14568599
16.82462712,0.50609904,-0.85500230,0.72770354

>  <Name>
1lc4

>  <RI>
0

>  <Rbt.Current_Directory>
/home/afrankz/demos/rdock_decoys_rna/rnas/1lc4

>  <Rbt.Executable>
rbdock ($Id: //depot/dev/client3/rdock/2013.1/src/exe/rbdock.cxx#4 $)

>  <Rbt.Library>
libRbt.so (2013.1, Build901 2013/11/27)

>  <Rbt.Parameter_File>
/export/apps/rDock/src/rDock_2013.1_src/data/scripts/dock_solv.prm

>  <Rbt.Receptor>
prm/pocket_docking_6.prm

>  <SCORE>
-52.4837

>  <SCORE.INTER>
-35.2451

>  <SCORE.INTER.CONST>
1

>  <SCORE.INTER.POLAR>
-5.34805

>  <SCORE.INTER.ROT>
6

>  <SCORE.INTER.SOLV>
29.0667

>  <SCORE.INTER.VDW>
-22.9588

>  <SCORE.INTER.norm>
-1.10141

>  <SCORE.INTRA>
-17.2386

>  <SCORE.INTRA.DIHEDRAL>
-24.9738

>  <SCORE.INTRA.DIHEDRAL.0>
44.2576

>  <SCORE.INTRA.POLAR>
-0.434355

>  <SCORE.INTRA.POLAR.0>
-0.381556

>  <SCORE.INTRA.REPUL>
0

>  <SCORE.INTRA.REPUL.0>
0

>  <SCORE.INTRA.SOLV>
-1.32917

>  <SCORE.INTRA.SOLV.lig_0>
-134.592

>  <SCORE.INTRA.VDW>
-2.61029

>  <SCORE.INTRA.VDW.0>
-1.01417

>  <SCORE.INTRA.norm>
-0.538706

>  <SCORE.RESTR>
0

>  <SCORE.RESTR.CAVITY>
0

>  <SCORE.RESTR.norm>
0

>  <SCORE.SYSTEM>
0

>  <SCORE.SYSTEM.CONST>
0

>  <SCORE.SYSTEM.DIHEDRAL>
0

>  <SCORE.SYSTEM.SOLV>
0

>  <SCORE.SYSTEM.norm>
0

>  <SCORE.heavy>
32

>  <SCORE.norm>
-1.64012

>  <RMSD>
3.989

$$$$
1lc4
 OpenBabel02141814113D
libRbt.so/2013.1/901 2013/11/27
 32 34  0  0  0  0  0  0  0  0999 V2000
  -12.0102    5.1725   19.4660 C   0  0  2  0  0  0  0  0  0  0  0  0
  -12.9398    4.7736   20.4421 O   0  0  0  0  0  0  0  0  0  0  0  0
  -10.9297    4.0773   19.3562 C   0  0  2  0  0  0  0  0  0  0  0  0
  -11.5416    2.7902   19.0116 N   0  3  0  0  0  0  0  0  0  0  0  0
  -10.1290    3.9857   20.6764 C   0  0  0  0  0  0  0  0  0  0  0  0
   -9.4963    5.3651   20.9307 C   0  0  2  0  0  0  0  0  0  0  0  0
   -8.6974    5.3367   22.1182 O   0  0  0  0  0  0  0  0  0  0  0  0
  -10.6162    6.4306   21.0317 C   0  0  2  0  0  0  0  0  0  0  0  0
  -11.4162    6.4422   19.8152 O   0  0  0  0  0  0  0  0  0  0  0  0
  -10.0902    7.8498   21.2309 C   0  0  0  0  0  0  0  0  0  0  0  0
   -9.6585    8.4498   19.9412 N   0  3  0  0  0  0  0  0  0  0  0  0
  -16.6773    6.3491   21.6705 C   0  0  2  0  0  0  0  0  0  0  0  0
  -17.7240    7.2402   22.2036 N   0  3  0  0  0  0  0  0  0  0  0  0
  -15.6607    6.0354   22.7598 C   0  0  0  0  0  0  0  0  0  0  0  0
  -14.5646    5.1120   22.2166 C   0  0  2  0  0  0  0  0  0  0  0  0
  -13.6671    4.7394   23.3384 N   0  3  0  0  0  0  0  0  0  0  0  0
  -13.8336    5.7570   21.0013 C   0  0  2  0  0  0  0  0  0  0  0  0
  -14.8728    6.1316   19.9134 C   0  0  2  0  0  0  0  0  0  0  0  0
  -14.2373    6.8603   18.8911 O   0  0  0  0  0  0  0  0  0  0  0  0
  -15.9764    7.0293   20.4961 C   0  0  1  0  0  0  0  0  0  0  0  0
  -16.9244    7.3206   19.4699 O   0  0  0  0  0  0  0  0  0  0  0  0
  -17.0980    8.6521   19.1258 C   0  0  2  0  0  0  0  0  0  0  0  0
  -18.5407    8.8526   18.6310 C   0  0  2  0  0  0  0  0  0  0  0  0
  -19.4341    8.4856   19.6747 O   0  0  0  0  0  0  0  0  0  0  0  0
  -18.7848    7.9713   17.3936 C   0  0  1  0  0  0  0  0  0  0  0  0
  -20.1783    8.1078   16.8801 N   0  3  0  0  0  0  0  0  0  0  0  0
  -17.7597    8.3405   16.2936 C   0  0  2  0  0  0  0  0  0  0  0  0
  -17.9454    7.5212   15.1417 O   0  0  0  0  0  0  0  0  0  0  0  0
  -16.3248    8.1980   16.8343 C   0  0  2  0  0  0  0  0  0  0  0  0
  -16.1590    8.9838   18.0702 O   0  0  0  0  0  0  0  0  0  0  0  0
  -15.2916    8.6970   15.8487 C   0  0  0  0  0  0  0  0  0  0  0  0
  -14.0098    8.1228   16.0947 O   0  0  0  0  0  0  0  0  0  0  0  0
  1  2  1  1  0  0  0
  1  3  1  0  0  0  0
  1  9  1  0  0  0  0
  3  4  1  1  0  0  0
  3  5  1  0  0  0  0
  5  6  1  0  0  0  0
  6  7  1  1  0  0  0
  6  8  1  0  0  0  0
  8  9  1  0  0  0  0
  8 10  1  6  0  0  0
 10 11  1  0  0  0  0
 12 13  1  1  0  0  0
 12 14  1  0  0  0  0
 12 20  1  0  0  0  0
 14 15  1  0  0  0  0
 15 16  1  1  0  0  0
 15 17  1  0  0  0  0
 17  2  1  6  0  0  0
 17 18  1  0  0  0  0
 18 19  1  6  0  0  0
 18 20  1  0  0  0  0
 20 21  1  6  0  0  0
 22 21  1  6  0  0  0
 22 23  1  0  0  0  0
 22 30  1  0  0  0  0
 23 24  1  1  0  0  0
 23 25  1  0  0  0  0
 25 26  1  6  0  0  0
 25 27  1  0  0  0  0
 27 28  1  6  0  0  0
 27 29  1  0  0  0  0
 29 30  1  0  0  0  0
 29 31  1  6  0  0  0
 31 32  1  0  0  0  0
M  CHG  5   4   1  11   1  13   1  16   1  26   1
M  END
>  <CHROM.1>
163.15178150,-170.07309420,52.63864820,58.16348575,81.02696958,142.62083486
-179.70745621,34.96047926,78.44600644,119.03252357,-150.60552498,-71.05593959
-48.08552352,173.75383952,-157.67225215,-35.39860176,-14.47551999,6.72626167
19.54271575,-0.47662574,0.20303063,-1.21599395

>  <Name>
1lc4

>  <RI>
0

>  <Rbt.Current_Directory>
/home/afrankz/demos/rdock_decoys_rna/rnas/1lc4

>  <Rbt.Executable>
rbdock ($Id: //depot/dev/client3/rdock/2013.1/src/exe/rbdock.cxx#4 $)

>  <Rbt.Library>
libRbt.so (2013.1, Build901 2013/11/27)

>  <Rbt.Parameter_File>
/export/apps/rDock/src/rDock_2013.1_src/data/scripts/dock_solv.prm

>  <Rbt.Receptor>
prm/pocket_docking_8.prm

>  <SCORE>
-46.8058

>  <SCORE.INTER>
-29.6871

>  <SCORE.INTER.CONST>
1

>  <SCORE.INTER.POLAR>
-5.48727

>  <SCORE.INTER.ROT>
6

>  <SCORE.INTER.SOLV>
26.6805

>  <SCORE.INTER.VDW>
-17.994

>  <SCORE.INTER.norm>
-0.927723

>  <SCORE.INTRA>
-17.1187

>  <SCORE.INTRA.DIHEDRAL>
-19.4304

>  <SCORE.INTRA.DIHEDRAL.0>
44.2576

>  <SCORE.INTRA.POLAR>
-1.06295

>  <SCORE.INTRA.POLAR.0>
-0.381556

>  <SCORE.INTRA.REPUL>
0

>  <SCORE.INTRA.REPUL.0>
0

>  <SCORE.INTRA.SOLV>
-2.59748

>  <SCORE.INTRA.SOLV.lig_0>
-134.592

>  <SCORE.INTRA.VDW>
-2.4907

>  <SCORE.INTRA.VDW.0>
-1.01417

>  <SCORE.INTRA.norm>
-0.534959

>  <SCORE.RESTR>
0

>  <SCORE.RESTR.CAVITY>
0

>  <SCORE.RESTR.norm>
0

>  <SCORE.SYSTEM>
0

>  <SCORE.SYSTEM.CONST>
0

>  <SCORE.SYSTEM.DIHEDRAL>
0

>  <SCORE.SYSTEM.SOLV>
0

>  <SCORE.SYSTEM.norm>
0

>  <SCORE.heavy>
32

>  <SCORE.norm>
-1.46268

>  <RMSD>
4.043

$$$$
1lc4
 OpenBabel02141814113D
libRbt.so/2013.1/901 2013/11/27
 32 34  0  0  0  0  0  0  0  0999 V2000
  -12.2280    7.6358   19.1360 C   0  0  2  0  0  0  0  0  0  0  0  0
  -12.0439    8.0561   17.8073 O   0  0  0  0  0  0  0  0  0  0  0  0
  -10.8686    7.1490   19.6781 C   0  0  2  0  0  0  0  0  0  0  0  0
   -9.8725    8.2216   19.5942 N   0  3  0  0  0  0  0  0  0  0  0  0
  -10.4081    5.8899   18.9065 C   0  0  0  0  0  0  0  0  0  0  0  0
  -11.4937    4.8143   19.0858 C   0  0  2  0  0  0  0  0  0  0  0  0
  -11.1063    3.6004   18.4335 O   0  0  0  0  0  0  0  0  0  0  0  0
  -12.8380    5.3470   18.5302 C   0  0  2  0  0  0  0  0  0  0  0  0
  -13.2127    6.5810   19.2061 O   0  0  0  0  0  0  0  0  0  0  0  0
  -13.9996    4.3726   18.7087 C   0  0  0  0  0  0  0  0  0  0  0  0
  -15.2680    4.9458   18.1870 N   0  3  0  0  0  0  0  0  0  0  0  0
  -16.1000    9.0093   17.0334 C   0  0  2  0  0  0  0  0  0  0  0  0
  -17.3264    9.5723   16.4395 N   0  3  0  0  0  0  0  0  0  0  0  0
  -15.2016   10.1343   17.5291 C   0  0  0  0  0  0  0  0  0  0  0  0
  -13.9207    9.5615   18.1459 C   0  0  2  0  0  0  0  0  0  0  0  0
  -13.1347   10.6823   18.7193 N   0  3  0  0  0  0  0  0  0  0  0  0
  -13.1372    8.6933   17.1164 C   0  0  2  0  0  0  0  0  0  0  0  0
  -14.0669    7.5817   16.5654 C   0  0  2  0  0  0  0  0  0  0  0  0
  -13.4147    6.9029   15.5194 O   0  0  0  0  0  0  0  0  0  0  0  0
  -15.3566    8.1842   15.9848 C   0  0  1  0  0  0  0  0  0  0  0  0
  -16.1929    7.1249   15.5207 O   0  0  0  0  0  0  0  0  0  0  0  0
  -17.0723    7.4159   14.4897 C   0  0  2  0  0  0  0  0  0  0  0  0
  -18.3508    6.5814   14.6776 C   0  0  2  0  0  0  0  0  0  0  0  0
  -18.9280    6.9112   15.9346 O   0  0  0  0  0  0  0  0  0  0  0  0
  -17.9960    5.0847   14.6366 C   0  0  1  0  0  0  0  0  0  0  0  0
  -19.1969    4.2231   14.8354 N   0  3  0  0  0  0  0  0  0  0  0  0
  -17.3090    4.7597   13.2877 C   0  0  2  0  0  0  0  0  0  0  0  0
  -16.9451    3.3823   13.2309 O   0  0  0  0  0  0  0  0  0  0  0  0
  -16.0718    5.6555   13.0915 C   0  0  2  0  0  0  0  0  0  0  0  0
  -16.4371    7.0768   13.2297 O   0  0  0  0  0  0  0  0  0  0  0  0
  -15.4568    5.4863   11.7199 C   0  0  0  0  0  0  0  0  0  0  0  0
  -16.3194    5.9716   10.6934 O   0  0  0  0  0  0  0  0  0  0  0  0
  1  2  1  6  0  0  0
  1  3  1  0  0  0  0
  1  9  1  0  0  0  0
  3  4  1  6  0  0  0
  3  5  1  0  0  0  0
  5  6  1  0  0  0  0
  6  7  1  6  0  0  0
  6  8  1  0  0  0  0
  8  9  1  0  0  0  0
  8 10  1  1  0  0  0
 10 11  1  0  0  0  0
 12 13  1  6  0  0  0
 12 14  1  0  0  0  0
 12 20  1  0  0  0  0
 14 15  1  0  0  0  0
 15 16  1  6  0  0  0
 15 17  1  0  0  0  0
 17  2  1  1  0  0  0
 17 18  1  0  0  0  0
 18 19  1  6  0  0  0
 18 20  1  0  0  0  0
 20 21  1  1  0  0  0
 22 21  1  1  0  0  0
 22 23  1  0  0  0  0
 22 30  1  0  0  0  0
 23 24  1  1  0  0  0
 23 25  1  0  0  0  0
 25 26  1  6  0  0  0
 25 27  1  0  0  0  0
 27 28  1  1  0  0  0
 27 29  1  0  0  0  0
 29 30  1  0  0  0  0
 29 31  1  6  0  0  0
 31 32  1  0  0  0  0
M  CHG  5   4   1  11   1  13   1  16   1  26   1
M  END
>  <CHROM.1>
-173.36798925,35.67253326,-179.56096284,61.48518056,178.71085570,-48.99061146
73.68667833,-178.46924865,-175.11688841,85.42181888,-146.56648425,173.07240782
-144.81657069,178.60116516,67.07540309,-177.10008064,-14.75097115,6.74980030
16.40336684,0.42582048,-0.67299026,0.36315769

>  <Name>
1lc4

>  <RI>
0

>  <Rbt.Current_Directory>
/home/afrankz/demos/rdock_decoys_rna/rnas/1lc4

>  <Rbt.Executable>
rbdock ($Id: //depot/dev/client3/rdock/2013.1/src/exe/rbdock.cxx#4 $)

>  <Rbt.Library>
libRbt.so (2013.1, Build901 2013/11/27)

>  <Rbt.Parameter_File>
/export/apps/rDock/src/rDock_2013.1_src/data/scripts/dock_solv.prm

>  <Rbt.Receptor>
prm/pocket_docking_5.prm

>  <SCORE>
-49.5991

>  <SCORE.INTER>
-30.2439

>  <SCORE.INTER.CONST>
1

>  <SCORE.INTER.POLAR>
-5.55171

>  <SCORE.INTER.ROT>
6

>  <SCORE.INTER.SOLV>
21.7073

>  <SCORE.INTER.VDW>
-16.4927

>  <SCORE.INTER.norm>
-0.945121

>  <SCORE.INTRA>
-19.3552

>  <SCORE.INTRA.DIHEDRAL>
-30.7884

>  <SCORE.INTRA.DIHEDRAL.0>
44.2576

>  <SCORE.INTRA.POLAR>
-0.845062

>  <SCORE.INTRA.POLAR.0>
-0.381556

>  <SCORE.INTRA.REPUL>
0

>  <SCORE.INTRA.REPUL.0>
0

>  <SCORE.INTRA.SOLV>
2.6735

>  <SCORE.INTRA.SOLV.lig_0>
-134.592

>  <SCORE.INTRA.VDW>
-2.42454

>  <SCORE.INTRA.VDW.0>
-1.01417

>  <SCORE.INTRA.norm>
-0.60485

>  <SCORE.RESTR>
0

>  <SCORE.RESTR.CAVITY>
0

>  <SCORE.RESTR.norm>
0

>  <SCORE.SYSTEM>
0

>  <SCORE.SYSTEM.CONST>
0

>  <SCORE.SYSTEM.DIHEDRAL>
0

>  <SCORE.SYSTEM.SOLV>
0

>  <SCORE.SYSTEM.norm>
0

>  <SCORE.heavy>
32

>  <SCORE.norm>
-1.54997

>  <RMSD>
4.107

$$$$
1lc4
 OpenBabel02141814113D
libRbt.so/2013.1/901 2013/11/27
 32 34  0  0  0  0  0  0  0  0999 V2000
  -13.8745    5.7038   20.0935 C   0  0  2  0  0  0  0  0  0  0  0  0
  -13.5949    6.9610   20.6567 O   0  0  0  0  0  0  0  0  0  0  0  0
  -13.1449    4.6311   20.9277 C   0  0  2  0  0  0  0  0  0  0  0  0
  -13.5765    4.6931   22.3275 N   0  3  0  0  0  0  0  0  0  0  0  0
  -11.6136    4.8092   20.8011 C   0  0  0  0  0  0  0  0  0  0  0  0
  -11.2555    4.6899   19.3094 C   0  0  2  0  0  0  0  0  0  0  0  0
   -9.8399    4.7976   19.1257 O   0  0  0  0  0  0  0  0  0  0  0  0
  -12.0107    5.7830   18.5131 C   0  0  2  0  0  0  0  0  0  0  0  0
  -13.4472    5.6557   18.7143 O   0  0  0  0  0  0  0  0  0  0  0  0
  -11.7657    5.7185   17.0076 C   0  0  0  0  0  0  0  0  0  0  0  0
  -10.3572    6.0592   16.6765 N   0  3  0  0  0  0  0  0  0  0  0  0
  -15.0711   10.7893   19.5962 C   0  0  2  0  0  0  0  0  0  0  0  0
  -15.3259   12.0520   18.8788 N   0  3  0  0  0  0  0  0  0  0  0  0
  -13.5943   10.6854   19.9520 C   0  0  0  0  0  0  0  0  0  0  0  0
  -13.3157    9.3743   20.6954 C   0  0  2  0  0  0  0  0  0  0  0  0
  -11.8949    9.3714   21.1244 N   0  3  0  0  0  0  0  0  0  0  0  0
  -13.7261    8.1402   19.8376 C   0  0  2  0  0  0  0  0  0  0  0  0
  -15.2146    8.2713   19.4239 C   0  0  2  0  0  0  0  0  0  0  0  0
  -15.5395    7.2461   18.5165 O   0  0  0  0  0  0  0  0  0  0  0  0
  -15.4692    9.6096   18.7115 C   0  0  1  0  0  0  0  0  0  0  0  0
  -16.8543    9.6996   18.3794 O   0  0  0  0  0  0  0  0  0  0  0  0
  -17.1925   10.4543   17.2670 C   0  0  2  0  0  0  0  0  0  0  0  0
  -18.5610   11.1127   17.5115 C   0  0  2  0  0  0  0  0  0  0  0  0
  -18.4684   11.9380   18.6658 O   0  0  0  0  0  0  0  0  0  0  0  0
  -19.6233   10.0208   17.7277 C   0  0  1  0  0  0  0  0  0  0  0  0
  -20.9714   10.6013   17.9916 N   0  3  0  0  0  0  0  0  0  0  0  0
  -19.6620    9.0937   16.4884 C   0  0  2  0  0  0  0  0  0  0  0  0
  -20.6214    8.0549   16.6707 O   0  0  0  0  0  0  0  0  0  0  0  0
  -18.2654    8.5010   16.2237 C   0  0  2  0  0  0  0  0  0  0  0  0
  -17.2617    9.5750   16.1146 O   0  0  0  0  0  0  0  0  0  0  0  0
  -18.2152    7.7135   14.9333 C   0  0  0  0  0  0  0  0  0  0  0  0
  -18.3196    8.5642   13.7936 O   0  0  0  0  0  0  0  0  0  0  0  0
  1  2  1  1  0  0  0
  1  3  1  0  0  0  0
  1  9  1  0  0  0  0
  3  4  1  1  0  0  0
  3  5  1  0  0  0  0
  5  6  1  0  0  0  0
  6  7  1  1  0  0  0
  6  8  1  0  0  0  0
  8  9  1  0  0  0  0
  8 10  1  6  0  0  0
 10 11  1  0  0  0  0
 12 13  1  6  0  0  0
 12 14  1  0  0  0  0
 12 20  1  0  0  0  0
 14 15  1  0  0  0  0
 15 16  1  6  0  0  0
 15 17  1  0  0  0  0
 17  2  1  1  0  0  0
 17 18  1  0  0  0  0
 18 19  1  6  0  0  0
 18 20  1  0  0  0  0
 20 21  1  1  0  0  0
 22 21  1  1  0  0  0
 22 23  1  0  0  0  0
 22 30  1  0  0  0  0
 23 24  1  1  0  0  0
 23 25  1  0  0  0  0
 25 26  1  6  0  0  0
 25 27  1  0  0  0  0
 27 28  1  1  0  0  0
 27 29  1  0  0  0  0
 29 30  1  0  0  0  0
 29 31  1  6  0  0  0
 31 32  1  0  0  0  0
M  CHG  5   4   1  11   1  13   1  16   1  26   1
M  END
>  <CHROM.1>
157.59624038,-178.26223204,50.09934882,-50.50894011,-67.28256809,172.36371820
-172.58825586,-151.62870768,-179.25022601,86.75798657,-147.00337329,-179.64429855
-48.04703140,67.64894556,69.77195672,66.10191504,-15.25146429,8.15022801
18.50658293,0.17841706,0.59015857,-2.46924185

>  <Name>
1lc4

>  <RI>
0

>  <Rbt.Current_Directory>
/home/afrankz/demos/rdock_decoys_rna/rnas/1lc4

>  <Rbt.Executable>
rbdock ($Id: //depot/dev/client3/rdock/2013.1/src/exe/rbdock.cxx#4 $)

>  <Rbt.Library>
libRbt.so (2013.1, Build901 2013/11/27)

>  <Rbt.Parameter_File>
/export/apps/rDock/src/rDock_2013.1_src/data/scripts/dock_solv.prm

>  <Rbt.Receptor>
prm/pocket_docking_6.prm

>  <SCORE>
-50.7952

>  <SCORE.INTER>
-29.2472

>  <SCORE.INTER.CONST>
1

>  <SCORE.INTER.POLAR>
-4.77208

>  <SCORE.INTER.ROT>
6

>  <SCORE.INTER.SOLV>
26.2045

>  <SCORE.INTER.VDW>
-19.926

>  <SCORE.INTER.norm>
-0.913975

>  <SCORE.INTRA>
-21.548

>  <SCORE.INTRA.DIHEDRAL>
-30.8804

>  <SCORE.INTRA.DIHEDRAL.0>
44.2576

>  <SCORE.INTRA.POLAR>
-1.31339

>  <SCORE.INTRA.POLAR.0>
-0.381556

>  <SCORE.INTRA.REPUL>
0.00346031

>  <SCORE.INTRA.REPUL.0>
0

>  <SCORE.INTRA.SOLV>
-0.406821

>  <SCORE.INTRA.SOLV.lig_0>
-134.592

>  <SCORE.INTRA.VDW>
-1.45615

>  <SCORE.INTRA.VDW.0>
-1.01417

>  <SCORE.INTRA.norm>
-0.673375

>  <SCORE.RESTR>
0

>  <SCORE.RESTR.CAVITY>
0

>  <SCORE.RESTR.norm>
0

>  <SCORE.SYSTEM>
0

>  <SCORE.SYSTEM.CONST>
0

>  <SCORE.SYSTEM.DIHEDRAL>
0

>  <SCORE.SYSTEM.SOLV>
0

>  <SCORE.SYSTEM.norm>
0

>  <SCORE.heavy>
32

>  <SCORE.norm>
-1.58735

>  <RMSD>
4.217

$$$$
1lc4
 OpenBabel02141814113D
libRbt.so/2013.1/901 2013/11/27
 32 34  0  0  0  0  0  0  0  0999 V2000
  -13.2518    5.6409   20.0433 C   0  0  2  0  0  0  0  0  0  0  0  0
  -12.4622    6.0796   18.9662 O   0  0  0  0  0  0  0  0  0  0  0  0
  -12.3653    4.7855   20.9712 C   0  0  2  0  0  0  0  0  0  0  0  0
  -11.2156    5.5657   21.4395 N   0  3  0  0  0  0  0  0  0  0  0  0
  -11.9141    3.4998   20.2392 C   0  0  0  0  0  0  0  0  0  0  0  0
  -13.1826    2.7342   19.8239 C   0  0  2  0  0  0  0  0  0  0  0  0
  -12.8347    1.5036   19.1805 O   0  0  0  0  0  0  0  0  0  0  0  0
  -14.0403    3.6307   18.8966 C   0  0  2  0  0  0  0  0  0  0  0  0
  -14.3820    4.8759   19.5695 O   0  0  0  0  0  0  0  0  0  0  0  0
  -15.3544    2.9823   18.4682 C   0  0  0  0  0  0  0  0  0  0  0  0
  -15.1136    1.8060   17.5919 N   0  3  0  0  0  0  0  0  0  0  0  0
  -14.2582    9.9068   18.6727 C   0  0  2  0  0  0  0  0  0  0  0  0
  -14.6660   11.2384   18.1884 N   0  3  0  0  0  0  0  0  0  0  0  0
  -12.7453    9.8573   18.8376 C   0  0  0  0  0  0  0  0  0  0  0  0
  -12.3082    8.4758   19.3374 C   0  0  2  0  0  0  0  0  0  0  0  0
  -10.8472    8.5115   19.5959 N   0  3  0  0  0  0  0  0  0  0  0  0
  -12.7556    7.3521   18.3553 C   0  0  2  0  0  0  0  0  0  0  0  0
  -14.2886    7.4360   18.1389 C   0  0  2  0  0  0  0  0  0  0  0  0
  -14.6684    6.5317   17.1300 O   0  0  0  0  0  0  0  0  0  0  0  0
  -14.6996    8.8416   17.6710 C   0  0  1  0  0  0  0  0  0  0  0  0
  -16.1178    8.8804   17.5168 O   0  0  0  0  0  0  0  0  0  0  0  0
  -16.6251    9.6899   16.5125 C   0  0  2  0  0  0  0  0  0  0  0  0
  -18.1570    9.7407   16.6423 C   0  0  2  0  0  0  0  0  0  0  0  0
  -18.4874   10.2657   17.9218 O   0  0  0  0  0  0  0  0  0  0  0  0
  -18.7311    8.3212   16.4904 C   0  0  1  0  0  0  0  0  0  0  0  0
  -20.2159    8.3044   16.6288 N   0  3  0  0  0  0  0  0  0  0  0  0
  -18.3047    7.7421   15.1193 C   0  0  2  0  0  0  0  0  0  0  0  0
  -18.8019    6.4153   14.9604 O   0  0  0  0  0  0  0  0  0  0  0  0
  -16.7707    7.7656   14.9858 C   0  0  2  0  0  0  0  0  0  0  0  0
  -16.2526    9.1238   15.2292 O   0  0  0  0  0  0  0  0  0  0  0  0
  -16.3120    7.3563   13.6038 C   0  0  0  0  0  0  0  0  0  0  0  0
  -16.5338    5.9679   13.3658 O   0  0  0  0  0  0  0  0  0  0  0  0
  1  2  1  6  0  0  0
  1  3  1  0  0  0  0
  1  9  1  0  0  0  0
  3  4  1  6  0  0  0
  3  5  1  0  0  0  0
  5  6  1  0  0  0  0
  6  7  1  6  0  0  0
  6  8  1  0  0  0  0
  8  9  1  0  0  0  0
  8 10  1  1  0  0  0
 10 11  1  0  0  0  0
 12 13  1  6  0  0  0
 12 14  1  0  0  0  0
 12 20  1  0  0  0  0
 14 15  1  0  0  0  0
 15 16  1  6  0  0  0
 15 17  1  0  0  0  0
 17  2  1  1  0  0  0
 17 18  1  0  0  0  0
 18 19  1  6  0  0  0
 18 20  1  0  0  0  0
 20 21  1  1  0  0  0
 22 21  1  1  0  0  0
 22 23  1  0  0  0  0
 22 30  1  0  0  0  0
 23 24  1  1  0  0  0
 23 25  1  0  0  0  0
 25 26  1  6  0  0  0
 25 27  1  0  0  0  0
 27 28  1  1  0  0  0
 27 29  1  0  0  0  0
 29 30  1  0  0  0  0
 29 31  1  6  0  0  0
 31 32  1  0  0  0  0
M  CHG  5   4   1  11   1  13   1  16   1  26   1
M  END
>  <CHROM.1>
-148.76686905,72.65317256,173.49378148,63.90927444,-66.61889592,46.90234386
-65.56963652,-62.44277240,65.88711484,91.26061701,-172.23101025,59.71285106
176.04015200,68.53192878,-70.00745360,-62.66255716,-14.97613173,6.87566508
17.80019416,-0.58237876,-0.65863601,0.02153490

>  <Name>
1lc4

>  <RI>
0

>  <Rbt.Current_Directory>
/home/afrankz/demos/rdock_decoys_rna/rnas/1lc4

>  <Rbt.Executable>
rbdock ($Id: //depot/dev/client3/rdock/2013.1/src/exe/rbdock.cxx#4 $)

>  <Rbt.Library>
libRbt.so (2013.1, Build901 2013/11/27)

>  <Rbt.Parameter_File>
/export/apps/rDock/src/rDock_2013.1_src/data/scripts/dock_solv.prm

>  <Rbt.Receptor>
prm/pocket_docking_6.prm

>  <SCORE>
-50.0637

>  <SCORE.INTER>
-30.244

>  <SCORE.INTER.CONST>
1

>  <SCORE.INTER.POLAR>
-5.6413

>  <SCORE.INTER.ROT>
6

>  <SCORE.INTER.SOLV>
15.3709

>  <SCORE.INTER.VDW>
-14.082

>  <SCORE.INTER.norm>
-0.945124

>  <SCORE.INTRA>
-19.8197

>  <SCORE.INTRA.DIHEDRAL>
-33.6604

>  <SCORE.INTRA.DIHEDRAL.0>
44.2576

>  <SCORE.INTRA.POLAR>
-0.567695

>  <SCORE.INTRA.POLAR.0>
-0.381556

>  <SCORE.INTRA.REPUL>
0

>  <SCORE.INTRA.REPUL.0>
0

>  <SCORE.INTRA.SOLV>
2.46754

>  <SCORE.INTRA.SOLV.lig_0>
-134.592

>  <SCORE.INTRA.VDW>
-2.2931

>  <SCORE.INTRA.VDW.0>
-1.01417

>  <SCORE.INTRA.norm>
-0.619365

>  <SCORE.RESTR>
0

>  <SCORE.RESTR.CAVITY>
0

>  <SCORE.RESTR.norm>
0

>  <SCORE.SYSTEM>
0

>  <SCORE.SYSTEM.CONST>
0

>  <SCORE.SYSTEM.DIHEDRAL>
0

>  <SCORE.SYSTEM.SOLV>
0

>  <SCORE.SYSTEM.norm>
0

>  <SCORE.heavy>
32

>  <SCORE.norm>
-1.56449

>  <RMSD>
4.250

$$$$
1lc4
 OpenBabel02141814113D
libRbt.so/2013.1/901 2013/11/27
 32 34  0  0  0  0  0  0  0  0999 V2000
  -10.4621    4.7965   18.4967 C   0  0  2  0  0  0  0  0  0  0  0  0
  -11.5850    5.6193   18.3018 O   0  0  0  0  0  0  0  0  0  0  0  0
  -10.8934    3.5922   19.3584 C   0  0  2  0  0  0  0  0  0  0  0  0
  -11.9807    2.8593   18.7024 N   0  3  0  0  0  0  0  0  0  0  0  0
  -11.3062    4.0691   20.7707 C   0  0  0  0  0  0  0  0  0  0  0  0
  -10.0943    4.7877   21.3893 C   0  0  2  0  0  0  0  0  0  0  0  0
  -10.3940    5.2145   22.7224 O   0  0  0  0  0  0  0  0  0  0  0  0
   -9.6970    5.9857   20.4912 C   0  0  2  0  0  0  0  0  0  0  0  0
   -9.3973    5.5300   19.1412 O   0  0  0  0  0  0  0  0  0  0  0  0
   -8.4657    6.7381   20.9895 C   0  0  0  0  0  0  0  0  0  0  0  0
   -8.7746    7.5265   22.2113 N   0  3  0  0  0  0  0  0  0  0  0  0
  -13.4745    7.2638   14.8834 C   0  0  2  0  0  0  0  0  0  0  0  0
  -13.7329    8.0119   13.6395 N   0  3  0  0  0  0  0  0  0  0  0  0
  -13.0822    8.2278   15.9948 C   0  0  0  0  0  0  0  0  0  0  0  0
  -12.8072    7.4613   17.2933 C   0  0  2  0  0  0  0  0  0  0  0  0
  -12.5461    8.4460   18.3726 N   0  3  0  0  0  0  0  0  0  0  0  0
  -11.6732    6.4106   17.0998 C   0  0  2  0  0  0  0  0  0  0  0  0
  -12.0423    5.4626   15.9298 C   0  0  2  0  0  0  0  0  0  0  0  0
  -10.9503    4.6211   15.6477 O   0  0  0  0  0  0  0  0  0  0  0  0
  -12.3453    6.2618   14.6519 C   0  0  1  0  0  0  0  0  0  0  0  0
  -12.7104    5.3524   13.6144 O   0  0  0  0  0  0  0  0  0  0  0  0
  -11.7038    4.9226   12.7640 C   0  0  2  0  0  0  0  0  0  0  0  0
  -12.3053    4.6699   11.3709 C   0  0  2  0  0  0  0  0  0  0  0  0
  -12.8767    5.8824   10.8960 O   0  0  0  0  0  0  0  0  0  0  0  0
  -13.3874    3.5804   11.4703 C   0  0  1  0  0  0  0  0  0  0  0  0
  -14.0236    3.3068   10.1494 N   0  3  0  0  0  0  0  0  0  0  0  0
  -12.7602    2.2897   12.0513 C   0  0  2  0  0  0  0  0  0  0  0  0
  -13.7466    1.2681   12.1789 O   0  0  0  0  0  0  0  0  0  0  0  0
  -12.1049    2.5833   13.4136 C   0  0  2  0  0  0  0  0  0  0  0  0
  -11.1429    3.6937   13.2944 O   0  0  0  0  0  0  0  0  0  0  0  0
  -11.3430    1.3912   13.9489 C   0  0  0  0  0  0  0  0  0  0  0  0
  -12.1480    0.2142   13.9593 O   0  0  0  0  0  0  0  0  0  0  0  0
  1  2  1  1  0  0  0
  1  3  1  0  0  0  0
  1  9  1  0  0  0  0
  3  4  1  6  0  0  0
  3  5  1  0  0  0  0
  5  6  1  0  0  0  0
  6  7  1  1  0  0  0
  6  8  1  0  0  0  0
  8  9  1  0  0  0  0
  8 10  1  1  0  0  0
 10 11  1  0  0  0  0
 12 13  1  6  0  0  0
 12 14  1  0  0  0  0
 12 20  1  0  0  0  0
 14 15  1  0  0  0  0
 15 16  1  1  0  0  0
 15 17  1  0  0  0  0
 17  2  1  1  0  0  0
 17 18  1  0  0  0  0
 18 19  1  6  0  0  0
 18 20  1  0  0  0  0
 20 21  1  6  0  0  0
 22 21  1  1  0  0  0
 22 23  1  0  0  0  0
 22 30  1  0  0  0  0
 23 24  1  1  0  0  0
 23 25  1  0  0  0  0
 25 26  1  6  0  0  0
 25 27  1  0  0  0  0
 27 28  1  1  0  0  0
 27 29  1  0  0  0  0
 29 30  1  0  0  0  0
 29 31  1  6  0  0  0
 31 32  1  0  0  0  0
M  CHG  5   4   1  11   1  13   1  16   1  26   1
M  END
>  <CHROM.1>
-150.92535530,-166.51994653,-173.33924343,-48.19915959,-72.00999351,175.90573067
69.15528327,-179.90420409,-55.72876113,144.17543347,-148.22525645,-177.97629186
-53.32728955,-172.83617720,-51.98561967,-172.57002245,-11.76249155,4.92686437
16.09245572,-0.64464888,1.20096733,-2.72496782

>  <Name>
1lc4

>  <RI>
0

>  <Rbt.Current_Directory>
/home/afrankz/demos/rdock_decoys_rna/rnas/1lc4

>  <Rbt.Executable>
rbdock ($Id: //depot/dev/client3/rdock/2013.1/src/exe/rbdock.cxx#4 $)

>  <Rbt.Library>
libRbt.so (2013.1, Build901 2013/11/27)

>  <Rbt.Parameter_File>
/export/apps/rDock/src/rDock_2013.1_src/data/scripts/dock_solv.prm

>  <Rbt.Receptor>
prm/pocket_docking_8.prm

>  <SCORE>
-55.3599

>  <SCORE.INTER>
-35.1189

>  <SCORE.INTER.CONST>
1

>  <SCORE.INTER.POLAR>
-5.38876

>  <SCORE.INTER.ROT>
6

>  <SCORE.INTER.SOLV>
14.6615

>  <SCORE.INTER.VDW>
-17.9373

>  <SCORE.INTER.norm>
-1.09747

>  <SCORE.INTRA>
-20.241

>  <SCORE.INTRA.DIHEDRAL>
-28.7787

>  <SCORE.INTRA.DIHEDRAL.0>
44.2576

>  <SCORE.INTRA.POLAR>
-0.832699

>  <SCORE.INTRA.POLAR.0>
-0.381556

>  <SCORE.INTRA.REPUL>
0

>  <SCORE.INTRA.REPUL.0>
0

>  <SCORE.INTRA.SOLV>
-1.2822

>  <SCORE.INTRA.SOLV.lig_0>
-134.592

>  <SCORE.INTRA.VDW>
-2.37935

>  <SCORE.INTRA.VDW.0>
-1.01417

>  <SCORE.INTRA.norm>
-0.632531

>  <SCORE.RESTR>
0

>  <SCORE.RESTR.CAVITY>
0

>  <SCORE.RESTR.norm>
0

>  <SCORE.SYSTEM>
0

>  <SCORE.SYSTEM.CONST>
0

>  <SCORE.SYSTEM.DIHEDRAL>
0

>  <SCORE.SYSTEM.SOLV>
0

>  <SCORE.SYSTEM.norm>
0

>  <SCORE.heavy>
32

>  <SCORE.norm>
-1.73

>  <RMSD>
4.258

$$$$
1lc4
 OpenBabel02141814113D
libRbt.so/2013.1/901 2013/11/27
 32 34  0  0  0  0  0  0  0  0999 V2000
  -10.4292    6.1504   18.8938 C   0  0  2  0  0  0  0  0  0  0  0  0
  -11.8164    6.0587   19.1020 O   0  0  0  0  0  0  0  0  0  0  0  0
   -9.8204    4.7471   19.0917 C   0  0  2  0  0  0  0  0  0  0  0  0
  -10.4338    3.7900   18.1658 N   0  3  0  0  0  0  0  0  0  0  0  0
   -9.9886    4.2968   20.5619 C   0  0  0  0  0  0  0  0  0  0  0  0
   -9.2826    5.3375   21.4485 C   0  0  2  0  0  0  0  0  0  0  0  0
   -9.3589    4.9542   22.8257 O   0  0  0  0  0  0  0  0  0  0  0  0
   -9.9247    6.7278   21.2153 C   0  0  2  0  0  0  0  0  0  0  0  0
   -9.8369    7.0976   19.8098 O   0  0  0  0  0  0  0  0  0  0  0  0
   -9.2587    7.8473   22.0115 C   0  0  0  0  0  0  0  0  0  0  0  0
  -10.1204    9.0575   22.0627 N   0  3  0  0  0  0  0  0  0  0  0  0
  -14.7825    8.4051   21.0142 C   0  0  2  0  0  0  0  0  0  0  0  0
  -15.5254    9.1993   22.0098 N   0  3  0  0  0  0  0  0  0  0  0  0
  -14.5689    6.9907   21.5357 C   0  0  0  0  0  0  0  0  0  0  0  0
  -13.7939    6.1555   20.5105 C   0  0  2  0  0  0  0  0  0  0  0  0
  -13.7136    4.7594   21.0076 N   0  3  0  0  0  0  0  0  0  0  0  0
  -12.4121    6.7984   20.1868 C   0  0  2  0  0  0  0  0  0  0  0  0
  -12.6213    8.2590   19.7109 C   0  0  2  0  0  0  0  0  0  0  0  0
  -11.3710    8.8906   19.5768 O   0  0  0  0  0  0  0  0  0  0  0  0
  -13.4300    9.0611   20.7434 C   0  0  1  0  0  0  0  0  0  0  0  0
  -13.6249   10.3857   20.2493 O   0  0  0  0  0  0  0  0  0  0  0  0
  -12.7617   10.8268   19.2585 C   0  0  2  0  0  0  0  0  0  0  0  0
  -12.5180   12.3338   19.4475 C   0  0  2  0  0  0  0  0  0  0  0  0
  -11.9508   12.5444   20.7344 O   0  0  0  0  0  0  0  0  0  0  0  0
  -13.8545   13.0873   19.3306 C   0  0  1  0  0  0  0  0  0  0  0  0
  -13.6837   14.5557   19.5270 N   0  3  0  0  0  0  0  0  0  0  0  0
  -14.4877   12.7920   17.9489 C   0  0  2  0  0  0  0  0  0  0  0  0
  -15.7420   13.4578   17.8212 O   0  0  0  0  0  0  0  0  0  0  0  0
  -14.6581   11.2737   17.7555 C   0  0  2  0  0  0  0  0  0  0  0  0
  -13.3749   10.5798   17.9666 O   0  0  0  0  0  0  0  0  0  0  0  0
  -15.1270   10.9256   16.3602 C   0  0  0  0  0  0  0  0  0  0  0  0
  -14.0304   10.7413   15.4675 O   0  0  0  0  0  0  0  0  0  0  0  0
  1  2  1  1  0  0  0
  1  3  1  0  0  0  0
  1  9  1  0  0  0  0
  3  4  1  6  0  0  0
  3  5  1  0  0  0  0
  5  6  1  0  0  0  0
  6  7  1  1  0  0  0
  6  8  1  0  0  0  0
  8  9  1  0  0  0  0
  8 10  1  1  0  0  0
 10 11  1  0  0  0  0
 12 13  1  1  0  0  0
 12 14  1  0  0  0  0
 12 20  1  0  0  0  0
 14 15  1  0  0  0  0
 15 16  1  1  0  0  0
 15 17  1  0  0  0  0
 17  2  1  6  0  0  0
 17 18  1  0  0  0  0
 18 19  1  1  0  0  0
 18 20  1  0  0  0  0
 20 21  1  6  0  0  0
 22 21  1  1  0  0  0
 22 23  1  0  0  0  0
 22 30  1  0  0  0  0
 23 24  1  1  0  0  0
 23 25  1  0  0  0  0
 25 26  1  6  0  0  0
 25 27  1  0  0  0  0
 27 28  1  1  0  0  0
 27 29  1  0  0  0  0
 29 30  1  0  0  0  0
 29 31  1  6  0  0  0
 31 32  1  0  0  0  0
M  CHG  5   4   1  11   1  13   1  16   1  26   1
M  END
>  <CHROM.1>
117.38993044,-160.23136286,-58.39951534,-161.27764691,-163.91799160,-75.38647681
-157.70964686,-55.80388654,102.98922328,-142.05624180,-145.97069754,172.54094714
-154.53805896,66.87598842,88.79458687,58.03109412,-12.45015978,8.72487917
19.79435686,0.80618125,0.85467895,-2.80868673

>  <Name>
1lc4

>  <RI>
0

>  <Rbt.Current_Directory>
/home/afrankz/demos/rdock_decoys_rna/rnas/1lc4

>  <Rbt.Executable>
rbdock ($Id: //depot/dev/client3/rdock/2013.1/src/exe/rbdock.cxx#4 $)

>  <Rbt.Library>
libRbt.so (2013.1, Build901 2013/11/27)

>  <Rbt.Parameter_File>
/export/apps/rDock/src/rDock_2013.1_src/data/scripts/dock_solv.prm

>  <Rbt.Receptor>
prm/blind_docking_60.prm

>  <SCORE>
-27.2266

>  <SCORE.INTER>
-34.8295

>  <SCORE.INTER.CONST>
1

>  <SCORE.INTER.POLAR>
-5.52015

>  <SCORE.INTER.ROT>
6

>  <SCORE.INTER.SOLV>
25.8759

>  <SCORE.INTER.VDW>
-21.0445

>  <SCORE.INTER.norm>
-1.08842

>  <SCORE.INTRA>
2.05952

>  <SCORE.INTRA.DIHEDRAL>
-11.4263

>  <SCORE.INTRA.DIHEDRAL.0>
44.2576

>  <SCORE.INTRA.POLAR>
-0.0674038

>  <SCORE.INTRA.POLAR.0>
-0.381556

>  <SCORE.INTRA.REPUL>
0.015486

>  <SCORE.INTRA.REPUL.0>
0

>  <SCORE.INTRA.SOLV>
1.27186

>  <SCORE.INTRA.SOLV.lig_0>
-134.592

>  <SCORE.INTRA.VDW>
7.28846

>  <SCORE.INTRA.VDW.0>
-1.01417

>  <SCORE.INTRA.norm>
0.0643599

>  <SCORE.RESTR>
5.5434

>  <SCORE.RESTR.CAVITY>
5.5434

>  <SCORE.RESTR.norm>
0.173231

>  <SCORE.SYSTEM>
0

>  <SCORE.SYSTEM.CONST>
0

>  <SCORE.SYSTEM.DIHEDRAL>
0

>  <SCORE.SYSTEM.SOLV>
0

>  <SCORE.SYSTEM.norm>
0

>  <SCORE.heavy>
32

>  <SCORE.norm>
-0.850832

>  <RMSD>
4.486

$$$$
1lc4
 OpenBabel02141814113D
libRbt.so/2013.1/901 2013/11/27
 32 34  0  0  0  0  0  0  0  0999 V2000
  -10.3690    6.1132   18.6261 C   0  0  2  0  0  0  0  0  0  0  0  0
  -11.7725    6.0425   18.6619 O   0  0  0  0  0  0  0  0  0  0  0  0
   -9.8097    4.7095   18.9352 C   0  0  2  0  0  0  0  0  0  0  0  0
  -10.3167    3.7337   17.9655 N   0  3  0  0  0  0  0  0  0  0  0  0
  -10.1659    4.3021   20.3843 C   0  0  0  0  0  0  0  0  0  0  0  0
   -9.5609    5.3594   21.3244 C   0  0  2  0  0  0  0  0  0  0  0  0
   -9.8134    5.0154   22.6908 O   0  0  0  0  0  0  0  0  0  0  0  0
  -10.1490    6.7495   20.9764 C   0  0  2  0  0  0  0  0  0  0  0  0
   -9.8818    7.0790   19.5836 O   0  0  0  0  0  0  0  0  0  0  0  0
   -9.5714    7.8835   21.8197 C   0  0  0  0  0  0  0  0  0  0  0  0
  -10.4803    9.0596   21.8352 N   0  3  0  0  0  0  0  0  0  0  0  0
  -15.2673    6.8396   16.4011 C   0  0  2  0  0  0  0  0  0  0  0  0
  -16.1833    7.2218   15.3108 N   0  3  0  0  0  0  0  0  0  0  0  0
  -14.4026    8.0305   16.7917 C   0  0  0  0  0  0  0  0  0  0  0  0
  -13.4428    7.6447   17.9227 C   0  0  2  0  0  0  0  0  0  0  0  0
  -12.7076    8.8614   18.3491 N   0  3  0  0  0  0  0  0  0  0  0  0
  -12.5245    6.4578   17.5040 C   0  0  2  0  0  0  0  0  0  0  0  0
  -13.4011    5.2624   17.0497 C   0  0  2  0  0  0  0  0  0  0  0  0
  -12.5767    4.2537   16.5178 O   0  0  0  0  0  0  0  0  0  0  0  0
  -14.3756    5.6885   15.9396 C   0  0  1  0  0  0  0  0  0  0  0  0
  -15.1813    4.5677   15.5773 O   0  0  0  0  0  0  0  0  0  0  0  0
  -16.0545    4.0775   16.5357 C   0  0  2  0  0  0  0  0  0  0  0  0
  -15.8047    2.5697   16.7098 C   0  0  2  0  0  0  0  0  0  0  0  0
  -14.4561    2.3766   17.1171 O   0  0  0  0  0  0  0  0  0  0  0  0
  -16.0601    1.8508   15.3735 C   0  0  1  0  0  0  0  0  0  0  0  0
  -15.8123    0.3837   15.4754 N   0  3  0  0  0  0  0  0  0  0  0  0
  -17.5124    2.1279   14.9141 C   0  0  2  0  0  0  0  0  0  0  0  0
  -17.7708    1.4940   13.6635 O   0  0  0  0  0  0  0  0  0  0  0  0
  -17.7582    3.6449   14.8138 C   0  0  2  0  0  0  0  0  0  0  0  0
  -17.4143    4.3081   16.0844 O   0  0  0  0  0  0  0  0  0  0  0  0
  -19.2061    3.9699   14.5207 C   0  0  0  0  0  0  0  0  0  0  0  0
  -19.6747    3.2846   13.3614 O   0  0  0  0  0  0  0  0  0  0  0  0
  1  2  1  1  0  0  0
  1  3  1  0  0  0  0
  1  9  1  0  0  0  0
  3  4  1  6  0  0  0
  3  5  1  0  0  0  0
  5  6  1  0  0  0  0
  6  7  1  1  0  0  0
  6  8  1  0  0  0  0
  8  9  1  0  0  0  0
  8 10  1  1  0  0  0
 10 11  1  0  0  0  0
 12 13  1  6  0  0  0
 12 14  1  0  0  0  0
 12 20  1  0  0  0  0
 14 15  1  0  0  0  0
 15 16  1  6  0  0  0
 15 17  1  0  0  0  0
 17  2  1  1  0  0  0
 17 18  1  0  0  0  0
 18 19  1  6  0  0  0
 18 20  1  0  0  0  0
 20 21  1  1  0  0  0
 22 21  1  6  0  0  0
 22 23  1  0  0  0  0
 22 30  1  0  0  0  0
 23 24  1  6  0  0  0
 23 25  1  0  0  0  0
 25 26  1  1  0  0  0
 25 27  1  0  0  0  0
 27 28  1  6  0  0  0
 27 29  1  0  0  0  0
 29 30  1  0  0  0  0
 29 31  1  1  0  0  0
 31 32  1  0  0  0  0
M  CHG  5   4   1  11   1  13   1  16   1  26   1
M  END
>  <CHROM.1>
-123.71923982,-119.24884670,-54.03121821,-168.90464455,-158.52807251,-82.57170126
-51.74638016,142.72467210,174.88917210,-56.19245327,-126.60505599,175.50624347
52.60990052,-169.90126536,-53.91462963,171.42402764,-13.75300968,5.01111123
17.44723719,-0.43526560,0.63393440,-3.03592151

>  <Name>
1lc4

>  <RI>
0

>  <Rbt.Current_Directory>
/home/afrankz/demos/rdock_decoys_rna/rnas/1lc4

>  <Rbt.Executable>
rbdock ($Id: //depot/dev/client3/rdock/2013.1/src/exe/rbdock.cxx#4 $)

>  <Rbt.Library>
libRbt.so (2013.1, Build901 2013/11/27)

>  <Rbt.Parameter_File>
/export/apps/rDock/src/rDock_2013.1_src/data/scripts/dock_solv.prm

>  <Rbt.Receptor>
prm/pocket_docking_7.prm

>  <SCORE>
-49.2412

>  <SCORE.INTER>
-33.7322

>  <SCORE.INTER.CONST>
1

>  <SCORE.INTER.POLAR>
-6.37086

>  <SCORE.INTER.ROT>
6

>  <SCORE.INTER.SOLV>
19.7997

>  <SCORE.INTER.VDW>
-15.4518

>  <SCORE.INTER.norm>
-1.05413

>  <SCORE.INTRA>
-15.5091

>  <SCORE.INTRA.DIHEDRAL>
-15.5539

>  <SCORE.INTRA.DIHEDRAL.0>
44.2576

>  <SCORE.INTRA.POLAR>
-1.96813

>  <SCORE.INTRA.POLAR.0>
-0.381556

>  <SCORE.INTRA.REPUL>
0

>  <SCORE.INTRA.REPUL.0>
0

>  <SCORE.INTRA.SOLV>
2.14281

>  <SCORE.INTRA.SOLV.lig_0>
-134.592

>  <SCORE.INTRA.VDW>
-2.11189

>  <SCORE.INTRA.VDW.0>
-1.01417

>  <SCORE.INTRA.norm>
-0.484658

>  <SCORE.RESTR>
0

>  <SCORE.RESTR.CAVITY>
0

>  <SCORE.RESTR.norm>
0

>  <SCORE.SYSTEM>
0

>  <SCORE.SYSTEM.CONST>
0

>  <SCORE.SYSTEM.DIHEDRAL>
0

>  <SCORE.SYSTEM.SOLV>
0

>  <SCORE.SYSTEM.norm>
0

>  <SCORE.heavy>
32

>  <SCORE.norm>
-1.53879

>  <RMSD>
4.581

$$$$
1lc4
 OpenBabel02141814113D
libRbt.so/2013.1/901 2013/11/27
 32 34  0  0  0  0  0  0  0  0999 V2000
  -11.2184    7.5358   20.5147 C   0  0  2  0  0  0  0  0  0  0  0  0
  -11.0885    7.3448   19.1281 O   0  0  0  0  0  0  0  0  0  0  0  0
   -9.8076    7.5079   21.1373 C   0  0  2  0  0  0  0  0  0  0  0  0
   -8.9642    8.5453   20.5356 N   0  3  0  0  0  0  0  0  0  0  0  0
   -9.1802    6.1039   20.9706 C   0  0  0  0  0  0  0  0  0  0  0  0
  -10.1123    5.0950   21.6642 C   0  0  2  0  0  0  0  0  0  0  0  0
   -9.5636    3.7750   21.5889 O   0  0  0  0  0  0  0  0  0  0  0  0
  -11.5142    5.1596   21.0086 C   0  0  2  0  0  0  0  0  0  0  0  0
  -12.0530    6.5095   21.0955 O   0  0  0  0  0  0  0  0  0  0  0  0
  -12.5351    4.2311   21.6615 C   0  0  0  0  0  0  0  0  0  0  0  0
  -13.3133    4.9400   22.7111 N   0  3  0  0  0  0  0  0  0  0  0  0
  -13.8641    6.5034   16.0381 C   0  0  2  0  0  0  0  0  0  0  0  0
  -14.8932    5.8512   15.2079 N   0  3  0  0  0  0  0  0  0  0  0  0
  -12.6334    5.6117   16.1319 C   0  0  0  0  0  0  0  0  0  0  0  0
  -11.5569    6.2775   16.9962 C   0  0  2  0  0  0  0  0  0  0  0  0
  -10.3382    5.4313   16.9616 N   0  3  0  0  0  0  0  0  0  0  0  0
  -12.0877    6.5741   18.4307 C   0  0  2  0  0  0  0  0  0  0  0  0
  -13.3747    7.4335   18.3373 C   0  0  2  0  0  0  0  0  0  0  0  0
  -13.9445    7.5626   19.6174 O   0  0  0  0  0  0  0  0  0  0  0  0
  -14.4214    6.7564   17.4376 C   0  0  1  0  0  0  0  0  0  0  0  0
  -15.5723    7.5963   17.3555 O   0  0  0  0  0  0  0  0  0  0  0  0
  -16.4848    7.5259   18.3965 C   0  0  2  0  0  0  0  0  0  0  0  0
  -17.3978    6.3079   18.1744 C   0  0  2  0  0  0  0  0  0  0  0  0
  -16.5920    5.1370   18.1363 O   0  0  0  0  0  0  0  0  0  0  0  0
  -18.1545    6.4709   16.8445 C   0  0  1  0  0  0  0  0  0  0  0  0
  -19.0426    5.3061   16.5640 N   0  3  0  0  0  0  0  0  0  0  0  0
  -18.9731    7.7845   16.8806 C   0  0  2  0  0  0  0  0  0  0  0  0
  -19.6664    7.9757   15.6495 O   0  0  0  0  0  0  0  0  0  0  0  0
  -18.0474    8.9802   17.1725 C   0  0  2  0  0  0  0  0  0  0  0  0
  -17.2732    8.7443   18.4043 O   0  0  0  0  0  0  0  0  0  0  0  0
  -18.8208   10.2646   17.3731 C   0  0  0  0  0  0  0  0  0  0  0  0
  -18.2119   11.3574   16.6888 O   0  0  0  0  0  0  0  0  0  0  0  0
  1  2  1  6  0  0  0
  1  3  1  0  0  0  0
  1  9  1  0  0  0  0
  3  4  1  6  0  0  0
  3  5  1  0  0  0  0
  5  6  1  0  0  0  0
  6  7  1  6  0  0  0
  6  8  1  0  0  0  0
  8  9  1  0  0  0  0
  8 10  1  1  0  0  0
 10 11  1  0  0  0  0
 12 13  1  6  0  0  0
 12 14  1  0  0  0  0
 12 20  1  0  0  0  0
 14 15  1  0  0  0  0
 15 16  1  1  0  0  0
 15 17  1  0  0  0  0
 17  2  1  1  0  0  0
 17 18  1  0  0  0  0
 18 19  1  1  0  0  0
 18 20  1  0  0  0  0
 20 21  1  6  0  0  0
 22 21  1  6  0  0  0
 22 23  1  0  0  0  0
 22 30  1  0  0  0  0
 23 24  1  6  0  0  0
 23 25  1  0  0  0  0
 25 26  1  1  0  0  0
 25 27  1  0  0  0  0
 27 28  1  6  0  0  0
 27 29  1  0  0  0  0
 29 30  1  0  0  0  0
 29 31  1  1  0  0  0
 31 32  1  0  0  0  0
M  CHG  5   4   1  11   1  13   1  16   1  26   1
M  END
>  <CHROM.1>
143.56864168,-168.63451916,-74.67711081,-76.58467796,93.38367480,132.77241359
63.20039635,-163.77031119,-37.84576571,156.09347022,-81.34045679,-177.08262769
163.65717396,73.17922153,-136.22699015,-70.13166854,-14.10843511,6.80859390
18.58177055,-0.13915662,-0.49245066,0.19869999

>  <Name>
1lc4

>  <RI>
0

>  <Rbt.Current_Directory>
/home/afrankz/demos/rdock_decoys_rna/rnas/1lc4

>  <Rbt.Executable>
rbdock ($Id: //depot/dev/client3/rdock/2013.1/src/exe/rbdock.cxx#4 $)

>  <Rbt.Library>
libRbt.so (2013.1, Build901 2013/11/27)

>  <Rbt.Parameter_File>
/export/apps/rDock/src/rDock_2013.1_src/data/scripts/dock_solv.prm

>  <Rbt.Receptor>
prm/pocket_docking_5.prm

>  <SCORE>
-38.0204

>  <SCORE.INTER>
-26.6965

>  <SCORE.INTER.CONST>
1

>  <SCORE.INTER.POLAR>
-5.06377

>  <SCORE.INTER.ROT>
6

>  <SCORE.INTER.SOLV>
25.9441

>  <SCORE.INTER.VDW>
-17.1664

>  <SCORE.INTER.norm>
-0.834264

>  <SCORE.INTRA>
-11.324

>  <SCORE.INTRA.DIHEDRAL>
-17.0166

>  <SCORE.INTRA.DIHEDRAL.0>
44.2576

>  <SCORE.INTRA.POLAR>
-0.236837

>  <SCORE.INTRA.POLAR.0>
-0.381556

>  <SCORE.INTRA.REPUL>
0

>  <SCORE.INTRA.REPUL.0>
0

>  <SCORE.INTRA.SOLV>
-0.756376

>  <SCORE.INTRA.SOLV.lig_0>
-134.592

>  <SCORE.INTRA.VDW>
-1.63224

>  <SCORE.INTRA.VDW.0>
-1.01417

>  <SCORE.INTRA.norm>
-0.353874

>  <SCORE.RESTR>
0

>  <SCORE.RESTR.CAVITY>
0

>  <SCORE.RESTR.norm>
0

>  <SCORE.SYSTEM>
0

>  <SCORE.SYSTEM.CONST>
0

>  <SCORE.SYSTEM.DIHEDRAL>
0

>  <SCORE.SYSTEM.SOLV>
0

>  <SCORE.SYSTEM.norm>
0

>  <SCORE.heavy>
32

>  <SCORE.norm>
-1.18814

>  <RMSD>
4.713

$$$$
1lc4
 OpenBabel02141814113D
libRbt.so/2013.1/901 2013/11/27
 32 34  0  0  0  0  0  0  0  0999 V2000
  -11.8226    2.6808   19.2115 C   0  0  2  0  0  0  0  0  0  0  0  0
  -12.4211    2.8899   17.9568 O   0  0  0  0  0  0  0  0  0  0  0  0
  -12.0389    1.2057   19.6066 C   0  0  2  0  0  0  0  0  0  0  0  0
  -11.4664    0.3166   18.5909 N   0  3  0  0  0  0  0  0  0  0  0  0
  -13.5458    0.9264   19.8160 C   0  0  0  0  0  0  0  0  0  0  0  0
  -14.0432    1.8749   20.9208 C   0  0  2  0  0  0  0  0  0  0  0  0
  -15.4266    1.6345   21.1997 O   0  0  0  0  0  0  0  0  0  0  0  0
  -13.8046    3.3411   20.4817 C   0  0  2  0  0  0  0  0  0  0  0  0
  -12.3929    3.5636   20.2028 O   0  0  0  0  0  0  0  0  0  0  0  0
  -14.2161    4.3668   21.5349 C   0  0  0  0  0  0  0  0  0  0  0  0
  -13.1035    4.6424   22.4814 N   0  3  0  0  0  0  0  0  0  0  0  0
  -12.4233    7.1277   17.9744 C   0  0  2  0  0  0  0  0  0  0  0  0
  -12.4035    8.5384   17.5462 N   0  3  0  0  0  0  0  0  0  0  0  0
  -11.1449    6.4329   17.5257 C   0  0  0  0  0  0  0  0  0  0  0  0
  -11.1550    4.9636   17.9621 C   0  0  2  0  0  0  0  0  0  0  0  0
   -9.8454    4.3609   17.6095 N   0  3  0  0  0  0  0  0  0  0  0  0
  -12.3844    4.2082   17.3744 C   0  0  2  0  0  0  0  0  0  0  0  0
  -13.6860    4.9463   17.7804 C   0  0  2  0  0  0  0  0  0  0  0  0
  -14.7808    4.3626   17.1166 O   0  0  0  0  0  0  0  0  0  0  0  0
  -13.6317    6.4240   17.3600 C   0  0  1  0  0  0  0  0  0  0  0  0
  -14.8331    7.0685   17.7819 O   0  0  0  0  0  0  0  0  0  0  0  0
  -15.2575    8.1641   17.0464 C   0  0  2  0  0  0  0  0  0  0  0  0
  -16.2687    8.9636   17.8857 C   0  0  2  0  0  0  0  0  0  0  0  0
  -15.6317    9.3838   19.0856 O   0  0  0  0  0  0  0  0  0  0  0  0
  -17.4789    8.0723   18.2154 C   0  0  1  0  0  0  0  0  0  0  0  0
  -18.4868    8.7893   19.0486 N   0  3  0  0  0  0  0  0  0  0  0  0
  -18.1181    7.5714   16.8972 C   0  0  2  0  0  0  0  0  0  0  0  0
  -19.2289    6.7208   17.1717 O   0  0  0  0  0  0  0  0  0  0  0  0
  -17.0691    6.8343   16.0439 C   0  0  2  0  0  0  0  0  0  0  0  0
  -15.8872    7.6883   15.8285 O   0  0  0  0  0  0  0  0  0  0  0  0
  -17.6035    6.4629   14.6784 C   0  0  0  0  0  0  0  0  0  0  0  0
  -18.7046    5.5617   14.7719 O   0  0  0  0  0  0  0  0  0  0  0  0
  1  2  1  6  0  0  0
  1  3  1  0  0  0  0
  1  9  1  0  0  0  0
  3  4  1  6  0  0  0
  3  5  1  0  0  0  0
  5  6  1  0  0  0  0
  6  7  1  6  0  0  0
  6  8  1  0  0  0  0
  8  9  1  0  0  0  0
  8 10  1  1  0  0  0
 10 11  1  0  0  0  0
 12 13  1  6  0  0  0
 12 14  1  0  0  0  0
 12 20  1  0  0  0  0
 14 15  1  0  0  0  0
 15 16  1  6  0  0  0
 15 17  1  0  0  0  0
 17  2  1  1  0  0  0
 17 18  1  0  0  0  0
 18 19  1  6  0  0  0
 18 20  1  0  0  0  0
 20 21  1  1  0  0  0
 22 21  1  1  0  0  0
 22 23  1  0  0  0  0
 22 30  1  0  0  0  0
 23 24  1  1  0  0  0
 23 25  1  0  0  0  0
 25 26  1  6  0  0  0
 25 27  1  0  0  0  0
 27 28  1  1  0  0  0
 27 29  1  0  0  0  0
 29 30  1  0  0  0  0
 29 31  1  6  0  0  0
 31 32  1  0  0  0  0
M  CHG  5   4   1  11   1  13   1  16   1  26   1
M  END
>  <CHROM.1>
178.58632641,25.21563573,-63.21115975,72.90239149,87.71395429,41.49084735
-169.74806431,164.40263698,-173.86629021,85.63555636,-162.30985233,178.93839960
53.69793107,174.28593362,-62.39310810,-64.84103863,-14.41431081,5.31755069
18.28264236,-0.87124355,0.01758905,-0.47717263

>  <Name>
1lc4

>  <RI>
0

>  <Rbt.Current_Directory>
/home/afrankz/demos/rdock_decoys_rna/rnas/1lc4

>  <Rbt.Executable>
rbdock ($Id: //depot/dev/client3/rdock/2013.1/src/exe/rbdock.cxx#4 $)

>  <Rbt.Library>
libRbt.so (2013.1, Build901 2013/11/27)

>  <Rbt.Parameter_File>
/export/apps/rDock/src/rDock_2013.1_src/data/scripts/dock_solv.prm

>  <Rbt.Receptor>
prm/pocket_docking_6.prm

>  <SCORE>
-46.5588

>  <SCORE.INTER>
-29.4377

>  <SCORE.INTER.CONST>
1

>  <SCORE.INTER.POLAR>
-6.22336

>  <SCORE.INTER.ROT>
6

>  <SCORE.INTER.SOLV>
22.7571

>  <SCORE.INTER.VDW>
-14.0663

>  <SCORE.INTER.norm>
-0.919927

>  <SCORE.INTRA>
-17.1211

>  <SCORE.INTRA.DIHEDRAL>
-30.119

>  <SCORE.INTRA.DIHEDRAL.0>
44.2576

>  <SCORE.INTRA.POLAR>
-0.151624

>  <SCORE.INTRA.POLAR.0>
-0.381556

>  <SCORE.INTRA.REPUL>
0

>  <SCORE.INTRA.REPUL.0>
0

>  <SCORE.INTRA.SOLV>
-0.890637

>  <SCORE.INTRA.SOLV.lig_0>
-134.592

>  <SCORE.INTRA.VDW>
-1.1008

>  <SCORE.INTRA.VDW.0>
-1.01417

>  <SCORE.INTRA.norm>
-0.535036

>  <SCORE.RESTR>
0

>  <SCORE.RESTR.CAVITY>
0

>  <SCORE.RESTR.norm>
0

>  <SCORE.SYSTEM>
0

>  <SCORE.SYSTEM.CONST>
0

>  <SCORE.SYSTEM.DIHEDRAL>
0

>  <SCORE.SYSTEM.SOLV>
0

>  <SCORE.SYSTEM.norm>
0

>  <SCORE.heavy>
32

>  <SCORE.norm>
-1.45496

>  <RMSD>
4.881

$$$$
1lc4
 OpenBabel02141814113D
libRbt.so/2013.1/901 2013/11/27
 32 34  0  0  0  0  0  0  0  0999 V2000
  -11.3589    7.3315   19.0985 C   0  0  2  0  0  0  0  0  0  0  0  0
  -12.6698    7.2632   19.6014 O   0  0  0  0  0  0  0  0  0  0  0  0
  -11.1696    6.1768   18.0936 C   0  0  2  0  0  0  0  0  0  0  0  0
  -12.1575    6.2730   17.0145 N   0  3  0  0  0  0  0  0  0  0  0  0
  -11.2617    4.8161   18.8232 C   0  0  0  0  0  0  0  0  0  0  0  0
  -10.1669    4.7953   19.9042 C   0  0  2  0  0  0  0  0  0  0  0  0
  -10.1650    3.5381   20.5888 O   0  0  0  0  0  0  0  0  0  0  0  0
  -10.3963    5.9705   20.8869 C   0  0  2  0  0  0  0  0  0  0  0  0
  -10.3951    7.2382   20.1706 O   0  0  0  0  0  0  0  0  0  0  0  0
   -9.3284    6.0733   21.9731 C   0  0  0  0  0  0  0  0  0  0  0  0
   -9.5713    5.0903   23.0614 N   0  3  0  0  0  0  0  0  0  0  0  0
  -15.0927    9.9966   21.7503 C   0  0  2  0  0  0  0  0  0  0  0  0
  -15.6109   10.9036   22.7908 N   0  3  0  0  0  0  0  0  0  0  0  0
  -14.9698    8.5853   22.3087 C   0  0  0  0  0  0  0  0  0  0  0  0
  -14.4282    7.6329   21.2369 C   0  0  2  0  0  0  0  0  0  0  0  0
  -14.4378    6.2544   21.7866 N   0  3  0  0  0  0  0  0  0  0  0  0
  -13.0374    8.1023   20.7146 C   0  0  2  0  0  0  0  0  0  0  0  0
  -13.1451    9.5604   20.1988 C   0  0  2  0  0  0  0  0  0  0  0  0
  -11.8608   10.0400   19.8813 O   0  0  0  0  0  0  0  0  0  0  0  0
  -13.7224   10.4841   21.2836 C   0  0  1  0  0  0  0  0  0  0  0  0
  -13.8333   11.8048   20.7544 O   0  0  0  0  0  0  0  0  0  0  0  0
  -12.9406   12.1659   19.7574 C   0  0  2  0  0  0  0  0  0  0  0  0
  -12.9433   13.6980   19.6200 C   0  0  2  0  0  0  0  0  0  0  0  0
  -12.5582   14.2664   20.8653 O   0  0  0  0  0  0  0  0  0  0  0  0
  -14.3549   14.1753   19.2365 C   0  0  1  0  0  0  0  0  0  0  0  0
  -14.4244   15.6596   19.1095 N   0  3  0  0  0  0  0  0  0  0  0  0
  -14.7821   13.4943   17.9133 C   0  0  2  0  0  0  0  0  0  0  0  0
  -16.0988   13.8987   17.5451 O   0  0  0  0  0  0  0  0  0  0  0  0
  -14.7052   11.9627   18.0544 C   0  0  2  0  0  0  0  0  0  0  0  0
  -13.3650   11.5536   18.5119 O   0  0  0  0  0  0  0  0  0  0  0  0
  -14.9615   11.2554   16.7421 C   0  0  0  0  0  0  0  0  0  0  0  0
  -14.7057    9.8560   16.8403 O   0  0  0  0  0  0  0  0  0  0  0  0
  1  2  1  1  0  0  0
  1  3  1  0  0  0  0
  1  9  1  0  0  0  0
  3  4  1  6  0  0  0
  3  5  1  0  0  0  0
  5  6  1  0  0  0  0
  6  7  1  1  0  0  0
  6  8  1  0  0  0  0
  8  9  1  0  0  0  0
  8 10  1  1  0  0  0
 10 11  1  0  0  0  0
 12 13  1  1  0  0  0
 12 14  1  0  0  0  0
 12 20  1  0  0  0  0
 14 15  1  0  0  0  0
 15 16  1  1  0  0  0
 15 17  1  0  0  0  0
 17  2  1  6  0  0  0
 17 18  1  0  0  0  0
 18 19  1  1  0  0  0
 18 20  1  0  0  0  0
 20 21  1  6  0  0  0
 22 21  1  1  0  0  0
 22 23  1  0  0  0  0
 22 30  1  0  0  0  0
 23 24  1  1  0  0  0
 23 25  1  0  0  0  0
 25 26  1  6  0  0  0
 25 27  1  0  0  0  0
 27 28  1  1  0  0  0
 27 29  1  0  0  0  0
 29 30  1  0  0  0  0
 29 31  1  6  0  0  0
 31 32  1  0  0  0  0
M  CHG  5   4   1  11   1  13   1  16   1  26   1
M  END
>  <CHROM.1>
170.35085002,-169.16545478,-42.03515964,-178.91830696,-79.39060899,-111.29634917
-48.38388900,-179.91616403,-53.25431870,-150.15262477,-163.60730142,-43.53118987
-23.46749510,-50.40299018,171.85605313,-165.98289795,-12.96343891,9.37529178
19.88927411,-0.15014062,1.14115210,-1.58586569

>  <Name>
1lc4

>  <RI>
0

>  <Rbt.Current_Directory>
/home/afrankz/demos/rdock_decoys_rna/rnas/1lc4

>  <Rbt.Executable>
rbdock ($Id: //depot/dev/client3/rdock/2013.1/src/exe/rbdock.cxx#4 $)

>  <Rbt.Library>
libRbt.so (2013.1, Build901 2013/11/27)

>  <Rbt.Parameter_File>
/export/apps/rDock/src/rDock_2013.1_src/data/scripts/dock_solv.prm

>  <Rbt.Receptor>
prm/blind_docking_60.prm

>  <SCORE>
-12.0521

>  <SCORE.INTER>
-11.1799

>  <SCORE.INTER.CONST>
1

>  <SCORE.INTER.POLAR>
-2.77194

>  <SCORE.INTER.ROT>
6

>  <SCORE.INTER.SOLV>
20.676

>  <SCORE.INTER.VDW>
-12.7055

>  <SCORE.INTER.norm>
-0.349373

>  <SCORE.INTRA>
-9.08412

>  <SCORE.INTRA.DIHEDRAL>
-27.1297

>  <SCORE.INTRA.DIHEDRAL.0>
44.2576

>  <SCORE.INTRA.POLAR>
0.238288

>  <SCORE.INTRA.POLAR.0>
-0.381556

>  <SCORE.INTRA.REPUL>
0

>  <SCORE.INTRA.REPUL.0>
0

>  <SCORE.INTRA.SOLV>
-4.44925

>  <SCORE.INTRA.SOLV.lig_0>
-134.592

>  <SCORE.INTRA.VDW>
5.89518

>  <SCORE.INTRA.VDW.0>
-1.01417

>  <SCORE.INTRA.norm>
-0.283879

>  <SCORE.RESTR>
8.2119

>  <SCORE.RESTR.CAVITY>
8.2119

>  <SCORE.RESTR.norm>
0.256622

>  <SCORE.SYSTEM>
0

>  <SCORE.SYSTEM.CONST>
0

>  <SCORE.SYSTEM.DIHEDRAL>
0

>  <SCORE.SYSTEM.SOLV>
0

>  <SCORE.SYSTEM.norm>
0

>  <SCORE.heavy>
32

>  <SCORE.norm>
-0.37663

>  <RMSD>
5.018

$$$$
1lc4
 OpenBabel02141814113D
libRbt.so/2013.1/901 2013/11/27
 32 34  0  0  0  0  0  0  0  0999 V2000
  -12.9220    7.8356   17.9249 C   0  0  2  0  0  0  0  0  0  0  0  0
  -12.3444    8.3970   16.7729 O   0  0  0  0  0  0  0  0  0  0  0  0
  -12.1328    8.3381   19.1511 C   0  0  2  0  0  0  0  0  0  0  0  0
  -12.1552    9.8030   19.2065 N   0  3  0  0  0  0  0  0  0  0  0  0
  -10.6843    7.7972   19.1098 C   0  0  0  0  0  0  0  0  0  0  0  0
  -10.7642    6.2606   19.0936 C   0  0  2  0  0  0  0  0  0  0  0  0
   -9.4504    5.6923   19.1040 O   0  0  0  0  0  0  0  0  0  0  0  0
  -11.5649    5.8033   17.8489 C   0  0  2  0  0  0  0  0  0  0  0  0
  -12.8963    6.3927   17.8578 O   0  0  0  0  0  0  0  0  0  0  0  0
  -11.7497    4.2901   17.7660 C   0  0  0  0  0  0  0  0  0  0  0  0
  -10.4853    3.6143   17.3732 N   0  3  0  0  0  0  0  0  0  0  0  0
  -15.5772    7.4234   14.2115 C   0  0  2  0  0  0  0  0  0  0  0  0
  -16.4654    7.3252   13.0388 N   0  3  0  0  0  0  0  0  0  0  0  0
  -15.4351    8.8798   14.6323 C   0  0  0  0  0  0  0  0  0  0  0  0
  -14.5105    8.9956   15.8493 C   0  0  2  0  0  0  0  0  0  0  0  0
  -14.4965   10.4113   16.2944 N   0  3  0  0  0  0  0  0  0  0  0  0
  -13.0999    8.4082   15.5450 C   0  0  2  0  0  0  0  0  0  0  0  0
  -13.2449    6.9428   15.0599 C   0  0  2  0  0  0  0  0  0  0  0  0
  -11.9925    6.4668   14.6295 O   0  0  0  0  0  0  0  0  0  0  0  0
  -14.2035    6.8548   13.8613 C   0  0  1  0  0  0  0  0  0  0  0  0
  -14.3308    5.4880   13.4712 O   0  0  0  0  0  0  0  0  0  0  0  0
  -13.5641    5.0601   12.3986 C   0  0  2  0  0  0  0  0  0  0  0  0
  -14.4638    4.2789   11.4258 C   0  0  2  0  0  0  0  0  0  0  0  0
  -15.5074    5.1374   10.9831 O   0  0  0  0  0  0  0  0  0  0  0  0
  -15.0572    3.0560   12.1471 C   0  0  1  0  0  0  0  0  0  0  0  0
  -15.9585    2.2689   11.2569 N   0  3  0  0  0  0  0  0  0  0  0  0
  -13.9055    2.1686   12.6791 C   0  0  2  0  0  0  0  0  0  0  0  0
  -14.4257    1.0385   13.3755 O   0  0  0  0  0  0  0  0  0  0  0  0
  -12.9802    2.9908   13.5953 C   0  0  2  0  0  0  0  0  0  0  0  0
  -12.5071    4.2006   12.8987 O   0  0  0  0  0  0  0  0  0  0  0  0
  -11.7535    2.2115   14.0147 C   0  0  0  0  0  0  0  0  0  0  0  0
  -10.9488    1.8539   12.8932 O   0  0  0  0  0  0  0  0  0  0  0  0
  1  2  1  6  0  0  0
  1  3  1  0  0  0  0
  1  9  1  0  0  0  0
  3  4  1  6  0  0  0
  3  5  1  0  0  0  0
  5  6  1  0  0  0  0
  6  7  1  6  0  0  0
  6  8  1  0  0  0  0
  8  9  1  0  0  0  0
  8 10  1  1  0  0  0
 10 11  1  0  0  0  0
 12 13  1  6  0  0  0
 12 14  1  0  0  0  0
 12 20  1  0  0  0  0
 14 15  1  0  0  0  0
 15 16  1  6  0  0  0
 15 17  1  0  0  0  0
 17  2  1  1  0  0  0
 17 18  1  0  0  0  0
 18 19  1  6  0  0  0
 18 20  1  0  0  0  0
 20 21  1  1  0  0  0
 22 21  1  1  0  0  0
 22 23  1  0  0  0  0
 22 30  1  0  0  0  0
 23 24  1  1  0  0  0
 23 25  1  0  0  0  0
 25 26  1  6  0  0  0
 25 27  1  0  0  0  0
 27 28  1  1  0  0  0
 27 29  1  0  0  0  0
 29 30  1  0  0  0  0
 29 31  1  6  0  0  0
 31 32  1  0  0  0  0
M  CHG  5   4   1  11   1  13   1  16   1  26   1
M  END
>  <CHROM.1>
-162.33377267,50.12802594,-164.50361699,172.15517087,-73.87047906,113.46843968
154.72783733,176.62975807,-178.49651574,139.35204941,-132.06429399,92.19639729
-170.04507505,-58.53642531,62.17214596,58.19717579,-13.16642667,5.77479011
15.14866702,1.12950360,-0.80870633,0.57766178

>  <Name>
1lc4

>  <RI>
0

>  <Rbt.Current_Directory>
/home/afrankz/demos/rdock_decoys_rna/rnas/1lc4

>  <Rbt.Executable>
rbdock ($Id: //depot/dev/client3/rdock/2013.1/src/exe/rbdock.cxx#4 $)

>  <Rbt.Library>
libRbt.so (2013.1, Build901 2013/11/27)

>  <Rbt.Parameter_File>
/export/apps/rDock/src/rDock_2013.1_src/data/scripts/dock_solv.prm

>  <Rbt.Receptor>
prm/pocket_docking_8.prm

>  <SCORE>
-48.187

>  <SCORE.INTER>
-31.2463

>  <SCORE.INTER.CONST>
1

>  <SCORE.INTER.POLAR>
-6.24911

>  <SCORE.INTER.ROT>
6

>  <SCORE.INTER.SOLV>
18.8389

>  <SCORE.INTER.VDW>
-13.8801

>  <SCORE.INTER.norm>
-0.976446

>  <SCORE.INTRA>
-16.9407

>  <SCORE.INTRA.DIHEDRAL>
-19.544

>  <SCORE.INTRA.DIHEDRAL.0>
44.2576

>  <SCORE.INTRA.POLAR>
-1.48335

>  <SCORE.INTRA.POLAR.0>
-0.381556

>  <SCORE.INTRA.REPUL>
0

>  <SCORE.INTRA.REPUL.0>
0

>  <SCORE.INTRA.SOLV>
2.2029

>  <SCORE.INTRA.SOLV.lig_0>
-134.592

>  <SCORE.INTRA.VDW>
-3.22683

>  <SCORE.INTRA.VDW.0>
-1.01417

>  <SCORE.INTRA.norm>
-0.529398

>  <SCORE.RESTR>
0

>  <SCORE.RESTR.CAVITY>
0

>  <SCORE.RESTR.norm>
0

>  <SCORE.SYSTEM>
0

>  <SCORE.SYSTEM.CONST>
0

>  <SCORE.SYSTEM.DIHEDRAL>
0

>  <SCORE.SYSTEM.SOLV>
0

>  <SCORE.SYSTEM.norm>
0

>  <SCORE.heavy>
32

>  <SCORE.norm>
-1.50584

>  <RMSD>
5.093

$$$$
1lc4
 OpenBabel02141814113D
libRbt.so/2013.1/901 2013/11/27
 32 34  0  0  0  0  0  0  0  0999 V2000
   -9.2869    4.9535   20.5576 C   0  0  2  0  0  0  0  0  0  0  0  0
  -10.2702    5.9482   20.4176 O   0  0  0  0  0  0  0  0  0  0  0  0
   -9.7025    4.0280   21.7193 C   0  0  2  0  0  0  0  0  0  0  0  0
  -11.0192    3.4391   21.4560 N   0  3  0  0  0  0  0  0  0  0  0  0
   -9.6912    4.8107   23.0534 C   0  0  0  0  0  0  0  0  0  0  0  0
   -8.2662    5.3535   23.2595 C   0  0  2  0  0  0  0  0  0  0  0  0
   -8.1732    6.0510   24.5062 O   0  0  0  0  0  0  0  0  0  0  0  0
   -7.8926    6.2739   22.0709 C   0  0  2  0  0  0  0  0  0  0  0  0
   -7.9944    5.5457   20.8142 O   0  0  0  0  0  0  0  0  0  0  0  0
   -6.4712    6.8250   22.1510 C   0  0  0  0  0  0  0  0  0  0  0  0
   -6.3957    8.2018   21.5954 N   0  3  0  0  0  0  0  0  0  0  0  0
  -13.4421    5.9357   17.6070 C   0  0  2  0  0  0  0  0  0  0  0  0
  -14.2244    6.0733   16.3649 N   0  3  0  0  0  0  0  0  0  0  0  0
  -12.8778    7.2895   18.0157 C   0  0  0  0  0  0  0  0  0  0  0  0
  -12.0587    7.1590   19.3046 C   0  0  2  0  0  0  0  0  0  0  0  0
  -11.6305    8.5157   19.7274 N   0  3  0  0  0  0  0  0  0  0  0  0
  -10.8884    6.1455   19.1301 C   0  0  2  0  0  0  0  0  0  0  0  0
  -11.4533    4.7813   18.6572 C   0  0  2  0  0  0  0  0  0  0  0  0
  -10.3876    3.9182   18.3418 O   0  0  0  0  0  0  0  0  0  0  0  0
  -12.2971    4.9498   17.3832 C   0  0  1  0  0  0  0  0  0  0  0  0
  -12.8212    3.6774   17.0050 O   0  0  0  0  0  0  0  0  0  0  0  0
  -13.6497    3.0369   17.9131 C   0  0  2  0  0  0  0  0  0  0  0  0
  -13.0265    1.6798   18.2819 C   0  0  2  0  0  0  0  0  0  0  0  0
  -11.7436    1.9085   18.8511 O   0  0  0  0  0  0  0  0  0  0  0  0
  -12.8951    0.8156   17.0155 C   0  0  1  0  0  0  0  0  0  0  0  0
  -12.2752   -0.5088   17.3083 N   0  3  0  0  0  0  0  0  0  0  0  0
  -14.2926    0.6338   16.3744 C   0  0  2  0  0  0  0  0  0  0  0  0
  -14.1987   -0.1433   15.1827 O   0  0  0  0  0  0  0  0  0  0  0  0
  -14.9244    2.0065   16.0778 C   0  0  2  0  0  0  0  0  0  0  0  0
  -14.9475    2.8374   17.2951 O   0  0  0  0  0  0  0  0  0  0  0  0
  -16.3531    1.8848   15.5960 C   0  0  0  0  0  0  0  0  0  0  0  0
  -16.9692    3.1624   15.4493 O   0  0  0  0  0  0  0  0  0  0  0  0
  1  2  1  1  0  0  0
  1  3  1  0  0  0  0
  1  9  1  0  0  0  0
  3  4  1  6  0  0  0
  3  5  1  0  0  0  0
  5  6  1  0  0  0  0
  6  7  1  1  0  0  0
  6  8  1  0  0  0  0
  8  9  1  0  0  0  0
  8 10  1  1  0  0  0
 10 11  1  0  0  0  0
 12 13  1  6  0  0  0
 12 14  1  0  0  0  0
 12 20  1  0  0  0  0
 14 15  1  0  0  0  0
 15 16  1  6  0  0  0
 15 17  1  0  0  0  0
 17  2  1  1  0  0  0
 17 18  1  0  0  0  0
 18 19  1  6  0  0  0
 18 20  1  0  0  0  0
 20 21  1  1  0  0  0
 22 21  1  6  0  0  0
 22 23  1  0  0  0  0
 22 30  1  0  0  0  0
 23 24  1  6  0  0  0
 23 25  1  0  0  0  0
 25 26  1  1  0  0  0
 25 27  1  0  0  0  0
 27 28  1  6  0  0  0
 27 29  1  0  0  0  0
 29 30  1  0  0  0  0
 29 31  1  1  0  0  0
 31 32  1  0  0  0  0
M  CHG  5   4   1  11   1  13   1  16   1  26   1
M  END
>  <CHROM.1>
-125.98037217,172.44968862,-55.32112549,61.99646890,-145.55211144,65.70386338
58.88066006,-172.63870461,171.21581306,-61.34872506,-120.46293797,174.86167552
167.77493648,176.52350483,174.31980381,179.28803748,-11.64628108,4.27709175
19.00460518,-0.49158327,0.73215290,-3.11696769

>  <Name>
1lc4

>  <RI>
0

>  <Rbt.Current_Directory>
/home/afrankz/demos/rdock_decoys_rna/rnas/1lc4

>  <Rbt.Executable>
rbdock ($Id: //depot/dev/client3/rdock/2013.1/src/exe/rbdock.cxx#4 $)

>  <Rbt.Library>
libRbt.so (2013.1, Build901 2013/11/27)

>  <Rbt.Parameter_File>
/export/apps/rDock/src/rDock_2013.1_src/data/scripts/dock_solv.prm

>  <Rbt.Receptor>
prm/pocket_docking_7.prm

>  <SCORE>
-49.2194

>  <SCORE.INTER>
-30.0754

>  <SCORE.INTER.CONST>
1

>  <SCORE.INTER.POLAR>
-4.57785

>  <SCORE.INTER.ROT>
6

>  <SCORE.INTER.SOLV>
23.8149

>  <SCORE.INTER.VDW>
-20.3291

>  <SCORE.INTER.norm>
-0.939856

>  <SCORE.INTRA>
-19.144

>  <SCORE.INTRA.DIHEDRAL>
-25.0706

>  <SCORE.INTRA.DIHEDRAL.0>
44.2576

>  <SCORE.INTRA.POLAR>
-1.48597

>  <SCORE.INTRA.POLAR.0>
-0.381556

>  <SCORE.INTRA.REPUL>
0

>  <SCORE.INTRA.REPUL.0>
0

>  <SCORE.INTRA.SOLV>
0.360467

>  <SCORE.INTRA.SOLV.lig_0>
-134.592

>  <SCORE.INTRA.VDW>
-1.73662

>  <SCORE.INTRA.VDW.0>
-1.01417

>  <SCORE.INTRA.norm>
-0.598249

>  <SCORE.RESTR>
0

>  <SCORE.RESTR.CAVITY>
0

>  <SCORE.RESTR.norm>
0

>  <SCORE.SYSTEM>
0

>  <SCORE.SYSTEM.CONST>
0

>  <SCORE.SYSTEM.DIHEDRAL>
0

>  <SCORE.SYSTEM.SOLV>
0

>  <SCORE.SYSTEM.norm>
0

>  <SCORE.heavy>
32

>  <SCORE.norm>
-1.5381

>  <RMSD>
5.094

$$$$
1lc4
 OpenBabel02141814113D
libRbt.so/2013.1/901 2013/11/27
 32 34  0  0  0  0  0  0  0  0999 V2000
   -9.8456    6.7083   21.7777 C   0  0  2  0  0  0  0  0  0  0  0  0
   -9.8390    5.9225   20.6121 O   0  0  0  0  0  0  0  0  0  0  0  0
   -8.5433    7.5343   21.8070 C   0  0  2  0  0  0  0  0  0  0  0  0
   -8.4414    8.3682   20.6054 N   0  3  0  0  0  0  0  0  0  0  0  0
   -7.3215    6.5963   21.9480 C   0  0  0  0  0  0  0  0  0  0  0  0
   -7.5000    5.7962   23.2502 C   0  0  2  0  0  0  0  0  0  0  0  0
   -6.3744    4.9388   23.4675 O   0  0  0  0  0  0  0  0  0  0  0  0
   -8.8181    4.9859   23.1759 C   0  0  2  0  0  0  0  0  0  0  0  0
   -9.9487    5.8761   22.9540 O   0  0  0  0  0  0  0  0  0  0  0  0
   -9.1186    4.1944   24.4463 C   0  0  0  0  0  0  0  0  0  0  0  0
   -8.8416    5.0031   25.6624 N   0  3  0  0  0  0  0  0  0  0  0  0
  -11.6850    7.4711   17.1259 C   0  0  2  0  0  0  0  0  0  0  0  0
  -12.6593    7.7611   16.0579 N   0  3  0  0  0  0  0  0  0  0  0  0
  -11.3622    5.9832   17.1417 C   0  0  0  0  0  0  0  0  0  0  0  0
  -10.3525    5.6682   18.2509 C   0  0  2  0  0  0  0  0  0  0  0  0
   -9.9794    4.2352   18.1521 N   0  3  0  0  0  0  0  0  0  0  0  0
  -10.8975    6.0911   19.6479 C   0  0  2  0  0  0  0  0  0  0  0  0
  -11.2825    7.5927   19.6186 C   0  0  2  0  0  0  0  0  0  0  0  0
  -11.9255    7.9339   20.8228 O   0  0  0  0  0  0  0  0  0  0  0  0
  -12.2689    7.8832   18.4758 C   0  0  1  0  0  0  0  0  0  0  0  0
  -12.5683    9.2785   18.4679 O   0  0  0  0  0  0  0  0  0  0  0  0
  -13.9040    9.6405   18.3894 C   0  0  2  0  0  0  0  0  0  0  0  0
  -14.1274   10.9011   19.2423 C   0  0  2  0  0  0  0  0  0  0  0  0
  -13.2975   11.9415   18.7414 O   0  0  0  0  0  0  0  0  0  0  0  0
  -13.7674   10.5984   20.7074 C   0  0  1  0  0  0  0  0  0  0  0  0
  -13.9443   11.7937   21.5815 N   0  3  0  0  0  0  0  0  0  0  0  0
  -14.6346    9.4199   21.2132 C   0  0  2  0  0  0  0  0  0  0  0  0
  -14.3049    9.0995   22.5628 O   0  0  0  0  0  0  0  0  0  0  0  0
  -14.4460    8.1918   20.3032 C   0  0  2  0  0  0  0  0  0  0  0  0
  -14.7108    8.5463   18.8972 O   0  0  0  0  0  0  0  0  0  0  0  0
  -15.3894    7.0654   20.6625 C   0  0  0  0  0  0  0  0  0  0  0  0
  -16.3803    7.4872   21.5970 O   0  0  0  0  0  0  0  0  0  0  0  0
  1  2  1  6  0  0  0
  1  3  1  0  0  0  0
  1  9  1  0  0  0  0
  3  4  1  6  0  0  0
  3  5  1  0  0  0  0
  5  6  1  0  0  0  0
  6  7  1  6  0  0  0
  6  8  1  0  0  0  0
  8  9  1  0  0  0  0
  8 10  1  1  0  0  0
 10 11  1  0  0  0  0
 12 13  1  6  0  0  0
 12 14  1  0  0  0  0
 12 20  1  0  0  0  0
 14 15  1  0  0  0  0
 15 16  1  1  0  0  0
 15 17  1  0  0  0  0
 17  2  1  1  0  0  0
 17 18  1  0  0  0  0
 18 19  1  1  0  0  0
 18 20  1  0  0  0  0
 20 21  1  6  0  0  0
 22 21  1  1  0  0  0
 22 23  1  0  0  0  0
 22 30  1  0  0  0  0
 23 24  1  6  0  0  0
 23 25  1  0  0  0  0
 25 26  1  1  0  0  0
 25 27  1  0  0  0  0
 27 28  1  1  0  0  0
 27 29  1  0  0  0  0
 29 30  1  0  0  0  0
 29 31  1  1  0  0  0
 31 32  1  0  0  0  0
M  CHG  5   4   1  11   1  13   1  16   1  26   1
M  END
>  <CHROM.1>
-120.27700262,153.85002469,90.56880123,-88.33152744,42.84218322,172.79945666
-36.77695452,-161.60006947,170.47793280,106.21521742,144.01088586,46.18641191
82.69776204,-69.69956941,10.17675131,-62.69163564,-11.52185479,7.53109434
20.56985093,0.41501254,-0.63938830,1.49767268

>  <Name>
1lc4

>  <RI>
0

>  <Rbt.Current_Directory>
/home/afrankz/demos/rdock_decoys_rna/rnas/1lc4

>  <Rbt.Executable>
rbdock ($Id: //depot/dev/client3/rdock/2013.1/src/exe/rbdock.cxx#4 $)

>  <Rbt.Library>
libRbt.so (2013.1, Build901 2013/11/27)

>  <Rbt.Parameter_File>
/export/apps/rDock/src/rDock_2013.1_src/data/scripts/dock_solv.prm

>  <Rbt.Receptor>
prm/blind_docking_60.prm

>  <SCORE>
-16.2501

>  <SCORE.INTER>
-20.8851

>  <SCORE.INTER.CONST>
1

>  <SCORE.INTER.POLAR>
-5.30661

>  <SCORE.INTER.ROT>
6

>  <SCORE.INTER.SOLV>
35.0771

>  <SCORE.INTER.VDW>
-15.5271

>  <SCORE.INTER.norm>
-0.652659

>  <SCORE.INTRA>
1.22688

>  <SCORE.INTRA.DIHEDRAL>
-7.07159

>  <SCORE.INTRA.DIHEDRAL.0>
44.2576

>  <SCORE.INTRA.POLAR>
-0.0867154

>  <SCORE.INTRA.POLAR.0>
-0.381556

>  <SCORE.INTRA.REPUL>
0

>  <SCORE.INTRA.REPUL.0>
0

>  <SCORE.INTRA.SOLV>
0.818958

>  <SCORE.INTRA.SOLV.lig_0>
-134.592

>  <SCORE.INTRA.VDW>
4.64802

>  <SCORE.INTRA.VDW.0>
-1.01417

>  <SCORE.INTRA.norm>
0.0383399

>  <SCORE.RESTR>
3.40808

>  <SCORE.RESTR.CAVITY>
3.40808

>  <SCORE.RESTR.norm>
0.106503

>  <SCORE.SYSTEM>
0

>  <SCORE.SYSTEM.CONST>
0

>  <SCORE.SYSTEM.DIHEDRAL>
0

>  <SCORE.SYSTEM.SOLV>
0

>  <SCORE.SYSTEM.norm>
0

>  <SCORE.heavy>
32

>  <SCORE.norm>
-0.507817

>  <RMSD>
5.196

$$$$
1lc4
 OpenBabel02141814113D
libRbt.so/2013.1/901 2013/11/27
 32 34  0  0  0  0  0  0  0  0999 V2000
   -9.5370    7.4656   21.1924 C   0  0  2  0  0  0  0  0  0  0  0  0
   -9.5595    7.3578   19.7911 O   0  0  0  0  0  0  0  0  0  0  0  0
   -8.2607    6.7690   21.7070 C   0  0  2  0  0  0  0  0  0  0  0  0
   -7.0698    7.3801   21.1087 N   0  3  0  0  0  0  0  0  0  0  0  0
   -8.3260    5.2523   21.4103 C   0  0  0  0  0  0  0  0  0  0  0  0
   -9.5801    4.6977   22.1083 C   0  0  2  0  0  0  0  0  0  0  0  0
   -9.6753    3.2827   21.9134 O   0  0  0  0  0  0  0  0  0  0  0  0
  -10.8335    5.4260   21.5624 C   0  0  2  0  0  0  0  0  0  0  0  0
  -10.7159    6.8624   21.7700 O   0  0  0  0  0  0  0  0  0  0  0  0
  -12.1332    4.9857   22.2313 C   0  0  0  0  0  0  0  0  0  0  0  0
  -13.3077    5.6667   21.6259 N   0  3  0  0  0  0  0  0  0  0  0  0
  -12.3902    8.4375   16.8278 C   0  0  2  0  0  0  0  0  0  0  0  0
  -13.6229    8.5303   16.0242 N   0  3  0  0  0  0  0  0  0  0  0  0
  -11.8597    7.0106   16.7984 C   0  0  0  0  0  0  0  0  0  0  0  0
  -10.5794    6.9002   17.6338 C   0  0  2  0  0  0  0  0  0  0  0  0
  -10.0360    5.5278   17.4797 N   0  3  0  0  0  0  0  0  0  0  0  0
  -10.8306    7.3252   19.1115 C   0  0  2  0  0  0  0  0  0  0  0  0
  -11.4260    8.7564   19.1428 C   0  0  2  0  0  0  0  0  0  0  0  0
  -11.8054    9.0761   20.4595 O   0  0  0  0  0  0  0  0  0  0  0  0
  -12.6883    8.8437   18.2697 C   0  0  1  0  0  0  0  0  0  0  0  0
  -13.1810   10.1827   18.3031 O   0  0  0  0  0  0  0  0  0  0  0  0
  -14.1345   10.4843   19.2629 C   0  0  2  0  0  0  0  0  0  0  0  0
  -15.4515   10.8489   18.5565 C   0  0  2  0  0  0  0  0  0  0  0  0
  -15.8675    9.7395   17.7702 O   0  0  0  0  0  0  0  0  0  0  0  0
  -15.2275   12.0778   17.6580 C   0  0  1  0  0  0  0  0  0  0  0  0
  -16.4687   12.4665   16.9283 N   0  3  0  0  0  0  0  0  0  0  0  0
  -14.7116   13.2545   18.5218 C   0  0  2  0  0  0  0  0  0  0  0  0
  -14.4705   14.4020   17.7108 O   0  0  0  0  0  0  0  0  0  0  0  0
  -13.4314   12.8424   19.2720 C   0  0  2  0  0  0  0  0  0  0  0  0
  -13.6620   11.6101   20.0472 O   0  0  0  0  0  0  0  0  0  0  0  0
  -12.9764   13.9034   20.2493 C   0  0  0  0  0  0  0  0  0  0  0  0
  -13.9789   14.1859   21.2232 O   0  0  0  0  0  0  0  0  0  0  0  0
  1  2  1  6  0  0  0
  1  3  1  0  0  0  0
  1  9  1  0  0  0  0
  3  4  1  6  0  0  0
  3  5  1  0  0  0  0
  5  6  1  0  0  0  0
  6  7  1  6  0  0  0
  6  8  1  0  0  0  0
  8  9  1  0  0  0  0
  8 10  1  1  0  0  0
 10 11  1  0  0  0  0
 12 13  1  6  0  0  0
 12 14  1  0  0  0  0
 12 20  1  0  0  0  0
 14 15  1  0  0  0  0
 15 16  1  1  0  0  0
 15 17  1  0  0  0  0
 17  2  1  1  0  0  0
 17 18  1  0  0  0  0
 18 19  1  1  0  0  0
 18 20  1  0  0  0  0
 20 21  1  6  0  0  0
 22 21  1  6  0  0  0
 22 23  1  0  0  0  0
 22 30  1  0  0  0  0
 23 24  1  6  0  0  0
 23 25  1  0  0  0  0
 25 26  1  1  0  0  0
 25 27  1  0  0  0  0
 27 28  1  6  0  0  0
 27 29  1  0  0  0  0
 29 30  1  0  0  0  0
 29 31  1  1  0  0  0
 31 32  1  0  0  0  0
M  CHG  5   4   1  11   1  13   1  16   1  26   1
M  END
>  <CHROM.1>
150.83893101,-168.06967571,-32.15697806,-73.10985742,-177.27245877,-75.10552983
149.32673672,-161.94896671,178.39879767,145.65297536,-115.28967777,64.84859571
-179.41083751,-179.31808926,58.96128960,57.62444071,-12.15098994,8.81433409
19.48258999,-0.51252851,-0.86713330,0.57843577

>  <Name>
1lc4

>  <RI>
0

>  <Rbt.Current_Directory>
/home/afrankz/demos/rdock_decoys_rna/rnas/1lc4

>  <Rbt.Executable>
rbdock ($Id: //depot/dev/client3/rdock/2013.1/src/exe/rbdock.cxx#4 $)

>  <Rbt.Library>
libRbt.so (2013.1, Build901 2013/11/27)

>  <Rbt.Parameter_File>
/export/apps/rDock/src/rDock_2013.1_src/data/scripts/dock_solv.prm

>  <Rbt.Receptor>
prm/blind_docking_40.prm

>  <SCORE>
-29.7792

>  <SCORE.INTER>
-19.679

>  <SCORE.INTER.CONST>
1

>  <SCORE.INTER.POLAR>
-3.31447

>  <SCORE.INTER.ROT>
6

>  <SCORE.INTER.SOLV>
29.2897

>  <SCORE.INTER.VDW>
-19.4344

>  <SCORE.INTER.norm>
-0.614969

>  <SCORE.INTRA>
-19.1846

>  <SCORE.INTRA.DIHEDRAL>
-22.8132

>  <SCORE.INTRA.DIHEDRAL.0>
44.2576

>  <SCORE.INTRA.POLAR>
-1.41891

>  <SCORE.INTRA.POLAR.0>
-0.381556

>  <SCORE.INTRA.REPUL>
0

>  <SCORE.INTRA.REPUL.0>
0

>  <SCORE.INTRA.SOLV>
-2.24224

>  <SCORE.INTRA.SOLV.lig_0>
-134.592

>  <SCORE.INTRA.VDW>
-1.83259

>  <SCORE.INTRA.VDW.0>
-1.01417

>  <SCORE.INTRA.norm>
-0.599519

>  <SCORE.RESTR>
9.08441

>  <SCORE.RESTR.CAVITY>
9.08441

>  <SCORE.RESTR.norm>
0.283888

>  <SCORE.SYSTEM>
0

>  <SCORE.SYSTEM.CONST>
0

>  <SCORE.SYSTEM.DIHEDRAL>
0

>  <SCORE.SYSTEM.SOLV>
0

>  <SCORE.SYSTEM.norm>
0

>  <SCORE.heavy>
32

>  <SCORE.norm>
-0.9306

>  <RMSD>
5.201

$$$$
1lc4
 OpenBabel02141814113D
libRbt.so/2013.1/901 2013/11/27
 32 34  0  0  0  0  0  0  0  0999 V2000
  -16.7439    7.2105   22.1426 C   0  0  2  0  0  0  0  0  0  0  0  0
  -15.9306    8.3472   21.9918 O   0  0  0  0  0  0  0  0  0  0  0  0
  -17.7448    7.4845   23.2837 C   0  0  2  0  0  0  0  0  0  0  0  0
  -18.5467    8.6746   22.9836 N   0  3  0  0  0  0  0  0  0  0  0  0
  -16.9923    7.6352   24.6266 C   0  0  0  0  0  0  0  0  0  0  0  0
  -16.2162    6.3292   24.8715 C   0  0  2  0  0  0  0  0  0  0  0  0
  -15.5323    6.3830   26.1279 O   0  0  0  0  0  0  0  0  0  0  0  0
  -15.2272    6.0952   23.7025 C   0  0  2  0  0  0  0  0  0  0  0  0
  -15.9427    6.0446   22.4354 O   0  0  0  0  0  0  0  0  0  0  0  0
  -14.4416    4.7916   23.8213 C   0  0  0  0  0  0  0  0  0  0  0  0
  -13.4775    4.6402   22.7000 N   0  3  0  0  0  0  0  0  0  0  0  0
  -13.8737    9.7227   18.5513 C   0  0  2  0  0  0  0  0  0  0  0  0
  -12.9032    9.8560   17.4493 N   0  3  0  0  0  0  0  0  0  0  0  0
  -13.1582    9.8506   19.8892 C   0  0  0  0  0  0  0  0  0  0  0  0
  -14.1565    9.7099   21.0436 C   0  0  2  0  0  0  0  0  0  0  0  0
  -13.4378    9.9589   22.3180 N   0  3  0  0  0  0  0  0  0  0  0  0
  -14.8979    8.3408   20.9857 C   0  0  2  0  0  0  0  0  0  0  0  0
  -15.5794    8.1811   19.6024 C   0  0  2  0  0  0  0  0  0  0  0  0
  -16.1077    6.8818   19.4888 O   0  0  0  0  0  0  0  0  0  0  0  0
  -14.5603    8.3609   18.4655 C   0  0  1  0  0  0  0  0  0  0  0  0
  -15.2370    8.2381   17.2151 O   0  0  0  0  0  0  0  0  0  0  0  0
  -15.2022    6.9996   16.5936 C   0  0  2  0  0  0  0  0  0  0  0  0
  -14.7346    7.1867   15.1402 C   0  0  2  0  0  0  0  0  0  0  0  0
  -13.4408    7.7765   15.1515 O   0  0  0  0  0  0  0  0  0  0  0  0
  -15.7245    8.1011   14.3975 C   0  0  1  0  0  0  0  0  0  0  0  0
  -15.3104    8.3370   12.9843 N   0  3  0  0  0  0  0  0  0  0  0  0
  -17.1391    7.4744   14.4537 C   0  0  2  0  0  0  0  0  0  0  0  0
  -18.0844    8.3136   13.7942 O   0  0  0  0  0  0  0  0  0  0  0  0
  -17.5564    7.2335   15.9164 C   0  0  2  0  0  0  0  0  0  0  0  0
  -16.5376    6.4318   16.6179 O   0  0  0  0  0  0  0  0  0  0  0  0
  -18.8635    6.4794   16.0199 C   0  0  0  0  0  0  0  0  0  0  0  0
  -18.7764    5.1906   15.4160 O   0  0  0  0  0  0  0  0  0  0  0  0
  1  2  1  1  0  0  0
  1  3  1  0  0  0  0
  1  9  1  0  0  0  0
  3  4  1  6  0  0  0
  3  5  1  0  0  0  0
  5  6  1  0  0  0  0
  6  7  1  1  0  0  0
  6  8  1  0  0  0  0
  8  9  1  0  0  0  0
  8 10  1  1  0  0  0
 10 11  1  0  0  0  0
 12 13  1  6  0  0  0
 12 14  1  0  0  0  0
 12 20  1  0  0  0  0
 14 15  1  0  0  0  0
 15 16  1  1  0  0  0
 15 17  1  0  0  0  0
 17  2  1  1  0  0  0
 17 18  1  0  0  0  0
 18 19  1  1  0  0  0
 18 20  1  0  0  0  0
 20 21  1  6  0  0  0
 22 21  1  6  0  0  0
 22 23  1  0  0  0  0
 22 30  1  0  0  0  0
 23 24  1  1  0  0  0
 23 25  1  0  0  0  0
 25 26  1  6  0  0  0
 25 27  1  0  0  0  0
 27 28  1  1  0  0  0
 27 29  1  0  0  0  0
 29 30  1  0  0  0  0
 29 31  1  6  0  0  0
 31 32  1  0  0  0  0
M  CHG  5   4   1  11   1  13   1  16   1  26   1
M  END
>  <CHROM.1>
179.59296189,-179.78678978,-66.05938918,65.41989683,-178.10010407,55.98835559
-88.43008092,-91.30083783,178.55037648,141.57634170,-128.65231352,68.85668419
-50.14182630,51.51118774,61.06780615,-172.27388245,-15.68488316,7.56295138
19.34889543,1.50297000,0.55012990,1.67883752

>  <Name>
1lc4

>  <RI>
0

>  <Rbt.Current_Directory>
/home/afrankz/demos/rdock_decoys_rna/rnas/1lc4

>  <Rbt.Executable>
rbdock ($Id: //depot/dev/client3/rdock/2013.1/src/exe/rbdock.cxx#4 $)

>  <Rbt.Library>
libRbt.so (2013.1, Build901 2013/11/27)

>  <Rbt.Parameter_File>
/export/apps/rDock/src/rDock_2013.1_src/data/scripts/dock_solv.prm

>  <Rbt.Receptor>
prm/pocket_docking_8.prm

>  <SCORE>
-56.3732

>  <SCORE.INTER>
-33.9005

>  <SCORE.INTER.CONST>
1

>  <SCORE.INTER.POLAR>
-6.93884

>  <SCORE.INTER.ROT>
6

>  <SCORE.INTER.SOLV>
27.3023

>  <SCORE.INTER.VDW>
-16.1716

>  <SCORE.INTER.norm>
-1.05939

>  <SCORE.INTRA>
-22.4727

>  <SCORE.INTRA.DIHEDRAL>
-27.0872

>  <SCORE.INTRA.DIHEDRAL.0>
44.2576

>  <SCORE.INTRA.POLAR>
-1.49542

>  <SCORE.INTRA.POLAR.0>
-0.381556

>  <SCORE.INTRA.REPUL>
0

>  <SCORE.INTRA.REPUL.0>
0

>  <SCORE.INTRA.SOLV>
-3.98914

>  <SCORE.INTRA.SOLV.lig_0>
-134.592

>  <SCORE.INTRA.VDW>
-1.85011

>  <SCORE.INTRA.VDW.0>
-1.01417

>  <SCORE.INTRA.norm>
-0.702273

>  <SCORE.RESTR>
0

>  <SCORE.RESTR.CAVITY>
0

>  <SCORE.RESTR.norm>
0

>  <SCORE.SYSTEM>
0

>  <SCORE.SYSTEM.CONST>
0

>  <SCORE.SYSTEM.DIHEDRAL>
0

>  <SCORE.SYSTEM.SOLV>
0

>  <SCORE.SYSTEM.norm>
0

>  <SCORE.heavy>
32

>  <SCORE.norm>
-1.76166

>  <RMSD>
5.210

$$$$
1lc4
 OpenBabel02141814113D
libRbt.so/2013.1/901 2013/11/27
 32 34  0  0  0  0  0  0  0  0999 V2000
  -10.4857    7.6348   21.8276 C   0  0  2  0  0  0  0  0  0  0  0  0
  -10.2744    7.8866   20.4608 O   0  0  0  0  0  0  0  0  0  0  0  0
   -9.2941    8.2194   22.6132 C   0  0  2  0  0  0  0  0  0  0  0  0
   -9.1671    9.6565   22.3520 N   0  3  0  0  0  0  0  0  0  0  0  0
   -7.9948    7.4630   22.2498 C   0  0  0  0  0  0  0  0  0  0  0  0
   -8.2113    5.9790   22.5942 C   0  0  2  0  0  0  0  0  0  0  0  0
   -7.0238    5.2258   22.3260 O   0  0  0  0  0  0  0  0  0  0  0  0
   -9.4159    5.4368   21.7851 C   0  0  2  0  0  0  0  0  0  0  0  0
  -10.6116    6.2165   22.0720 O   0  0  0  0  0  0  0  0  0  0  0  0
   -9.7509    3.9798   22.0946 C   0  0  0  0  0  0  0  0  0  0  0  0
  -10.7889    3.8796   23.1539 N   0  3  0  0  0  0  0  0  0  0  0  0
  -12.5008    9.4620   17.2172 C   0  0  2  0  0  0  0  0  0  0  0  0
  -13.5749    9.7277   16.2427 N   0  3  0  0  0  0  0  0  0  0  0  0
  -12.0638    8.0066   17.1215 C   0  0  0  0  0  0  0  0  0  0  0  0
  -10.9493    7.7167   18.1329 C   0  0  2  0  0  0  0  0  0  0  0  0
  -10.4754    6.3261   17.9225 N   0  3  0  0  0  0  0  0  0  0  0  0
  -11.4148    8.0192   19.5887 C   0  0  2  0  0  0  0  0  0  0  0  0
  -11.9157    9.4838   19.6764 C   0  0  2  0  0  0  0  0  0  0  0  0
  -12.4872    9.7072   20.9427 O   0  0  0  0  0  0  0  0  0  0  0  0
  -13.0077    9.7530   18.6284 C   0  0  1  0  0  0  0  0  0  0  0  0
  -13.4137   11.1177   18.7248 O   0  0  0  0  0  0  0  0  0  0  0  0
  -14.5350   11.3936   19.4917 C   0  0  2  0  0  0  0  0  0  0  0  0
  -15.7726   11.3959   18.5782 C   0  0  2  0  0  0  0  0  0  0  0  0
  -15.8880   10.1175   17.9662 O   0  0  0  0  0  0  0  0  0  0  0  0
  -15.6123   12.4835   17.5015 C   0  0  1  0  0  0  0  0  0  0  0  0
  -16.7763   12.5191   16.5699 N   0  3  0  0  0  0  0  0  0  0  0  0
  -15.4216   13.8577   18.1886 C   0  0  2  0  0  0  0  0  0  0  0  0
  -15.2448   14.8836   17.2143 O   0  0  0  0  0  0  0  0  0  0  0  0
  -14.2188   13.8097   19.1492 C   0  0  2  0  0  0  0  0  0  0  0  0
  -14.3667   12.6978   20.1054 O   0  0  0  0  0  0  0  0  0  0  0  0
  -14.0863   15.0791   19.9611 C   0  0  0  0  0  0  0  0  0  0  0  0
  -13.8586   16.2143   19.1288 O   0  0  0  0  0  0  0  0  0  0  0  0
  1  2  1  6  0  0  0
  1  3  1  0  0  0  0
  1  9  1  0  0  0  0
  3  4  1  6  0  0  0
  3  5  1  0  0  0  0
  5  6  1  0  0  0  0
  6  7  1  6  0  0  0
  6  8  1  0  0  0  0
  8  9  1  0  0  0  0
  8 10  1  1  0  0  0
 10 11  1  0  0  0  0
 12 13  1  6  0  0  0
 12 14  1  0  0  0  0
 12 20  1  0  0  0  0
 14 15  1  0  0  0  0
 15 16  1  1  0  0  0
 15 17  1  0  0  0  0
 17  2  1  1  0  0  0
 17 18  1  0  0  0  0
 18 19  1  1  0  0  0
 18 20  1  0  0  0  0
 20 21  1  6  0  0  0
 22 21  1  6  0  0  0
 22 23  1  0  0  0  0
 22 30  1  0  0  0  0
 23 24  1  6  0  0  0
 23 25  1  0  0  0  0
 25 26  1  6  0  0  0
 25 27  1  0  0  0  0
 27 28  1  6  0  0  0
 27 29  1  0  0  0  0
 29 30  1  0  0  0  0
 29 31  1  1  0  0  0
 31 32  1  0  0  0  0
M  CHG  5   4   1  11   1  13   1  16   1  26   1
M  END
>  <CHROM.1>
-151.95914523,-157.49647177,-36.00750020,73.56339779,93.35186513,143.37296398
115.35890783,75.48603968,81.43487141,142.35644782,-92.89939099,62.84794183
-177.75280383,-169.47353898,-62.06671452,-87.68071948,-12.22039286,9.55828944
19.73058492,-0.54088462,-0.83954581,0.41771205

>  <Name>
1lc4

>  <RI>
0

>  <Rbt.Current_Directory>
/home/afrankz/demos/rdock_decoys_rna/rnas/1lc4

>  <Rbt.Executable>
rbdock ($Id: //depot/dev/client3/rdock/2013.1/src/exe/rbdock.cxx#4 $)

>  <Rbt.Library>
libRbt.so (2013.1, Build901 2013/11/27)

>  <Rbt.Parameter_File>
/export/apps/rDock/src/rDock_2013.1_src/data/scripts/dock_solv.prm

>  <Rbt.Receptor>
prm/blind_docking_40.prm

>  <SCORE>
-11.4635

>  <SCORE.INTER>
-2.17979

>  <SCORE.INTER.CONST>
1

>  <SCORE.INTER.POLAR>
-4.28242

>  <SCORE.INTER.ROT>
6

>  <SCORE.INTER.SOLV>
39.5428

>  <SCORE.INTER.VDW>
-7.9594

>  <SCORE.INTER.norm>
-0.0681185

>  <SCORE.INTRA>
-14.3037

>  <SCORE.INTRA.DIHEDRAL>
-12.0494

>  <SCORE.INTRA.DIHEDRAL.0>
44.2576

>  <SCORE.INTRA.POLAR>
-1.9106

>  <SCORE.INTRA.POLAR.0>
-0.381556

>  <SCORE.INTRA.REPUL>
0

>  <SCORE.INTRA.REPUL.0>
0

>  <SCORE.INTRA.SOLV>
0.891852

>  <SCORE.INTRA.SOLV.lig_0>
-134.592

>  <SCORE.INTRA.VDW>
-2.22892

>  <SCORE.INTRA.VDW.0>
-1.01417

>  <SCORE.INTRA.norm>
-0.446992

>  <SCORE.RESTR>
5.02006

>  <SCORE.RESTR.CAVITY>
5.02006

>  <SCORE.RESTR.norm>
0.156877

>  <SCORE.SYSTEM>
0

>  <SCORE.SYSTEM.CONST>
0

>  <SCORE.SYSTEM.DIHEDRAL>
0

>  <SCORE.SYSTEM.SOLV>
0

>  <SCORE.SYSTEM.norm>
0

>  <SCORE.heavy>
32

>  <SCORE.norm>
-0.358233

>  <RMSD>
5.308

$$$$
1lc4
 OpenBabel02141814113D
libRbt.so/2013.1/901 2013/11/27
 32 34  0  0  0  0  0  0  0  0999 V2000
  -11.9559    7.8240   20.2209 C   0  0  2  0  0  0  0  0  0  0  0  0
  -11.7202    8.3588   18.9425 O   0  0  0  0  0  0  0  0  0  0  0  0
  -11.2513    8.7252   21.2555 C   0  0  2  0  0  0  0  0  0  0  0  0
  -11.7486   10.1008   21.1560 N   0  3  0  0  0  0  0  0  0  0  0  0
   -9.7184    8.6639   21.0581 C   0  0  0  0  0  0  0  0  0  0  0  0
   -9.2893    7.1949   21.2189 C   0  0  2  0  0  0  0  0  0  0  0  0
   -7.8683    7.0736   21.0954 O   0  0  0  0  0  0  0  0  0  0  0  0
  -10.0215    6.3298   20.1631 C   0  0  2  0  0  0  0  0  0  0  0  0
  -11.4639    6.4683   20.3059 O   0  0  0  0  0  0  0  0  0  0  0  0
   -9.7056    4.8401   20.2713 C   0  0  0  0  0  0  0  0  0  0  0  0
  -10.0714    4.3083   21.6104 N   0  3  0  0  0  0  0  0  0  0  0  0
  -13.8337    9.7787   15.5546 C   0  0  2  0  0  0  0  0  0  0  0  0
  -14.8552    9.9665   14.5082 N   0  3  0  0  0  0  0  0  0  0  0  0
  -13.2779    8.3627   15.4869 C   0  0  0  0  0  0  0  0  0  0  0  0
  -12.2168    8.1536   16.5729 C   0  0  2  0  0  0  0  0  0  0  0  0
  -11.6216    6.8059   16.3934 N   0  3  0  0  0  0  0  0  0  0  0  0
  -12.8044    8.4080   17.9933 C   0  0  2  0  0  0  0  0  0  0  0  0
  -13.4238    9.8283   18.0487 C   0  0  2  0  0  0  0  0  0  0  0  0
  -14.0975    9.9969   19.2725 O   0  0  0  0  0  0  0  0  0  0  0  0
  -14.4584   10.0187   16.9276 C   0  0  1  0  0  0  0  0  0  0  0  0
  -14.9762   11.3468   16.9981 O   0  0  0  0  0  0  0  0  0  0  0  0
  -15.8703   11.6259   18.0198 C   0  0  2  0  0  0  0  0  0  0  0  0
  -17.1082   12.3156   17.4212 C   0  0  2  0  0  0  0  0  0  0  0  0
  -17.6976   11.4423   16.4662 O   0  0  0  0  0  0  0  0  0  0  0  0
  -16.6842   13.6300   16.7428 C   0  0  1  0  0  0  0  0  0  0  0  0
  -17.8433   14.3350   16.1235 N   0  3  0  0  0  0  0  0  0  0  0  0
  -15.9855   14.5391   17.7832 C   0  0  2  0  0  0  0  0  0  0  0  0
  -15.5581   15.7565   17.1765 O   0  0  0  0  0  0  0  0  0  0  0  0
  -14.7918   13.8015   18.4177 C   0  0  2  0  0  0  0  0  0  0  0  0
  -15.2225   12.5065   18.9743 O   0  0  0  0  0  0  0  0  0  0  0  0
  -14.1724   14.5882   19.5514 C   0  0  0  0  0  0  0  0  0  0  0  0
  -12.9802   13.9699   20.0308 O   0  0  0  0  0  0  0  0  0  0  0  0
  1  2  1  6  0  0  0
  1  3  1  0  0  0  0
  1  9  1  0  0  0  0
  3  4  1  6  0  0  0
  3  5  1  0  0  0  0
  5  6  1  0  0  0  0
  6  7  1  6  0  0  0
  6  8  1  0  0  0  0
  8  9  1  0  0  0  0
  8 10  1  1  0  0  0
 10 11  1  0  0  0  0
 12 13  1  6  0  0  0
 12 14  1  0  0  0  0
 12 20  1  0  0  0  0
 14 15  1  0  0  0  0
 15 16  1  1  0  0  0
 15 17  1  0  0  0  0
 17  2  1  1  0  0  0
 17 18  1  0  0  0  0
 18 19  1  1  0  0  0
 18 20  1  0  0  0  0
 20 21  1  6  0  0  0
 22 21  1  6  0  0  0
 22 23  1  0  0  0  0
 22 30  1  0  0  0  0
 23 24  1  6  0  0  0
 23 25  1  0  0  0  0
 25 26  1  1  0  0  0
 25 27  1  0  0  0  0
 27 28  1  6  0  0  0
 27 29  1  0  0  0  0
 29 30  1  0  0  0  0
 29 31  1  1  0  0  0
 31 32  1  0  0  0  0
M  CHG  5   4   1  11   1  13   1  16   1  26   1
M  END
>  <CHROM.1>
-137.65708696,-144.83131693,145.64846402,-50.36961191,58.84098856,58.39356635
-170.86342580,150.07268898,164.82164398,163.71921704,-130.12329788,66.39863069
-122.41713046,176.36138626,-173.39798529,-68.11023325,-13.26679390,10.04632811
18.49732758,-0.38177226,-0.83583516,0.63471299

>  <Name>
1lc4

>  <RI>
0

>  <Rbt.Current_Directory>
/home/afrankz/demos/rdock_decoys_rna/rnas/1lc4

>  <Rbt.Executable>
rbdock ($Id: //depot/dev/client3/rdock/2013.1/src/exe/rbdock.cxx#4 $)

>  <Rbt.Library>
libRbt.so (2013.1, Build901 2013/11/27)

>  <Rbt.Parameter_File>
/export/apps/rDock/src/rDock_2013.1_src/data/scripts/dock_solv.prm

>  <Rbt.Receptor>
prm/blind_docking_40.prm

>  <SCORE>
-42.797

>  <SCORE.INTER>
-35.5761

>  <SCORE.INTER.CONST>
1

>  <SCORE.INTER.POLAR>
-6.05845

>  <SCORE.INTER.ROT>
6

>  <SCORE.INTER.SOLV>
32.5866

>  <SCORE.INTER.VDW>
-21.9848

>  <SCORE.INTER.norm>
-1.11175

>  <SCORE.INTRA>
-13.5146

>  <SCORE.INTRA.DIHEDRAL>
-15.8916

>  <SCORE.INTRA.DIHEDRAL.0>
44.2576

>  <SCORE.INTRA.POLAR>
-1.37679

>  <SCORE.INTRA.POLAR.0>
-0.381556

>  <SCORE.INTRA.REPUL>
0.0238386

>  <SCORE.INTRA.REPUL.0>
0

>  <SCORE.INTRA.SOLV>
-1.01675

>  <SCORE.INTRA.SOLV.lig_0>
-134.592

>  <SCORE.INTRA.VDW>
-0.498551

>  <SCORE.INTRA.VDW.0>
-1.01417

>  <SCORE.INTRA.norm>
-0.422331

>  <SCORE.RESTR>
6.29377

>  <SCORE.RESTR.CAVITY>
6.29377

>  <SCORE.RESTR.norm>
0.19668

>  <SCORE.SYSTEM>
0

>  <SCORE.SYSTEM.CONST>
0

>  <SCORE.SYSTEM.DIHEDRAL>
0

>  <SCORE.SYSTEM.SOLV>
0

>  <SCORE.SYSTEM.norm>
0

>  <SCORE.heavy>
32

>  <SCORE.norm>
-1.33741

>  <RMSD>
5.319

$$$$
1lc4
 OpenBabel02141814113D
libRbt.so/2013.1/901 2013/11/27
 32 34  0  0  0  0  0  0  0  0999 V2000
  -10.2036    4.7211   20.5249 C   0  0  2  0  0  0  0  0  0  0  0  0
  -11.2597    5.6149   20.7734 O   0  0  0  0  0  0  0  0  0  0  0  0
  -10.2827    3.5840   21.5640 C   0  0  2  0  0  0  0  0  0  0  0  0
  -11.5809    2.9075   21.4816 N   0  3  0  0  0  0  0  0  0  0  0  0
  -10.0264    4.1418   22.9837 C   0  0  0  0  0  0  0  0  0  0  0  0
   -8.6325    4.7937   22.9802 C   0  0  2  0  0  0  0  0  0  0  0  0
   -8.3105    5.2904   24.2836 O   0  0  0  0  0  0  0  0  0  0  0  0
   -8.6000    5.9255   21.9232 C   0  0  2  0  0  0  0  0  0  0  0  0
   -8.9307    5.3993   20.6064 O   0  0  0  0  0  0  0  0  0  0  0  0
   -7.2385    6.6052   21.8007 C   0  0  0  0  0  0  0  0  0  0  0  0
   -7.3805    8.0206   21.3692 N   0  3  0  0  0  0  0  0  0  0  0  0
  -11.9556    8.3299   17.5946 C   0  0  2  0  0  0  0  0  0  0  0  0
  -12.5608    9.0303   16.4470 N   0  3  0  0  0  0  0  0  0  0  0  0
  -11.6699    6.8809   17.2243 C   0  0  0  0  0  0  0  0  0  0  0  0
  -11.0435    6.1405   18.4111 C   0  0  2  0  0  0  0  0  0  0  0  0
  -10.6747    4.7727   17.9686 N   0  3  0  0  0  0  0  0  0  0  0  0
  -11.9778    6.1781   19.6573 C   0  0  2  0  0  0  0  0  0  0  0  0
  -12.3187    7.6507   20.0025 C   0  0  2  0  0  0  0  0  0  0  0  0
  -13.2895    7.6794   21.0206 O   0  0  0  0  0  0  0  0  0  0  0  0
  -12.9130    8.3755   18.7839 C   0  0  1  0  0  0  0  0  0  0  0  0
  -13.1799    9.7319   19.1384 O   0  0  0  0  0  0  0  0  0  0  0  0
  -14.5090   10.1164   19.2214 C   0  0  2  0  0  0  0  0  0  0  0  0
  -14.5746   11.6456   19.3743 C   0  0  2  0  0  0  0  0  0  0  0  0
  -13.9514   12.2423   18.2439 O   0  0  0  0  0  0  0  0  0  0  0  0
  -13.8427   12.0633   20.6617 C   0  0  1  0  0  0  0  0  0  0  0  0
  -13.8547   13.5423   20.8530 N   0  3  0  0  0  0  0  0  0  0  0  0
  -14.4937   11.3516   21.8728 C   0  0  2  0  0  0  0  0  0  0  0  0
  -13.8192   11.7004   23.0795 O   0  0  0  0  0  0  0  0  0  0  0  0
  -14.4778    9.8258   21.6647 C   0  0  2  0  0  0  0  0  0  0  0  0
  -15.1054    9.4743   20.3782 O   0  0  0  0  0  0  0  0  0  0  0  0
  -15.2419    9.0946   22.7461 C   0  0  0  0  0  0  0  0  0  0  0  0
  -16.6135    9.4835   22.7755 O   0  0  0  0  0  0  0  0  0  0  0  0
  1  2  1  1  0  0  0
  1  3  1  0  0  0  0
  1  9  1  0  0  0  0
  3  4  1  1  0  0  0
  3  5  1  0  0  0  0
  5  6  1  0  0  0  0
  6  7  1  1  0  0  0
  6  8  1  0  0  0  0
  8  9  1  0  0  0  0
  8 10  1  6  0  0  0
 10 11  1  0  0  0  0
 12 13  1  6  0  0  0
 12 14  1  0  0  0  0
 12 20  1  0  0  0  0
 14 15  1  0  0  0  0
 15 16  1  6  0  0  0
 15 17  1  0  0  0  0
 17  2  1  1  0  0  0
 17 18  1  0  0  0  0
 18 19  1  1  0  0  0
 18 20  1  0  0  0  0
 20 21  1  1  0  0  0
 22 21  1  1  0  0  0
 22 23  1  0  0  0  0
 22 30  1  0  0  0  0
 23 24  1  6  0  0  0
 23 25  1  0  0  0  0
 25 26  1  1  0  0  0
 25 27  1  0  0  0  0
 27 28  1  1  0  0  0
 27 29  1  0  0  0  0
 29 30  1  0  0  0  0
 29 31  1  1  0  0  0
 31 32  1  0  0  0  0
M  CHG  5   4   1  11   1  13   1  16   1  26   1
M  END
>  <CHROM.1>
-139.62166855,-24.08890730,-162.89430078,-64.20930715,-150.96607731,151.14321559
109.72829179,132.96662469,-53.89482813,126.77040298,-170.44136949,169.48767608
73.24189829,58.44449979,60.64404562,-174.32058002,-12.03309236,7.92137176
20.55792698,-0.06899381,0.89121116,-1.64776293

>  <Name>
1lc4

>  <RI>
0

>  <Rbt.Current_Directory>
/home/afrankz/demos/rdock_decoys_rna/rnas/1lc4

>  <Rbt.Executable>
rbdock ($Id: //depot/dev/client3/rdock/2013.1/src/exe/rbdock.cxx#4 $)

>  <Rbt.Library>
libRbt.so (2013.1, Build901 2013/11/27)

>  <Rbt.Parameter_File>
/export/apps/rDock/src/rDock_2013.1_src/data/scripts/dock_solv.prm

>  <Rbt.Receptor>
prm/blind_docking_60.prm

>  <SCORE>
-28.0462

>  <SCORE.INTER>
-30.7751

>  <SCORE.INTER.CONST>
1

>  <SCORE.INTER.POLAR>
-4.11174

>  <SCORE.INTER.ROT>
6

>  <SCORE.INTER.SOLV>
29.7483

>  <SCORE.INTER.VDW>
-24.327

>  <SCORE.INTER.norm>
-0.961723

>  <SCORE.INTRA>
-1.6891

>  <SCORE.INTRA.DIHEDRAL>
-13.8625

>  <SCORE.INTRA.DIHEDRAL.0>
44.2576

>  <SCORE.INTRA.POLAR>
0.353396

>  <SCORE.INTRA.POLAR.0>
-0.381556

>  <SCORE.INTRA.REPUL>
0

>  <SCORE.INTRA.REPUL.0>
0

>  <SCORE.INTRA.SOLV>
-1.11318

>  <SCORE.INTRA.SOLV.lig_0>
-134.592

>  <SCORE.INTRA.VDW>
4.59722

>  <SCORE.INTRA.VDW.0>
-1.01417

>  <SCORE.INTRA.norm>
-0.0527843

>  <SCORE.RESTR>
4.41799

>  <SCORE.RESTR.CAVITY>
4.41799

>  <SCORE.RESTR.norm>
0.138062

>  <SCORE.SYSTEM>
0

>  <SCORE.SYSTEM.CONST>
0

>  <SCORE.SYSTEM.DIHEDRAL>
0

>  <SCORE.SYSTEM.SOLV>
0

>  <SCORE.SYSTEM.norm>
0

>  <SCORE.heavy>
32

>  <SCORE.norm>
-0.876445

>  <RMSD>
5.325

$$$$
1lc4
 OpenBabel02141814113D
libRbt.so/2013.1/901 2013/11/27
 32 34  0  0  0  0  0  0  0  0999 V2000
  -12.0271    5.4321   18.3785 C   0  0  2  0  0  0  0  0  0  0  0  0
  -11.1045    4.9996   17.4101 O   0  0  0  0  0  0  0  0  0  0  0  0
  -11.6027    6.8373   18.8519 C   0  0  2  0  0  0  0  0  0  0  0  0
  -11.5516    7.7639   17.7168 N   0  3  0  0  0  0  0  0  0  0  0  0
  -10.2411    6.7641   19.5821 C   0  0  0  0  0  0  0  0  0  0  0  0
  -10.4057    5.8040   20.7733 C   0  0  2  0  0  0  0  0  0  0  0  0
   -9.1895    5.7274   21.5244 O   0  0  0  0  0  0  0  0  0  0  0  0
  -10.8329    4.4097   20.2510 C   0  0  2  0  0  0  0  0  0  0  0  0
  -12.0703    4.5104   19.4902 O   0  0  0  0  0  0  0  0  0  0  0  0
  -11.0765    3.3916   21.3623 C   0  0  0  0  0  0  0  0  0  0  0  0
  -11.9810    2.3036   20.9066 N   0  3  0  0  0  0  0  0  0  0  0  0
  -11.4658    3.2487   13.5678 C   0  0  2  0  0  0  0  0  0  0  0  0
  -11.8094    2.3358   12.4621 N   0  3  0  0  0  0  0  0  0  0  0  0
  -10.5946    2.5245   14.5850 C   0  0  0  0  0  0  0  0  0  0  0  0
  -10.2335    3.4625   15.7421 C   0  0  2  0  0  0  0  0  0  0  0  0
   -9.2913    2.7539   16.6435 N   0  3  0  0  0  0  0  0  0  0  0  0
  -11.5113    4.0028   16.4512 C   0  0  2  0  0  0  0  0  0  0  0  0
  -12.4291    4.6901   15.4077 C   0  0  2  0  0  0  0  0  0  0  0  0
  -13.6525    5.0307   16.0137 O   0  0  0  0  0  0  0  0  0  0  0  0
  -12.7456    3.7365   14.2441 C   0  0  1  0  0  0  0  0  0  0  0  0
  -13.5634    4.4209   13.2957 O   0  0  0  0  0  0  0  0  0  0  0  0
  -14.8050    4.8599   13.7283 C   0  0  2  0  0  0  0  0  0  0  0  0
  -15.8288    4.6416   12.6012 C   0  0  2  0  0  0  0  0  0  0  0  0
  -15.8705    3.2553   12.2875 O   0  0  0  0  0  0  0  0  0  0  0  0
  -15.4065    5.4502   11.3621 C   0  0  1  0  0  0  0  0  0  0  0  0
  -16.3532    5.2606   10.2254 N   0  3  0  0  0  0  0  0  0  0  0  0
  -15.3024    6.9478   11.7410 C   0  0  2  0  0  0  0  0  0  0  0  0
  -14.8874    7.7203   10.6168 O   0  0  0  0  0  0  0  0  0  0  0  0
  -14.3242    7.1324   12.9160 C   0  0  2  0  0  0  0  0  0  0  0  0
  -14.7108    6.2722   14.0488 O   0  0  0  0  0  0  0  0  0  0  0  0
  -14.3069    8.5565   13.4255 C   0  0  0  0  0  0  0  0  0  0  0  0
  -13.4572    8.6982   14.5618 O   0  0  0  0  0  0  0  0  0  0  0  0
  1  2  1  6  0  0  0
  1  3  1  0  0  0  0
  1  9  1  0  0  0  0
  3  4  1  6  0  0  0
  3  5  1  0  0  0  0
  5  6  1  0  0  0  0
  6  7  1  6  0  0  0
  6  8  1  0  0  0  0
  8  9  1  0  0  0  0
  8 10  1  1  0  0  0
 10 11  1  0  0  0  0
 12 13  1  6  0  0  0
 12 14  1  0  0  0  0
 12 20  1  0  0  0  0
 14 15  1  0  0  0  0
 15 16  1  1  0  0  0
 15 17  1  0  0  0  0
 17  2  1  1  0  0  0
 17 18  1  0  0  0  0
 18 19  1  1  0  0  0
 18 20  1  0  0  0  0
 20 21  1  6  0  0  0
 22 21  1  6  0  0  0
 22 23  1  0  0  0  0
 22 30  1  0  0  0  0
 23 24  1  6  0  0  0
 23 25  1  0  0  0  0
 25 26  1  6  0  0  0
 25 27  1  0  0  0  0
 27 28  1  6  0  0  0
 27 29  1  0  0  0  0
 29 30  1  0  0  0  0
 29 31  1  1  0  0  0
 31 32  1  0  0  0  0
M  CHG  5   4   1  11   1  13   1  16   1  26   1
M  END
>  <CHROM.1>
-156.28455967,-166.38639020,77.10721241,-57.59176240,156.79284702,82.10471619
-49.19194045,119.36714613,-54.39717706,176.21018892,-140.85311064,63.31568161
89.43185722,61.59988996,176.60177021,-49.25488493,-12.65800919,5.08378009
15.67874834,0.41752396,-1.02715498,0.60023341

>  <Name>
1lc4

>  <RI>
0

>  <Rbt.Current_Directory>
/home/afrankz/demos/rdock_decoys_rna/rnas/1lc4

>  <Rbt.Executable>
rbdock ($Id: //depot/dev/client3/rdock/2013.1/src/exe/rbdock.cxx#4 $)

>  <Rbt.Library>
libRbt.so (2013.1, Build901 2013/11/27)

>  <Rbt.Parameter_File>
/export/apps/rDock/src/rDock_2013.1_src/data/scripts/dock_solv.prm

>  <Rbt.Receptor>
prm/pocket_docking_5.prm

>  <SCORE>
-44.0887

>  <SCORE.INTER>
-30.066

>  <SCORE.INTER.CONST>
1

>  <SCORE.INTER.POLAR>
-5.02757

>  <SCORE.INTER.ROT>
6

>  <SCORE.INTER.SOLV>
31.374

>  <SCORE.INTER.VDW>
-21.3435

>  <SCORE.INTER.norm>
-0.939563

>  <SCORE.INTRA>
-14.265

>  <SCORE.INTRA.DIHEDRAL>
-25.6569

>  <SCORE.INTRA.DIHEDRAL.0>
44.2576

>  <SCORE.INTRA.POLAR>
0.0221825

>  <SCORE.INTRA.POLAR.0>
-0.381556

>  <SCORE.INTRA.REPUL>
0

>  <SCORE.INTRA.REPUL.0>
0

>  <SCORE.INTRA.SOLV>
-3.37096

>  <SCORE.INTRA.SOLV.lig_0>
-134.592

>  <SCORE.INTRA.VDW>
0.17348

>  <SCORE.INTRA.VDW.0>
-1.01417

>  <SCORE.INTRA.norm>
-0.445782

>  <SCORE.RESTR>
0.242345

>  <SCORE.RESTR.CAVITY>
0.242345

>  <SCORE.RESTR.norm>
0.00757328

>  <SCORE.SYSTEM>
0

>  <SCORE.SYSTEM.CONST>
0

>  <SCORE.SYSTEM.DIHEDRAL>
0

>  <SCORE.SYSTEM.SOLV>
0

>  <SCORE.SYSTEM.norm>
0

>  <SCORE.heavy>
32

>  <SCORE.norm>
-1.37777

>  <RMSD>
5.346

$$$$
1lc4
 OpenBabel02141814113D
libRbt.so/2013.1/901 2013/11/27
 32 34  0  0  0  0  0  0  0  0999 V2000
  -10.5848    6.3577   20.4336 C   0  0  2  0  0  0  0  0  0  0  0  0
   -9.9821    6.1381   19.1828 O   0  0  0  0  0  0  0  0  0  0  0  0
  -10.3643    7.8345   20.8199 C   0  0  2  0  0  0  0  0  0  0  0  0
  -10.9292    8.7191   19.7962 N   0  3  0  0  0  0  0  0  0  0  0  0
   -8.8572    8.1093   21.0336 C   0  0  0  0  0  0  0  0  0  0  0  0
   -8.3680    7.1661   22.1466 C   0  0  2  0  0  0  0  0  0  0  0  0
   -6.9848    7.4030   22.4294 O   0  0  0  0  0  0  0  0  0  0  0  0
   -8.6106    5.6980   21.7161 C   0  0  2  0  0  0  0  0  0  0  0  0
  -10.0219    5.4792   21.4329 O   0  0  0  0  0  0  0  0  0  0  0  0
   -8.2073    4.6777   22.7776 C   0  0  0  0  0  0  0  0  0  0  0  0
   -8.4494    5.2018   24.1474 N   0  3  0  0  0  0  0  0  0  0  0  0
  -10.2823    2.8746   16.4959 C   0  0  2  0  0  0  0  0  0  0  0  0
  -10.7923    1.9014   15.5127 N   0  3  0  0  0  0  0  0  0  0  0  0
  -11.1149    2.8086   17.7690 C   0  0  0  0  0  0  0  0  0  0  0  0
  -10.5965    3.8190   18.7983 C   0  0  2  0  0  0  0  0  0  0  0  0
  -11.3583    3.6367   20.0589 N   0  3  0  0  0  0  0  0  0  0  0  0
  -10.6344    5.2706   18.2337 C   0  0  2  0  0  0  0  0  0  0  0  0
   -9.8361    5.3289   16.9059 C   0  0  2  0  0  0  0  0  0  0  0  0
  -10.0069    6.5935   16.3130 O   0  0  0  0  0  0  0  0  0  0  0  0
  -10.3566    4.2822   15.9075 C   0  0  1  0  0  0  0  0  0  0  0  0
   -9.5733    4.3507   14.7165 O   0  0  0  0  0  0  0  0  0  0  0  0
   -9.5230    5.5701   14.0593 C   0  0  2  0  0  0  0  0  0  0  0  0
  -10.8728    5.8147   13.3633 C   0  0  2  0  0  0  0  0  0  0  0  0
  -11.8977    5.8203   14.3490 O   0  0  0  0  0  0  0  0  0  0  0  0
  -11.1315    4.6953   12.3398 C   0  0  1  0  0  0  0  0  0  0  0  0
  -12.4405    4.8680   11.6463 N   0  3  0  0  0  0  0  0  0  0  0  0
   -9.9715    4.6626   11.3149 C   0  0  2  0  0  0  0  0  0  0  0  0
  -10.1713    3.6167   10.3668 O   0  0  0  0  0  0  0  0  0  0  0  0
   -8.6250    4.4858   12.0411 C   0  0  2  0  0  0  0  0  0  0  0  0
   -8.4571    5.5222   13.0756 O   0  0  0  0  0  0  0  0  0  0  0  0
   -7.4484    4.6048   11.0980 C   0  0  0  0  0  0  0  0  0  0  0  0
   -6.2222    4.2646   11.7415 O   0  0  0  0  0  0  0  0  0  0  0  0
  1  2  1  6  0  0  0
  1  3  1  0  0  0  0
  1  9  1  0  0  0  0
  3  4  1  6  0  0  0
  3  5  1  0  0  0  0
  5  6  1  0  0  0  0
  6  7  1  6  0  0  0
  6  8  1  0  0  0  0
  8  9  1  0  0  0  0
  8 10  1  1  0  0  0
 10 11  1  0  0  0  0
 12 13  1  6  0  0  0
 12 14  1  0  0  0  0
 12 20  1  0  0  0  0
 14 15  1  0  0  0  0
 15 16  1  1  0  0  0
 15 17  1  0  0  0  0
 17  2  1  1  0  0  0
 17 18  1  0  0  0  0
 18 19  1  6  0  0  0
 18 20  1  0  0  0  0
 20 21  1  6  0  0  0
 22 21  1  6  0  0  0
 22 23  1  0  0  0  0
 22 30  1  0  0  0  0
 23 24  1  1  0  0  0
 23 25  1  0  0  0  0
 25 26  1  6  0  0  0
 25 27  1  0  0  0  0
 27 28  1  6  0  0  0
 27 29  1  0  0  0  0
 29 30  1  0  0  0  0
 29 31  1  6  0  0  0
 31 32  1  0  0  0  0
M  CHG  5   4   1  11   1  13   1  16   1  26   1
M  END
>  <CHROM.1>
-141.98920125,-67.52591345,62.06860359,-59.24352301,33.94115260,-79.35049328
65.10798464,45.45140945,-64.04590295,-179.44969408,-73.13605826,179.44260257
-63.24493131,-54.14777561,-172.21749802,-58.22389258,-9.77817088,5.23596238
16.92701220,1.49632553,0.67181717,1.43720508

>  <Name>
1lc4

>  <RI>
0

>  <Rbt.Current_Directory>
/home/afrankz/demos/rdock_decoys_rna/rnas/1lc4

>  <Rbt.Executable>
rbdock ($Id: //depot/dev/client3/rdock/2013.1/src/exe/rbdock.cxx#4 $)

>  <Rbt.Library>
libRbt.so (2013.1, Build901 2013/11/27)

>  <Rbt.Parameter_File>
/export/apps/rDock/src/rDock_2013.1_src/data/scripts/dock_solv.prm

>  <Rbt.Receptor>
prm/pocket_docking_8.prm

>  <SCORE>
-48.2188

>  <SCORE.INTER>
-28.6687

>  <SCORE.INTER.CONST>
1

>  <SCORE.INTER.POLAR>
-3.61132

>  <SCORE.INTER.ROT>
6

>  <SCORE.INTER.SOLV>
18.3801

>  <SCORE.INTER.VDW>
-20.8014

>  <SCORE.INTER.norm>
-0.895896

>  <SCORE.INTRA>
-19.5501

>  <SCORE.INTRA.DIHEDRAL>
-33.9819

>  <SCORE.INTRA.DIHEDRAL.0>
44.2576

>  <SCORE.INTRA.POLAR>
-1.25389

>  <SCORE.INTRA.POLAR.0>
-0.381556

>  <SCORE.INTRA.REPUL>
0

>  <SCORE.INTRA.REPUL.0>
0

>  <SCORE.INTRA.SOLV>
0.694946

>  <SCORE.INTRA.SOLV.lig_0>
-134.592

>  <SCORE.INTRA.VDW>
1.35656

>  <SCORE.INTRA.VDW.0>
-1.01417

>  <SCORE.INTRA.norm>
-0.610942

>  <SCORE.RESTR>
0

>  <SCORE.RESTR.CAVITY>
0

>  <SCORE.RESTR.norm>
0

>  <SCORE.SYSTEM>
0

>  <SCORE.SYSTEM.CONST>
0

>  <SCORE.SYSTEM.DIHEDRAL>
0

>  <SCORE.SYSTEM.SOLV>
0

>  <SCORE.SYSTEM.norm>
0

>  <SCORE.heavy>
32

>  <SCORE.norm>
-1.50684

>  <RMSD>
5.429

$$$$
1lc4
 OpenBabel02141814113D
libRbt.so/2013.1/901 2013/11/27
 32 34  0  0  0  0  0  0  0  0999 V2000
   -9.7469    7.9715   21.6721 C   0  0  2  0  0  0  0  0  0  0  0  0
   -9.8698    7.7505   20.2893 O   0  0  0  0  0  0  0  0  0  0  0  0
   -8.2466    7.9547   22.0293 C   0  0  2  0  0  0  0  0  0  0  0  0
   -7.5285    8.9777   21.2628 N   0  3  0  0  0  0  0  0  0  0  0  0
   -7.6564    6.5465   21.7819 C   0  0  0  0  0  0  0  0  0  0  0  0
   -8.4451    5.5542   22.6543 C   0  0  2  0  0  0  0  0  0  0  0  0
   -7.9161    4.2320   22.5091 O   0  0  0  0  0  0  0  0  0  0  0  0
   -9.9428    5.6069   22.2621 C   0  0  2  0  0  0  0  0  0  0  0  0
  -10.4601    6.9592   22.4163 O   0  0  0  0  0  0  0  0  0  0  0  0
  -10.8264    4.6942   23.1089 C   0  0  0  0  0  0  0  0  0  0  0  0
  -12.1870    4.5684   22.5237 N   0  3  0  0  0  0  0  0  0  0  0  0
  -12.9542    9.0722   17.7010 C   0  0  2  0  0  0  0  0  0  0  0  0
  -14.2446    9.2064   17.0004 N   0  3  0  0  0  0  0  0  0  0  0  0
  -12.3606    7.6959   17.4327 C   0  0  0  0  0  0  0  0  0  0  0  0
  -11.0197    7.5425   18.1591 C   0  0  2  0  0  0  0  0  0  0  0  0
  -10.4247    6.2384   17.7745 N   0  3  0  0  0  0  0  0  0  0  0  0
  -11.1836    7.7412   19.6956 C   0  0  2  0  0  0  0  0  0  0  0  0
  -11.8419    9.1177   19.9706 C   0  0  2  0  0  0  0  0  0  0  0  0
  -12.1401    9.2277   21.3414 O   0  0  0  0  0  0  0  0  0  0  0  0
  -13.1665    9.2547   19.2025 C   0  0  1  0  0  0  0  0  0  0  0  0
  -13.7180   10.5456   19.4598 O   0  0  0  0  0  0  0  0  0  0  0  0
  -13.1892   11.6140   18.7527 C   0  0  2  0  0  0  0  0  0  0  0  0
  -12.9140   12.7689   19.7308 C   0  0  2  0  0  0  0  0  0  0  0  0
  -11.9946   12.3190   20.7179 O   0  0  0  0  0  0  0  0  0  0  0  0
  -14.2323   13.2016   20.3961 C   0  0  1  0  0  0  0  0  0  0  0  0
  -14.0242   14.3080   21.3743 N   0  3  0  0  0  0  0  0  0  0  0  0
  -15.2419   13.6244   19.3012 C   0  0  2  0  0  0  0  0  0  0  0  0
  -16.4840   14.0072   19.8874 O   0  0  0  0  0  0  0  0  0  0  0  0
  -15.4482   12.4761   18.2959 C   0  0  2  0  0  0  0  0  0  0  0  0
  -14.1537   12.0291   17.7509 O   0  0  0  0  0  0  0  0  0  0  0  0
  -16.3044   12.8936   17.1210 C   0  0  0  0  0  0  0  0  0  0  0  0
  -17.6231   13.2488   17.5311 O   0  0  0  0  0  0  0  0  0  0  0  0
  1  2  1  6  0  0  0
  1  3  1  0  0  0  0
  1  9  1  0  0  0  0
  3  4  1  6  0  0  0
  3  5  1  0  0  0  0
  5  6  1  0  0  0  0
  6  7  1  6  0  0  0
  6  8  1  0  0  0  0
  8  9  1  0  0  0  0
  8 10  1  1  0  0  0
 10 11  1  0  0  0  0
 12 13  1  6  0  0  0
 12 14  1  0  0  0  0
 12 20  1  0  0  0  0
 14 15  1  0  0  0  0
 15 16  1  1  0  0  0
 15 17  1  0  0  0  0
 17  2  1  1  0  0  0
 17 18  1  0  0  0  0
 18 19  1  1  0  0  0
 18 20  1  0  0  0  0
 20 21  1  6  0  0  0
 22 21  1  1  0  0  0
 22 23  1  0  0  0  0
 22 30  1  0  0  0  0
 23 24  1  1  0  0  0
 23 25  1  0  0  0  0
 25 26  1  1  0  0  0
 25 27  1  0  0  0  0
 27 28  1  1  0  0  0
 27 29  1  0  0  0  0
 29 30  1  0  0  0  0
 29 31  1  6  0  0  0
 31 32  1  0  0  0  0
M  CHG  5   4   1  11   1  13   1  16   1  26   1
M  END
>  <CHROM.1>
-179.00612411,177.44113979,43.83222720,69.23584014,-168.40356047,170.89958140
-45.17187839,-31.52040703,111.32110494,-42.39987488,-133.27883419,37.57912822
52.81214484,-171.88776695,-63.16137914,-63.67619624,-12.13344622,9.35411514
20.04299958,-0.45581520,-0.79943346,0.55708263

>  <Name>
1lc4

>  <RI>
0

>  <Rbt.Current_Directory>
/home/afrankz/demos/rdock_decoys_rna/rnas/1lc4

>  <Rbt.Executable>
rbdock ($Id: //depot/dev/client3/rdock/2013.1/src/exe/rbdock.cxx#4 $)

>  <Rbt.Library>
libRbt.so (2013.1, Build901 2013/11/27)

>  <Rbt.Parameter_File>
/export/apps/rDock/src/rDock_2013.1_src/data/scripts/dock_solv.prm

>  <Rbt.Receptor>
prm/blind_docking_40.prm

>  <SCORE>
-27.6865

>  <SCORE.INTER>
-16.7475

>  <SCORE.INTER.CONST>
1

>  <SCORE.INTER.POLAR>
-6.829

>  <SCORE.INTER.ROT>
6

>  <SCORE.INTER.SOLV>
32.63

>  <SCORE.INTER.VDW>
-6.87832

>  <SCORE.INTER.norm>
-0.523359

>  <SCORE.INTRA>
-16.5668

>  <SCORE.INTRA.DIHEDRAL>
-22.8954

>  <SCORE.INTRA.DIHEDRAL.0>
44.2576

>  <SCORE.INTRA.POLAR>
-0.853229

>  <SCORE.INTRA.POLAR.0>
-0.381556

>  <SCORE.INTRA.REPUL>
0

>  <SCORE.INTRA.REPUL.0>
0

>  <SCORE.INTRA.SOLV>
-3.59336

>  <SCORE.INTRA.SOLV.lig_0>
-134.592

>  <SCORE.INTRA.VDW>
-0.42142

>  <SCORE.INTRA.VDW.0>
-1.01417

>  <SCORE.INTRA.norm>
-0.517712

>  <SCORE.RESTR>
5.6278

>  <SCORE.RESTR.CAVITY>
5.6278

>  <SCORE.RESTR.norm>
0.175869

>  <SCORE.SYSTEM>
0

>  <SCORE.SYSTEM.CONST>
0

>  <SCORE.SYSTEM.DIHEDRAL>
0

>  <SCORE.SYSTEM.SOLV>
0

>  <SCORE.SYSTEM.norm>
0

>  <SCORE.heavy>
32

>  <SCORE.norm>
-0.865202

>  <RMSD>
5.455

$$$$
1lc4
 OpenBabel02141814113D
libRbt.so/2013.1/901 2013/11/27
 32 34  0  0  0  0  0  0  0  0999 V2000
  -10.5665    5.9404   21.7936 C   0  0  2  0  0  0  0  0  0  0  0  0
  -10.2712    6.2147   20.4469 O   0  0  0  0  0  0  0  0  0  0  0  0
   -9.6541    4.7876   22.2598 C   0  0  2  0  0  0  0  0  0  0  0  0
   -8.2442    5.1523   22.0893 N   0  3  0  0  0  0  0  0  0  0  0  0
   -9.9986    3.4915   21.4891 C   0  0  0  0  0  0  0  0  0  0  0  0
  -11.4790    3.1712   21.7604 C   0  0  2  0  0  0  0  0  0  0  0  0
  -11.8526    1.9507   21.1122 O   0  0  0  0  0  0  0  0  0  0  0  0
  -12.3547    4.3547   21.2787 C   0  0  2  0  0  0  0  0  0  0  0  0
  -11.9580    5.5848   21.9491 O   0  0  0  0  0  0  0  0  0  0  0  0
  -13.8442    4.1606   21.5518 C   0  0  0  0  0  0  0  0  0  0  0  0
  -14.3011    5.0174   22.6773 N   0  3  0  0  0  0  0  0  0  0  0  0
  -12.0358    8.5025   17.3465 C   0  0  2  0  0  0  0  0  0  0  0  0
  -13.0024    9.0639   16.3851 N   0  3  0  0  0  0  0  0  0  0  0  0
  -11.8745    7.0078   17.1050 C   0  0  0  0  0  0  0  0  0  0  0  0
  -10.8742    6.4114   18.1014 C   0  0  2  0  0  0  0  0  0  0  0  0
  -10.6601    4.9846   17.7535 N   0  3  0  0  0  0  0  0  0  0  0  0
  -11.3318    6.6483   19.5717 C   0  0  2  0  0  0  0  0  0  0  0  0
  -11.5537    8.1649   19.8050 C   0  0  2  0  0  0  0  0  0  0  0  0
  -12.1228    8.3638   21.0765 O   0  0  0  0  0  0  0  0  0  0  0  0
  -12.5344    8.7405   18.7705 C   0  0  1  0  0  0  0  0  0  0  0  0
  -12.6823   10.1407   19.0037 O   0  0  0  0  0  0  0  0  0  0  0  0
  -13.5755   10.5290   19.9899 C   0  0  2  0  0  0  0  0  0  0  0  0
  -15.0025   10.4689   19.4185 C   0  0  2  0  0  0  0  0  0  0  0  0
  -15.2685    9.1362   19.0000 O   0  0  0  0  0  0  0  0  0  0  0  0
  -15.1159   11.4299   18.2222 C   0  0  1  0  0  0  0  0  0  0  0  0
  -16.4761   11.3988   17.6113 N   0  3  0  0  0  0  0  0  0  0  0  0
  -14.7580   12.8638   18.6835 C   0  0  2  0  0  0  0  0  0  0  0  0
  -14.8299   13.7740   17.5885 O   0  0  0  0  0  0  0  0  0  0  0  0
  -13.3531   12.8846   19.3140 C   0  0  2  0  0  0  0  0  0  0  0  0
  -13.2578   11.8861   20.3941 O   0  0  0  0  0  0  0  0  0  0  0  0
  -13.0204   14.2292   19.9216 C   0  0  0  0  0  0  0  0  0  0  0  0
  -13.7756   14.4723   21.1064 O   0  0  0  0  0  0  0  0  0  0  0  0
  1  2  1  6  0  0  0
  1  3  1  0  0  0  0
  1  9  1  0  0  0  0
  3  4  1  6  0  0  0
  3  5  1  0  0  0  0
  5  6  1  0  0  0  0
  6  7  1  6  0  0  0
  6  8  1  0  0  0  0
  8  9  1  0  0  0  0
  8 10  1  1  0  0  0
 10 11  1  0  0  0  0
 12 13  1  6  0  0  0
 12 14  1  0  0  0  0
 12 20  1  0  0  0  0
 14 15  1  0  0  0  0
 15 16  1  6  0  0  0
 15 17  1  0  0  0  0
 17  2  1  1  0  0  0
 17 18  1  0  0  0  0
 18 19  1  1  0  0  0
 18 20  1  0  0  0  0
 20 21  1  1  0  0  0
 22 21  1  6  0  0  0
 22 23  1  0  0  0  0
 22 30  1  0  0  0  0
 23 24  1  6  0  0  0
 23 25  1  0  0  0  0
 25 26  1  1  0  0  0
 25 27  1  0  0  0  0
 27 28  1  6  0  0  0
 27 29  1  0  0  0  0
 29 30  1  0  0  0  0
 29 31  1  1  0  0  0
 31 32  1  0  0  0  0
M  CHG  5   4   1  11   1  13   1  16   1  26   1
M  END
>  <CHROM.1>
146.44537793,-160.90613533,-59.46214040,-55.33214138,105.90830511,28.36854628
51.90814587,-176.38803118,160.61568398,155.67413518,-79.68884427,-78.14554566
67.53169958,62.00994635,71.03407680,81.00033616,-12.57842854,8.16974845,19.82752905
-0.37322380,-1.17194270,0.89285509

>  <Name>
1lc4

>  <RI>
0

>  <Rbt.Current_Directory>
/home/afrankz/demos/rdock_decoys_rna/rnas/1lc4

>  <Rbt.Executable>
rbdock ($Id: //depot/dev/client3/rdock/2013.1/src/exe/rbdock.cxx#4 $)

>  <Rbt.Library>
libRbt.so (2013.1, Build901 2013/11/27)

>  <Rbt.Parameter_File>
/export/apps/rDock/src/rDock_2013.1_src/data/scripts/dock_solv.prm

>  <Rbt.Receptor>
prm/blind_docking_60.prm

>  <SCORE>
-18.0968

>  <SCORE.INTER>
-14.7695

>  <SCORE.INTER.CONST>
1

>  <SCORE.INTER.POLAR>
-2.89189

>  <SCORE.INTER.ROT>
6

>  <SCORE.INTER.SOLV>
25.4446

>  <SCORE.INTER.VDW>
-16.2882

>  <SCORE.INTER.norm>
-0.461545

>  <SCORE.INTRA>
-12.1552

>  <SCORE.INTRA.DIHEDRAL>
-21.3413

>  <SCORE.INTRA.DIHEDRAL.0>
44.2576

>  <SCORE.INTRA.POLAR>
0.0805624

>  <SCORE.INTRA.POLAR.0>
-0.381556

>  <SCORE.INTRA.REPUL>
0

>  <SCORE.INTRA.REPUL.0>
0

>  <SCORE.INTRA.SOLV>
-0.249595

>  <SCORE.INTRA.SOLV.lig_0>
-134.592

>  <SCORE.INTRA.VDW>
-1.63369

>  <SCORE.INTRA.VDW.0>
-1.01417

>  <SCORE.INTRA.norm>
-0.379851

>  <SCORE.RESTR>
8.82787

>  <SCORE.RESTR.CAVITY>
8.82787

>  <SCORE.RESTR.norm>
0.275871

>  <SCORE.SYSTEM>
0

>  <SCORE.SYSTEM.CONST>
0

>  <SCORE.SYSTEM.DIHEDRAL>
0

>  <SCORE.SYSTEM.SOLV>
0

>  <SCORE.SYSTEM.norm>
0

>  <SCORE.heavy>
32

>  <SCORE.norm>
-0.565526

>  <RMSD>
5.461

$$$$
1lc4
 OpenBabel02141814113D
libRbt.so/2013.1/901 2013/11/27
 32 34  0  0  0  0  0  0  0  0999 V2000
  -10.3093    5.7813   17.7320 C   0  0  2  0  0  0  0  0  0  0  0  0
  -11.6323    5.7710   17.2572 O   0  0  0  0  0  0  0  0  0  0  0  0
  -10.0649    4.4666   18.5005 C   0  0  2  0  0  0  0  0  0  0  0  0
  -10.3063    3.3135   17.6278 N   0  3  0  0  0  0  0  0  0  0  0  0
  -10.9566    4.4149   19.7633 C   0  0  0  0  0  0  0  0  0  0  0  0
  -10.6041    5.6370   20.6293 C   0  0  2  0  0  0  0  0  0  0  0  0
  -11.3629    5.6244   21.8431 O   0  0  0  0  0  0  0  0  0  0  0  0
  -10.8631    6.9307   19.8176 C   0  0  2  0  0  0  0  0  0  0  0  0
  -10.0829    6.9227   18.5882 O   0  0  0  0  0  0  0  0  0  0  0  0
  -10.4927    8.2062   20.5703 C   0  0  0  0  0  0  0  0  0  0  0  0
   -9.0194    8.3330   20.7219 N   0  3  0  0  0  0  0  0  0  0  0  0
  -13.5454    6.2918   13.5116 C   0  0  2  0  0  0  0  0  0  0  0  0
  -13.9622    6.8353   12.2060 N   0  3  0  0  0  0  0  0  0  0  0  0
  -13.8999    7.2754   14.6185 C   0  0  0  0  0  0  0  0  0  0  0  0
  -13.4680    6.7231   15.9815 C   0  0  2  0  0  0  0  0  0  0  0  0
  -13.9381    7.6560   17.0357 N   0  3  0  0  0  0  0  0  0  0  0  0
  -11.9364    6.4396   16.0165 C   0  0  2  0  0  0  0  0  0  0  0  0
  -11.5617    5.4840   14.8545 C   0  0  2  0  0  0  0  0  0  0  0  0
  -10.1619    5.3590   14.7850 O   0  0  0  0  0  0  0  0  0  0  0  0
  -12.0375    6.0485   13.5060 C   0  0  1  0  0  0  0  0  0  0  0  0
  -11.7006    5.1229   12.4734 O   0  0  0  0  0  0  0  0  0  0  0  0
  -11.2433    5.6480   11.2748 C   0  0  2  0  0  0  0  0  0  0  0  0
  -10.9771    4.4916   10.2959 C   0  0  2  0  0  0  0  0  0  0  0  0
  -12.1898    3.7761   10.0975 O   0  0  0  0  0  0  0  0  0  0  0  0
   -9.9046    3.5587   10.8849 C   0  0  1  0  0  0  0  0  0  0  0  0
   -9.6191    2.4030    9.9865 N   0  3  0  0  0  0  0  0  0  0  0  0
   -8.6145    4.3707   11.1555 C   0  0  2  0  0  0  0  0  0  0  0  0
   -7.6090    3.5364   11.7262 O   0  0  0  0  0  0  0  0  0  0  0  0
   -8.9204    5.5620   12.0823 C   0  0  2  0  0  0  0  0  0  0  0  0
  -10.0152    6.3786   11.5281 O   0  0  0  0  0  0  0  0  0  0  0  0
   -7.7264    6.4752   12.2504 C   0  0  0  0  0  0  0  0  0  0  0  0
   -6.7309    5.8907   13.0875 O   0  0  0  0  0  0  0  0  0  0  0  0
  1  2  1  1  0  0  0
  1  3  1  0  0  0  0
  1  9  1  0  0  0  0
  3  4  1  6  0  0  0
  3  5  1  0  0  0  0
  5  6  1  0  0  0  0
  6  7  1  1  0  0  0
  6  8  1  0  0  0  0
  8  9  1  0  0  0  0
  8 10  1  1  0  0  0
 10 11  1  0  0  0  0
 12 13  1  6  0  0  0
 12 14  1  0  0  0  0
 12 20  1  0  0  0  0
 14 15  1  0  0  0  0
 15 16  1  1  0  0  0
 15 17  1  0  0  0  0
 17  2  1  1  0  0  0
 17 18  1  0  0  0  0
 18 19  1  6  0  0  0
 18 20  1  0  0  0  0
 20 21  1  6  0  0  0
 22 21  1  1  0  0  0
 22 23  1  0  0  0  0
 22 30  1  0  0  0  0
 23 24  1  1  0  0  0
 23 25  1  0  0  0  0
 25 26  1  6  0  0  0
 25 27  1  0  0  0  0
 27 28  1  1  0  0  0
 27 29  1  0  0  0  0
 29 30  1  0  0  0  0
 29 31  1  6  0  0  0
 31 32  1  0  0  0  0
M  CHG  5   4   1  11   1  13   1  16   1  26   1
M  END
>  <CHROM.1>
-148.24357584,-159.95268070,-73.07976396,59.28505571,70.00200746,51.92532599
68.80382729,174.15451113,-56.71823900,97.78685577,-178.46023551,-55.20478027
63.85790044,67.27187964,-73.70197803,-58.47964231,-10.76994300,5.63081418
15.07395608,-1.65239939,0.32318918,-1.75296911

>  <Name>
1lc4

>  <RI>
0

>  <Rbt.Current_Directory>
/home/afrankz/demos/rdock_decoys_rna/rnas/1lc4

>  <Rbt.Executable>
rbdock ($Id: //depot/dev/client3/rdock/2013.1/src/exe/rbdock.cxx#4 $)

>  <Rbt.Library>
libRbt.so (2013.1, Build901 2013/11/27)

>  <Rbt.Parameter_File>
/export/apps/rDock/src/rDock_2013.1_src/data/scripts/dock_solv.prm

>  <Rbt.Receptor>
prm/pocket_docking_7.prm

>  <SCORE>
-43.2932

>  <SCORE.INTER>
-24.123

>  <SCORE.INTER.CONST>
1

>  <SCORE.INTER.POLAR>
-3.17007

>  <SCORE.INTER.ROT>
6

>  <SCORE.INTER.SOLV>
17.2145

>  <SCORE.INTER.VDW>
-18.8533

>  <SCORE.INTER.norm>
-0.753845

>  <SCORE.INTRA>
-19.1702

>  <SCORE.INTRA.DIHEDRAL>
-31.0794

>  <SCORE.INTRA.DIHEDRAL.0>
44.2576

>  <SCORE.INTRA.POLAR>
0.325303

>  <SCORE.INTRA.POLAR.0>
-0.381556

>  <SCORE.INTRA.REPUL>
0

>  <SCORE.INTRA.REPUL.0>
0

>  <SCORE.INTRA.SOLV>
-1.07738

>  <SCORE.INTRA.SOLV.lig_0>
-134.592

>  <SCORE.INTRA.VDW>
-4.19787

>  <SCORE.INTRA.VDW.0>
-1.01417

>  <SCORE.INTRA.norm>
-0.599069

>  <SCORE.RESTR>
0

>  <SCORE.RESTR.CAVITY>
0

>  <SCORE.RESTR.norm>
0

>  <SCORE.SYSTEM>
0

>  <SCORE.SYSTEM.CONST>
0

>  <SCORE.SYSTEM.DIHEDRAL>
0

>  <SCORE.SYSTEM.SOLV>
0

>  <SCORE.SYSTEM.norm>
0

>  <SCORE.heavy>
32

>  <SCORE.norm>
-1.35291

>  <RMSD>
5.525

$$$$
1lc4
 OpenBabel02141814113D
libRbt.so/2013.1/901 2013/11/27
 32 34  0  0  0  0  0  0  0  0999 V2000
  -16.0976    3.2781   18.6651 C   0  0  2  0  0  0  0  0  0  0  0  0
  -15.1998    3.8049   19.6098 O   0  0  0  0  0  0  0  0  0  0  0  0
  -17.3838    2.8599   19.4066 C   0  0  2  0  0  0  0  0  0  0  0  0
  -17.9649    4.0092   20.1073 N   0  3  0  0  0  0  0  0  0  0  0  0
  -17.0817    1.6982   20.3821 C   0  0  0  0  0  0  0  0  0  0  0  0
  -16.5161    0.5322   19.5525 C   0  0  2  0  0  0  0  0  0  0  0  0
  -16.2587   -0.5987   20.3915 O   0  0  0  0  0  0  0  0  0  0  0  0
  -15.2295    0.9981   18.8264 C   0  0  2  0  0  0  0  0  0  0  0  0
  -15.5132    2.1484   17.9800 O   0  0  0  0  0  0  0  0  0  0  0  0
  -14.6151   -0.0730   17.9288 C   0  0  0  0  0  0  0  0  0  0  0  0
  -13.1620    0.1647   17.7244 N   0  3  0  0  0  0  0  0  0  0  0  0
  -13.0167    7.4311   19.3967 C   0  0  2  0  0  0  0  0  0  0  0  0
  -12.0190    8.4560   19.0391 N   0  3  0  0  0  0  0  0  0  0  0  0
  -12.3243    6.2370   20.0394 C   0  0  0  0  0  0  0  0  0  0  0  0
  -13.3513    5.1622   20.4127 C   0  0  2  0  0  0  0  0  0  0  0  0
  -12.6493    4.0753   21.1397 N   0  3  0  0  0  0  0  0  0  0  0  0
  -14.1476    4.6831   19.1622 C   0  0  2  0  0  0  0  0  0  0  0  0
  -14.8065    5.9045   18.4709 C   0  0  2  0  0  0  0  0  0  0  0  0
  -15.3858    5.4971   17.2550 O   0  0  0  0  0  0  0  0  0  0  0  0
  -13.7574    6.9784   18.1399 C   0  0  1  0  0  0  0  0  0  0  0  0
  -14.4127    8.0934   17.5365 O   0  0  0  0  0  0  0  0  0  0  0  0
  -13.6423    8.9290   16.7429 C   0  0  2  0  0  0  0  0  0  0  0  0
  -14.5609    9.9702   16.0809 C   0  0  2  0  0  0  0  0  0  0  0  0
  -15.2147   10.7137   17.1016 O   0  0  0  0  0  0  0  0  0  0  0  0
  -15.6008    9.2516   15.2035 C   0  0  1  0  0  0  0  0  0  0  0  0
  -16.5360   10.2122   14.5504 N   0  3  0  0  0  0  0  0  0  0  0  0
  -14.8684    8.3958   14.1413 C   0  0  2  0  0  0  0  0  0  0  0  0
  -15.8079    7.6968   13.3279 O   0  0  0  0  0  0  0  0  0  0  0  0
  -13.9044    7.4089   14.8257 C   0  0  2  0  0  0  0  0  0  0  0  0
  -12.9856    8.1269   15.7273 O   0  0  0  0  0  0  0  0  0  0  0  0
  -13.0510    6.6595   13.8267 C   0  0  0  0  0  0  0  0  0  0  0  0
  -12.0691    7.5067   13.2338 O   0  0  0  0  0  0  0  0  0  0  0  0
  1  2  1  1  0  0  0
  1  3  1  0  0  0  0
  1  9  1  0  0  0  0
  3  4  1  1  0  0  0
  3  5  1  0  0  0  0
  5  6  1  0  0  0  0
  6  7  1  1  0  0  0
  6  8  1  0  0  0  0
  8  9  1  0  0  0  0
  8 10  1  6  0  0  0
 10 11  1  0  0  0  0
 12 13  1  6  0  0  0
 12 14  1  0  0  0  0
 12 20  1  0  0  0  0
 14 15  1  0  0  0  0
 15 16  1  6  0  0  0
 15 17  1  0  0  0  0
 17  2  1  1  0  0  0
 17 18  1  0  0  0  0
 18 19  1  6  0  0  0
 18 20  1  0  0  0  0
 20 21  1  1  0  0  0
 22 21  1  1  0  0  0
 22 23  1  0  0  0  0
 22 30  1  0  0  0  0
 23 24  1  1  0  0  0
 23 25  1  0  0  0  0
 25 26  1  6  0  0  0
 25 27  1  0  0  0  0
 27 28  1  1  0  0  0
 27 29  1  0  0  0  0
 29 30  1  0  0  0  0
 29 31  1  6  0  0  0
 31 32  1  0  0  0  0
M  CHG  5   4   1  11   1  13   1  16   1  26   1
M  END
>  <CHROM.1>
-158.29672123,177.53016749,62.68837487,-59.07512892,-155.85631163,-149.93813285
77.40700144,64.72562298,-59.31416305,80.89922138,174.27845789,177.55362905
36.06348020,73.17885031,71.47278508,-179.58507569,-14.65324051,5.51893867
17.66093516,1.92135692,1.14858043,2.31229643

>  <Name>
1lc4

>  <RI>
0

>  <Rbt.Current_Directory>
/home/afrankz/demos/rdock_decoys_rna/rnas/1lc4

>  <Rbt.Executable>
rbdock ($Id: //depot/dev/client3/rdock/2013.1/src/exe/rbdock.cxx#4 $)

>  <Rbt.Library>
libRbt.so (2013.1, Build901 2013/11/27)

>  <Rbt.Parameter_File>
/export/apps/rDock/src/rDock_2013.1_src/data/scripts/dock_solv.prm

>  <Rbt.Receptor>
prm/pocket_docking_7.prm

>  <SCORE>
-41.6638

>  <SCORE.INTER>
-23.2661

>  <SCORE.INTER.CONST>
1

>  <SCORE.INTER.POLAR>
-5.06754

>  <SCORE.INTER.ROT>
6

>  <SCORE.INTER.SOLV>
15.7041

>  <SCORE.INTER.VDW>
-11.4536

>  <SCORE.INTER.norm>
-0.727064

>  <SCORE.INTRA>
-18.3977

>  <SCORE.INTRA.DIHEDRAL>
-32.9437

>  <SCORE.INTRA.DIHEDRAL.0>
44.2576

>  <SCORE.INTRA.POLAR>
0.379994

>  <SCORE.INTRA.POLAR.0>
-0.381556

>  <SCORE.INTRA.REPUL>
0

>  <SCORE.INTRA.REPUL.0>
0

>  <SCORE.INTRA.SOLV>
-3.74385

>  <SCORE.INTRA.SOLV.lig_0>
-134.592

>  <SCORE.INTRA.VDW>
-1.34593

>  <SCORE.INTRA.VDW.0>
-1.01417

>  <SCORE.INTRA.norm>
-0.574929

>  <SCORE.RESTR>
0

>  <SCORE.RESTR.CAVITY>
0

>  <SCORE.RESTR.norm>
0

>  <SCORE.SYSTEM>
0

>  <SCORE.SYSTEM.CONST>
0

>  <SCORE.SYSTEM.DIHEDRAL>
0

>  <SCORE.SYSTEM.SOLV>
0

>  <SCORE.SYSTEM.norm>
0

>  <SCORE.heavy>
32

>  <SCORE.norm>
-1.30199

>  <RMSD>
5.528

$$$$
1lc4
 OpenBabel02141814113D
libRbt.so/2013.1/901 2013/11/27
 32 34  0  0  0  0  0  0  0  0999 V2000
   -9.3618    7.7802   21.6321 C   0  0  2  0  0  0  0  0  0  0  0  0
   -9.6653    8.0436   20.2851 O   0  0  0  0  0  0  0  0  0  0  0  0
   -8.0274    7.0082   21.6813 C   0  0  2  0  0  0  0  0  0  0  0  0
   -6.9636    7.7874   21.0403 N   0  3  0  0  0  0  0  0  0  0  0  0
   -8.1902    5.6215   21.0157 C   0  0  0  0  0  0  0  0  0  0  0  0
   -9.2946    4.8688   21.7782 C   0  0  2  0  0  0  0  0  0  0  0  0
   -9.4638    3.5526   21.2413 O   0  0  0  0  0  0  0  0  0  0  0  0
  -10.6119    5.6803   21.7032 C   0  0  2  0  0  0  0  0  0  0  0  0
  -10.4177    7.0144   22.2532 O   0  0  0  0  0  0  0  0  0  0  0  0
  -11.7638    5.0442   22.4773 C   0  0  0  0  0  0  0  0  0  0  0  0
  -12.0269    3.6583   22.0085 N   0  3  0  0  0  0  0  0  0  0  0  0
  -13.0530    9.1731   18.0030 C   0  0  2  0  0  0  0  0  0  0  0  0
  -14.4187    9.2521   17.4530 N   0  3  0  0  0  0  0  0  0  0  0  0
  -12.4733    7.7877   17.7519 C   0  0  0  0  0  0  0  0  0  0  0  0
  -11.0541    7.6918   18.3227 C   0  0  2  0  0  0  0  0  0  0  0  0
  -10.4880    6.3710   17.9518 N   0  3  0  0  0  0  0  0  0  0  0  0
  -11.0395    7.9858   19.8527 C   0  0  2  0  0  0  0  0  0  0  0  0
  -11.6826    9.3714   20.1180 C   0  0  2  0  0  0  0  0  0  0  0  0
  -11.8194    9.5653   21.5050 O   0  0  0  0  0  0  0  0  0  0  0  0
  -13.0903    9.4484   19.5049 C   0  0  1  0  0  0  0  0  0  0  0  0
  -13.6280   10.7483   19.7454 O   0  0  0  0  0  0  0  0  0  0  0  0
  -13.2090   11.7727   18.9109 C   0  0  2  0  0  0  0  0  0  0  0  0
  -12.8740   13.0053   19.7681 C   0  0  2  0  0  0  0  0  0  0  0  0
  -11.8449   12.6551   20.6847 O   0  0  0  0  0  0  0  0  0  0  0  0
  -14.1314   13.4542   20.5331 C   0  0  1  0  0  0  0  0  0  0  0  0
  -13.8615   14.6368   21.4007 N   0  3  0  0  0  0  0  0  0  0  0  0
  -15.2603   13.7669   19.5208 C   0  0  2  0  0  0  0  0  0  0  0  0
  -16.4483   14.1619   20.2029 O   0  0  0  0  0  0  0  0  0  0  0  0
  -15.5298   12.5405   18.6291 C   0  0  2  0  0  0  0  0  0  0  0  0
  -14.2834   12.0859   17.9869 O   0  0  0  0  0  0  0  0  0  0  0  0
  -16.5142   12.8457   17.5218 C   0  0  0  0  0  0  0  0  0  0  0  0
  -16.0899   13.9544   16.7318 O   0  0  0  0  0  0  0  0  0  0  0  0
  1  2  1  6  0  0  0
  1  3  1  0  0  0  0
  1  9  1  0  0  0  0
  3  4  1  6  0  0  0
  3  5  1  0  0  0  0
  5  6  1  0  0  0  0
  6  7  1  6  0  0  0
  6  8  1  0  0  0  0
  8  9  1  0  0  0  0
  8 10  1  1  0  0  0
 10 11  1  0  0  0  0
 12 13  1  1  0  0  0
 12 14  1  0  0  0  0
 12 20  1  0  0  0  0
 14 15  1  0  0  0  0
 15 16  1  1  0  0  0
 15 17  1  0  0  0  0
 17  2  1  6  0  0  0
 17 18  1  0  0  0  0
 18 19  1  1  0  0  0
 18 20  1  0  0  0  0
 20 21  1  6  0  0  0
 22 21  1  1  0  0  0
 22 23  1  0  0  0  0
 22 30  1  0  0  0  0
 23 24  1  1  0  0  0
 23 25  1  0  0  0  0
 25 26  1  6  0  0  0
 25 27  1  0  0  0  0
 27 28  1  1  0  0  0
 27 29  1  0  0  0  0
 29 30  1  0  0  0  0
 29 31  1  6  0  0  0
 31 32  1  0  0  0  0
M  CHG  5   4   1  11   1  13   1  16   1  26   1
M  END
>  <CHROM.1>
142.94104175,-155.60186148,-51.38587321,-63.84812629,-56.88264860,46.15319262
76.44106887,95.10835925,164.74221535,-42.01799472,-134.89679924,-179.96997950
46.61969659,-175.37069471,55.34738251,-171.82041312,-12.16036435,9.33753425
19.97429228,-0.72923740,-0.71350698,0.34504525

>  <Name>
1lc4

>  <RI>
0

>  <Rbt.Current_Directory>
/home/afrankz/demos/rdock_decoys_rna/rnas/1lc4

>  <Rbt.Executable>
rbdock ($Id: //depot/dev/client3/rdock/2013.1/src/exe/rbdock.cxx#4 $)

>  <Rbt.Library>
libRbt.so (2013.1, Build901 2013/11/27)

>  <Rbt.Parameter_File>
/export/apps/rDock/src/rDock_2013.1_src/data/scripts/dock_solv.prm

>  <Rbt.Receptor>
prm/blind_docking_40.prm

>  <SCORE>
-31.7025

>  <SCORE.INTER>
-21.0705

>  <SCORE.INTER.CONST>
1

>  <SCORE.INTER.POLAR>
-5.03969

>  <SCORE.INTER.ROT>
6

>  <SCORE.INTER.SOLV>
33.4097

>  <SCORE.INTER.VDW>
-15.9846

>  <SCORE.INTER.norm>
-0.658455

>  <SCORE.INTRA>
-16.5276

>  <SCORE.INTRA.DIHEDRAL>
-23.4405

>  <SCORE.INTRA.DIHEDRAL.0>
44.2576

>  <SCORE.INTRA.POLAR>
-1.32155

>  <SCORE.INTRA.POLAR.0>
-0.381556

>  <SCORE.INTRA.REPUL>
0

>  <SCORE.INTRA.REPUL.0>
0

>  <SCORE.INTRA.SOLV>
1.52125

>  <SCORE.INTRA.SOLV.lig_0>
-134.592

>  <SCORE.INTRA.VDW>
-1.07468

>  <SCORE.INTRA.VDW.0>
-1.01417

>  <SCORE.INTRA.norm>
-0.516486

>  <SCORE.RESTR>
5.89556

>  <SCORE.RESTR.CAVITY>
5.89556

>  <SCORE.RESTR.norm>
0.184236

>  <SCORE.SYSTEM>
0

>  <SCORE.SYSTEM.CONST>
0

>  <SCORE.SYSTEM.DIHEDRAL>
0

>  <SCORE.SYSTEM.SOLV>
0

>  <SCORE.SYSTEM.norm>
0

>  <SCORE.heavy>
32

>  <SCORE.norm>
-0.990705

>  <RMSD>
5.544

$$$$
1lc4
 OpenBabel02141814113D
libRbt.so/2013.1/901 2013/11/27
 32 34  0  0  0  0  0  0  0  0999 V2000
   -7.5683    7.3920   21.1085 C   0  0  2  0  0  0  0  0  0  0  0  0
   -7.8628    6.1154   21.6178 O   0  0  0  0  0  0  0  0  0  0  0  0
   -6.6413    8.1071   22.1125 C   0  0  2  0  0  0  0  0  0  0  0  0
   -5.4190    7.3254   22.3240 N   0  3  0  0  0  0  0  0  0  0  0  0
   -7.3892    8.3557   23.4434 C   0  0  0  0  0  0  0  0  0  0  0  0
   -8.6277    9.2118   23.1255 C   0  0  2  0  0  0  0  0  0  0  0  0
   -9.3426    9.5208   24.3266 O   0  0  0  0  0  0  0  0  0  0  0  0
   -9.5260    8.4561   22.1149 C   0  0  2  0  0  0  0  0  0  0  0  0
   -8.7799    8.1515   20.9022 O   0  0  0  0  0  0  0  0  0  0  0  0
  -10.7615    9.2456   21.6896 C   0  0  0  0  0  0  0  0  0  0  0  0
  -11.6032    8.4617   20.7479 N   0  3  0  0  0  0  0  0  0  0  0  0
  -10.9493    3.2875   20.9568 C   0  0  2  0  0  0  0  0  0  0  0  0
  -12.2721    2.6457   20.8461 N   0  3  0  0  0  0  0  0  0  0  0  0
  -10.7106    3.7365   22.3920 C   0  0  0  0  0  0  0  0  0  0  0  0
   -9.3392    4.4092   22.5193 C   0  0  2  0  0  0  0  0  0  0  0  0
   -9.1014    4.7215   23.9506 N   0  3  0  0  0  0  0  0  0  0  0  0
   -9.2227    5.6387   21.5696 C   0  0  2  0  0  0  0  0  0  0  0  0
   -9.5228    5.1969   20.1141 C   0  0  2  0  0  0  0  0  0  0  0  0
   -9.5799    6.3314   19.2836 O   0  0  0  0  0  0  0  0  0  0  0  0
  -10.8883    4.4962   20.0249 C   0  0  1  0  0  0  0  0  0  0  0  0
  -11.1063    4.0797   18.6774 O   0  0  0  0  0  0  0  0  0  0  0  0
  -12.4135    3.8191   18.2973 C   0  0  2  0  0  0  0  0  0  0  0  0
  -12.4123    3.2690   16.8608 C   0  0  2  0  0  0  0  0  0  0  0  0
  -11.6364    2.0777   16.8311 O   0  0  0  0  0  0  0  0  0  0  0  0
  -11.8058    4.3173   15.9116 C   0  0  1  0  0  0  0  0  0  0  0  0
  -11.7584    3.8301   14.5028 N   0  3  0  0  0  0  0  0  0  0  0  0
  -12.6245    5.6278   16.0081 C   0  0  2  0  0  0  0  0  0  0  0  0
  -12.0697    6.6278   15.1567 O   0  0  0  0  0  0  0  0  0  0  0  0
  -12.6686    6.1211   17.4663 C   0  0  2  0  0  0  0  0  0  0  0  0
  -13.1683    5.0573   18.3557 O   0  0  0  0  0  0  0  0  0  0  0  0
  -13.5863    7.3112   17.6383 C   0  0  0  0  0  0  0  0  0  0  0  0
  -14.9501    6.9603   17.4143 O   0  0  0  0  0  0  0  0  0  0  0  0
  1  2  1  1  0  0  0
  1  3  1  0  0  0  0
  1  9  1  0  0  0  0
  3  4  1  1  0  0  0
  3  5  1  0  0  0  0
  5  6  1  0  0  0  0
  6  7  1  1  0  0  0
  6  8  1  0  0  0  0
  8  9  1  0  0  0  0
  8 10  1  6  0  0  0
 10 11  1  0  0  0  0
 12 13  1  1  0  0  0
 12 14  1  0  0  0  0
 12 20  1  0  0  0  0
 14 15  1  0  0  0  0
 15 16  1  1  0  0  0
 15 17  1  0  0  0  0
 17  2  1  6  0  0  0
 17 18  1  0  0  0  0
 18 19  1  6  0  0  0
 18 20  1  0  0  0  0
 20 21  1  6  0  0  0
 22 21  1  6  0  0  0
 22 23  1  0  0  0  0
 22 30  1  0  0  0  0
 23 24  1  1  0  0  0
 23 25  1  0  0  0  0
 25 26  1  6  0  0  0
 25 27  1  0  0  0  0
 27 28  1  6  0  0  0
 27 29  1  0  0  0  0
 29 30  1  0  0  0  0
 29 31  1  6  0  0  0
 31 32  1  0  0  0  0
M  CHG  5   4   1  11   1  13   1  16   1  26   1
M  END
>  <CHROM.1>
135.33240068,-164.93157600,49.16224721,-172.43846638,-178.58243062,-157.93459866
80.60285866,-70.90224140,-164.77106725,77.96385941,-175.00169731,176.16146387
-56.54646204,167.14094471,66.79320812,-59.95731028,-10.50357468,5.93257607
19.91437412,0.41064381,-0.93595751,0.02484367

>  <Name>
1lc4

>  <RI>
0

>  <Rbt.Current_Directory>
/home/afrankz/demos/rdock_decoys_rna/rnas/1lc4

>  <Rbt.Executable>
rbdock ($Id: //depot/dev/client3/rdock/2013.1/src/exe/rbdock.cxx#4 $)

>  <Rbt.Library>
libRbt.so (2013.1, Build901 2013/11/27)

>  <Rbt.Parameter_File>
/export/apps/rDock/src/rDock_2013.1_src/data/scripts/dock_solv.prm

>  <Rbt.Receptor>
prm/pocket_docking_6.prm

>  <SCORE>
-61.2041

>  <SCORE.INTER>
-43.353

>  <SCORE.INTER.CONST>
1

>  <SCORE.INTER.POLAR>
-6.392

>  <SCORE.INTER.ROT>
6

>  <SCORE.INTER.SOLV>
27.8874

>  <SCORE.INTER.VDW>
-24.4911

>  <SCORE.INTER.norm>
-1.35478

>  <SCORE.INTRA>
-18.0126

>  <SCORE.INTRA.DIHEDRAL>
-30.3836

>  <SCORE.INTRA.DIHEDRAL.0>
44.2576

>  <SCORE.INTRA.POLAR>
-0.457617

>  <SCORE.INTRA.POLAR.0>
-0.381556

>  <SCORE.INTRA.REPUL>
0

>  <SCORE.INTRA.REPUL.0>
0

>  <SCORE.INTRA.SOLV>
0.940094

>  <SCORE.INTRA.SOLV.lig_0>
-134.592

>  <SCORE.INTRA.VDW>
-1.73491

>  <SCORE.INTRA.VDW.0>
-1.01417

>  <SCORE.INTRA.norm>
-0.562892

>  <SCORE.RESTR>
0.161517

>  <SCORE.RESTR.CAVITY>
0.161517

>  <SCORE.RESTR.norm>
0.0050474

>  <SCORE.SYSTEM>
0

>  <SCORE.SYSTEM.CONST>
0

>  <SCORE.SYSTEM.DIHEDRAL>
0

>  <SCORE.SYSTEM.SOLV>
0

>  <SCORE.SYSTEM.norm>
0

>  <SCORE.heavy>
32

>  <SCORE.norm>
-1.91263

>  <RMSD>
5.588

$$$$
1lc4
 OpenBabel02141814113D
libRbt.so/2013.1/901 2013/11/27
 32 34  0  0  0  0  0  0  0  0999 V2000
  -12.8767    7.3979   20.2030 C   0  0  2  0  0  0  0  0  0  0  0  0
  -12.9778    7.1484   18.8233 O   0  0  0  0  0  0  0  0  0  0  0  0
  -11.6533    8.3072   20.4379 C   0  0  2  0  0  0  0  0  0  0  0  0
  -11.7932    9.5556   19.6819 N   0  3  0  0  0  0  0  0  0  0  0  0
  -10.3538    7.5597   20.0570 C   0  0  0  0  0  0  0  0  0  0  0  0
  -10.2774    6.2920   20.9259 C   0  0  2  0  0  0  0  0  0  0  0  0
   -9.0681    5.5747   20.6569 O   0  0  0  0  0  0  0  0  0  0  0  0
  -11.5242    5.4127   20.6582 C   0  0  2  0  0  0  0  0  0  0  0  0
  -12.7418    6.1609   20.9371 O   0  0  0  0  0  0  0  0  0  0  0  0
  -11.5735    4.1494   21.5141 C   0  0  0  0  0  0  0  0  0  0  0  0
  -12.6362    3.2222   21.0444 N   0  3  0  0  0  0  0  0  0  0  0  0
  -16.2343    6.7219   16.1450 C   0  0  2  0  0  0  0  0  0  0  0  0
  -17.4667    6.2468   15.4898 N   0  3  0  0  0  0  0  0  0  0  0  0
  -15.1957    5.6087   16.1629 C   0  0  0  0  0  0  0  0  0  0  0  0
  -13.9102    6.0894   16.8453 C   0  0  2  0  0  0  0  0  0  0  0  0
  -12.8909    5.0164   16.7339 N   0  3  0  0  0  0  0  0  0  0  0  0
  -14.1868    6.5581   18.3051 C   0  0  2  0  0  0  0  0  0  0  0  0
  -15.2865    7.6510   18.2966 C   0  0  2  0  0  0  0  0  0  0  0  0
  -15.6529    7.9557   19.6206 O   0  0  0  0  0  0  0  0  0  0  0  0
  -16.5496    7.1515   17.5765 C   0  0  1  0  0  0  0  0  0  0  0  0
  -17.5190    8.1988   17.5649 O   0  0  0  0  0  0  0  0  0  0  0  0
  -18.4204    8.2408   18.6171 C   0  0  2  0  0  0  0  0  0  0  0  0
  -19.8008    7.7938   18.1060 C   0  0  2  0  0  0  0  0  0  0  0  0
  -19.6899    6.4712   17.5956 O   0  0  0  0  0  0  0  0  0  0  0  0
  -20.2699    8.7501   16.9956 C   0  0  1  0  0  0  0  0  0  0  0  0
  -21.5977    8.3532   16.4446 N   0  3  0  0  0  0  0  0  0  0  0  0
  -20.3202   10.1937   17.5526 C   0  0  2  0  0  0  0  0  0  0  0  0
  -20.7281   11.1076   16.5372 O   0  0  0  0  0  0  0  0  0  0  0  0
  -18.9454   10.5930   18.1204 C   0  0  2  0  0  0  0  0  0  0  0  0
  -18.4902    9.6029   19.1129 O   0  0  0  0  0  0  0  0  0  0  0  0
  -18.9839   11.9350   18.8172 C   0  0  0  0  0  0  0  0  0  0  0  0
  -17.6883   12.3364   19.2571 O   0  0  0  0  0  0  0  0  0  0  0  0
  1  2  1  6  0  0  0
  1  3  1  0  0  0  0
  1  9  1  0  0  0  0
  3  4  1  6  0  0  0
  3  5  1  0  0  0  0
  5  6  1  0  0  0  0
  6  7  1  6  0  0  0
  6  8  1  0  0  0  0
  8  9  1  0  0  0  0
  8 10  1  1  0  0  0
 10 11  1  0  0  0  0
 12 13  1  1  0  0  0
 12 14  1  0  0  0  0
 12 20  1  0  0  0  0
 14 15  1  0  0  0  0
 15 16  1  1  0  0  0
 15 17  1  0  0  0  0
 17  2  1  6  0  0  0
 17 18  1  0  0  0  0
 18 19  1  1  0  0  0
 18 20  1  0  0  0  0
 20 21  1  6  0  0  0
 22 21  1  6  0  0  0
 22 23  1  0  0  0  0
 22 30  1  0  0  0  0
 23 24  1  6  0  0  0
 23 25  1  0  0  0  0
 25 26  1  1  0  0  0
 25 27  1  0  0  0  0
 27 28  1  6  0  0  0
 27 29  1  0  0  0  0
 29 30  1  0  0  0  0
 29 31  1  1  0  0  0
 31 32  1  0  0  0  0
M  CHG  5   4   1  11   1  13   1  16   1  26   1
M  END
>  <CHROM.1>
-167.22663214,-166.92075117,39.38289940,-56.93265269,-169.22019649,68.55547204
100.72462851,-59.12777495,-63.78214911,146.68134791,-107.37895163,-167.17625598
53.98127026,-179.10219682,-175.95508362,-54.00880896,-15.56294713,7.60003919
18.57838397,-0.22355038,-0.43847985,0.41488242

>  <Name>
1lc4

>  <RI>
0

>  <Rbt.Current_Directory>
/home/afrankz/demos/rdock_decoys_rna/rnas/1lc4

>  <Rbt.Executable>
rbdock ($Id: //depot/dev/client3/rdock/2013.1/src/exe/rbdock.cxx#4 $)

>  <Rbt.Library>
libRbt.so (2013.1, Build901 2013/11/27)

>  <Rbt.Parameter_File>
/export/apps/rDock/src/rDock_2013.1_src/data/scripts/dock_solv.prm

>  <Rbt.Receptor>
prm/pocket_docking_7.prm

>  <SCORE>
-57.3414

>  <SCORE.INTER>
-37.6216

>  <SCORE.INTER.CONST>
1

>  <SCORE.INTER.POLAR>
-6.32163

>  <SCORE.INTER.ROT>
6

>  <SCORE.INTER.SOLV>
24.5064

>  <SCORE.INTER.VDW>
-19.7778

>  <SCORE.INTER.norm>
-1.17568

>  <SCORE.INTRA>
-19.7198

>  <SCORE.INTRA.DIHEDRAL>
-26.3782

>  <SCORE.INTRA.DIHEDRAL.0>
44.2576

>  <SCORE.INTRA.POLAR>
-0.798342

>  <SCORE.INTRA.POLAR.0>
-0.381556

>  <SCORE.INTRA.REPUL>
0

>  <SCORE.INTRA.REPUL.0>
0

>  <SCORE.INTRA.SOLV>
-3.63612

>  <SCORE.INTRA.SOLV.lig_0>
-134.592

>  <SCORE.INTRA.VDW>
-1.99821

>  <SCORE.INTRA.VDW.0>
-1.01417

>  <SCORE.INTRA.norm>
-0.616242

>  <SCORE.RESTR>
0

>  <SCORE.RESTR.CAVITY>
0

>  <SCORE.RESTR.norm>
0

>  <SCORE.SYSTEM>
0

>  <SCORE.SYSTEM.CONST>
0

>  <SCORE.SYSTEM.DIHEDRAL>
0

>  <SCORE.SYSTEM.SOLV>
0

>  <SCORE.SYSTEM.norm>
0

>  <SCORE.heavy>
32

>  <SCORE.norm>
-1.79192

>  <RMSD>
5.631

$$$$
1lc4
 OpenBabel02141814113D
libRbt.so/2013.1/901 2013/11/27
 32 34  0  0  0  0  0  0  0  0999 V2000
  -12.1111    5.1246   19.7235 C   0  0  2  0  0  0  0  0  0  0  0  0
  -11.9170    3.7759   19.3783 O   0  0  0  0  0  0  0  0  0  0  0  0
  -11.2647    5.4257   20.9772 C   0  0  2  0  0  0  0  0  0  0  0  0
   -9.8497    5.1430   20.7171 N   0  3  0  0  0  0  0  0  0  0  0  0
  -11.7904    4.6110   22.1824 C   0  0  0  0  0  0  0  0  0  0  0  0
  -13.2623    5.0036   22.3998 C   0  0  2  0  0  0  0  0  0  0  0  0
  -13.7991    4.3182   23.5362 O   0  0  0  0  0  0  0  0  0  0  0  0
  -14.0711    4.6855   21.1175 C   0  0  2  0  0  0  0  0  0  0  0  0
  -13.5085    5.3914   19.9750 O   0  0  0  0  0  0  0  0  0  0  0  0
  -15.5407    5.0888   21.2089 C   0  0  0  0  0  0  0  0  0  0  0  0
  -16.2205    4.9466   19.8946 N   0  3  0  0  0  0  0  0  0  0  0  0
  -12.9602    1.7435   15.8088 C   0  0  2  0  0  0  0  0  0  0  0  0
  -13.7265    1.0863   14.7342 N   0  3  0  0  0  0  0  0  0  0  0  0
  -13.1661    0.9989   17.1209 C   0  0  0  0  0  0  0  0  0  0  0  0
  -12.3769    1.6751   18.2475 C   0  0  2  0  0  0  0  0  0  0  0  0
  -12.5115    0.8508   19.4743 N   0  3  0  0  0  0  0  0  0  0  0  0
  -12.8086    3.1614   18.4264 C   0  0  2  0  0  0  0  0  0  0  0  0
  -12.6558    3.9091   17.0768 C   0  0  2  0  0  0  0  0  0  0  0  0
  -13.1984    5.2021   17.1948 O   0  0  0  0  0  0  0  0  0  0  0  0
  -13.4298    3.1889   15.9608 C   0  0  1  0  0  0  0  0  0  0  0  0
  -13.2340    3.8928   14.7348 O   0  0  0  0  0  0  0  0  0  0  0  0
  -13.9685    5.0528   14.5447 C   0  0  2  0  0  0  0  0  0  0  0  0
  -15.4212    4.6714   14.2123 C   0  0  2  0  0  0  0  0  0  0  0  0
  -15.9515    3.9159   15.2940 O   0  0  0  0  0  0  0  0  0  0  0  0
  -15.4483    3.8347   12.9212 C   0  0  1  0  0  0  0  0  0  0  0  0
  -16.8331    3.4161   12.5592 N   0  3  0  0  0  0  0  0  0  0  0  0
  -14.8066    4.6491   11.7715 C   0  0  2  0  0  0  0  0  0  0  0  0
  -14.7946    3.8882   10.5658 O   0  0  0  0  0  0  0  0  0  0  0  0
  -13.3782    5.0777   12.1560 C   0  0  2  0  0  0  0  0  0  0  0  0
  -13.3842    5.7955   13.4433 O   0  0  0  0  0  0  0  0  0  0  0  0
  -12.7665    6.0076   11.1318 C   0  0  0  0  0  0  0  0  0  0  0  0
  -13.5232    7.2083   10.9934 O   0  0  0  0  0  0  0  0  0  0  0  0
  1  2  1  1  0  0  0
  1  3  1  0  0  0  0
  1  9  1  0  0  0  0
  3  4  1  6  0  0  0
  3  5  1  0  0  0  0
  5  6  1  0  0  0  0
  6  7  1  1  0  0  0
  6  8  1  0  0  0  0
  8  9  1  0  0  0  0
  8 10  1  1  0  0  0
 10 11  1  0  0  0  0
 12 13  1  6  0  0  0
 12 14  1  0  0  0  0
 12 20  1  0  0  0  0
 14 15  1  0  0  0  0
 15 16  1  1  0  0  0
 15 17  1  0  0  0  0
 17  2  1  1  0  0  0
 17 18  1  0  0  0  0
 18 19  1  1  0  0  0
 18 20  1  0  0  0  0
 20 21  1  6  0  0  0
 22 21  1  6  0  0  0
 22 23  1  0  0  0  0
 22 30  1  0  0  0  0
 23 24  1  1  0  0  0
 23 25  1  0  0  0  0
 25 26  1  6  0  0  0
 25 27  1  0  0  0  0
 27 28  1  6  0  0  0
 27 29  1  0  0  0  0
 29 30  1  0  0  0  0
 29 31  1  6  0  0  0
 31 32  1  0  0  0  0
M  CHG  5   4   1  11   1  13   1  16   1  26   1
M  END
>  <CHROM.1>
166.60070945,-179.27935429,68.18636573,-56.01848933,171.72068147,50.39833274
-62.95052076,-69.05559159,-53.70281809,160.02147416,-75.27531168,65.00501443
-44.48661189,175.78706668,60.71058299,62.40275196,-13.58148206,4.14752220
16.83785872,-0.68697964,-1.34345222,-0.66784725

>  <Name>
1lc4

>  <RI>
0

>  <Rbt.Current_Directory>
/home/afrankz/demos/rdock_decoys_rna/rnas/1lc4

>  <Rbt.Executable>
rbdock ($Id: //depot/dev/client3/rdock/2013.1/src/exe/rbdock.cxx#4 $)

>  <Rbt.Library>
libRbt.so (2013.1, Build901 2013/11/27)

>  <Rbt.Parameter_File>
/export/apps/rDock/src/rDock_2013.1_src/data/scripts/dock_solv.prm

>  <Rbt.Receptor>
prm/pocket_docking_8.prm

>  <SCORE>
-39.9536

>  <SCORE.INTER>
-18.4807

>  <SCORE.INTER.CONST>
1

>  <SCORE.INTER.POLAR>
-3.23333

>  <SCORE.INTER.ROT>
6

>  <SCORE.INTER.SOLV>
14.3678

>  <SCORE.INTER.VDW>
-13.9319

>  <SCORE.INTER.norm>
-0.57752

>  <SCORE.INTRA>
-21.473

>  <SCORE.INTRA.DIHEDRAL>
-38.492

>  <SCORE.INTRA.DIHEDRAL.0>
44.2576

>  <SCORE.INTRA.POLAR>
0.355493

>  <SCORE.INTRA.POLAR.0>
-0.381556

>  <SCORE.INTRA.REPUL>
0.0249265

>  <SCORE.INTRA.REPUL.0>
0

>  <SCORE.INTRA.SOLV>
-3.06822

>  <SCORE.INTRA.SOLV.lig_0>
-134.592

>  <SCORE.INTRA.VDW>
-2.02621

>  <SCORE.INTRA.VDW.0>
-1.01417

>  <SCORE.INTRA.norm>
-0.671031

>  <SCORE.RESTR>
0

>  <SCORE.RESTR.CAVITY>
0

>  <SCORE.RESTR.norm>
0

>  <SCORE.SYSTEM>
0

>  <SCORE.SYSTEM.CONST>
0

>  <SCORE.SYSTEM.DIHEDRAL>
0

>  <SCORE.SYSTEM.SOLV>
0

>  <SCORE.SYSTEM.norm>
0

>  <SCORE.heavy>
32

>  <SCORE.norm>
-1.24855

>  <RMSD>
5.662

$$$$
1lc4
 OpenBabel02141814113D
libRbt.so/2013.1/901 2013/11/27
 32 34  0  0  0  0  0  0  0  0999 V2000
  -10.5473    7.8670   21.7310 C   0  0  2  0  0  0  0  0  0  0  0  0
  -10.7540    8.7747   20.6777 O   0  0  0  0  0  0  0  0  0  0  0  0
   -9.2479    8.2657   22.4600 C   0  0  2  0  0  0  0  0  0  0  0  0
   -9.3435    9.6419   22.9566 N   0  3  0  0  0  0  0  0  0  0  0  0
   -8.0337    8.0889   21.5181 C   0  0  0  0  0  0  0  0  0  0  0  0
   -7.9955    6.6132   21.0841 C   0  0  2  0  0  0  0  0  0  0  0  0
   -6.8618    6.3688   20.2449 O   0  0  0  0  0  0  0  0  0  0  0  0
   -9.3182    6.2588   20.3598 C   0  0  2  0  0  0  0  0  0  0  0  0
  -10.4572    6.5151   21.2299 O   0  0  0  0  0  0  0  0  0  0  0  0
   -9.4056    4.7955   19.9333 C   0  0  0  0  0  0  0  0  0  0  0  0
  -10.0556    3.9670   20.9824 N   0  3  0  0  0  0  0  0  0  0  0  0
  -13.6131   10.0758   17.8329 C   0  0  2  0  0  0  0  0  0  0  0  0
  -14.8542   10.2303   17.0520 N   0  3  0  0  0  0  0  0  0  0  0  0
  -13.0877    8.6535   17.6933 C   0  0  0  0  0  0  0  0  0  0  0  0
  -11.7988    8.4789   18.5041 C   0  0  2  0  0  0  0  0  0  0  0  0
  -11.2617    7.1201   18.2439 N   0  3  0  0  0  0  0  0  0  0  0  0
  -12.0326    8.7951   20.0117 C   0  0  2  0  0  0  0  0  0  0  0  0
  -12.6228   10.2217   20.1543 C   0  0  2  0  0  0  0  0  0  0  0  0
  -12.9868   10.4451   21.4950 O   0  0  0  0  0  0  0  0  0  0  0  0
  -13.8942   10.3760   19.3039 C   0  0  1  0  0  0  0  0  0  0  0  0
  -14.3820   11.7102   19.4408 O   0  0  0  0  0  0  0  0  0  0  0  0
  -13.8194   12.6785   18.6241 C   0  0  2  0  0  0  0  0  0  0  0  0
  -13.4569   13.9023   19.4826 C   0  0  2  0  0  0  0  0  0  0  0  0
  -12.5339   13.4966   20.4854 O   0  0  0  0  0  0  0  0  0  0  0  0
  -14.7314   14.4653   20.1357 C   0  0  1  0  0  0  0  0  0  0  0  0
  -14.4385   15.6445   21.0004 N   0  3  0  0  0  0  0  0  0  0  0  0
  -15.7490   14.8390   19.0303 C   0  0  2  0  0  0  0  0  0  0  0  0
  -16.9523   15.3409   19.6074 O   0  0  0  0  0  0  0  0  0  0  0  0
  -16.0431   13.6155   18.1425 C   0  0  2  0  0  0  0  0  0  0  0  0
  -14.7897   13.0507   17.6111 O   0  0  0  0  0  0  0  0  0  0  0  0
  -16.9102   13.9682   16.9543 C   0  0  0  0  0  0  0  0  0  0  0  0
  -17.2587   12.8120   16.1960 O   0  0  0  0  0  0  0  0  0  0  0  0
  1  2  1  6  0  0  0
  1  3  1  0  0  0  0
  1  9  1  0  0  0  0
  3  4  1  6  0  0  0
  3  5  1  0  0  0  0
  5  6  1  0  0  0  0
  6  7  1  6  0  0  0
  6  8  1  0  0  0  0
  8  9  1  0  0  0  0
  8 10  1  1  0  0  0
 10 11  1  0  0  0  0
 12 13  1  6  0  0  0
 12 14  1  0  0  0  0
 12 20  1  0  0  0  0
 14 15  1  0  0  0  0
 15 16  1  1  0  0  0
 15 17  1  0  0  0  0
 17  2  1  1  0  0  0
 17 18  1  0  0  0  0
 18 19  1  1  0  0  0
 18 20  1  0  0  0  0
 20 21  1  6  0  0  0
 22 21  1  1  0  0  0
 22 23  1  0  0  0  0
 22 30  1  0  0  0  0
 23 24  1  1  0  0  0
 23 25  1  0  0  0  0
 25 26  1  6  0  0  0
 25 27  1  0  0  0  0
 27 28  1  1  0  0  0
 27 29  1  0  0  0  0
 29 30  1  0  0  0  0
 29 31  1  6  0  0  0
 31 32  1  0  0  0  0
M  CHG  5   4   1  11   1  13   1  16   1  26   1
M  END
>  <CHROM.1>
-167.37915091,-120.43941675,-47.51374701,-35.98175733,91.77463553,-79.09578863
-168.35973103,36.84679533,179.55517093,-37.89189054,-132.55050856,174.96109774
29.93406114,-56.80632117,-175.61282116,-67.51810774,-12.48941080,10.23232579
19.70242610,-0.53227894,-0.73452488,0.55440137

>  <Name>
1lc4

>  <RI>
0

>  <Rbt.Current_Directory>
/home/afrankz/demos/rdock_decoys_rna/rnas/1lc4

>  <Rbt.Executable>
rbdock ($Id: //depot/dev/client3/rdock/2013.1/src/exe/rbdock.cxx#4 $)

>  <Rbt.Library>
libRbt.so (2013.1, Build901 2013/11/27)

>  <Rbt.Parameter_File>
/export/apps/rDock/src/rDock_2013.1_src/data/scripts/dock_solv.prm

>  <Rbt.Receptor>
prm/blind_docking_40.prm

>  <SCORE>
-25.1139

>  <SCORE.INTER>
-19.2457

>  <SCORE.INTER.CONST>
1

>  <SCORE.INTER.POLAR>
-5.1888

>  <SCORE.INTER.ROT>
6

>  <SCORE.INTER.SOLV>
33.5037

>  <SCORE.INTER.VDW>
-14.3024

>  <SCORE.INTER.norm>
-0.601428

>  <SCORE.INTRA>
-10.7789

>  <SCORE.INTRA.DIHEDRAL>
-17.2423

>  <SCORE.INTRA.DIHEDRAL.0>
44.2576

>  <SCORE.INTRA.POLAR>
-0.796277

>  <SCORE.INTRA.POLAR.0>
-0.381556

>  <SCORE.INTRA.REPUL>
0

>  <SCORE.INTRA.REPUL.0>
0

>  <SCORE.INTRA.SOLV>
3.36816

>  <SCORE.INTRA.SOLV.lig_0>
-134.592

>  <SCORE.INTRA.VDW>
-1.13449

>  <SCORE.INTRA.VDW.0>
-1.01417

>  <SCORE.INTRA.norm>
-0.336841

>  <SCORE.RESTR>
4.91063

>  <SCORE.RESTR.CAVITY>
4.91063

>  <SCORE.RESTR.norm>
0.153457

>  <SCORE.SYSTEM>
0

>  <SCORE.SYSTEM.CONST>
0

>  <SCORE.SYSTEM.DIHEDRAL>
0

>  <SCORE.SYSTEM.SOLV>
0

>  <SCORE.SYSTEM.norm>
0

>  <SCORE.heavy>
32

>  <SCORE.norm>
-0.784811

>  <RMSD>
5.681

$$$$
1lc4
 OpenBabel02141814113D
libRbt.so/2013.1/901 2013/11/27
 32 34  0  0  0  0  0  0  0  0999 V2000
  -11.0750    4.2686   19.8411 C   0  0  2  0  0  0  0  0  0  0  0  0
  -12.3578    4.7799   20.1035 O   0  0  0  0  0  0  0  0  0  0  0  0
  -10.8039    3.1196   20.8337 C   0  0  2  0  0  0  0  0  0  0  0  0
  -11.8275    2.0784   20.7003 N   0  3  0  0  0  0  0  0  0  0  0  0
  -10.7424    3.6683   22.2786 C   0  0  0  0  0  0  0  0  0  0  0  0
   -9.6196    4.7194   22.3273 C   0  0  2  0  0  0  0  0  0  0  0  0
   -9.4759    5.2353   23.6548 O   0  0  0  0  0  0  0  0  0  0  0  0
   -9.9332    5.8497   21.3156 C   0  0  2  0  0  0  0  0  0  0  0  0
  -10.0758    5.3037   19.9733 O   0  0  0  0  0  0  0  0  0  0  0  0
   -8.8491    6.9223   21.2457 C   0  0  0  0  0  0  0  0  0  0  0  0
   -7.6477    6.4271   20.5237 N   0  3  0  0  0  0  0  0  0  0  0  0
  -12.5719    8.5842   18.2485 C   0  0  2  0  0  0  0  0  0  0  0  0
  -12.9996    9.7241   17.4169 N   0  3  0  0  0  0  0  0  0  0  0  0
  -12.2361    7.3935   17.3609 C   0  0  0  0  0  0  0  0  0  0  0  0
  -11.7933    6.1999   18.2145 C   0  0  2  0  0  0  0  0  0  0  0  0
  -11.3646    5.1074   17.3062 N   0  3  0  0  0  0  0  0  0  0  0  0
  -12.9020    5.7887   19.2290 C   0  0  2  0  0  0  0  0  0  0  0  0
  -13.2885    7.0146   20.0960 C   0  0  2  0  0  0  0  0  0  0  0  0
  -14.3995    6.6895   20.8961 O   0  0  0  0  0  0  0  0  0  0  0  0
  -13.6949    8.2047   19.2118 C   0  0  1  0  0  0  0  0  0  0  0  0
  -14.0098    9.3161   20.0497 O   0  0  0  0  0  0  0  0  0  0  0  0
  -13.1046    9.6329   21.0505 C   0  0  2  0  0  0  0  0  0  0  0  0
  -13.8751    9.8629   22.3619 C   0  0  2  0  0  0  0  0  0  0  0  0
  -14.5835    8.6737   22.6872 O   0  0  0  0  0  0  0  0  0  0  0  0
  -14.8605   11.0305   22.1788 C   0  0  1  0  0  0  0  0  0  0  0  0
  -15.6539   11.2872   23.4152 N   0  3  0  0  0  0  0  0  0  0  0  0
  -14.0772   12.2987   21.7603 C   0  0  2  0  0  0  0  0  0  0  0  0
  -14.9686   13.3930   21.5584 O   0  0  0  0  0  0  0  0  0  0  0  0
  -13.2604   12.0226   20.4843 C   0  0  2  0  0  0  0  0  0  0  0  0
  -12.3978   10.8419   20.6697 O   0  0  0  0  0  0  0  0  0  0  0  0
  -12.3567   13.1807   20.1238 C   0  0  0  0  0  0  0  0  0  0  0  0
  -13.0902   14.3950   19.9796 O   0  0  0  0  0  0  0  0  0  0  0  0
  1  2  1  1  0  0  0
  1  3  1  0  0  0  0
  1  9  1  0  0  0  0
  3  4  1  1  0  0  0
  3  5  1  0  0  0  0
  5  6  1  0  0  0  0
  6  7  1  1  0  0  0
  6  8  1  0  0  0  0
  8  9  1  0  0  0  0
  8 10  1  6  0  0  0
 10 11  1  0  0  0  0
 12 13  1  6  0  0  0
 12 14  1  0  0  0  0
 12 20  1  0  0  0  0
 14 15  1  0  0  0  0
 15 16  1  6  0  0  0
 15 17  1  0  0  0  0
 17  2  1  1  0  0  0
 17 18  1  0  0  0  0
 18 19  1  1  0  0  0
 18 20  1  0  0  0  0
 20 21  1  1  0  0  0
 22 21  1  6  0  0  0
 22 23  1  0  0  0  0
 22 30  1  0  0  0  0
 23 24  1  6  0  0  0
 23 25  1  0  0  0  0
 25 26  1  1  0  0  0
 25 27  1  0  0  0  0
 27 28  1  6  0  0  0
 27 29  1  0  0  0  0
 29 30  1  0  0  0  0
 29 31  1  1  0  0  0
 31 32  1  0  0  0  0
M  CHG  5   4   1  11   1  13   1  16   1  26   1
M  END
>  <CHROM.1>
-174.44041030,-6.09526257,-28.01665071,62.84972764,74.12232454,146.17190246
-175.67836344,6.31918143,172.02682240,-73.55154555,-133.55690246,178.93750854
56.78605241,-57.91193455,-56.04572014,-66.41320876,-12.32514150,7.92778264
20.54623073,-0.08032129,1.14342450,-1.42356982

>  <Name>
1lc4

>  <RI>
0

>  <Rbt.Current_Directory>
/home/afrankz/demos/rdock_decoys_rna/rnas/1lc4

>  <Rbt.Executable>
rbdock ($Id: //depot/dev/client3/rdock/2013.1/src/exe/rbdock.cxx#4 $)

>  <Rbt.Library>
libRbt.so (2013.1, Build901 2013/11/27)

>  <Rbt.Parameter_File>
/export/apps/rDock/src/rDock_2013.1_src/data/scripts/dock_solv.prm

>  <Rbt.Receptor>
prm/blind_docking_60.prm

>  <SCORE>
-24.9267

>  <SCORE.INTER>
-18.6139

>  <SCORE.INTER.CONST>
1

>  <SCORE.INTER.POLAR>
-2.09532

>  <SCORE.INTER.ROT>
6

>  <SCORE.INTER.SOLV>
30.5978

>  <SCORE.INTER.VDW>
-23.2241

>  <SCORE.INTER.norm>
-0.581683

>  <SCORE.INTRA>
-9.82831

>  <SCORE.INTRA.DIHEDRAL>
-20.8208

>  <SCORE.INTRA.DIHEDRAL.0>
44.2576

>  <SCORE.INTRA.POLAR>
-0.950287

>  <SCORE.INTRA.POLAR.0>
-0.381556

>  <SCORE.INTRA.REPUL>
0

>  <SCORE.INTRA.REPUL.0>
0

>  <SCORE.INTRA.SOLV>
0.156674

>  <SCORE.INTRA.SOLV.lig_0>
-134.592

>  <SCORE.INTRA.VDW>
3.73472

>  <SCORE.INTRA.VDW.0>
-1.01417

>  <SCORE.INTRA.norm>
-0.307135

>  <SCORE.RESTR>
3.51547

>  <SCORE.RESTR.CAVITY>
3.51547

>  <SCORE.RESTR.norm>
0.109858

>  <SCORE.SYSTEM>
0

>  <SCORE.SYSTEM.CONST>
0

>  <SCORE.SYSTEM.DIHEDRAL>
0

>  <SCORE.SYSTEM.SOLV>
0

>  <SCORE.SYSTEM.norm>
0

>  <SCORE.heavy>
32

>  <SCORE.norm>
-0.77896

>  <RMSD>
5.690

$$$$
1lc4
 OpenBabel02141814113D
libRbt.so/2013.1/901 2013/11/27
 32 34  0  0  0  0  0  0  0  0999 V2000
  -10.9732    4.8189   19.6097 C   0  0  2  0  0  0  0  0  0  0  0  0
  -12.2485    5.2242   20.0402 O   0  0  0  0  0  0  0  0  0  0  0  0
  -10.6380    3.4793   20.2967 C   0  0  2  0  0  0  0  0  0  0  0  0
  -11.6525    2.4719   19.9721 N   0  3  0  0  0  0  0  0  0  0  0  0
  -10.5130    3.6819   21.8251 C   0  0  0  0  0  0  0  0  0  0  0  0
   -9.4037    4.7209   22.0652 C   0  0  2  0  0  0  0  0  0  0  0  0
   -9.2021    4.9207   23.4683 O   0  0  0  0  0  0  0  0  0  0  0  0
   -9.7821    6.0457   21.3572 C   0  0  2  0  0  0  0  0  0  0  0  0
   -9.9830    5.8200   19.9328 O   0  0  0  0  0  0  0  0  0  0  0  0
   -8.7175    7.1320   21.4888 C   0  0  0  0  0  0  0  0  0  0  0  0
   -8.8442    8.1436   20.4069 N   0  3  0  0  0  0  0  0  0  0  0  0
  -13.0447    9.0509   18.4024 C   0  0  2  0  0  0  0  0  0  0  0  0
  -13.6658   10.1663   17.6649 N   0  3  0  0  0  0  0  0  0  0  0  0
  -12.6497    7.9456   17.4324 C   0  0  0  0  0  0  0  0  0  0  0  0
  -12.0058    6.7778   18.1879 C   0  0  2  0  0  0  0  0  0  0  0  0
  -11.5316    5.7817   17.1952 N   0  3  0  0  0  0  0  0  0  0  0  0
  -12.9736    6.1977   19.2623 C   0  0  2  0  0  0  0  0  0  0  0  0
  -13.4245    7.3327   20.2174 C   0  0  2  0  0  0  0  0  0  0  0  0
  -14.4220    6.8467   21.0827 O   0  0  0  0  0  0  0  0  0  0  0  0
  -14.0345    8.5026   19.4284 C   0  0  1  0  0  0  0  0  0  0  0  0
  -14.4039    9.5337   20.3433 O   0  0  0  0  0  0  0  0  0  0  0  0
  -13.4319    9.9762   21.2269 C   0  0  2  0  0  0  0  0  0  0  0  0
  -14.0942   10.2807   22.5814 C   0  0  2  0  0  0  0  0  0  0  0  0
  -14.7056    9.0917   23.0657 O   0  0  0  0  0  0  0  0  0  0  0  0
  -15.1537   11.3813   22.3975 C   0  0  1  0  0  0  0  0  0  0  0  0
  -15.8469   11.7050   23.6776 N   0  3  0  0  0  0  0  0  0  0  0  0
  -14.4804   12.6445   21.8074 C   0  0  2  0  0  0  0  0  0  0  0  0
  -15.4441   13.6750   21.6018 O   0  0  0  0  0  0  0  0  0  0  0  0
  -13.7664   12.2992   20.4873 C   0  0  2  0  0  0  0  0  0  0  0  0
  -12.8281   11.1800   20.6861 O   0  0  0  0  0  0  0  0  0  0  0  0
  -12.9622   13.4633   19.9524 C   0  0  0  0  0  0  0  0  0  0  0  0
  -11.6268   13.4538   20.4523 O   0  0  0  0  0  0  0  0  0  0  0  0
  1  2  1  1  0  0  0
  1  3  1  0  0  0  0
  1  9  1  0  0  0  0
  3  4  1  1  0  0  0
  3  5  1  0  0  0  0
  5  6  1  0  0  0  0
  6  7  1  1  0  0  0
  6  8  1  0  0  0  0
  8  9  1  0  0  0  0
  8 10  1  6  0  0  0
 10 11  1  0  0  0  0
 12 13  1  6  0  0  0
 12 14  1  0  0  0  0
 12 20  1  0  0  0  0
 14 15  1  0  0  0  0
 15 16  1  6  0  0  0
 15 17  1  0  0  0  0
 17  2  1  1  0  0  0
 17 18  1  0  0  0  0
 18 19  1  1  0  0  0
 18 20  1  0  0  0  0
 20 21  1  1  0  0  0
 22 21  1  6  0  0  0
 22 23  1  0  0  0  0
 22 30  1  0  0  0  0
 23 24  1  6  0  0  0
 23 25  1  0  0  0  0
 25 26  1  1  0  0  0
 25 27  1  0  0  0  0
 27 28  1  6  0  0  0
 27 29  1  0  0  0  0
 29 30  1  0  0  0  0
 29 31  1  1  0  0  0
 31 32  1  0  0  0  0
M  CHG  5   4   1  11   1  13   1  16   1  26   1
M  END
>  <CHROM.1>
-160.89614750,-9.86449585,-170.18878520,-83.34519435,157.72956655,-6.38689585
38.04718364,-107.04152410,-69.42578946,-69.26933019,-142.91656465,-172.70051743
50.20356097,-58.80455240,89.74224165,48.56783379,-12.46751523,8.26450197
20.56259764,0.24748244,1.08964013,-1.73640432

>  <Name>
1lc4

>  <RI>
0

>  <Rbt.Current_Directory>
/home/afrankz/demos/rdock_decoys_rna/rnas/1lc4

>  <Rbt.Executable>
rbdock ($Id: //depot/dev/client3/rdock/2013.1/src/exe/rbdock.cxx#4 $)

>  <Rbt.Library>
libRbt.so (2013.1, Build901 2013/11/27)

>  <Rbt.Parameter_File>
/export/apps/rDock/src/rDock_2013.1_src/data/scripts/dock_solv.prm

>  <Rbt.Receptor>
prm/blind_docking_60.prm

>  <SCORE>
-30.3576

>  <SCORE.INTER>
-31.6875

>  <SCORE.INTER.CONST>
1

>  <SCORE.INTER.POLAR>
-4.26739

>  <SCORE.INTER.ROT>
6

>  <SCORE.INTER.SOLV>
25.6394

>  <SCORE.INTER.VDW>
-23.0468

>  <SCORE.INTER.norm>
-0.990234

>  <SCORE.INTRA>
-3.75527

>  <SCORE.INTRA.DIHEDRAL>
-14.4072

>  <SCORE.INTRA.DIHEDRAL.0>
44.2576

>  <SCORE.INTRA.POLAR>
-0.0476208

>  <SCORE.INTRA.POLAR.0>
-0.381556

>  <SCORE.INTRA.REPUL>
0

>  <SCORE.INTRA.REPUL.0>
0

>  <SCORE.INTRA.SOLV>
0.241007

>  <SCORE.INTRA.SOLV.lig_0>
-134.592

>  <SCORE.INTRA.VDW>
3.48974

>  <SCORE.INTRA.VDW.0>
-1.01417

>  <SCORE.INTRA.norm>
-0.117352

>  <SCORE.RESTR>
5.08516

>  <SCORE.RESTR.CAVITY>
5.08516

>  <SCORE.RESTR.norm>
0.158911

>  <SCORE.SYSTEM>
0

>  <SCORE.SYSTEM.CONST>
0

>  <SCORE.SYSTEM.DIHEDRAL>
0

>  <SCORE.SYSTEM.SOLV>
0

>  <SCORE.SYSTEM.norm>
0

>  <SCORE.heavy>
32

>  <SCORE.norm>
-0.948675

>  <RMSD>
5.694

$$$$
1lc4
 OpenBabel02141814113D
libRbt.so/2013.1/901 2013/11/27
 32 34  0  0  0  0  0  0  0  0999 V2000
   -6.8004    7.8429   23.5919 C   0  0  2  0  0  0  0  0  0  0  0  0
   -7.1282    6.9296   22.5749 O   0  0  0  0  0  0  0  0  0  0  0  0
   -7.3700    9.2218   23.2006 C   0  0  2  0  0  0  0  0  0  0  0  0
   -8.8213    9.1385   23.0101 N   0  3  0  0  0  0  0  0  0  0  0  0
   -6.6634    9.7480   21.9293 C   0  0  0  0  0  0  0  0  0  0  0  0
   -5.1588    9.8374   22.2393 C   0  0  2  0  0  0  0  0  0  0  0  0
   -4.4480   10.3660   21.1147 O   0  0  0  0  0  0  0  0  0  0  0  0
   -4.6325    8.4333   22.6278 C   0  0  2  0  0  0  0  0  0  0  0  0
   -5.3687    7.9145   23.7719 O   0  0  0  0  0  0  0  0  0  0  0  0
   -3.1541    8.4211   23.0085 C   0  0  0  0  0  0  0  0  0  0  0  0
   -2.9154    9.1800   24.2642 N   0  3  0  0  0  0  0  0  0  0  0  0
  -10.1660    4.1554   21.5572 C   0  0  2  0  0  0  0  0  0  0  0  0
  -11.4755    3.4997   21.3865 N   0  3  0  0  0  0  0  0  0  0  0  0
   -9.8826    4.3671   23.0382 C   0  0  0  0  0  0  0  0  0  0  0  0
   -8.5247    5.0519   23.2288 C   0  0  2  0  0  0  0  0  0  0  0  0
   -8.2388    5.1294   24.6831 N   0  3  0  0  0  0  0  0  0  0  0  0
   -8.4765    6.4252   22.4946 C   0  0  2  0  0  0  0  0  0  0  0  0
   -8.8222    6.2220   20.9969 C   0  0  2  0  0  0  0  0  0  0  0  0
   -8.9404    7.4763   20.3702 O   0  0  0  0  0  0  0  0  0  0  0  0
  -10.1720    5.5034   20.8389 C   0  0  1  0  0  0  0  0  0  0  0  0
  -10.4321    5.3099   19.4491 O   0  0  0  0  0  0  0  0  0  0  0  0
  -10.7984    6.4244   18.7109 C   0  0  2  0  0  0  0  0  0  0  0  0
  -12.3307    6.5568   18.7396 C   0  0  2  0  0  0  0  0  0  0  0  0
  -12.7497    6.6933   20.0916 O   0  0  0  0  0  0  0  0  0  0  0  0
  -12.9650    5.3017   18.1150 C   0  0  1  0  0  0  0  0  0  0  0  0
  -14.4549    5.3636   18.1344 N   0  3  0  0  0  0  0  0  0  0  0  0
  -12.4451    5.1340   16.6664 C   0  0  2  0  0  0  0  0  0  0  0  0
  -12.9971    3.9629   16.0694 O   0  0  0  0  0  0  0  0  0  0  0  0
  -10.9063    5.0730   16.6573 C   0  0  2  0  0  0  0  0  0  0  0  0
  -10.3396    6.2467   17.3456 O   0  0  0  0  0  0  0  0  0  0  0  0
  -10.3439    5.0672   15.2531 C   0  0  0  0  0  0  0  0  0  0  0  0
  -10.8088    6.1824   14.4959 O   0  0  0  0  0  0  0  0  0  0  0  0
  1  2  1  6  0  0  0
  1  3  1  0  0  0  0
  1  9  1  0  0  0  0
  3  4  1  6  0  0  0
  3  5  1  0  0  0  0
  5  6  1  0  0  0  0
  6  7  1  6  0  0  0
  6  8  1  0  0  0  0
  8  9  1  0  0  0  0
  8 10  1  1  0  0  0
 10 11  1  0  0  0  0
 12 13  1  1  0  0  0
 12 14  1  0  0  0  0
 12 20  1  0  0  0  0
 14 15  1  0  0  0  0
 15 16  1  1  0  0  0
 15 17  1  0  0  0  0
 17  2  1  6  0  0  0
 17 18  1  0  0  0  0
 18 19  1  6  0  0  0
 18 20  1  0  0  0  0
 20 21  1  6  0  0  0
 22 21  1  1  0  0  0
 22 23  1  0  0  0  0
 22 30  1  0  0  0  0
 23 24  1  1  0  0  0
 23 25  1  0  0  0  0
 25 26  1  6  0  0  0
 25 27  1  0  0  0  0
 27 28  1  1  0  0  0
 27 29  1  0  0  0  0
 29 30  1  0  0  0  0
 29 31  1  6  0  0  0
 31 32  1  0  0  0  0
M  CHG  5   4   1  11   1  13   1  16   1  26   1
M  END
>  <CHROM.1>
-76.22125090,-96.07057406,157.19761581,-178.75274193,66.51020893,171.71876630
-41.72552818,49.81104665,82.17392158,164.47194140,-90.27129972,175.81533698
-58.47362072,177.24503346,55.09024233,-60.90205163,-9.04472353,6.63903887
20.60057104,0.50914807,0.61558730,1.84885346

>  <Name>
1lc4

>  <RI>
0

>  <Rbt.Current_Directory>
/home/afrankz/demos/rdock_decoys_rna/rnas/1lc4

>  <Rbt.Executable>
rbdock ($Id: //depot/dev/client3/rdock/2013.1/src/exe/rbdock.cxx#4 $)

>  <Rbt.Library>
libRbt.so (2013.1, Build901 2013/11/27)

>  <Rbt.Parameter_File>
/export/apps/rDock/src/rDock_2013.1_src/data/scripts/dock_solv.prm

>  <Rbt.Receptor>
prm/pocket_docking_6.prm

>  <SCORE>
-57.2359

>  <SCORE.INTER>
-40.8606

>  <SCORE.INTER.CONST>
1

>  <SCORE.INTER.POLAR>
-5.12612

>  <SCORE.INTER.ROT>
6

>  <SCORE.INTER.SOLV>
21.7481

>  <SCORE.INTER.VDW>
-25.0027

>  <SCORE.INTER.norm>
-1.27689

>  <SCORE.INTRA>
-16.3753

>  <SCORE.INTRA.DIHEDRAL>
-28.5786

>  <SCORE.INTRA.DIHEDRAL.0>
44.2576

>  <SCORE.INTRA.POLAR>
-0.293625

>  <SCORE.INTRA.POLAR.0>
-0.381556

>  <SCORE.INTRA.REPUL>
0

>  <SCORE.INTRA.REPUL.0>
0

>  <SCORE.INTRA.SOLV>
2.27514

>  <SCORE.INTRA.SOLV.lig_0>
-134.592

>  <SCORE.INTRA.VDW>
-2.22518

>  <SCORE.INTRA.VDW.0>
-1.01417

>  <SCORE.INTRA.norm>
-0.511727

>  <SCORE.RESTR>
0

>  <SCORE.RESTR.CAVITY>
0

>  <SCORE.RESTR.norm>
0

>  <SCORE.SYSTEM>
0

>  <SCORE.SYSTEM.CONST>
0

>  <SCORE.SYSTEM.DIHEDRAL>
0

>  <SCORE.SYSTEM.SOLV>
0

>  <SCORE.SYSTEM.norm>
0

>  <SCORE.heavy>
32

>  <SCORE.norm>
-1.78862

>  <RMSD>
5.699

$$$$
1lc4
 OpenBabel02141814113D
libRbt.so/2013.1/901 2013/11/27
 32 34  0  0  0  0  0  0  0  0999 V2000
  -10.1735    8.1398   22.0963 C   0  0  2  0  0  0  0  0  0  0  0  0
  -10.4596    8.9675   20.9967 O   0  0  0  0  0  0  0  0  0  0  0  0
   -8.8093    8.5664   22.6759 C   0  0  2  0  0  0  0  0  0  0  0  0
   -8.8414    9.9785   23.0690 N   0  3  0  0  0  0  0  0  0  0  0  0
   -7.6856    8.2921   21.6490 C   0  0  0  0  0  0  0  0  0  0  0  0
   -7.7066    6.7867   21.3309 C   0  0  2  0  0  0  0  0  0  0  0  0
   -6.6549    6.4547   20.4182 O   0  0  0  0  0  0  0  0  0  0  0  0
   -9.0928    6.4051   20.7544 C   0  0  2  0  0  0  0  0  0  0  0  0
  -10.1469    6.7516   21.6973 O   0  0  0  0  0  0  0  0  0  0  0  0
   -9.2380    4.9155   20.4536 C   0  0  0  0  0  0  0  0  0  0  0  0
   -9.7090    4.1684   21.6494 N   0  3  0  0  0  0  0  0  0  0  0  0
  -13.4718    9.9417   18.1794 C   0  0  2  0  0  0  0  0  0  0  0  0
  -14.7501   10.0001   17.4470 N   0  3  0  0  0  0  0  0  0  0  0  0
  -12.9240    8.5213   18.1515 C   0  0  0  0  0  0  0  0  0  0  0  0
  -11.5961    8.4466   18.9133 C   0  0  2  0  0  0  0  0  0  0  0  0
  -11.0433    7.0780   18.7589 N   0  3  0  0  0  0  0  0  0  0  0  0
  -11.7673    8.9029   20.3931 C   0  0  2  0  0  0  0  0  0  0  0  0
  -12.3798   10.3268   20.4266 C   0  0  2  0  0  0  0  0  0  0  0  0
  -12.6869   10.6724   21.7556 O   0  0  0  0  0  0  0  0  0  0  0  0
  -13.6917   10.3777   19.6266 C   0  0  1  0  0  0  0  0  0  0  0  0
  -14.2002   11.7108   19.6583 O   0  0  0  0  0  0  0  0  0  0  0  0
  -13.6774   12.6114   18.7436 C   0  0  2  0  0  0  0  0  0  0  0  0
  -13.4626   13.9633   19.4455 C   0  0  2  0  0  0  0  0  0  0  0  0
  -12.5631   13.7740   20.5304 O   0  0  0  0  0  0  0  0  0  0  0  0
  -14.8116   14.4907   19.9647 C   0  0  1  0  0  0  0  0  0  0  0  0
  -14.6627   15.7931   20.6758 N   0  3  0  0  0  0  0  0  0  0  0  0
  -15.7973   14.6266   18.7786 C   0  0  2  0  0  0  0  0  0  0  0  0
  -17.0664   15.0902   19.2337 O   0  0  0  0  0  0  0  0  0  0  0  0
  -15.9426   13.2774   18.0504 C   0  0  2  0  0  0  0  0  0  0  0  0
  -14.6207   12.7620   17.6511 O   0  0  0  0  0  0  0  0  0  0  0  0
  -16.7723   13.3952   16.7912 C   0  0  0  0  0  0  0  0  0  0  0  0
  -18.0778   13.8982   17.0668 O   0  0  0  0  0  0  0  0  0  0  0  0
  1  2  1  6  0  0  0
  1  3  1  0  0  0  0
  1  9  1  0  0  0  0
  3  4  1  6  0  0  0
  3  5  1  0  0  0  0
  5  6  1  0  0  0  0
  6  7  1  6  0  0  0
  6  8  1  0  0  0  0
  8  9  1  0  0  0  0
  8 10  1  1  0  0  0
 10 11  1  0  0  0  0
 12 13  1  6  0  0  0
 12 14  1  0  0  0  0
 12 20  1  0  0  0  0
 14 15  1  0  0  0  0
 15 16  1  1  0  0  0
 15 17  1  0  0  0  0
 17  2  1  6  0  0  0
 17 18  1  0  0  0  0
 18 19  1  1  0  0  0
 18 20  1  0  0  0  0
 20 21  1  6  0  0  0
 22 21  1  1  0  0  0
 22 23  1  0  0  0  0
 22 30  1  0  0  0  0
 23 24  1  1  0  0  0
 23 25  1  0  0  0  0
 25 26  1  6  0  0  0
 25 27  1  0  0  0  0
 27 28  1  1  0  0  0
 27 29  1  0  0  0  0
 29 30  1  0  0  0  0
 29 31  1  6  0  0  0
 31 32  1  0  0  0  0
M  CHG  5   4   1  11   1  13   1  16   1  26   1
M  END
>  <CHROM.1>
-171.15209365,-118.55496258,112.51536374,57.39033611,87.55899019,55.37959785
-44.98473420,36.80734650,-56.65158526,-39.07578794,-138.84191653,172.05261568
-101.99916391,-54.70616640,-58.24235876,-55.25349191,-12.34812544,10.29874647
19.92490632,-0.54401919,-0.67479726,0.45069964

>  <Name>
1lc4

>  <RI>
0

>  <Rbt.Current_Directory>
/home/afrankz/demos/rdock_decoys_rna/rnas/1lc4

>  <Rbt.Executable>
rbdock ($Id: //depot/dev/client3/rdock/2013.1/src/exe/rbdock.cxx#4 $)

>  <Rbt.Library>
libRbt.so (2013.1, Build901 2013/11/27)

>  <Rbt.Parameter_File>
/export/apps/rDock/src/rDock_2013.1_src/data/scripts/dock_solv.prm

>  <Rbt.Receptor>
prm/blind_docking_40.prm

>  <SCORE>
-21.0124

>  <SCORE.INTER>
-18.3911

>  <SCORE.INTER.CONST>
1

>  <SCORE.INTER.POLAR>
-3.3022

>  <SCORE.INTER.ROT>
6

>  <SCORE.INTER.SOLV>
31.2113

>  <SCORE.INTER.VDW>
-19.2572

>  <SCORE.INTER.norm>
-0.574722

>  <SCORE.INTRA>
-7.32919

>  <SCORE.INTRA.DIHEDRAL>
-18.0735

>  <SCORE.INTRA.DIHEDRAL.0>
44.2576

>  <SCORE.INTRA.POLAR>
-0.505124

>  <SCORE.INTRA.POLAR.0>
-0.381556

>  <SCORE.INTRA.REPUL>
0

>  <SCORE.INTRA.REPUL.0>
0

>  <SCORE.INTRA.SOLV>
4.03093

>  <SCORE.INTRA.SOLV.lig_0>
-134.592

>  <SCORE.INTRA.VDW>
1.4095

>  <SCORE.INTRA.VDW.0>
-1.01417

>  <SCORE.INTRA.norm>
-0.229037

>  <SCORE.RESTR>
4.7079

>  <SCORE.RESTR.CAVITY>
4.7079

>  <SCORE.RESTR.norm>
0.147122

>  <SCORE.SYSTEM>
0

>  <SCORE.SYSTEM.CONST>
0

>  <SCORE.SYSTEM.DIHEDRAL>
0

>  <SCORE.SYSTEM.SOLV>
0

>  <SCORE.SYSTEM.norm>
0

>  <SCORE.heavy>
32

>  <SCORE.norm>
-0.656638

>  <RMSD>
5.703

$$$$
1lc4
 OpenBabel02141814113D
libRbt.so/2013.1/901 2013/11/27
 32 34  0  0  0  0  0  0  0  0999 V2000
   -7.3835    5.5286   23.6313 C   0  0  2  0  0  0  0  0  0  0  0  0
   -8.4353    6.4267   23.3800 O   0  0  0  0  0  0  0  0  0  0  0  0
   -7.3670    5.2194   25.1423 C   0  0  2  0  0  0  0  0  0  0  0  0
   -8.6551    4.6588   25.5620 N   0  3  0  0  0  0  0  0  0  0  0  0
   -7.0199    6.4966   25.9429 C   0  0  0  0  0  0  0  0  0  0  0  0
   -5.6421    6.9843   25.4618 C   0  0  2  0  0  0  0  0  0  0  0  0
   -5.2367    8.1420   26.1998 O   0  0  0  0  0  0  0  0  0  0  0  0
   -5.7062    7.2800   23.9426 C   0  0  2  0  0  0  0  0  0  0  0  0
   -6.1206    6.0909   23.2116 O   0  0  0  0  0  0  0  0  0  0  0  0
   -4.3697    7.7214   23.3513 C   0  0  0  0  0  0  0  0  0  0  0  0
   -3.2638    6.8351   23.7997 N   0  3  0  0  0  0  0  0  0  0  0  0
  -11.0165    7.3121   20.1376 C   0  0  2  0  0  0  0  0  0  0  0  0
  -11.5317    7.6334   18.7940 N   0  3  0  0  0  0  0  0  0  0  0  0
  -10.0918    8.4231   20.6163 C   0  0  0  0  0  0  0  0  0  0  0  0
   -9.5463    8.0989   22.0115 C   0  0  2  0  0  0  0  0  0  0  0  0
   -8.7495    9.2582   22.4843 N   0  3  0  0  0  0  0  0  0  0  0  0
   -8.7712    6.7474   22.0151 C   0  0  2  0  0  0  0  0  0  0  0  0
   -9.6913    5.6235   21.4728 C   0  0  2  0  0  0  0  0  0  0  0  0
   -8.9443    4.4406   21.3209 O   0  0  0  0  0  0  0  0  0  0  0  0
  -10.2492    5.9924   20.0886 C   0  0  1  0  0  0  0  0  0  0  0  0
  -11.1131    4.9465   19.6453 O   0  0  0  0  0  0  0  0  0  0  0  0
  -10.5222    3.8506   19.0362 C   0  0  2  0  0  0  0  0  0  0  0  0
  -10.4550    4.1019   17.5201 C   0  0  2  0  0  0  0  0  0  0  0  0
   -9.6878    5.2765   17.2879 O   0  0  0  0  0  0  0  0  0  0  0  0
  -11.8794    4.2845   16.9676 C   0  0  1  0  0  0  0  0  0  0  0  0
  -11.8764    4.5535   15.5008 N   0  3  0  0  0  0  0  0  0  0  0  0
  -12.7172    3.0228   17.2889 C   0  0  2  0  0  0  0  0  0  0  0  0
  -14.0518    3.1736   16.8104 O   0  0  0  0  0  0  0  0  0  0  0  0
  -12.7125    2.7531   18.8051 C   0  0  2  0  0  0  0  0  0  0  0  0
  -11.3302    2.6767   19.3110 O   0  0  0  0  0  0  0  0  0  0  0  0
  -13.3859    1.4443   19.1537 C   0  0  0  0  0  0  0  0  0  0  0  0
  -12.8365    0.3566   18.4132 O   0  0  0  0  0  0  0  0  0  0  0  0
  1  2  1  1  0  0  0
  1  3  1  0  0  0  0
  1  9  1  0  0  0  0
  3  4  1  1  0  0  0
  3  5  1  0  0  0  0
  5  6  1  0  0  0  0
  6  7  1  1  0  0  0
  6  8  1  0  0  0  0
  8  9  1  0  0  0  0
  8 10  1  6  0  0  0
 10 11  1  0  0  0  0
 12 13  1  6  0  0  0
 12 14  1  0  0  0  0
 12 20  1  0  0  0  0
 14 15  1  0  0  0  0
 15 16  1  6  0  0  0
 15 17  1  0  0  0  0
 17  2  1  1  0  0  0
 17 18  1  0  0  0  0
 18 19  1  6  0  0  0
 18 20  1  0  0  0  0
 20 21  1  1  0  0  0
 22 21  1  1  0  0  0
 22 23  1  0  0  0  0
 22 30  1  0  0  0  0
 23 24  1  1  0  0  0
 23 25  1  0  0  0  0
 25 26  1  6  0  0  0
 25 27  1  0  0  0  0
 27 28  1  1  0  0  0
 27 29  1  0  0  0  0
 29 30  1  0  0  0  0
 29 31  1  6  0  0  0
 31 32  1  0  0  0  0
M  CHG  5   4   1  11   1  13   1  16   1  26   1
M  END
>  <CHROM.1>
-172.36214604,-159.04068383,-69.92828357,-62.53412322,46.82915051,-63.95801495
153.70488297,-172.58552667,74.02334590,154.71079292,-90.83227459,68.67252180
-55.85221396,67.97550449,53.20923463,157.52949586,-9.38433227,5.46846079
21.05068034,0.02525049,0.89493793,2.61833881

>  <Name>
1lc4

>  <RI>
0

>  <Rbt.Current_Directory>
/home/afrankz/demos/rdock_decoys_rna/rnas/1lc4

>  <Rbt.Executable>
rbdock ($Id: //depot/dev/client3/rdock/2013.1/src/exe/rbdock.cxx#4 $)

>  <Rbt.Library>
libRbt.so (2013.1, Build901 2013/11/27)

>  <Rbt.Parameter_File>
/export/apps/rDock/src/rDock_2013.1_src/data/scripts/dock_solv.prm

>  <Rbt.Receptor>
prm/pocket_docking_7.prm

>  <SCORE>
-46.4488

>  <SCORE.INTER>
-29.473

>  <SCORE.INTER.CONST>
1

>  <SCORE.INTER.POLAR>
-4.03811

>  <SCORE.INTER.ROT>
6

>  <SCORE.INTER.SOLV>
24.8278

>  <SCORE.INTER.VDW>
-22.0642

>  <SCORE.INTER.norm>
-0.92103

>  <SCORE.INTRA>
-16.9758

>  <SCORE.INTRA.DIHEDRAL>
-28.9245

>  <SCORE.INTRA.DIHEDRAL.0>
44.2576

>  <SCORE.INTRA.POLAR>
0.333222

>  <SCORE.INTRA.POLAR.0>
-0.381556

>  <SCORE.INTRA.REPUL>
0.00104817

>  <SCORE.INTRA.REPUL.0>
0

>  <SCORE.INTRA.SOLV>
-0.851358

>  <SCORE.INTRA.SOLV.lig_0>
-134.592

>  <SCORE.INTRA.VDW>
-3.22609

>  <SCORE.INTRA.VDW.0>
-1.01417

>  <SCORE.INTRA.norm>
-0.530495

>  <SCORE.RESTR>
0

>  <SCORE.RESTR.CAVITY>
0

>  <SCORE.RESTR.norm>
0

>  <SCORE.SYSTEM>
0

>  <SCORE.SYSTEM.CONST>
0

>  <SCORE.SYSTEM.DIHEDRAL>
0

>  <SCORE.SYSTEM.SOLV>
0

>  <SCORE.SYSTEM.norm>
0

>  <SCORE.heavy>
32

>  <SCORE.norm>
-1.45153

>  <RMSD>
5.708

$$$$
1lc4
 OpenBabel02141814113D
libRbt.so/2013.1/901 2013/11/27
 32 34  0  0  0  0  0  0  0  0999 V2000
  -11.7760    3.8029   20.9704 C   0  0  2  0  0  0  0  0  0  0  0  0
  -12.7550    4.6531   20.4275 O   0  0  0  0  0  0  0  0  0  0  0  0
  -10.7214    3.5271   19.8793 C   0  0  2  0  0  0  0  0  0  0  0  0
  -10.1312    4.7849   19.4110 N   0  3  0  0  0  0  0  0  0  0  0  0
  -11.3570    2.7337   18.7135 C   0  0  0  0  0  0  0  0  0  0  0  0
  -11.9101    1.4206   19.2944 C   0  0  2  0  0  0  0  0  0  0  0  0
  -12.4724    0.6126   18.2551 O   0  0  0  0  0  0  0  0  0  0  0  0
  -12.9615    1.7465   20.3843 C   0  0  2  0  0  0  0  0  0  0  0  0
  -12.3695    2.5686   21.4302 O   0  0  0  0  0  0  0  0  0  0  0  0
  -13.5364    0.5072   21.0657 C   0  0  0  0  0  0  0  0  0  0  0  0
  -14.6788    0.8598   21.9489 N   0  3  0  0  0  0  0  0  0  0  0  0
  -15.1114    8.0135   21.4834 C   0  0  2  0  0  0  0  0  0  0  0  0
  -15.5684    9.2832   22.0774 N   0  3  0  0  0  0  0  0  0  0  0  0
  -14.7909    7.0126   22.5851 C   0  0  0  0  0  0  0  0  0  0  0  0
  -14.3108    5.6888   21.9800 C   0  0  2  0  0  0  0  0  0  0  0  0
  -14.1252    4.7104   23.0804 N   0  3  0  0  0  0  0  0  0  0  0  0
  -13.0477    5.8985   21.0923 C   0  0  2  0  0  0  0  0  0  0  0  0
  -13.3519    6.9607   20.0047 C   0  0  2  0  0  0  0  0  0  0  0  0
  -12.1682    7.2702   19.3097 O   0  0  0  0  0  0  0  0  0  0  0  0
  -13.8630    8.2641   20.6398 C   0  0  1  0  0  0  0  0  0  0  0  0
  -14.1597    9.1979   19.6021 O   0  0  0  0  0  0  0  0  0  0  0  0
  -13.0868    9.7557   18.9245 C   0  0  2  0  0  0  0  0  0  0  0  0
  -12.6672   11.0510   19.6403 C   0  0  2  0  0  0  0  0  0  0  0  0
  -12.3030   10.7335   20.9777 O   0  0  0  0  0  0  0  0  0  0  0  0
  -13.8435   12.0429   19.6354 C   0  0  1  0  0  0  0  0  0  0  0  0
  -13.5017   13.3139   20.3367 N   0  3  0  0  0  0  0  0  0  0  0  0
  -14.2680   12.3241   18.1733 C   0  0  2  0  0  0  0  0  0  0  0  0
  -15.3747   13.2223   18.1378 O   0  0  0  0  0  0  0  0  0  0  0  0
  -14.6170   11.0057   17.4578 C   0  0  2  0  0  0  0  0  0  0  0  0
  -13.5003   10.0497   17.5648 O   0  0  0  0  0  0  0  0  0  0  0  0
  -14.8865   11.2107   15.9836 C   0  0  0  0  0  0  0  0  0  0  0  0
  -16.0549   11.9990   15.7673 O   0  0  0  0  0  0  0  0  0  0  0  0
  1  2  1  6  0  0  0
  1  3  1  0  0  0  0
  1  9  1  0  0  0  0
  3  4  1  6  0  0  0
  3  5  1  0  0  0  0
  5  6  1  0  0  0  0
  6  7  1  6  0  0  0
  6  8  1  0  0  0  0
  8  9  1  0  0  0  0
  8 10  1  1  0  0  0
 10 11  1  0  0  0  0
 12 13  1  1  0  0  0
 12 14  1  0  0  0  0
 12 20  1  0  0  0  0
 14 15  1  0  0  0  0
 15 16  1  1  0  0  0
 15 17  1  0  0  0  0
 17  2  1  6  0  0  0
 17 18  1  0  0  0  0
 18 19  1  1  0  0  0
 18 20  1  0  0  0  0
 20 21  1  6  0  0  0
 22 21  1  1  0  0  0
 22 23  1  0  0  0  0
 22 30  1  0  0  0  0
 23 24  1  1  0  0  0
 23 25  1  0  0  0  0
 25 26  1  6  0  0  0
 25 27  1  0  0  0  0
 27 28  1  1  0  0  0
 27 29  1  0  0  0  0
 29 30  1  0  0  0  0
 29 31  1  6  0  0  0
 31 32  1  0  0  0  0
M  CHG  5   4   1  11   1  13   1  16   1  26   1
M  END
>  <CHROM.1>
-124.32037993,-97.75463339,80.01691974,174.78549184,-171.40708115,66.13604336
66.49283362,77.04584958,154.45162097,166.54164250,-90.55892535,92.81557322
-168.84609506,-167.75944524,-65.56106508,-63.83969210,-13.43226328,7.09703552
19.88284511,1.07699450,-1.19606122,2.47311876

>  <Name>
1lc4

>  <RI>
0

>  <Rbt.Current_Directory>
/home/afrankz/demos/rdock_decoys_rna/rnas/1lc4

>  <Rbt.Executable>
rbdock ($Id: //depot/dev/client3/rdock/2013.1/src/exe/rbdock.cxx#4 $)

>  <Rbt.Library>
libRbt.so (2013.1, Build901 2013/11/27)

>  <Rbt.Parameter_File>
/export/apps/rDock/src/rDock_2013.1_src/data/scripts/dock_solv.prm

>  <Rbt.Receptor>
prm/blind_docking_60.prm

>  <SCORE>
-28.1896

>  <SCORE.INTER>
-19.5059

>  <SCORE.INTER.CONST>
1

>  <SCORE.INTER.POLAR>
-3.62057

>  <SCORE.INTER.ROT>
6

>  <SCORE.INTER.SOLV>
22.7969

>  <SCORE.INTER.VDW>
-16.1343

>  <SCORE.INTER.norm>
-0.609559

>  <SCORE.INTRA>
-16.4574

>  <SCORE.INTRA.DIHEDRAL>
-17.2377

>  <SCORE.INTRA.DIHEDRAL.0>
44.2576

>  <SCORE.INTRA.POLAR>
-1.86884

>  <SCORE.INTRA.POLAR.0>
-0.381556

>  <SCORE.INTRA.REPUL>
0.0241532

>  <SCORE.INTRA.REPUL.0>
0

>  <SCORE.INTRA.SOLV>
0.157745

>  <SCORE.INTRA.SOLV.lig_0>
-134.592

>  <SCORE.INTRA.VDW>
-1.68408

>  <SCORE.INTRA.VDW.0>
-1.01417

>  <SCORE.INTRA.norm>
-0.514293

>  <SCORE.RESTR>
7.77371

>  <SCORE.RESTR.CAVITY>
7.77371

>  <SCORE.RESTR.norm>
0.242928

>  <SCORE.SYSTEM>
0

>  <SCORE.SYSTEM.CONST>
0

>  <SCORE.SYSTEM.DIHEDRAL>
0

>  <SCORE.SYSTEM.SOLV>
0

>  <SCORE.SYSTEM.norm>
0

>  <SCORE.heavy>
32

>  <SCORE.norm>
-0.880924

>  <RMSD>
5.715

$$$$
1lc4
 OpenBabel02141814113D
libRbt.so/2013.1/901 2013/11/27
 32 34  0  0  0  0  0  0  0  0999 V2000
   -9.1299    3.7848   13.7272 C   0  0  2  0  0  0  0  0  0  0  0  0
   -9.2927    4.0424   15.0995 O   0  0  0  0  0  0  0  0  0  0  0  0
   -8.1725    2.5853   13.5743 C   0  0  2  0  0  0  0  0  0  0  0  0
   -8.7075    1.4134   14.2742 N   0  3  0  0  0  0  0  0  0  0  0  0
   -6.7644    2.9588   14.0944 C   0  0  0  0  0  0  0  0  0  0  0  0
   -6.2745    4.1670   13.2770 C   0  0  2  0  0  0  0  0  0  0  0  0
   -4.9503    4.5361   13.6766 O   0  0  0  0  0  0  0  0  0  0  0  0
   -7.2654    5.3435   13.4595 C   0  0  2  0  0  0  0  0  0  0  0  0
   -8.6047    4.9469   13.0483 O   0  0  0  0  0  0  0  0  0  0  0  0
   -6.8986    6.5807   12.6436 C   0  0  0  0  0  0  0  0  0  0  0  0
   -6.6554    6.2331   11.2189 N   0  3  0  0  0  0  0  0  0  0  0  0
  -12.6017    6.2470   16.5659 C   0  0  2  0  0  0  0  0  0  0  0  0
  -13.4742    7.3479   17.0138 N   0  3  0  0  0  0  0  0  0  0  0  0
  -11.3648    6.1743   17.4509 C   0  0  0  0  0  0  0  0  0  0  0  0
  -10.4474    5.0351   16.9929 C   0  0  2  0  0  0  0  0  0  0  0  0
   -9.3198    4.9268   17.9518 N   0  3  0  0  0  0  0  0  0  0  0  0
  -10.0084    5.2247   15.5101 C   0  0  2  0  0  0  0  0  0  0  0  0
  -11.2656    5.3579   14.6127 C   0  0  2  0  0  0  0  0  0  0  0  0
  -10.8723    5.6927   13.3038 O   0  0  0  0  0  0  0  0  0  0  0  0
  -12.1816    6.4849   15.1168 C   0  0  1  0  0  0  0  0  0  0  0  0
  -13.3375    6.5486   14.2822 O   0  0  0  0  0  0  0  0  0  0  0  0
  -13.2922    7.4138   13.2003 C   0  0  2  0  0  0  0  0  0  0  0  0
  -14.1256    8.6641   13.5296 C   0  0  2  0  0  0  0  0  0  0  0  0
  -13.5787    9.2827   14.6873 O   0  0  0  0  0  0  0  0  0  0  0  0
  -15.5850    8.2525   13.7912 C   0  0  1  0  0  0  0  0  0  0  0  0
  -16.4395    9.4246   14.1377 N   0  3  0  0  0  0  0  0  0  0  0  0
  -16.1407    7.5222   12.5442 C   0  0  2  0  0  0  0  0  0  0  0  0
  -17.4860    7.1057   12.7669 O   0  0  0  0  0  0  0  0  0  0  0  0
  -15.2507    6.3152   12.1940 C   0  0  2  0  0  0  0  0  0  0  0  0
  -13.8464    6.7368   12.0425 O   0  0  0  0  0  0  0  0  0  0  0  0
  -15.6613    5.6622   10.8929 C   0  0  0  0  0  0  0  0  0  0  0  0
  -16.4581    6.5350   10.0950 O   0  0  0  0  0  0  0  0  0  0  0  0
  1  2  1  1  0  0  0
  1  3  1  0  0  0  0
  1  9  1  0  0  0  0
  3  4  1  1  0  0  0
  3  5  1  0  0  0  0
  5  6  1  0  0  0  0
  6  7  1  1  0  0  0
  6  8  1  0  0  0  0
  8  9  1  0  0  0  0
  8 10  1  6  0  0  0
 10 11  1  0  0  0  0
 12 13  1  1  0  0  0
 12 14  1  0  0  0  0
 12 20  1  0  0  0  0
 14 15  1  0  0  0  0
 15 16  1  1  0  0  0
 15 17  1  0  0  0  0
 17  2  1  6  0  0  0
 17 18  1  0  0  0  0
 18 19  1  6  0  0  0
 18 20  1  0  0  0  0
 20 21  1  6  0  0  0
 22 21  1  1  0  0  0
 22 23  1  0  0  0  0
 22 30  1  0  0  0  0
 23 24  1  1  0  0  0
 23 25  1  0  0  0  0
 25 26  1  6  0  0  0
 25 27  1  0  0  0  0
 27 28  1  1  0  0  0
 27 29  1  0  0  0  0
 29 30  1  0  0  0  0
 29 31  1  6  0  0  0
 31 32  1  0  0  0  0
M  CHG  5   4   1  11   1  13   1  16   1  26   1
M  END
>  <CHROM.1>
172.18530142,161.61447347,-58.54244571,168.78393808,50.86595109,-29.94519047
22.75699523,1.41952751,-59.78870892,145.77769961,-103.90110580,168.61622261
-152.84434687,-173.86236629,18.89776245,-154.27079361,-11.43968743,5.91332281
13.94489600,-0.06796327,0.39449898,-1.66292350

>  <Name>
1lc4

>  <RI>
0

>  <Rbt.Current_Directory>
/home/afrankz/demos/rdock_decoys_rna/rnas/1lc4

>  <Rbt.Executable>
rbdock ($Id: //depot/dev/client3/rdock/2013.1/src/exe/rbdock.cxx#4 $)

>  <Rbt.Library>
libRbt.so (2013.1, Build901 2013/11/27)

>  <Rbt.Parameter_File>
/export/apps/rDock/src/rDock_2013.1_src/data/scripts/dock_solv.prm

>  <Rbt.Receptor>
prm/blind_docking_80.prm

>  <SCORE>
-24.9214

>  <SCORE.INTER>
-24.3087

>  <SCORE.INTER.CONST>
1

>  <SCORE.INTER.POLAR>
-5.22902

>  <SCORE.INTER.ROT>
6

>  <SCORE.INTER.SOLV>
33.4049

>  <SCORE.INTER.VDW>
-17.5107

>  <SCORE.INTER.norm>
-0.759648

>  <SCORE.INTRA>
-6.9325

>  <SCORE.INTRA.DIHEDRAL>
-14.0295

>  <SCORE.INTRA.DIHEDRAL.0>
44.2576

>  <SCORE.INTRA.POLAR>
-0.70238

>  <SCORE.INTRA.POLAR.0>
-0.381556

>  <SCORE.INTRA.REPUL>
0

>  <SCORE.INTRA.REPUL.0>
0

>  <SCORE.INTRA.SOLV>
-0.885419

>  <SCORE.INTRA.SOLV.lig_0>
-134.592

>  <SCORE.INTRA.VDW>
2.91307

>  <SCORE.INTRA.VDW.0>
-1.01417

>  <SCORE.INTRA.norm>
-0.216641

>  <SCORE.RESTR>
6.31987

>  <SCORE.RESTR.CAVITY>
6.31987

>  <SCORE.RESTR.norm>
0.197496

>  <SCORE.SYSTEM>
0

>  <SCORE.SYSTEM.CONST>
0

>  <SCORE.SYSTEM.DIHEDRAL>
0

>  <SCORE.SYSTEM.SOLV>
0

>  <SCORE.SYSTEM.norm>
0

>  <SCORE.heavy>
32

>  <SCORE.norm>
-0.778793

>  <RMSD>
5.754

$$$$
1lc4
 OpenBabel02141814113D
libRbt.so/2013.1/901 2013/11/27
 32 34  0  0  0  0  0  0  0  0999 V2000
  -14.8994   10.7163   20.2041 C   0  0  2  0  0  0  0  0  0  0  0  0
  -13.5431   10.3997   20.0139 O   0  0  0  0  0  0  0  0  0  0  0  0
  -15.2316   11.9465   19.3351 C   0  0  2  0  0  0  0  0  0  0  0  0
  -14.9448   11.6669   17.9247 N   0  3  0  0  0  0  0  0  0  0  0  0
  -14.4451   13.1803   19.8369 C   0  0  0  0  0  0  0  0  0  0  0  0
  -14.8406   13.4156   21.3052 C   0  0  2  0  0  0  0  0  0  0  0  0
  -14.1818   14.5778   21.8196 O   0  0  0  0  0  0  0  0  0  0  0  0
  -14.4909   12.1565   22.1370 C   0  0  2  0  0  0  0  0  0  0  0  0
  -15.1701   10.9873   21.5971 O   0  0  0  0  0  0  0  0  0  0  0  0
  -14.8941   12.2656   23.6055 C   0  0  0  0  0  0  0  0  0  0  0  0
  -16.3726   12.2664   23.7590 N   0  3  0  0  0  0  0  0  0  0  0  0
  -11.4630    7.2688   18.0567 C   0  0  2  0  0  0  0  0  0  0  0  0
  -10.9810    5.9359   17.6504 N   0  3  0  0  0  0  0  0  0  0  0  0
  -11.1380    7.5112   19.5244 C   0  0  0  0  0  0  0  0  0  0  0  0
  -11.6377    8.8931   19.9602 C   0  0  2  0  0  0  0  0  0  0  0  0
  -11.1959    9.1324   21.3567 N   0  3  0  0  0  0  0  0  0  0  0  0
  -13.1743    9.0323   19.7439 C   0  0  2  0  0  0  0  0  0  0  0  0
  -13.5165    8.7288   18.2625 C   0  0  2  0  0  0  0  0  0  0  0  0
  -14.9142    8.6925   18.1036 O   0  0  0  0  0  0  0  0  0  0  0  0
  -12.9735    7.3522   17.8459 C   0  0  1  0  0  0  0  0  0  0  0  0
  -13.2829    7.1308   16.4704 O   0  0  0  0  0  0  0  0  0  0  0  0
  -14.5882    6.7808   16.1619 C   0  0  2  0  0  0  0  0  0  0  0  0
  -14.6533    5.2611   15.9324 C   0  0  2  0  0  0  0  0  0  0  0  0
  -14.2268    4.6037   17.1190 O   0  0  0  0  0  0  0  0  0  0  0  0
  -13.7335    4.8806   14.7590 C   0  0  1  0  0  0  0  0  0  0  0  0
  -13.7389    3.4115   14.5023 N   0  3  0  0  0  0  0  0  0  0  0  0
  -14.1729    5.6569   13.4935 C   0  0  2  0  0  0  0  0  0  0  0  0
  -13.3214    5.3432   12.3937 O   0  0  0  0  0  0  0  0  0  0  0  0
  -14.1655    7.1719   13.7695 C   0  0  2  0  0  0  0  0  0  0  0  0
  -14.9833    7.4839   14.9555 O   0  0  0  0  0  0  0  0  0  0  0  0
  -14.7368    7.9649   12.6150 C   0  0  0  0  0  0  0  0  0  0  0  0
  -14.7828    9.3599   12.9069 O   0  0  0  0  0  0  0  0  0  0  0  0
  1  2  1  1  0  0  0
  1  3  1  0  0  0  0
  1  9  1  0  0  0  0
  3  4  1  6  0  0  0
  3  5  1  0  0  0  0
  5  6  1  0  0  0  0
  6  7  1  1  0  0  0
  6  8  1  0  0  0  0
  8  9  1  0  0  0  0
  8 10  1  1  0  0  0
 10 11  1  0  0  0  0
 12 13  1  1  0  0  0
 12 14  1  0  0  0  0
 12 20  1  0  0  0  0
 14 15  1  0  0  0  0
 15 16  1  1  0  0  0
 15 17  1  0  0  0  0
 17  2  1  6  0  0  0
 17 18  1  0  0  0  0
 18 19  1  1  0  0  0
 18 20  1  0  0  0  0
 20 21  1  6  0  0  0
 22 21  1  6  0  0  0
 22 23  1  0  0  0  0
 22 30  1  0  0  0  0
 23 24  1  1  0  0  0
 23 25  1  0  0  0  0
 25 26  1  6  0  0  0
 25 27  1  0  0  0  0
 27 28  1  6  0  0  0
 27 29  1  0  0  0  0
 29 30  1  0  0  0  0
 29 31  1  6  0  0  0
 31 32  1  0  0  0  0
M  CHG  5   4   1  11   1  13   1  16   1  26   1
M  END
>  <CHROM.1>
-131.91504995,-164.85089870,155.14749510,-74.52780646,68.44978833,-72.26870585
59.02287375,154.29878065,-63.61026838,161.44759658,-100.85883524,61.60404584
179.05018446,-178.73265868,177.26234104,-64.88380424,-13.89620580,8.77577599
18.02682316,1.70575463,-0.96933586,0.96243604

>  <Name>
1lc4

>  <RI>
0

>  <Rbt.Current_Directory>
/home/afrankz/demos/rdock_decoys_rna/rnas/1lc4

>  <Rbt.Executable>
rbdock ($Id: //depot/dev/client3/rdock/2013.1/src/exe/rbdock.cxx#4 $)

>  <Rbt.Library>
libRbt.so (2013.1, Build901 2013/11/27)

>  <Rbt.Parameter_File>
/export/apps/rDock/src/rDock_2013.1_src/data/scripts/dock_solv.prm

>  <Rbt.Receptor>
prm/pocket_docking_7.prm

>  <SCORE>
-39.574

>  <SCORE.INTER>
-20.8601

>  <SCORE.INTER.CONST>
1

>  <SCORE.INTER.POLAR>
-3.5446

>  <SCORE.INTER.ROT>
6

>  <SCORE.INTER.SOLV>
15.9349

>  <SCORE.INTER.VDW>
-15.0031

>  <SCORE.INTER.norm>
-0.651878

>  <SCORE.INTRA>
-18.7168

>  <SCORE.INTRA.DIHEDRAL>
-24.929

>  <SCORE.INTRA.DIHEDRAL.0>
44.2576

>  <SCORE.INTRA.POLAR>
-0.848026

>  <SCORE.INTRA.POLAR.0>
-0.381556

>  <SCORE.INTRA.REPUL>
0

>  <SCORE.INTRA.REPUL.0>
0

>  <SCORE.INTRA.SOLV>
-1.6285

>  <SCORE.INTRA.SOLV.lig_0>
-134.592

>  <SCORE.INTRA.VDW>
-2.5547

>  <SCORE.INTRA.VDW.0>
-1.01417

>  <SCORE.INTRA.norm>
-0.584899

>  <SCORE.RESTR>
0.00283939

>  <SCORE.RESTR.CAVITY>
0.00283939

>  <SCORE.RESTR.norm>
8.87311e-05

>  <SCORE.SYSTEM>
0

>  <SCORE.SYSTEM.CONST>
0

>  <SCORE.SYSTEM.DIHEDRAL>
0

>  <SCORE.SYSTEM.SOLV>
0

>  <SCORE.SYSTEM.norm>
0

>  <SCORE.heavy>
32

>  <SCORE.norm>
-1.23669

>  <RMSD>
5.768

$$$$
1lc4
 OpenBabel02141814113D
libRbt.so/2013.1/901 2013/11/27
 32 34  0  0  0  0  0  0  0  0999 V2000
  -12.1698    7.8571   20.0453 C   0  0  2  0  0  0  0  0  0  0  0  0
  -12.1374    8.6063   18.8563 O   0  0  0  0  0  0  0  0  0  0  0  0
  -11.2726    8.5634   21.0822 C   0  0  2  0  0  0  0  0  0  0  0  0
  -11.7366    9.9359   21.3072 N   0  3  0  0  0  0  0  0  0  0  0  0
   -9.7979    8.5357   20.6165 C   0  0  0  0  0  0  0  0  0  0  0  0
   -9.3936    7.0607   20.4468 C   0  0  2  0  0  0  0  0  0  0  0  0
   -8.0185    6.9611   20.0616 O   0  0  0  0  0  0  0  0  0  0  0  0
  -10.3205    6.3937   19.4001 C   0  0  2  0  0  0  0  0  0  0  0  0
  -11.7129    6.5068   19.8106 O   0  0  0  0  0  0  0  0  0  0  0  0
  -10.0373    4.9075   19.1953 C   0  0  0  0  0  0  0  0  0  0  0  0
  -10.7300    4.3893   17.9865 N   0  3  0  0  0  0  0  0  0  0  0  0
  -14.6083   10.2533   15.8328 C   0  0  2  0  0  0  0  0  0  0  0  0
  -15.7684   10.5764   14.9821 N   0  3  0  0  0  0  0  0  0  0  0  0
  -14.3065    8.7631   15.7518 C   0  0  0  0  0  0  0  0  0  0  0  0
  -13.1039    8.4136   16.6355 C   0  0  2  0  0  0  0  0  0  0  0  0
  -12.7744    6.9807   16.4335 N   0  3  0  0  0  0  0  0  0  0  0  0
  -13.3613    8.8062   18.1211 C   0  0  2  0  0  0  0  0  0  0  0  0
  -13.7266   10.3109   18.2013 C   0  0  2  0  0  0  0  0  0  0  0  0
  -14.1186   10.6272   19.5152 O   0  0  0  0  0  0  0  0  0  0  0  0
  -14.9131   10.6365   17.2796 C   0  0  1  0  0  0  0  0  0  0  0  0
  -15.1916   12.0338   17.3617 O   0  0  0  0  0  0  0  0  0  0  0  0
  -16.1528   12.4367   18.2755 C   0  0  2  0  0  0  0  0  0  0  0  0
  -17.3296   13.0680   17.5121 C   0  0  2  0  0  0  0  0  0  0  0  0
  -17.8641   12.0988   16.6193 O   0  0  0  0  0  0  0  0  0  0  0  0
  -16.8312   14.2924   16.7246 C   0  0  1  0  0  0  0  0  0  0  0  0
  -17.9277   14.9356   15.9448 N   0  3  0  0  0  0  0  0  0  0  0  0
  -16.1932   15.3055   17.7062 C   0  0  2  0  0  0  0  0  0  0  0  0
  -15.6986   16.4416   17.0008 O   0  0  0  0  0  0  0  0  0  0  0  0
  -15.0640   14.6312   18.5072 C   0  0  2  0  0  0  0  0  0  0  0  0
  -15.5597   13.4123   19.1714 O   0  0  0  0  0  0  0  0  0  0  0  0
  -14.5143   15.5342   19.5891 C   0  0  0  0  0  0  0  0  0  0  0  0
  -13.7850   14.7978   20.5685 O   0  0  0  0  0  0  0  0  0  0  0  0
  1  2  1  6  0  0  0
  1  3  1  0  0  0  0
  1  9  1  0  0  0  0
  3  4  1  6  0  0  0
  3  5  1  0  0  0  0
  5  6  1  0  0  0  0
  6  7  1  6  0  0  0
  6  8  1  0  0  0  0
  8  9  1  0  0  0  0
  8 10  1  1  0  0  0
 10 11  1  0  0  0  0
 12 13  1  6  0  0  0
 12 14  1  0  0  0  0
 12 20  1  0  0  0  0
 14 15  1  0  0  0  0
 15 16  1  1  0  0  0
 15 17  1  0  0  0  0
 17  2  1  1  0  0  0
 17 18  1  0  0  0  0
 18 19  1  1  0  0  0
 18 20  1  0  0  0  0
 20 21  1  6  0  0  0
 22 21  1  6  0  0  0
 22 23  1  0  0  0  0
 22 30  1  0  0  0  0
 23 24  1  6  0  0  0
 23 25  1  0  0  0  0
 25 26  1  1  0  0  0
 25 27  1  0  0  0  0
 27 28  1  6  0  0  0
 27 29  1  0  0  0  0
 29 30  1  0  0  0  0
 29 31  1  1  0  0  0
 31 32  1  0  0  0  0
M  CHG  5   4   1  11   1  13   1  16   1  26   1
M  END
>  <CHROM.1>
-138.48389976,-129.18716505,141.27604423,67.96752110,-167.34090060,-47.55160269
-133.69940068,65.53380621,-60.24490753,144.45835138,-116.45297638,70.36312377
22.77505487,-59.36975113,162.12733954,159.22288164,-13.63807971,10.45082306
18.31953548,-0.60165658,-0.76596209,0.53768555

>  <Name>
1lc4

>  <RI>
0

>  <Rbt.Current_Directory>
/home/afrankz/demos/rdock_decoys_rna/rnas/1lc4

>  <Rbt.Executable>
rbdock ($Id: //depot/dev/client3/rdock/2013.1/src/exe/rbdock.cxx#4 $)

>  <Rbt.Library>
libRbt.so (2013.1, Build901 2013/11/27)

>  <Rbt.Parameter_File>
/export/apps/rDock/src/rDock_2013.1_src/data/scripts/dock_solv.prm

>  <Rbt.Receptor>
prm/blind_docking_40.prm

>  <SCORE>
-33.6294

>  <SCORE.INTER>
-30.6118

>  <SCORE.INTER.CONST>
1

>  <SCORE.INTER.POLAR>
-6.11398

>  <SCORE.INTER.ROT>
6

>  <SCORE.INTER.SOLV>
27.7133

>  <SCORE.INTER.VDW>
-16.8657

>  <SCORE.INTER.norm>
-0.956618

>  <SCORE.INTRA>
-11.5438

>  <SCORE.INTRA.DIHEDRAL>
-6.96136

>  <SCORE.INTRA.DIHEDRAL.0>
44.2576

>  <SCORE.INTRA.POLAR>
-1.89576

>  <SCORE.INTRA.POLAR.0>
-0.381556

>  <SCORE.INTRA.REPUL>
0.0648

>  <SCORE.INTRA.REPUL.0>
0

>  <SCORE.INTRA.SOLV>
2.24636

>  <SCORE.INTRA.SOLV.lig_0>
-134.592

>  <SCORE.INTRA.VDW>
-3.06473

>  <SCORE.INTRA.VDW.0>
-1.01417

>  <SCORE.INTRA.norm>
-0.360744

>  <SCORE.RESTR>
8.52622

>  <SCORE.RESTR.CAVITY>
8.52622

>  <SCORE.RESTR.norm>
0.266444

>  <SCORE.SYSTEM>
0

>  <SCORE.SYSTEM.CONST>
0

>  <SCORE.SYSTEM.DIHEDRAL>
0

>  <SCORE.SYSTEM.SOLV>
0

>  <SCORE.SYSTEM.norm>
0

>  <SCORE.heavy>
32

>  <SCORE.norm>
-1.05092

>  <RMSD>
5.788

$$$$
1lc4
 OpenBabel02141814113D
libRbt.so/2013.1/901 2013/11/27
 32 34  0  0  0  0  0  0  0  0999 V2000
  -10.6851    8.0003   20.9970 C   0  0  2  0  0  0  0  0  0  0  0  0
  -10.8046    8.2686   19.6223 O   0  0  0  0  0  0  0  0  0  0  0  0
   -9.2170    7.6274   21.2875 C   0  0  2  0  0  0  0  0  0  0  0  0
   -8.3241    8.7166   20.8800 N   0  3  0  0  0  0  0  0  0  0  0  0
   -8.8534    6.3034   20.5751 C   0  0  0  0  0  0  0  0  0  0  0  0
   -9.8139    5.2193   21.0945 C   0  0  2  0  0  0  0  0  0  0  0  0
   -9.4997    3.9516   20.5086 O   0  0  0  0  0  0  0  0  0  0  0  0
  -11.2727    5.6367   20.7828 C   0  0  2  0  0  0  0  0  0  0  0  0
  -11.5709    6.9276   21.3868 O   0  0  0  0  0  0  0  0  0  0  0  0
  -12.3135    4.6503   21.3068 C   0  0  0  0  0  0  0  0  0  0  0  0
  -12.2692    4.5584   22.7898 N   0  3  0  0  0  0  0  0  0  0  0  0
  -13.7983   10.0143   17.1831 C   0  0  2  0  0  0  0  0  0  0  0  0
  -15.0797   10.2990   16.5118 N   0  3  0  0  0  0  0  0  0  0  0  0
  -13.3130    8.6222   16.8027 C   0  0  0  0  0  0  0  0  0  0  0  0
  -11.9824    8.3127   17.4976 C   0  0  2  0  0  0  0  0  0  0  0  0
  -11.4911    7.0011   17.0068 N   0  3  0  0  0  0  0  0  0  0  0  0
  -12.1196    8.4040   19.0469 C   0  0  2  0  0  0  0  0  0  0  0  0
  -12.6693    9.8008   19.4349 C   0  0  2  0  0  0  0  0  0  0  0  0
  -12.9484    9.8267   20.8138 O   0  0  0  0  0  0  0  0  0  0  0  0
  -13.9852   10.0959   18.6968 C   0  0  1  0  0  0  0  0  0  0  0  0
  -14.4351   11.4009   19.0592 O   0  0  0  0  0  0  0  0  0  0  0  0
  -13.7734   12.4799   18.4942 C   0  0  2  0  0  0  0  0  0  0  0  0
  -13.2684   13.3976   19.6207 C   0  0  2  0  0  0  0  0  0  0  0  0
  -12.3890   12.6527   20.4537 O   0  0  0  0  0  0  0  0  0  0  0  0
  -14.4660   13.9079   20.4411 C   0  0  1  0  0  0  0  0  0  0  0  0
  -14.0351   14.7886   21.5648 N   0  3  0  0  0  0  0  0  0  0  0  0
  -15.4439   14.6583   19.5042 C   0  0  2  0  0  0  0  0  0  0  0  0
  -16.5782   15.1218   20.2331 O   0  0  0  0  0  0  0  0  0  0  0  0
  -15.8812   13.7412   18.3470 C   0  0  2  0  0  0  0  0  0  0  0  0
  -14.7037   13.2002   17.6445 O   0  0  0  0  0  0  0  0  0  0  0  0
  -16.7124   14.4765   17.3193 C   0  0  0  0  0  0  0  0  0  0  0  0
  -15.9694   15.5180   16.6895 O   0  0  0  0  0  0  0  0  0  0  0  0
  1  2  1  6  0  0  0
  1  3  1  0  0  0  0
  1  9  1  0  0  0  0
  3  4  1  6  0  0  0
  3  5  1  0  0  0  0
  5  6  1  0  0  0  0
  6  7  1  6  0  0  0
  6  8  1  0  0  0  0
  8  9  1  0  0  0  0
  8 10  1  1  0  0  0
 10 11  1  0  0  0  0
 12 13  1  6  0  0  0
 12 14  1  0  0  0  0
 12 20  1  0  0  0  0
 14 15  1  0  0  0  0
 15 16  1  1  0  0  0
 15 17  1  0  0  0  0
 17  2  1  1  0  0  0
 17 18  1  0  0  0  0
 18 19  1  1  0  0  0
 18 20  1  0  0  0  0
 20 21  1  6  0  0  0
 22 21  1  1  0  0  0
 22 23  1  0  0  0  0
 22 30  1  0  0  0  0
 23 24  1  1  0  0  0
 23 25  1  0  0  0  0
 25 26  1  1  0  0  0
 25 27  1  0  0  0  0
 27 28  1  1  0  0  0
 27 29  1  0  0  0  0
 29 30  1  0  0  0  0
 29 31  1  6  0  0  0
 31 32  1  0  0  0  0
M  CHG  5   4   1  11   1  13   1  16   1  26   1
M  END
>  <CHROM.1>
168.80822484,-165.06885773,-91.10952461,178.72116859,62.86599240,76.14151606
-171.79197247,170.30784011,168.31536203,-46.46860188,-124.80107022,-177.21018622
-63.57680609,-56.62914132,63.05210302,-173.19304311,-12.81112964,9.94223843
19.50790269,-0.50210048,-0.96573104,0.73628069

>  <Name>
1lc4

>  <RI>
0

>  <Rbt.Current_Directory>
/home/afrankz/demos/rdock_decoys_rna/rnas/1lc4

>  <Rbt.Executable>
rbdock ($Id: //depot/dev/client3/rdock/2013.1/src/exe/rbdock.cxx#4 $)

>  <Rbt.Library>
libRbt.so (2013.1, Build901 2013/11/27)

>  <Rbt.Parameter_File>
/export/apps/rDock/src/rDock_2013.1_src/data/scripts/dock_solv.prm

>  <Rbt.Receptor>
prm/blind_docking_40.prm

>  <SCORE>
-45.092

>  <SCORE.INTER>
-31.4897

>  <SCORE.INTER.CONST>
1

>  <SCORE.INTER.POLAR>
-7.4042

>  <SCORE.INTER.ROT>
6

>  <SCORE.INTER.SOLV>
34.2659

>  <SCORE.INTER.VDW>
-15.3344

>  <SCORE.INTER.norm>
-0.984054

>  <SCORE.INTRA>
-20.9122

>  <SCORE.INTRA.DIHEDRAL>
-30.5807

>  <SCORE.INTRA.DIHEDRAL.0>
44.2576

>  <SCORE.INTRA.POLAR>
-0.788041

>  <SCORE.INTRA.POLAR.0>
-0.381556

>  <SCORE.INTRA.REPUL>
0

>  <SCORE.INTRA.REPUL.0>
0

>  <SCORE.INTRA.SOLV>
-1.40362

>  <SCORE.INTRA.SOLV.lig_0>
-134.592

>  <SCORE.INTRA.VDW>
-2.24072

>  <SCORE.INTRA.VDW.0>
-1.01417

>  <SCORE.INTRA.norm>
-0.653506

>  <SCORE.RESTR>
7.30991

>  <SCORE.RESTR.CAVITY>
7.30991

>  <SCORE.RESTR.norm>
0.228435

>  <SCORE.SYSTEM>
0

>  <SCORE.SYSTEM.CONST>
0

>  <SCORE.SYSTEM.DIHEDRAL>
0

>  <SCORE.SYSTEM.SOLV>
0

>  <SCORE.SYSTEM.norm>
0

>  <SCORE.heavy>
32

>  <SCORE.norm>
-1.40913

>  <RMSD>
5.812

$$$$
1lc4
 OpenBabel02141814113D
libRbt.so/2013.1/901 2013/11/27
 32 34  0  0  0  0  0  0  0  0999 V2000
  -13.1490   10.5203   18.5008 C   0  0  2  0  0  0  0  0  0  0  0  0
  -13.7004    9.3432   17.9656 O   0  0  0  0  0  0  0  0  0  0  0  0
  -12.5287   10.1797   19.8712 C   0  0  2  0  0  0  0  0  0  0  0  0
  -11.5099    9.1357   19.7244 N   0  3  0  0  0  0  0  0  0  0  0  0
  -13.6348    9.7529   20.8646 C   0  0  0  0  0  0  0  0  0  0  0  0
  -14.6287   10.9218   20.9810 C   0  0  2  0  0  0  0  0  0  0  0  0
  -15.6573   10.6102   21.9267 O   0  0  0  0  0  0  0  0  0  0  0  0
  -15.2234   11.2284   19.5840 C   0  0  2  0  0  0  0  0  0  0  0  0
  -14.1614   11.5418   18.6384 O   0  0  0  0  0  0  0  0  0  0  0  0
  -16.1863   12.4131   19.5788 C   0  0  0  0  0  0  0  0  0  0  0  0
  -17.4442   12.0873   20.3007 N   0  3  0  0  0  0  0  0  0  0  0  0
  -15.2131    8.0709   14.2168 C   0  0  2  0  0  0  0  0  0  0  0  0
  -15.3537    7.7893   12.7764 N   0  3  0  0  0  0  0  0  0  0  0  0
  -15.0724    9.5706   14.4394 C   0  0  0  0  0  0  0  0  0  0  0  0
  -14.9216    9.8763   15.9338 C   0  0  2  0  0  0  0  0  0  0  0  0
  -14.9074   11.3496   16.1119 N   0  3  0  0  0  0  0  0  0  0  0  0
  -13.6832    9.1483   16.5372 C   0  0  2  0  0  0  0  0  0  0  0  0
  -13.7940    7.6267   16.2612 C   0  0  2  0  0  0  0  0  0  0  0  0
  -12.6027    6.9918   16.6583 O   0  0  0  0  0  0  0  0  0  0  0  0
  -13.9782    7.3543   14.7594 C   0  0  1  0  0  0  0  0  0  0  0  0
  -14.1076    5.9474   14.5579 O   0  0  0  0  0  0  0  0  0  0  0  0
  -12.9380    5.2126   14.4424 C   0  0  2  0  0  0  0  0  0  0  0  0
  -12.2074    5.6412   13.1583 C   0  0  2  0  0  0  0  0  0  0  0  0
  -11.9182    7.0309   13.2424 O   0  0  0  0  0  0  0  0  0  0  0  0
  -13.1059    5.3623   11.9407 C   0  0  1  0  0  0  0  0  0  0  0  0
  -12.4569    5.7786   10.6641 N   0  3  0  0  0  0  0  0  0  0  0  0
  -13.4638    3.8564   11.9047 C   0  0  2  0  0  0  0  0  0  0  0  0
  -14.3180    3.5718   10.7992 O   0  0  0  0  0  0  0  0  0  0  0  0
  -14.1314    3.4365   13.2274 C   0  0  2  0  0  0  0  0  0  0  0  0
  -13.2809    3.8042   14.3737 O   0  0  0  0  0  0  0  0  0  0  0  0
  -14.3577    1.9429   13.3032 C   0  0  0  0  0  0  0  0  0  0  0  0
  -15.1102    1.5831   14.4598 O   0  0  0  0  0  0  0  0  0  0  0  0
  1  2  1  1  0  0  0
  1  3  1  0  0  0  0
  1  9  1  0  0  0  0
  3  4  1  6  0  0  0
  3  5  1  0  0  0  0
  5  6  1  0  0  0  0
  6  7  1  1  0  0  0
  6  8  1  0  0  0  0
  8  9  1  0  0  0  0
  8 10  1  1  0  0  0
 10 11  1  0  0  0  0
 12 13  1  6  0  0  0
 12 14  1  0  0  0  0
 12 20  1  0  0  0  0
 14 15  1  0  0  0  0
 15 16  1  6  0  0  0
 15 17  1  0  0  0  0
 17  2  1  1  0  0  0
 17 18  1  0  0  0  0
 18 19  1  6  0  0  0
 18 20  1  0  0  0  0
 20 21  1  1  0  0  0
 22 21  1  6  0  0  0
 22 23  1  0  0  0  0
 22 30  1  0  0  0  0
 23 24  1  1  0  0  0
 23 25  1  0  0  0  0
 25 26  1  6  0  0  0
 25 27  1  0  0  0  0
 27 28  1  6  0  0  0
 27 29  1  0  0  0  0
 29 30  1  0  0  0  0
 29 31  1  6  0  0  0
 31 32  1  0  0  0  0
M  CHG  5   4   1  11   1  13   1  16   1  26   1
M  END
>  <CHROM.1>
-146.72565134,-84.25943954,143.87098235,63.41590212,-69.38794590,-72.34142762
60.63155044,-178.95338419,-54.66458090,153.13949716,-65.61008677,176.52017815
62.09390848,-179.89624439,-173.37355907,-61.59516933,-14.02883127,7.75933487
15.98039191,-2.01419257,1.30968981,-1.89416265

>  <Name>
1lc4

>  <RI>
0

>  <Rbt.Current_Directory>
/home/afrankz/demos/rdock_decoys_rna/rnas/1lc4

>  <Rbt.Executable>
rbdock ($Id: //depot/dev/client3/rdock/2013.1/src/exe/rbdock.cxx#4 $)

>  <Rbt.Library>
libRbt.so (2013.1, Build901 2013/11/27)

>  <Rbt.Parameter_File>
/export/apps/rDock/src/rDock_2013.1_src/data/scripts/dock_solv.prm

>  <Rbt.Receptor>
prm/pocket_docking_7.prm

>  <SCORE>
-45.0951

>  <SCORE.INTER>
-24.6305

>  <SCORE.INTER.CONST>
1

>  <SCORE.INTER.POLAR>
-4.76796

>  <SCORE.INTER.ROT>
6

>  <SCORE.INTER.SOLV>
19.0883

>  <SCORE.INTER.VDW>
-14.4899

>  <SCORE.INTER.norm>
-0.769704

>  <SCORE.INTRA>
-20.4645

>  <SCORE.INTRA.DIHEDRAL>
-30.7817

>  <SCORE.INTRA.DIHEDRAL.0>
44.2576

>  <SCORE.INTRA.POLAR>
-1.56691

>  <SCORE.INTRA.POLAR.0>
-0.381556

>  <SCORE.INTRA.REPUL>
0

>  <SCORE.INTRA.REPUL.0>
0

>  <SCORE.INTRA.SOLV>
3.21504

>  <SCORE.INTRA.SOLV.lig_0>
-134.592

>  <SCORE.INTRA.VDW>
-1.35373

>  <SCORE.INTRA.VDW.0>
-1.01417

>  <SCORE.INTRA.norm>
-0.639517

>  <SCORE.RESTR>
0

>  <SCORE.RESTR.CAVITY>
0

>  <SCORE.RESTR.norm>
0

>  <SCORE.SYSTEM>
0

>  <SCORE.SYSTEM.CONST>
0

>  <SCORE.SYSTEM.DIHEDRAL>
0

>  <SCORE.SYSTEM.SOLV>
0

>  <SCORE.SYSTEM.norm>
0

>  <SCORE.heavy>
32

>  <SCORE.norm>
-1.40922

>  <RMSD>
5.819

$$$$
1lc4
 OpenBabel02141814113D
libRbt.so/2013.1/901 2013/11/27
 32 34  0  0  0  0  0  0  0  0999 V2000
  -10.6372    6.3373   20.4416 C   0  0  2  0  0  0  0  0  0  0  0  0
  -10.0300    6.0847   19.1992 O   0  0  0  0  0  0  0  0  0  0  0  0
  -10.3346    7.7976   20.8355 C   0  0  2  0  0  0  0  0  0  0  0  0
  -10.8303    8.7164   19.8062 N   0  3  0  0  0  0  0  0  0  0  0  0
   -8.8172    7.9813   21.0723 C   0  0  0  0  0  0  0  0  0  0  0  0
   -8.4018    7.0082   22.1896 C   0  0  2  0  0  0  0  0  0  0  0  0
   -7.0114    7.1614   22.4936 O   0  0  0  0  0  0  0  0  0  0  0  0
   -8.7253    5.5582   21.7513 C   0  0  2  0  0  0  0  0  0  0  0  0
  -10.1428    5.4247   21.4466 O   0  0  0  0  0  0  0  0  0  0  0  0
   -8.3996    4.5133   22.8157 C   0  0  0  0  0  0  0  0  0  0  0  0
   -8.6291    5.0486   24.1833 N   0  3  0  0  0  0  0  0  0  0  0  0
  -10.3928    2.9474   16.3733 C   0  0  2  0  0  0  0  0  0  0  0  0
  -10.9308    2.0085   15.3719 N   0  3  0  0  0  0  0  0  0  0  0  0
  -11.1516    2.7959   17.6847 C   0  0  0  0  0  0  0  0  0  0  0  0
  -10.6037    3.7700   18.7336 C   0  0  2  0  0  0  0  0  0  0  0  0
  -11.2895    3.5051   20.0228 N   0  3  0  0  0  0  0  0  0  0  0  0
  -10.7109    5.2455   18.2448 C   0  0  2  0  0  0  0  0  0  0  0  0
   -9.9892    5.3909   16.8804 C   0  0  2  0  0  0  0  0  0  0  0  0
  -10.2256    6.6772   16.3613 O   0  0  0  0  0  0  0  0  0  0  0  0
  -10.5365    4.3790   15.8606 C   0  0  1  0  0  0  0  0  0  0  0  0
   -9.8224    4.5276   14.6339 O   0  0  0  0  0  0  0  0  0  0  0  0
  -10.0808    5.6635   13.8828 C   0  0  2  0  0  0  0  0  0  0  0  0
  -10.6032    5.2361   12.5005 C   0  0  2  0  0  0  0  0  0  0  0  0
  -11.7907    4.4745   12.6791 O   0  0  0  0  0  0  0  0  0  0  0  0
   -9.5346    4.3878   11.7891 C   0  0  1  0  0  0  0  0  0  0  0  0
   -9.9944    3.9251   10.4480 N   0  3  0  0  0  0  0  0  0  0  0  0
   -8.2294    5.2112   11.6639 C   0  0  2  0  0  0  0  0  0  0  0  0
   -7.2110    4.4406   11.0299 O   0  0  0  0  0  0  0  0  0  0  0  0
   -7.7643    5.6854   13.0532 C   0  0  2  0  0  0  0  0  0  0  0  0
   -8.8470    6.4138   13.7386 O   0  0  0  0  0  0  0  0  0  0  0  0
   -6.5813    6.6243   12.9690 C   0  0  0  0  0  0  0  0  0  0  0  0
   -5.4539    5.9966   12.3622 O   0  0  0  0  0  0  0  0  0  0  0  0
  1  2  1  6  0  0  0
  1  3  1  0  0  0  0
  1  9  1  0  0  0  0
  3  4  1  6  0  0  0
  3  5  1  0  0  0  0
  5  6  1  0  0  0  0
  6  7  1  6  0  0  0
  6  8  1  0  0  0  0
  8  9  1  0  0  0  0
  8 10  1  1  0  0  0
 10 11  1  0  0  0  0
 12 13  1  6  0  0  0
 12 14  1  0  0  0  0
 12 20  1  0  0  0  0
 14 15  1  0  0  0  0
 15 16  1  1  0  0  0
 15 17  1  0  0  0  0
 17  2  1  1  0  0  0
 17 18  1  0  0  0  0
 18 19  1  6  0  0  0
 18 20  1  0  0  0  0
 20 21  1  6  0  0  0
 22 21  1  1  0  0  0
 22 23  1  0  0  0  0
 22 30  1  0  0  0  0
 23 24  1  1  0  0  0
 23 25  1  0  0  0  0
 25 26  1  6  0  0  0
 25 27  1  0  0  0  0
 27 28  1  1  0  0  0
 27 29  1  0  0  0  0
 29 30  1  0  0  0  0
 29 31  1  6  0  0  0
 31 32  1  0  0  0  0
M  CHG  5   4   1  11   1  13   1  16   1  26   1
M  END
>  <CHROM.1>
-142.78709645,-74.04113443,-59.91044545,65.74692972,33.88115517,-84.61704899
-177.10166802,-72.99290202,166.04631259,166.22089529,-120.40214314,59.66622471
-31.63820871,66.04237934,-60.81628478,-54.44618882,-9.48048762,5.33832038
16.93370052,1.62232192,0.73235592,1.40800662

>  <Name>
1lc4

>  <RI>
0

>  <Rbt.Current_Directory>
/home/afrankz/demos/rdock_decoys_rna/rnas/1lc4

>  <Rbt.Executable>
rbdock ($Id: //depot/dev/client3/rdock/2013.1/src/exe/rbdock.cxx#4 $)

>  <Rbt.Library>
libRbt.so (2013.1, Build901 2013/11/27)

>  <Rbt.Parameter_File>
/export/apps/rDock/src/rDock_2013.1_src/data/scripts/dock_solv.prm

>  <Rbt.Receptor>
prm/blind_docking_100.prm

>  <SCORE>
-47.0561

>  <SCORE.INTER>
-33.6573

>  <SCORE.INTER.CONST>
1

>  <SCORE.INTER.POLAR>
-4.23839

>  <SCORE.INTER.ROT>
6

>  <SCORE.INTER.SOLV>
21.7274

>  <SCORE.INTER.VDW>
-23.1527

>  <SCORE.INTER.norm>
-1.05179

>  <SCORE.INTRA>
-16.1929

>  <SCORE.INTRA.DIHEDRAL>
-23.3448

>  <SCORE.INTRA.DIHEDRAL.0>
44.2576

>  <SCORE.INTRA.POLAR>
-1.77163

>  <SCORE.INTRA.POLAR.0>
-0.381556

>  <SCORE.INTRA.REPUL>
0

>  <SCORE.INTRA.REPUL.0>
0

>  <SCORE.INTRA.SOLV>
1.17576

>  <SCORE.INTRA.SOLV.lig_0>
-134.592

>  <SCORE.INTRA.VDW>
0.915141

>  <SCORE.INTRA.VDW.0>
-1.01417

>  <SCORE.INTRA.norm>
-0.506029

>  <SCORE.RESTR>
2.79414

>  <SCORE.RESTR.CAVITY>
2.79414

>  <SCORE.RESTR.norm>
0.087317

>  <SCORE.SYSTEM>
0

>  <SCORE.SYSTEM.CONST>
0

>  <SCORE.SYSTEM.DIHEDRAL>
0

>  <SCORE.SYSTEM.SOLV>
0

>  <SCORE.SYSTEM.norm>
0

>  <SCORE.heavy>
32

>  <SCORE.norm>
-1.4705

>  <RMSD>
5.826

$$$$
1lc4
 OpenBabel02141814113D
libRbt.so/2013.1/901 2013/11/27
 32 34  0  0  0  0  0  0  0  0999 V2000
   -6.9298    8.6414   23.7247 C   0  0  2  0  0  0  0  0  0  0  0  0
   -7.1841    7.7117   22.7015 O   0  0  0  0  0  0  0  0  0  0  0  0
   -5.5492    9.2773   23.4632 C   0  0  2  0  0  0  0  0  0  0  0  0
   -5.5250    9.9192   22.1452 N   0  3  0  0  0  0  0  0  0  0  0  0
   -4.4383    8.2086   23.5906 C   0  0  0  0  0  0  0  0  0  0  0  0
   -4.5192    7.6241   25.0117 C   0  0  2  0  0  0  0  0  0  0  0  0
   -3.4824    6.6578   25.2139 O   0  0  0  0  0  0  0  0  0  0  0  0
   -5.9200    6.9995   25.2289 C   0  0  2  0  0  0  0  0  0  0  0  0
   -6.9586    7.9980   25.0179 O   0  0  0  0  0  0  0  0  0  0  0  0
   -6.1245    6.4359   26.6329 C   0  0  0  0  0  0  0  0  0  0  0  0
   -6.0361    7.5062   27.6606 N   0  3  0  0  0  0  0  0  0  0  0  0
  -10.2316    5.2169   21.1368 C   0  0  2  0  0  0  0  0  0  0  0  0
  -11.4535    4.4035   20.9975 N   0  3  0  0  0  0  0  0  0  0  0  0
   -9.3422    4.6321   22.2256 C   0  0  0  0  0  0  0  0  0  0  0  0
   -8.0695    5.4716   22.3827 C   0  0  2  0  0  0  0  0  0  0  0  0
   -7.1834    4.8001   23.3658 N   0  3  0  0  0  0  0  0  0  0  0  0
   -8.4084    6.9510   22.7348 C   0  0  2  0  0  0  0  0  0  0  0  0
   -9.3614    7.5322   21.6589 C   0  0  2  0  0  0  0  0  0  0  0  0
   -9.7977    8.8081   22.0612 O   0  0  0  0  0  0  0  0  0  0  0  0
  -10.6111    6.6510   21.5005 C   0  0  1  0  0  0  0  0  0  0  0  0
  -11.4408    7.2055   20.4802 O   0  0  0  0  0  0  0  0  0  0  0  0
  -10.8119    7.6854   19.3420 C   0  0  2  0  0  0  0  0  0  0  0  0
  -11.8761    8.2622   18.3929 C   0  0  2  0  0  0  0  0  0  0  0  0
  -12.5629    9.3110   19.0641 O   0  0  0  0  0  0  0  0  0  0  0  0
  -12.8656    7.1521   17.9978 C   0  0  1  0  0  0  0  0  0  0  0  0
  -13.9367    7.6587   17.0921 N   0  3  0  0  0  0  0  0  0  0  0  0
  -12.0898    5.9911   17.3290 C   0  0  2  0  0  0  0  0  0  0  0  0
  -12.9790    4.9346   16.9741 O   0  0  0  0  0  0  0  0  0  0  0  0
  -10.9857    5.4767   18.2713 C   0  0  2  0  0  0  0  0  0  0  0  0
  -10.1152    6.5862   18.6997 O   0  0  0  0  0  0  0  0  0  0  0  0
  -10.0992    4.4489   17.6037 C   0  0  0  0  0  0  0  0  0  0  0  0
  -10.7320    3.1728   17.5366 O   0  0  0  0  0  0  0  0  0  0  0  0
  1  2  1  6  0  0  0
  1  3  1  0  0  0  0
  1  9  1  0  0  0  0
  3  4  1  6  0  0  0
  3  5  1  0  0  0  0
  5  6  1  0  0  0  0
  6  7  1  6  0  0  0
  6  8  1  0  0  0  0
  8  9  1  0  0  0  0
  8 10  1  1  0  0  0
 10 11  1  0  0  0  0
 12 13  1  1  0  0  0
 12 14  1  0  0  0  0
 12 20  1  0  0  0  0
 14 15  1  0  0  0  0
 15 16  1  1  0  0  0
 15 17  1  0  0  0  0
 17  2  1  6  0  0  0
 17 18  1  0  0  0  0
 18 19  1  1  0  0  0
 18 20  1  0  0  0  0
 20 21  1  6  0  0  0
 22 21  1  1  0  0  0
 22 23  1  0  0  0  0
 22 30  1  0  0  0  0
 23 24  1  1  0  0  0
 23 25  1  0  0  0  0
 25 26  1  6  0  0  0
 25 27  1  0  0  0  0
 27 28  1  1  0  0  0
 27 29  1  0  0  0  0
 29 30  1  0  0  0  0
 29 31  1  6  0  0  0
 31 32  1  0  0  0  0
M  CHG  5   4   1  11   1  13   1  16   1  26   1
M  END
>  <CHROM.1>
178.49520321,-136.44596987,68.87859978,-57.46305915,62.73753565,-150.37663298
-68.54095823,63.09261454,151.86415668,-80.47613400,-178.76118890,176.07794355
58.44077263,-56.11149540,-77.45031869,-98.06182873,-9.01032831,6.84756472
21.46737522,0.16786858,-0.80678269,0.03939478

>  <Name>
1lc4

>  <RI>
0

>  <Rbt.Current_Directory>
/home/afrankz/demos/rdock_decoys_rna/rnas/1lc4

>  <Rbt.Executable>
rbdock ($Id: //depot/dev/client3/rdock/2013.1/src/exe/rbdock.cxx#4 $)

>  <Rbt.Library>
libRbt.so (2013.1, Build901 2013/11/27)

>  <Rbt.Parameter_File>
/export/apps/rDock/src/rDock_2013.1_src/data/scripts/dock_solv.prm

>  <Rbt.Receptor>
prm/pocket_docking_6.prm

>  <SCORE>
-43.3414

>  <SCORE.INTER>
-31.6881

>  <SCORE.INTER.CONST>
1

>  <SCORE.INTER.POLAR>
-4.55698

>  <SCORE.INTER.ROT>
6

>  <SCORE.INTER.SOLV>
21.0884

>  <SCORE.INTER.VDW>
-20.5649

>  <SCORE.INTER.norm>
-0.990253

>  <SCORE.INTRA>
-11.6533

>  <SCORE.INTRA.DIHEDRAL>
-24.6019

>  <SCORE.INTRA.DIHEDRAL.0>
44.2576

>  <SCORE.INTRA.POLAR>
0.348823

>  <SCORE.INTRA.POLAR.0>
-0.381556

>  <SCORE.INTRA.REPUL>
0

>  <SCORE.INTRA.REPUL.0>
0

>  <SCORE.INTRA.SOLV>
2.88939

>  <SCORE.INTRA.SOLV.lig_0>
-134.592

>  <SCORE.INTRA.VDW>
-1.98303

>  <SCORE.INTRA.VDW.0>
-1.01417

>  <SCORE.INTRA.norm>
-0.364165

>  <SCORE.RESTR>
0

>  <SCORE.RESTR.CAVITY>
0

>  <SCORE.RESTR.norm>
0

>  <SCORE.SYSTEM>
0

>  <SCORE.SYSTEM.CONST>
0

>  <SCORE.SYSTEM.DIHEDRAL>
0

>  <SCORE.SYSTEM.SOLV>
0

>  <SCORE.SYSTEM.norm>
0

>  <SCORE.heavy>
32

>  <SCORE.norm>
-1.35442

>  <RMSD>
5.863

$$$$
1lc4
 OpenBabel02141814113D
libRbt.so/2013.1/901 2013/11/27
 32 34  0  0  0  0  0  0  0  0999 V2000
  -12.7782    9.7586   18.4610 C   0  0  2  0  0  0  0  0  0  0  0  0
  -13.7575    9.4665   17.4957 O   0  0  0  0  0  0  0  0  0  0  0  0
  -13.1227    8.9776   19.7456 C   0  0  2  0  0  0  0  0  0  0  0  0
  -13.1812    7.5392   19.4676 N   0  3  0  0  0  0  0  0  0  0  0  0
  -14.4549    9.4919   20.3399 C   0  0  0  0  0  0  0  0  0  0  0  0
  -14.2822   10.9926   20.6330 C   0  0  2  0  0  0  0  0  0  0  0  0
  -15.4686   11.5238   21.2326 O   0  0  0  0  0  0  0  0  0  0  0  0
  -13.9365   11.7340   19.3176 C   0  0  2  0  0  0  0  0  0  0  0  0
  -12.7284   11.1781   18.7246 O   0  0  0  0  0  0  0  0  0  0  0  0
  -13.6907   13.2287   19.5077 C   0  0  0  0  0  0  0  0  0  0  0  0
  -12.4268   13.4761   20.2500 N   0  3  0  0  0  0  0  0  0  0  0  0
  -14.2243    7.3661   13.8447 C   0  0  2  0  0  0  0  0  0  0  0  0
  -13.9670    6.7566   12.5271 N   0  3  0  0  0  0  0  0  0  0  0  0
  -14.0372    8.8749   13.7622 C   0  0  0  0  0  0  0  0  0  0  0  0
  -14.2985    9.5203   15.1276 C   0  0  2  0  0  0  0  0  0  0  0  0
  -14.2216   10.9942   14.9720 N   0  3  0  0  0  0  0  0  0  0  0  0
  -13.3461    8.9428   16.2170 C   0  0  2  0  0  0  0  0  0  0  0  0
  -13.4910    7.3998   16.2637 C   0  0  2  0  0  0  0  0  0  0  0  0
  -12.5170    6.8649   17.1270 O   0  0  0  0  0  0  0  0  0  0  0  0
  -13.2569    6.7854   14.8741 C   0  0  1  0  0  0  0  0  0  0  0  0
  -13.4320    5.3716   14.9591 O   0  0  0  0  0  0  0  0  0  0  0  0
  -12.7937    4.5946   14.0051 C   0  0  2  0  0  0  0  0  0  0  0  0
  -13.7018    3.4066   13.6441 C   0  0  2  0  0  0  0  0  0  0  0  0
  -14.9304    3.9116   13.1366 O   0  0  0  0  0  0  0  0  0  0  0  0
  -13.9595    2.5584   14.9018 C   0  0  1  0  0  0  0  0  0  0  0  0
  -14.8545    1.3999   14.6170 N   0  3  0  0  0  0  0  0  0  0  0  0
  -12.6062    2.0736   15.4767 C   0  0  2  0  0  0  0  0  0  0  0  0
  -12.8122    1.3046   16.6595 O   0  0  0  0  0  0  0  0  0  0  0  0
  -11.6894    3.2768   15.7655 C   0  0  2  0  0  0  0  0  0  0  0  0
  -11.5424    4.1138   14.5612 O   0  0  0  0  0  0  0  0  0  0  0  0
  -10.2995    2.8481   16.1807 C   0  0  0  0  0  0  0  0  0  0  0  0
   -9.4207    3.9640   16.3068 O   0  0  0  0  0  0  0  0  0  0  0  0
  1  2  1  6  0  0  0
  1  3  1  0  0  0  0
  1  9  1  0  0  0  0
  3  4  1  6  0  0  0
  3  5  1  0  0  0  0
  5  6  1  0  0  0  0
  6  7  1  6  0  0  0
  6  8  1  0  0  0  0
  8  9  1  0  0  0  0
  8 10  1  1  0  0  0
 10 11  1  0  0  0  0
 12 13  1  6  0  0  0
 12 14  1  0  0  0  0
 12 20  1  0  0  0  0
 14 15  1  0  0  0  0
 15 16  1  6  0  0  0
 15 17  1  0  0  0  0
 17  2  1  1  0  0  0
 17 18  1  0  0  0  0
 18 19  1  1  0  0  0
 18 20  1  0  0  0  0
 20 21  1  1  0  0  0
 22 21  1  1  0  0  0
 22 23  1  0  0  0  0
 22 30  1  0  0  0  0
 23 24  1  1  0  0  0
 23 25  1  0  0  0  0
 25 26  1  6  0  0  0
 25 27  1  0  0  0  0
 27 28  1  1  0  0  0
 27 29  1  0  0  0  0
 29 30  1  0  0  0  0
 29 31  1  6  0  0  0
 31 32  1  0  0  0  0
M  CHG  5   4   1  11   1  13   1  16   1  26   1
M  END
>  <CHROM.1>
-124.23129536,-144.68665482,-75.92224903,-54.09972696,69.52295372,165.40006682
-159.60744036,-49.82803887,-174.12343212,82.14773786,-143.43397356,-67.57622384
-52.55538234,-175.70918193,173.76696242,175.86929806,-13.28219304,7.16013424
16.57527190,-1.80488135,1.18518431,-2.41409938

>  <Name>
1lc4

>  <RI>
0

>  <Rbt.Current_Directory>
/home/afrankz/demos/rdock_decoys_rna/rnas/1lc4

>  <Rbt.Executable>
rbdock ($Id: //depot/dev/client3/rdock/2013.1/src/exe/rbdock.cxx#4 $)

>  <Rbt.Library>
libRbt.so (2013.1, Build901 2013/11/27)

>  <Rbt.Parameter_File>
/export/apps/rDock/src/rDock_2013.1_src/data/scripts/dock_solv.prm

>  <Rbt.Receptor>
prm/pocket_docking_6.prm

>  <SCORE>
-38.9142

>  <SCORE.INTER>
-23.2194

>  <SCORE.INTER.CONST>
1

>  <SCORE.INTER.POLAR>
-4.40228

>  <SCORE.INTER.ROT>
6

>  <SCORE.INTER.SOLV>
21.389

>  <SCORE.INTER.VDW>
-15.535

>  <SCORE.INTER.norm>
-0.725606

>  <SCORE.INTRA>
-15.6948

>  <SCORE.INTRA.DIHEDRAL>
-21.8393

>  <SCORE.INTRA.DIHEDRAL.0>
44.2576

>  <SCORE.INTRA.POLAR>
-0.860204

>  <SCORE.INTRA.POLAR.0>
-0.381556

>  <SCORE.INTRA.REPUL>
0

>  <SCORE.INTRA.REPUL.0>
0

>  <SCORE.INTRA.SOLV>
2.31713

>  <SCORE.INTRA.SOLV.lig_0>
-134.592

>  <SCORE.INTRA.VDW>
-3.00903

>  <SCORE.INTRA.VDW.0>
-1.01417

>  <SCORE.INTRA.norm>
-0.490463

>  <SCORE.RESTR>
0

>  <SCORE.RESTR.CAVITY>
0

>  <SCORE.RESTR.norm>
0

>  <SCORE.SYSTEM>
0

>  <SCORE.SYSTEM.CONST>
0

>  <SCORE.SYSTEM.DIHEDRAL>
0

>  <SCORE.SYSTEM.SOLV>
0

>  <SCORE.SYSTEM.norm>
0

>  <SCORE.heavy>
32

>  <SCORE.norm>
-1.21607

>  <RMSD>
5.903

$$$$
1lc4
 OpenBabel02141814113D
libRbt.so/2013.1/901 2013/11/27
 32 34  0  0  0  0  0  0  0  0999 V2000
  -10.1871    6.4413   20.7425 C   0  0  2  0  0  0  0  0  0  0  0  0
   -9.6314    5.7985   19.6226 O   0  0  0  0  0  0  0  0  0  0  0  0
   -9.5622    7.8474   20.8480 C   0  0  2  0  0  0  0  0  0  0  0  0
   -9.8120    8.6096   19.6206 N   0  3  0  0  0  0  0  0  0  0  0  0
   -8.0483    7.7360   21.1446 C   0  0  0  0  0  0  0  0  0  0  0  0
   -7.8909    6.9591   22.4634 C   0  0  2  0  0  0  0  0  0  0  0  0
   -6.5088    6.8613   22.8233 O   0  0  0  0  0  0  0  0  0  0  0  0
   -8.5329    5.5576   22.3111 C   0  0  2  0  0  0  0  0  0  0  0  0
   -9.9367    5.6800   21.9446 O   0  0  0  0  0  0  0  0  0  0  0  0
   -8.4783    4.7209   23.5869 C   0  0  0  0  0  0  0  0  0  0  0  0
   -7.0744    4.4640   24.0023 N   0  3  0  0  0  0  0  0  0  0  0  0
  -10.6895    2.7921   16.8295 C   0  0  2  0  0  0  0  0  0  0  0  0
  -11.4393    1.9637   15.8676 N   0  3  0  0  0  0  0  0  0  0  0  0
  -11.3727    2.7519   18.1896 C   0  0  0  0  0  0  0  0  0  0  0  0
  -10.6042    3.6129   19.1983 C   0  0  2  0  0  0  0  0  0  0  0  0
  -11.2355    3.4491   20.5314 N   0  3  0  0  0  0  0  0  0  0  0  0
  -10.5025    5.0913   18.7173 C   0  0  2  0  0  0  0  0  0  0  0  0
   -9.8603    5.1320   17.3067 C   0  0  2  0  0  0  0  0  0  0  0  0
   -9.9187    6.4451   16.8043 O   0  0  0  0  0  0  0  0  0  0  0  0
  -10.6325    4.2334   16.3271 C   0  0  1  0  0  0  0  0  0  0  0  0
   -9.9880    4.2770   15.0545 O   0  0  0  0  0  0  0  0  0  0  0  0
   -8.6197    4.0576   15.0283 C   0  0  2  0  0  0  0  0  0  0  0  0
   -7.9513    5.1872   14.2261 C   0  0  2  0  0  0  0  0  0  0  0  0
   -8.2464    6.4276   14.8557 O   0  0  0  0  0  0  0  0  0  0  0  0
   -8.4949    5.1839   12.7866 C   0  0  1  0  0  0  0  0  0  0  0  0
   -7.8969    6.2748   11.9642 N   0  3  0  0  0  0  0  0  0  0  0  0
   -8.2229    3.8030   12.1414 C   0  0  2  0  0  0  0  0  0  0  0  0
   -8.7391    3.7614   10.8131 O   0  0  0  0  0  0  0  0  0  0  0  0
   -8.8427    2.6840   12.9989 C   0  0  2  0  0  0  0  0  0  0  0  0
   -8.3680    2.7782   14.3912 O   0  0  0  0  0  0  0  0  0  0  0  0
   -8.4709    1.3070   12.4952 C   0  0  0  0  0  0  0  0  0  0  0  0
   -8.5041    0.3379   13.5407 O   0  0  0  0  0  0  0  0  0  0  0  0
  1  2  1  6  0  0  0
  1  3  1  0  0  0  0
  1  9  1  0  0  0  0
  3  4  1  6  0  0  0
  3  5  1  0  0  0  0
  5  6  1  0  0  0  0
  6  7  1  6  0  0  0
  6  8  1  0  0  0  0
  8  9  1  0  0  0  0
  8 10  1  1  0  0  0
 10 11  1  0  0  0  0
 12 13  1  6  0  0  0
 12 14  1  0  0  0  0
 12 20  1  0  0  0  0
 14 15  1  0  0  0  0
 15 16  1  1  0  0  0
 15 17  1  0  0  0  0
 17  2  1  1  0  0  0
 17 18  1  0  0  0  0
 18 19  1  6  0  0  0
 18 20  1  0  0  0  0
 20 21  1  6  0  0  0
 22 21  1  6  0  0  0
 22 23  1  0  0  0  0
 22 30  1  0  0  0  0
 23 24  1  1  0  0  0
 23 25  1  0  0  0  0
 25 26  1  6  0  0  0
 25 27  1  0  0  0  0
 27 28  1  6  0  0  0
 27 29  1  0  0  0  0
 29 30  1  0  0  0  0
 29 31  1  6  0  0  0
 31 32  1  0  0  0  0
M  CHG  5   4   1  11   1  13   1  16   1  26   1
M  END
>  <CHROM.1>
-134.64836382,-90.76071158,134.93775682,-49.51113609,-61.57370197,-63.95182105
-44.04001316,178.84769166,-67.05463067,-71.77866481,-129.56737403,166.09792540
61.78910722,179.23712305,153.78779963,-151.28360975,-9.17753680,4.75603182
17.45412481,-1.54985475,-1.20638465,-1.83349326

>  <Name>
1lc4

>  <RI>
0

>  <Rbt.Current_Directory>
/home/afrankz/demos/rdock_decoys_rna/rnas/1lc4

>  <Rbt.Executable>
rbdock ($Id: //depot/dev/client3/rdock/2013.1/src/exe/rbdock.cxx#4 $)

>  <Rbt.Library>
libRbt.so (2013.1, Build901 2013/11/27)

>  <Rbt.Parameter_File>
/export/apps/rDock/src/rDock_2013.1_src/data/scripts/dock_solv.prm

>  <Rbt.Receptor>
prm/blind_docking_100.prm

>  <SCORE>
-56.4832

>  <SCORE.INTER>
-47.1553

>  <SCORE.INTER.CONST>
1

>  <SCORE.INTER.POLAR>
-7.30839

>  <SCORE.INTER.ROT>
6

>  <SCORE.INTER.SOLV>
32.127

>  <SCORE.INTER.VDW>
-25.3845

>  <SCORE.INTER.norm>
-1.4736

>  <SCORE.INTRA>
-11.4849

>  <SCORE.INTRA.DIHEDRAL>
-15.943

>  <SCORE.INTRA.DIHEDRAL.0>
44.2576

>  <SCORE.INTRA.POLAR>
-1.19433

>  <SCORE.INTRA.POLAR.0>
-0.381556

>  <SCORE.INTRA.REPUL>
0.196877

>  <SCORE.INTRA.REPUL.0>
0

>  <SCORE.INTRA.SOLV>
2.01951

>  <SCORE.INTRA.SOLV.lig_0>
-134.592

>  <SCORE.INTRA.VDW>
-1.4468

>  <SCORE.INTRA.VDW.0>
-1.01417

>  <SCORE.INTRA.norm>
-0.358902

>  <SCORE.RESTR>
2.15692

>  <SCORE.RESTR.CAVITY>
2.15692

>  <SCORE.RESTR.norm>
0.0674037

>  <SCORE.SYSTEM>
0

>  <SCORE.SYSTEM.CONST>
0

>  <SCORE.SYSTEM.DIHEDRAL>
0

>  <SCORE.SYSTEM.SOLV>
0

>  <SCORE.SYSTEM.norm>
0

>  <SCORE.heavy>
32

>  <SCORE.norm>
-1.7651

>  <RMSD>
6.132

$$$$
1lc4
 OpenBabel02141814113D
libRbt.so/2013.1/901 2013/11/27
 32 34  0  0  0  0  0  0  0  0999 V2000
  -10.9211    6.3894   19.6989 C   0  0  2  0  0  0  0  0  0  0  0  0
  -10.0137    5.8381   18.7776 O   0  0  0  0  0  0  0  0  0  0  0  0
  -10.1981    7.5113   20.4719 C   0  0  2  0  0  0  0  0  0  0  0  0
   -9.6996    8.5307   19.5435 N   0  3  0  0  0  0  0  0  0  0  0  0
   -9.0530    6.9169   21.3251 C   0  0  0  0  0  0  0  0  0  0  0  0
   -9.6775    5.8929   22.2891 C   0  0  2  0  0  0  0  0  0  0  0  0
   -8.6741    5.3371   23.1456 O   0  0  0  0  0  0  0  0  0  0  0  0
  -10.3920    4.7892   21.4700 C   0  0  2  0  0  0  0  0  0  0  0  0
  -11.4069    5.3756   20.6062 O   0  0  0  0  0  0  0  0  0  0  0  0
  -11.0945    3.7466   22.3362 C   0  0  0  0  0  0  0  0  0  0  0  0
  -12.4732    4.1783   22.6862 N   0  3  0  0  0  0  0  0  0  0  0  0
   -9.8700    2.9381   15.6907 C   0  0  2  0  0  0  0  0  0  0  0  0
  -10.2276    2.0783   14.5475 N   0  3  0  0  0  0  0  0  0  0  0  0
  -10.8161    2.6723   16.8538 C   0  0  0  0  0  0  0  0  0  0  0  0
  -10.4568    3.5633   18.0480 C   0  0  2  0  0  0  0  0  0  0  0  0
  -11.3248    3.1870   19.1916 N   0  3  0  0  0  0  0  0  0  0  0  0
  -10.5219    5.0725   17.6666 C   0  0  2  0  0  0  0  0  0  0  0  0
   -9.6042    5.3361   16.4451 C   0  0  2  0  0  0  0  0  0  0  0  0
   -9.7880    6.6580   15.9991 O   0  0  0  0  0  0  0  0  0  0  0  0
   -9.9665    4.4051   15.2767 C   0  0  1  0  0  0  0  0  0  0  0  0
   -9.0774    4.6606   14.1900 O   0  0  0  0  0  0  0  0  0  0  0  0
   -9.3862    5.7219   13.3535 C   0  0  2  0  0  0  0  0  0  0  0  0
  -10.3307    5.2228   12.2467 C   0  0  2  0  0  0  0  0  0  0  0  0
  -11.5083    4.7058   12.8533 O   0  0  0  0  0  0  0  0  0  0  0  0
   -9.6292    4.1211   11.4332 C   0  0  1  0  0  0  0  0  0  0  0  0
  -10.5073    3.5817   10.3551 N   0  3  0  0  0  0  0  0  0  0  0  0
   -8.3165    4.6847   10.8363 C   0  0  2  0  0  0  0  0  0  0  0  0
   -7.6305    3.6772   10.0966 O   0  0  0  0  0  0  0  0  0  0  0  0
   -7.4182    5.2403   11.9570 C   0  0  2  0  0  0  0  0  0  0  0  0
   -8.1562    6.2241   12.7694 O   0  0  0  0  0  0  0  0  0  0  0  0
   -6.1948    5.9430   11.4117 C   0  0  0  0  0  0  0  0  0  0  0  0
   -5.2755    6.2791   12.4487 O   0  0  0  0  0  0  0  0  0  0  0  0
  1  2  1  6  0  0  0
  1  3  1  0  0  0  0
  1  9  1  0  0  0  0
  3  4  1  6  0  0  0
  3  5  1  0  0  0  0
  5  6  1  0  0  0  0
  6  7  1  6  0  0  0
  6  8  1  0  0  0  0
  8  9  1  0  0  0  0
  8 10  1  1  0  0  0
 10 11  1  0  0  0  0
 12 13  1  6  0  0  0
 12 14  1  0  0  0  0
 12 20  1  0  0  0  0
 14 15  1  0  0  0  0
 15 16  1  1  0  0  0
 15 17  1  0  0  0  0
 17  2  1  1  0  0  0
 17 18  1  0  0  0  0
 18 19  1  6  0  0  0
 18 20  1  0  0  0  0
 20 21  1  6  0  0  0
 22 21  1  1  0  0  0
 22 23  1  0  0  0  0
 22 30  1  0  0  0  0
 23 24  1  1  0  0  0
 23 25  1  0  0  0  0
 25 26  1  6  0  0  0
 25 27  1  0  0  0  0
 27 28  1  1  0  0  0
 27 29  1  0  0  0  0
 29 30  1  0  0  0  0
 29 31  1  6  0  0  0
 31 32  1  0  0  0  0
M  CHG  5   4   1  11   1  13   1  16   1  26   1
M  END
>  <CHROM.1>
-161.23320846,-96.58912654,-103.61654720,90.98442125,86.77936087,-60.44428950
-59.15428205,104.89486805,-179.88961475,154.96793610,-87.24861844,69.16008949
-54.09885930,65.85854447,-171.40337565,58.38613833,-9.67972632,5.01002610
16.42340267,-1.86844075,-0.82685430,-1.86308754

>  <Name>
1lc4

>  <RI>
0

>  <Rbt.Current_Directory>
/home/afrankz/demos/rdock_decoys_rna/rnas/1lc4

>  <Rbt.Executable>
rbdock ($Id: //depot/dev/client3/rdock/2013.1/src/exe/rbdock.cxx#4 $)

>  <Rbt.Library>
libRbt.so (2013.1, Build901 2013/11/27)

>  <Rbt.Parameter_File>
/export/apps/rDock/src/rDock_2013.1_src/data/scripts/dock_solv.prm

>  <Rbt.Receptor>
prm/blind_docking_100.prm

>  <SCORE>
-31.063

>  <SCORE.INTER>
-26.23

>  <SCORE.INTER.CONST>
1

>  <SCORE.INTER.POLAR>
-4.67392

>  <SCORE.INTER.ROT>
6

>  <SCORE.INTER.SOLV>
28.2418

>  <SCORE.INTER.VDW>
-18.9209

>  <SCORE.INTER.norm>
-0.819689

>  <SCORE.INTRA>
-8.64077

>  <SCORE.INTRA.DIHEDRAL>
-19.1007

>  <SCORE.INTRA.DIHEDRAL.0>
44.2576

>  <SCORE.INTRA.POLAR>
-0.509555

>  <SCORE.INTRA.POLAR.0>
-0.381556

>  <SCORE.INTRA.REPUL>
0

>  <SCORE.INTRA.REPUL.0>
0

>  <SCORE.INTRA.SOLV>
3.53541

>  <SCORE.INTRA.SOLV.lig_0>
-134.592

>  <SCORE.INTRA.VDW>
0.874362

>  <SCORE.INTRA.VDW.0>
-1.01417

>  <SCORE.INTRA.norm>
-0.270024

>  <SCORE.RESTR>
3.80778

>  <SCORE.RESTR.CAVITY>
3.80778

>  <SCORE.RESTR.norm>
0.118993

>  <SCORE.SYSTEM>
0

>  <SCORE.SYSTEM.CONST>
0

>  <SCORE.SYSTEM.DIHEDRAL>
0

>  <SCORE.SYSTEM.SOLV>
0

>  <SCORE.SYSTEM.norm>
0

>  <SCORE.heavy>
32

>  <SCORE.norm>
-0.97072

>  <RMSD>
6.191

$$$$
1lc4
 OpenBabel02141814113D
libRbt.so/2013.1/901 2013/11/27
 32 34  0  0  0  0  0  0  0  0999 V2000
  -13.1863    3.6668   19.8570 C   0  0  2  0  0  0  0  0  0  0  0  0
  -12.1344    3.7755   20.7831 O   0  0  0  0  0  0  0  0  0  0  0  0
  -14.4922    3.4228   20.6405 C   0  0  2  0  0  0  0  0  0  0  0  0
  -14.7303    4.5161   21.5878 N   0  3  0  0  0  0  0  0  0  0  0  0
  -14.4330    2.0552   21.3607 C   0  0  0  0  0  0  0  0  0  0  0  0
  -14.2212    0.9747   20.2857 C   0  0  2  0  0  0  0  0  0  0  0  0
  -14.2052   -0.3265   20.8822 O   0  0  0  0  0  0  0  0  0  0  0  0
  -12.9022    1.2612   19.5257 C   0  0  2  0  0  0  0  0  0  0  0  0
  -12.9393    2.5884   18.9279 O   0  0  0  0  0  0  0  0  0  0  0  0
  -12.6236    0.2730   18.3958 C   0  0  0  0  0  0  0  0  0  0  0  0
  -11.1765   -0.0573   18.3143 N   0  3  0  0  0  0  0  0  0  0  0  0
  -10.3951    7.6052   21.3011 C   0  0  2  0  0  0  0  0  0  0  0  0
   -9.4877    8.7640   21.2135 N   0  3  0  0  0  0  0  0  0  0  0  0
   -9.6606    6.4177   21.9084 C   0  0  0  0  0  0  0  0  0  0  0  0
  -10.5928    5.2046   22.0015 C   0  0  2  0  0  0  0  0  0  0  0  0
   -9.8735    4.1135   22.7047 N   0  3  0  0  0  0  0  0  0  0  0  0
  -11.1434    4.8064   20.5995 C   0  0  2  0  0  0  0  0  0  0  0  0
  -11.8414    6.0303   19.9525 C   0  0  2  0  0  0  0  0  0  0  0  0
  -12.1922    5.7209   18.6254 O   0  0  0  0  0  0  0  0  0  0  0  0
  -10.8933    7.2395   19.9043 C   0  0  1  0  0  0  0  0  0  0  0  0
  -11.5873    8.3478   19.3326 O   0  0  0  0  0  0  0  0  0  0  0  0
  -12.8070    8.0890   18.7271 C   0  0  2  0  0  0  0  0  0  0  0  0
  -13.3137    9.3792   18.0603 C   0  0  2  0  0  0  0  0  0  0  0  0
  -12.3563    9.7986   17.0961 O   0  0  0  0  0  0  0  0  0  0  0  0
  -13.4978   10.4701   19.1297 C   0  0  1  0  0  0  0  0  0  0  0  0
  -13.9689   11.7552   18.5375 N   0  3  0  0  0  0  0  0  0  0  0  0
  -14.4924    9.9683   20.2049 C   0  0  2  0  0  0  0  0  0  0  0  0
  -14.6639   10.9499   21.2245 O   0  0  0  0  0  0  0  0  0  0  0  0
  -13.9979    8.6406   20.8086 C   0  0  2  0  0  0  0  0  0  0  0  0
  -13.7455    7.6525   19.7444 O   0  0  0  0  0  0  0  0  0  0  0  0
  -15.0115    8.0297   21.7506 C   0  0  0  0  0  0  0  0  0  0  0  0
  -15.0174    8.6879   23.0155 O   0  0  0  0  0  0  0  0  0  0  0  0
  1  2  1  1  0  0  0
  1  3  1  0  0  0  0
  1  9  1  0  0  0  0
  3  4  1  1  0  0  0
  3  5  1  0  0  0  0
  5  6  1  0  0  0  0
  6  7  1  1  0  0  0
  6  8  1  0  0  0  0
  8  9  1  0  0  0  0
  8 10  1  6  0  0  0
 10 11  1  0  0  0  0
 12 13  1  6  0  0  0
 12 14  1  0  0  0  0
 12 20  1  0  0  0  0
 14 15  1  0  0  0  0
 15 16  1  6  0  0  0
 15 17  1  0  0  0  0
 17  2  1  1  0  0  0
 17 18  1  0  0  0  0
 18 19  1  6  0  0  0
 18 20  1  0  0  0  0
 20 21  1  1  0  0  0
 22 21  1  1  0  0  0
 22 23  1  0  0  0  0
 22 30  1  0  0  0  0
 23 24  1  6  0  0  0
 23 25  1  0  0  0  0
 25 26  1  6  0  0  0
 25 27  1  0  0  0  0
 27 28  1  1  0  0  0
 27 29  1  0  0  0  0
 29 30  1  0  0  0  0
 29 31  1  1  0  0  0
 31 32  1  0  0  0  0
M  CHG  5   4   1  11   1  13   1  16   1  26   1
M  END
>  <CHROM.1>
-137.11623626,150.91530348,65.37342522,64.82697121,-141.64255257,82.10241247
-62.95392672,63.75226997,-55.40041709,-133.52561942,-174.42507926,-48.15212719
76.14958381,66.70012610,-77.21433795,-67.87979398,-12.73135568,5.95069721
20.20539300,1.52318254,0.00030146,3.11906352

>  <Name>
1lc4

>  <RI>
0

>  <Rbt.Current_Directory>
/home/afrankz/demos/rdock_decoys_rna/rnas/1lc4

>  <Rbt.Executable>
rbdock ($Id: //depot/dev/client3/rdock/2013.1/src/exe/rbdock.cxx#4 $)

>  <Rbt.Library>
libRbt.so (2013.1, Build901 2013/11/27)

>  <Rbt.Parameter_File>
/export/apps/rDock/src/rDock_2013.1_src/data/scripts/dock_solv.prm

>  <Rbt.Receptor>
prm/blind_docking_60.prm

>  <SCORE>
-16.4194

>  <SCORE.INTER>
-17.3643

>  <SCORE.INTER.CONST>
1

>  <SCORE.INTER.POLAR>
-3.78651

>  <SCORE.INTER.ROT>
6

>  <SCORE.INTER.SOLV>
33.6012

>  <SCORE.INTER.VDW>
-17.7549

>  <SCORE.INTER.norm>
-0.542634

>  <SCORE.INTRA>
-3.5584

>  <SCORE.INTRA.DIHEDRAL>
-20.4487

>  <SCORE.INTRA.DIHEDRAL.0>
44.2576

>  <SCORE.INTRA.POLAR>
0.320145

>  <SCORE.INTRA.POLAR.0>
-0.381556

>  <SCORE.INTRA.REPUL>
0

>  <SCORE.INTRA.REPUL.0>
0

>  <SCORE.INTRA.SOLV>
-3.54128

>  <SCORE.INTRA.SOLV.lig_0>
-134.592

>  <SCORE.INTRA.VDW>
7.34812

>  <SCORE.INTRA.VDW.0>
-1.01417

>  <SCORE.INTRA.norm>
-0.1112

>  <SCORE.RESTR>
4.5033

>  <SCORE.RESTR.CAVITY>
4.5033

>  <SCORE.RESTR.norm>
0.140728

>  <SCORE.SYSTEM>
0

>  <SCORE.SYSTEM.CONST>
0

>  <SCORE.SYSTEM.DIHEDRAL>
0

>  <SCORE.SYSTEM.SOLV>
0

>  <SCORE.SYSTEM.norm>
0

>  <SCORE.heavy>
32

>  <SCORE.norm>
-0.513106

>  <RMSD>
6.214

$$$$
1lc4
 OpenBabel02141814113D
libRbt.so/2013.1/901 2013/11/27
 32 34  0  0  0  0  0  0  0  0999 V2000
  -10.6172    6.3968   20.5696 C   0  0  2  0  0  0  0  0  0  0  0  0
  -10.0306    6.1014   19.3267 O   0  0  0  0  0  0  0  0  0  0  0  0
  -10.3223    7.8740   20.9006 C   0  0  2  0  0  0  0  0  0  0  0  0
  -10.8462    8.7473   19.8458 N   0  3  0  0  0  0  0  0  0  0  0  0
   -8.8026    8.0811   21.1014 C   0  0  0  0  0  0  0  0  0  0  0  0
   -8.3569    7.1564   22.2477 C   0  0  2  0  0  0  0  0  0  0  0  0
   -6.9627    7.3344   22.5192 O   0  0  0  0  0  0  0  0  0  0  0  0
   -8.6736    5.6874   21.8722 C   0  0  2  0  0  0  0  0  0  0  0  0
  -10.0952    5.5288   21.5998 O   0  0  0  0  0  0  0  0  0  0  0  0
   -8.3178    4.6880   22.9701 C   0  0  0  0  0  0  0  0  0  0  0  0
   -9.3503    4.6730   24.0395 N   0  3  0  0  0  0  0  0  0  0  0  0
  -10.4372    2.8144   16.6829 C   0  0  2  0  0  0  0  0  0  0  0  0
  -10.9873    1.8297   15.7333 N   0  3  0  0  0  0  0  0  0  0  0  0
  -11.2062    2.7528   17.9956 C   0  0  0  0  0  0  0  0  0  0  0  0
  -10.6458    3.7750   18.9906 C   0  0  2  0  0  0  0  0  0  0  0  0
  -11.3438    3.5975   20.2883 N   0  3  0  0  0  0  0  0  0  0  0  0
  -10.7220    5.2218   18.4174 C   0  0  2  0  0  0  0  0  0  0  0  0
   -9.9898    5.2750   17.0518 C   0  0  2  0  0  0  0  0  0  0  0  0
  -10.1987    6.5336   16.4582 O   0  0  0  0  0  0  0  0  0  0  0  0
  -10.5506    4.2166   16.0880 C   0  0  1  0  0  0  0  0  0  0  0  0
   -9.8268    4.2811   14.8597 O   0  0  0  0  0  0  0  0  0  0  0  0
   -8.4568    4.0789   14.9190 C   0  0  2  0  0  0  0  0  0  0  0  0
   -7.7565    5.1866   14.1135 C   0  0  2  0  0  0  0  0  0  0  0  0
   -8.1006    6.4456   14.6779 O   0  0  0  0  0  0  0  0  0  0  0  0
   -8.2173    5.1224   12.6468 C   0  0  1  0  0  0  0  0  0  0  0  0
   -7.5856    6.1898   11.8185 N   0  3  0  0  0  0  0  0  0  0  0  0
   -7.8939    3.7222   12.0708 C   0  0  2  0  0  0  0  0  0  0  0  0
   -8.3332    3.6243   10.7180 O   0  0  0  0  0  0  0  0  0  0  0  0
   -8.5490    2.6278   12.9339 C   0  0  2  0  0  0  0  0  0  0  0  0
   -8.1553    2.7801   14.3461 O   0  0  0  0  0  0  0  0  0  0  0  0
   -8.1339    1.2381   12.5045 C   0  0  0  0  0  0  0  0  0  0  0  0
   -6.8319    0.9069   12.9824 O   0  0  0  0  0  0  0  0  0  0  0  0
  1  2  1  6  0  0  0
  1  3  1  0  0  0  0
  1  9  1  0  0  0  0
  3  4  1  6  0  0  0
  3  5  1  0  0  0  0
  5  6  1  0  0  0  0
  6  7  1  6  0  0  0
  6  8  1  0  0  0  0
  8  9  1  0  0  0  0
  8 10  1  1  0  0  0
 10 11  1  0  0  0  0
 12 13  1  6  0  0  0
 12 14  1  0  0  0  0
 12 20  1  0  0  0  0
 14 15  1  0  0  0  0
 15 16  1  1  0  0  0
 15 17  1  0  0  0  0
 17  2  1  1  0  0  0
 17 18  1  0  0  0  0
 18 19  1  6  0  0  0
 18 20  1  0  0  0  0
 20 21  1  6  0  0  0
 22 21  1  6  0  0  0
 22 23  1  0  0  0  0
 22 30  1  0  0  0  0
 23 24  1  1  0  0  0
 23 25  1  0  0  0  0
 25 26  1  6  0  0  0
 25 27  1  0  0  0  0
 27 28  1  6  0  0  0
 27 29  1  0  0  0  0
 29 30  1  0  0  0  0
 29 31  1  6  0  0  0
 31 32  1  0  0  0  0
M  CHG  5   4   1  11   1  13   1  16   1  26   1
M  END
>  <CHROM.1>
-142.64212373,-71.69548311,-178.79260202,178.73547490,78.72642909,-60.93058073
-64.46723423,46.91294286,-71.95949997,-63.04252045,-132.30911137,158.90893914
179.97829898,-59.04134723,78.29588821,175.73529549,-9.25260303,4.83176296
17.27501464,-1.98081547,-1.26226090,-2.26801919

>  <Name>
1lc4

>  <RI>
0

>  <Rbt.Current_Directory>
/home/afrankz/demos/rdock_decoys_rna/rnas/1lc4

>  <Rbt.Executable>
rbdock ($Id: //depot/dev/client3/rdock/2013.1/src/exe/rbdock.cxx#4 $)

>  <Rbt.Library>
libRbt.so (2013.1, Build901 2013/11/27)

>  <Rbt.Parameter_File>
/export/apps/rDock/src/rDock_2013.1_src/data/scripts/dock_solv.prm

>  <Rbt.Receptor>
prm/blind_docking_100.prm

>  <SCORE>
-66.003

>  <SCORE.INTER>
-51.2966

>  <SCORE.INTER.CONST>
1

>  <SCORE.INTER.POLAR>
-7.14533

>  <SCORE.INTER.ROT>
6

>  <SCORE.INTER.SOLV>
28.869

>  <SCORE.INTER.VDW>
-27.603

>  <SCORE.INTER.norm>
-1.60302

>  <SCORE.INTRA>
-17.2689

>  <SCORE.INTRA.DIHEDRAL>
-26.4944

>  <SCORE.INTRA.DIHEDRAL.0>
44.2576

>  <SCORE.INTRA.POLAR>
-0.786317

>  <SCORE.INTRA.POLAR.0>
-0.381556

>  <SCORE.INTRA.REPUL>
0.00342053

>  <SCORE.INTRA.REPUL.0>
0

>  <SCORE.INTRA.SOLV>
1.93466

>  <SCORE.INTRA.SOLV.lig_0>
-134.592

>  <SCORE.INTRA.VDW>
-2.33265

>  <SCORE.INTRA.VDW.0>
-1.01417

>  <SCORE.INTRA.norm>
-0.539653

>  <SCORE.RESTR>
2.56246

>  <SCORE.RESTR.CAVITY>
2.56246

>  <SCORE.RESTR.norm>
0.0800769

>  <SCORE.SYSTEM>
0

>  <SCORE.SYSTEM.CONST>
0

>  <SCORE.SYSTEM.DIHEDRAL>
0

>  <SCORE.SYSTEM.SOLV>
0

>  <SCORE.SYSTEM.norm>
0

>  <SCORE.heavy>
32

>  <SCORE.norm>
-2.06259

>  <RMSD>
6.258

$$$$
1lc4
 OpenBabel02141814113D
libRbt.so/2013.1/901 2013/11/27
 32 34  0  0  0  0  0  0  0  0999 V2000
  -16.2974   10.3961   19.1153 C   0  0  2  0  0  0  0  0  0  0  0  0
  -15.4534   10.1073   18.0289 O   0  0  0  0  0  0  0  0  0  0  0  0
  -17.5006   11.2036   18.5870 C   0  0  2  0  0  0  0  0  0  0  0  0
  -18.2091   10.4445   17.5519 N   0  3  0  0  0  0  0  0  0  0  0  0
  -17.0274   12.5768   18.0551 C   0  0  0  0  0  0  0  0  0  0  0  0
  -16.3351   13.3099   19.2174 C   0  0  2  0  0  0  0  0  0  0  0  0
  -15.9134   14.6141   18.8046 O   0  0  0  0  0  0  0  0  0  0  0  0
  -15.1374   12.4630   19.7151 C   0  0  2  0  0  0  0  0  0  0  0  0
  -15.5878   11.1417   20.1291 O   0  0  0  0  0  0  0  0  0  0  0  0
  -14.4106   13.0783   20.9084 C   0  0  0  0  0  0  0  0  0  0  0  0
  -13.5963   14.2516   20.4959 N   0  3  0  0  0  0  0  0  0  0  0  0
  -13.6391    6.8014   16.0953 C   0  0  2  0  0  0  0  0  0  0  0  0
  -13.0035    5.4969   15.8340 N   0  3  0  0  0  0  0  0  0  0  0  0
  -12.7691    7.6212   17.0383 C   0  0  0  0  0  0  0  0  0  0  0  0
  -13.4213    8.9791   17.3208 C   0  0  2  0  0  0  0  0  0  0  0  0
  -12.4866    9.7860   18.1440 N   0  3  0  0  0  0  0  0  0  0  0  0
  -14.8374    8.8063   17.9470 C   0  0  2  0  0  0  0  0  0  0  0  0
  -15.7086    7.9229   17.0173 C   0  0  2  0  0  0  0  0  0  0  0  0
  -16.9272    7.6308   17.6574 O   0  0  0  0  0  0  0  0  0  0  0  0
  -15.0133    6.5832   16.7254 C   0  0  1  0  0  0  0  0  0  0  0  0
  -15.8345    5.8195   15.8428 O   0  0  0  0  0  0  0  0  0  0  0  0
  -16.1990    6.4114   14.6436 C   0  0  2  0  0  0  0  0  0  0  0  0
  -17.6698    6.0707   14.3489 C   0  0  2  0  0  0  0  0  0  0  0  0
  -18.4727    6.5639   15.4139 O   0  0  0  0  0  0  0  0  0  0  0  0
  -17.8284    4.5446   14.2320 C   0  0  1  0  0  0  0  0  0  0  0  0
  -19.2423    4.1514   13.9669 N   0  3  0  0  0  0  0  0  0  0  0  0
  -16.8972    4.0189   13.1124 C   0  0  2  0  0  0  0  0  0  0  0  0
  -17.0038    2.6018   12.9975 O   0  0  0  0  0  0  0  0  0  0  0  0
  -15.4406    4.4316   13.3946 C   0  0  2  0  0  0  0  0  0  0  0  0
  -15.3465    5.8893   13.5916 O   0  0  0  0  0  0  0  0  0  0  0  0
  -14.5156    4.0774   12.2514 C   0  0  0  0  0  0  0  0  0  0  0  0
  -14.8949    4.7357   11.0447 O   0  0  0  0  0  0  0  0  0  0  0  0
  1  2  1  6  0  0  0
  1  3  1  0  0  0  0
  1  9  1  0  0  0  0
  3  4  1  6  0  0  0
  3  5  1  0  0  0  0
  5  6  1  0  0  0  0
  6  7  1  6  0  0  0
  6  8  1  0  0  0  0
  8  9  1  0  0  0  0
  8 10  1  1  0  0  0
 10 11  1  0  0  0  0
 12 13  1  1  0  0  0
 12 14  1  0  0  0  0
 12 20  1  0  0  0  0
 14 15  1  0  0  0  0
 15 16  1  1  0  0  0
 15 17  1  0  0  0  0
 17  2  1  6  0  0  0
 17 18  1  0  0  0  0
 18 19  1  1  0  0  0
 18 20  1  0  0  0  0
 20 21  1  6  0  0  0
 22 21  1  1  0  0  0
 22 23  1  0  0  0  0
 22 30  1  0  0  0  0
 23 24  1  1  0  0  0
 23 25  1  0  0  0  0
 25 26  1  6  0  0  0
 25 27  1  0  0  0  0
 27 28  1  1  0  0  0
 27 29  1  0  0  0  0
 29 30  1  0  0  0  0
 29 31  1  6  0  0  0
 31 32  1  0  0  0  0
M  CHG  5   4   1  11   1  13   1  16   1  26   1
M  END
>  <CHROM.1>
-139.87090104,-145.24072889,149.32638376,-58.10625096,-73.58888545,-169.61236978
70.14069126,-91.15145001,-176.32588982,-66.27075364,-139.46863642,175.58396723
-173.49352622,-57.91619561,60.64402543,-62.72942424,-15.71988689,8.19572228
16.51894138,1.46798330,-0.08744800,0.62746395

>  <Name>
1lc4

>  <RI>
0

>  <Rbt.Current_Directory>
/home/afrankz/demos/rdock_decoys_rna/rnas/1lc4

>  <Rbt.Executable>
rbdock ($Id: //depot/dev/client3/rdock/2013.1/src/exe/rbdock.cxx#4 $)

>  <Rbt.Library>
libRbt.so (2013.1, Build901 2013/11/27)

>  <Rbt.Parameter_File>
/export/apps/rDock/src/rDock_2013.1_src/data/scripts/dock_solv.prm

>  <Rbt.Receptor>
prm/pocket_docking_6.prm

>  <SCORE>
-41.3015

>  <SCORE.INTER>
-21.0307

>  <SCORE.INTER.CONST>
1

>  <SCORE.INTER.POLAR>
-4.81667

>  <SCORE.INTER.ROT>
6

>  <SCORE.INTER.SOLV>
17.228

>  <SCORE.INTER.VDW>
-11.3075

>  <SCORE.INTER.norm>
-0.657208

>  <SCORE.INTRA>
-20.2709

>  <SCORE.INTRA.DIHEDRAL>
-23.3677

>  <SCORE.INTRA.DIHEDRAL.0>
44.2576

>  <SCORE.INTRA.POLAR>
-1.90617

>  <SCORE.INTRA.POLAR.0>
-0.381556

>  <SCORE.INTRA.REPUL>
0

>  <SCORE.INTRA.REPUL.0>
0

>  <SCORE.INTRA.SOLV>
1.21805

>  <SCORE.INTRA.SOLV.lig_0>
-134.592

>  <SCORE.INTRA.VDW>
-2.71506

>  <SCORE.INTRA.VDW.0>
-1.01417

>  <SCORE.INTRA.norm>
-0.633465

>  <SCORE.RESTR>
0

>  <SCORE.RESTR.CAVITY>
0

>  <SCORE.RESTR.norm>
0

>  <SCORE.SYSTEM>
0

>  <SCORE.SYSTEM.CONST>
0

>  <SCORE.SYSTEM.DIHEDRAL>
0

>  <SCORE.SYSTEM.SOLV>
0

>  <SCORE.SYSTEM.norm>
0

>  <SCORE.heavy>
32

>  <SCORE.norm>
-1.29067

>  <RMSD>
6.330

$$$$
1lc4
 OpenBabel02141814113D
libRbt.so/2013.1/901 2013/11/27
 32 34  0  0  0  0  0  0  0  0999 V2000
  -10.4789    6.3544   20.5626 C   0  0  2  0  0  0  0  0  0  0  0  0
   -9.8916    6.0680   19.3180 O   0  0  0  0  0  0  0  0  0  0  0  0
  -10.2498    7.8485   20.8690 C   0  0  2  0  0  0  0  0  0  0  0  0
  -10.8242    8.6806   19.8073 N   0  3  0  0  0  0  0  0  0  0  0  0
   -8.7395    8.1288   21.0507 C   0  0  0  0  0  0  0  0  0  0  0  0
   -8.2399    7.2431   22.2055 C   0  0  2  0  0  0  0  0  0  0  0  0
   -6.8528    7.4895   22.4596 O   0  0  0  0  0  0  0  0  0  0  0  0
   -8.4916    5.7554   21.8547 C   0  0  2  0  0  0  0  0  0  0  0  0
   -9.9069    5.5271   21.5996 O   0  0  0  0  0  0  0  0  0  0  0  0
   -8.0788    4.7902   22.9631 C   0  0  0  0  0  0  0  0  0  0  0  0
   -9.1019    4.7383   24.0403 N   0  3  0  0  0  0  0  0  0  0  0  0
  -10.3626    2.8123   16.6462 C   0  0  2  0  0  0  0  0  0  0  0  0
  -10.9287    1.8530   15.6802 N   0  3  0  0  0  0  0  0  0  0  0  0
  -11.1584    2.7704   17.9437 C   0  0  0  0  0  0  0  0  0  0  0  0
  -10.5816    3.7667   18.9556 C   0  0  2  0  0  0  0  0  0  0  0  0
  -11.3101    3.6066   20.2386 N   0  3  0  0  0  0  0  0  0  0  0  0
  -10.5958    5.2184   18.3902 C   0  0  2  0  0  0  0  0  0  0  0  0
   -9.8362    5.2534   17.0390 C   0  0  2  0  0  0  0  0  0  0  0  0
   -9.9893    6.5220   16.4496 O   0  0  0  0  0  0  0  0  0  0  0  0
  -10.4152    4.2210   16.0581 C   0  0  1  0  0  0  0  0  0  0  0  0
   -9.6662    4.2668   14.8442 O   0  0  0  0  0  0  0  0  0  0  0  0
   -8.3138    3.9730   14.9216 C   0  0  2  0  0  0  0  0  0  0  0  0
   -7.5447    4.9278   13.9926 C   0  0  2  0  0  0  0  0  0  0  0  0
   -7.7903    6.2645   14.4109 O   0  0  0  0  0  0  0  0  0  0  0  0
   -8.0261    4.7316   12.5443 C   0  0  1  0  0  0  0  0  0  0  0  0
   -7.3287    5.6489   11.5977 N   0  3  0  0  0  0  0  0  0  0  0  0
   -7.8115    3.2551   12.1307 C   0  0  2  0  0  0  0  0  0  0  0  0
   -8.2726    3.0367   10.7994 O   0  0  0  0  0  0  0  0  0  0  0  0
   -8.5339    2.3166   13.1152 C   0  0  2  0  0  0  0  0  0  0  0  0
   -8.1137    2.5990   14.4994 O   0  0  0  0  0  0  0  0  0  0  0  0
   -8.2254    0.8605   12.8457 C   0  0  0  0  0  0  0  0  0  0  0  0
   -8.5895    0.4825   11.5198 O   0  0  0  0  0  0  0  0  0  0  0  0
  1  2  1  6  0  0  0
  1  3  1  0  0  0  0
  1  9  1  0  0  0  0
  3  4  1  6  0  0  0
  3  5  1  0  0  0  0
  5  6  1  0  0  0  0
  6  7  1  6  0  0  0
  6  8  1  0  0  0  0
  8  9  1  0  0  0  0
  8 10  1  1  0  0  0
 10 11  1  0  0  0  0
 12 13  1  6  0  0  0
 12 14  1  0  0  0  0
 12 20  1  0  0  0  0
 14 15  1  0  0  0  0
 15 16  1  1  0  0  0
 15 17  1  0  0  0  0
 17  2  1  1  0  0  0
 17 18  1  0  0  0  0
 18 19  1  6  0  0  0
 18 20  1  0  0  0  0
 20 21  1  6  0  0  0
 22 21  1  6  0  0  0
 22 23  1  0  0  0  0
 22 30  1  0  0  0  0
 23 24  1  1  0  0  0
 23 25  1  0  0  0  0
 25 26  1  6  0  0  0
 25 27  1  0  0  0  0
 27 28  1  6  0  0  0
 27 29  1  0  0  0  0
 29 30  1  0  0  0  0
 29 31  1  6  0  0  0
 31 32  1  0  0  0  0
M  CHG  5   4   1  11   1  13   1  16   1  26   1
M  END
>  <CHROM.1>
-138.29090874,-70.39150643,-62.62150500,-179.76568449,79.00204883,-166.02143157
-57.68956327,-72.41998495,-153.66730794,-60.97721550,-140.39398281,-79.41648898
-42.16819179,-175.53663701,-58.32108055,-67.73567482,-9.19749909,4.71907211
17.20344933,1.79854627,1.16535970,1.01368999

>  <Name>
1lc4

>  <RI>
0

>  <Rbt.Current_Directory>
/home/afrankz/demos/rdock_decoys_rna/rnas/1lc4

>  <Rbt.Executable>
rbdock ($Id: //depot/dev/client3/rdock/2013.1/src/exe/rbdock.cxx#4 $)

>  <Rbt.Library>
libRbt.so (2013.1, Build901 2013/11/27)

>  <Rbt.Parameter_File>
/export/apps/rDock/src/rDock_2013.1_src/data/scripts/dock_solv.prm

>  <Rbt.Receptor>
prm/blind_docking_100.prm

>  <SCORE>
-53.5251

>  <SCORE.INTER>
-40.1184

>  <SCORE.INTER.CONST>
1

>  <SCORE.INTER.POLAR>
-5.20402

>  <SCORE.INTER.ROT>
6

>  <SCORE.INTER.SOLV>
26.0095

>  <SCORE.INTER.VDW>
-25.6687

>  <SCORE.INTER.norm>
-1.2537

>  <SCORE.INTRA>
-16.1312

>  <SCORE.INTRA.DIHEDRAL>
-24.8124

>  <SCORE.INTRA.DIHEDRAL.0>
44.2576

>  <SCORE.INTRA.POLAR>
-1.31465

>  <SCORE.INTRA.POLAR.0>
-0.381556

>  <SCORE.INTRA.REPUL>
0

>  <SCORE.INTRA.REPUL.0>
0

>  <SCORE.INTRA.SOLV>
2.04742

>  <SCORE.INTRA.SOLV.lig_0>
-134.592

>  <SCORE.INTRA.VDW>
-0.27892

>  <SCORE.INTRA.VDW.0>
-1.01417

>  <SCORE.INTRA.norm>
-0.5041

>  <SCORE.RESTR>
2.72449

>  <SCORE.RESTR.CAVITY>
2.72449

>  <SCORE.RESTR.norm>
0.0851402

>  <SCORE.SYSTEM>
0

>  <SCORE.SYSTEM.CONST>
0

>  <SCORE.SYSTEM.DIHEDRAL>
0

>  <SCORE.SYSTEM.SOLV>
0

>  <SCORE.SYSTEM.norm>
0

>  <SCORE.heavy>
32

>  <SCORE.norm>
-1.67266

>  <RMSD>
6.350

$$$$
1lc4
 OpenBabel02141814113D
libRbt.so/2013.1/901 2013/11/27
 32 34  0  0  0  0  0  0  0  0999 V2000
  -12.6114   10.1275   18.0243 C   0  0  2  0  0  0  0  0  0  0  0  0
  -13.1109    8.9936   18.6884 O   0  0  0  0  0  0  0  0  0  0  0  0
  -13.1709   11.3809   18.7277 C   0  0  2  0  0  0  0  0  0  0  0  0
  -12.7893   11.3842   20.1434 N   0  3  0  0  0  0  0  0  0  0  0  0
  -14.7069   11.4456   18.5574 C   0  0  0  0  0  0  0  0  0  0  0  0
  -15.0043   11.4777   17.0480 C   0  0  2  0  0  0  0  0  0  0  0  0
  -16.4131   11.5869   16.8190 O   0  0  0  0  0  0  0  0  0  0  0  0
  -14.4239   10.2035   16.3852 C   0  0  2  0  0  0  0  0  0  0  0  0
  -12.9916   10.1118   16.6307 O   0  0  0  0  0  0  0  0  0  0  0  0
  -14.6186   10.1619   14.8716 C   0  0  0  0  0  0  0  0  0  0  0  0
  -16.0409    9.9122   14.5186 N   0  3  0  0  0  0  0  0  0  0  0  0
  -10.2884    6.2490   17.1197 C   0  0  2  0  0  0  0  0  0  0  0  0
   -9.6158    5.0071   16.6967 N   0  3  0  0  0  0  0  0  0  0  0  0
  -10.5254    6.2226   18.6236 C   0  0  0  0  0  0  0  0  0  0  0  0
  -11.2279    7.5077   19.0755 C   0  0  2  0  0  0  0  0  0  0  0  0
  -11.3304    7.4901   20.5560 N   0  3  0  0  0  0  0  0  0  0  0  0
  -12.5905    7.6941   18.3434 C   0  0  2  0  0  0  0  0  0  0  0  0
  -12.3611    7.6629   16.8104 C   0  0  2  0  0  0  0  0  0  0  0  0
  -13.6044    7.6654   16.1515 O   0  0  0  0  0  0  0  0  0  0  0  0
  -11.6253    6.3793   16.3926 C   0  0  1  0  0  0  0  0  0  0  0  0
  -11.4081    6.4099   14.9824 O   0  0  0  0  0  0  0  0  0  0  0  0
  -11.8392    5.3149   14.2500 C   0  0  2  0  0  0  0  0  0  0  0  0
  -10.6926    4.8450   13.3386 C   0  0  2  0  0  0  0  0  0  0  0  0
   -9.5799    4.4953   14.1519 O   0  0  0  0  0  0  0  0  0  0  0  0
  -10.3057    5.9809   12.3755 C   0  0  1  0  0  0  0  0  0  0  0  0
   -9.1806    5.5897   11.4781 N   0  3  0  0  0  0  0  0  0  0  0  0
  -11.5468    6.3921   11.5463 C   0  0  2  0  0  0  0  0  0  0  0  0
  -11.2245    7.4622   10.6609 O   0  0  0  0  0  0  0  0  0  0  0  0
  -12.7027    6.7924   12.4818 C   0  0  2  0  0  0  0  0  0  0  0  0
  -12.9808    5.7146   13.4481 O   0  0  0  0  0  0  0  0  0  0  0  0
  -13.9860    7.0517   11.7243 C   0  0  0  0  0  0  0  0  0  0  0  0
  -13.7315    7.4409   10.3763 O   0  0  0  0  0  0  0  0  0  0  0  0
  1  2  1  1  0  0  0
  1  3  1  0  0  0  0
  1  9  1  0  0  0  0
  3  4  1  1  0  0  0
  3  5  1  0  0  0  0
  5  6  1  0  0  0  0
  6  7  1  1  0  0  0
  6  8  1  0  0  0  0
  8  9  1  0  0  0  0
  8 10  1  6  0  0  0
 10 11  1  0  0  0  0
 12 13  1  6  0  0  0
 12 14  1  0  0  0  0
 12 20  1  0  0  0  0
 14 15  1  0  0  0  0
 15 16  1  1  0  0  0
 15 17  1  0  0  0  0
 17  2  1  1  0  0  0
 17 18  1  0  0  0  0
 18 19  1  6  0  0  0
 18 20  1  0  0  0  0
 20 21  1  6  0  0  0
 22 21  1  6  0  0  0
 22 23  1  0  0  0  0
 22 30  1  0  0  0  0
 23 24  1  1  0  0  0
 23 25  1  0  0  0  0
 25 26  1  6  0  0  0
 25 27  1  0  0  0  0
 27 28  1  6  0  0  0
 27 29  1  0  0  0  0
 29 30  1  0  0  0  0
 29 31  1  6  0  0  0
 31 32  1  0  0  0  0
M  CHG  5   4   1  11   1  13   1  16   1  26   1
M  END
>  <CHROM.1>
-171.42752047,80.06582880,176.14895739,65.64549273,-72.07293168,-68.81438634
65.68997995,-56.39722405,-59.26187409,111.10407571,-130.33745593,80.87831531
178.35878405,65.27745387,-25.59279434,98.18768414,-12.44970232,7.87159553
15.62490879,-2.04814254,0.78736997,-1.85453686

>  <Name>
1lc4

>  <RI>
0

>  <Rbt.Current_Directory>
/home/afrankz/demos/rdock_decoys_rna/rnas/1lc4

>  <Rbt.Executable>
rbdock ($Id: //depot/dev/client3/rdock/2013.1/src/exe/rbdock.cxx#4 $)

>  <Rbt.Library>
libRbt.so (2013.1, Build901 2013/11/27)

>  <Rbt.Parameter_File>
/export/apps/rDock/src/rDock_2013.1_src/data/scripts/dock_solv.prm

>  <Rbt.Receptor>
prm/blind_docking_80.prm

>  <SCORE>
-33.4105

>  <SCORE.INTER>
-27.9674

>  <SCORE.INTER.CONST>
1

>  <SCORE.INTER.POLAR>
-5.14212

>  <SCORE.INTER.ROT>
6

>  <SCORE.INTER.SOLV>
27.4669

>  <SCORE.INTER.VDW>
-18.2601

>  <SCORE.INTER.norm>
-0.87398

>  <SCORE.INTRA>
-11.456

>  <SCORE.INTRA.DIHEDRAL>
-17.0691

>  <SCORE.INTRA.DIHEDRAL.0>
44.2576

>  <SCORE.INTRA.POLAR>
-1.50371

>  <SCORE.INTRA.POLAR.0>
-0.381556

>  <SCORE.INTRA.REPUL>
0

>  <SCORE.INTRA.REPUL.0>
0

>  <SCORE.INTRA.SOLV>
2.91525

>  <SCORE.INTRA.SOLV.lig_0>
-134.592

>  <SCORE.INTRA.VDW>
0.733593

>  <SCORE.INTRA.VDW.0>
-1.01417

>  <SCORE.INTRA.norm>
-0.357998

>  <SCORE.RESTR>
6.01284

>  <SCORE.RESTR.CAVITY>
6.01284

>  <SCORE.RESTR.norm>
0.187901

>  <SCORE.SYSTEM>
0

>  <SCORE.SYSTEM.CONST>
0

>  <SCORE.SYSTEM.DIHEDRAL>
0

>  <SCORE.SYSTEM.SOLV>
0

>  <SCORE.SYSTEM.norm>
0

>  <SCORE.heavy>
32

>  <SCORE.norm>
-1.04408

>  <RMSD>
6.351

$$$$
1lc4
 OpenBabel02141814113D
libRbt.so/2013.1/901 2013/11/27
 32 34  0  0  0  0  0  0  0  0999 V2000
   -9.9872    6.3790   21.6035 C   0  0  2  0  0  0  0  0  0  0  0  0
   -9.7353    5.5584   20.4902 O   0  0  0  0  0  0  0  0  0  0  0  0
   -9.1759    7.6798   21.4343 C   0  0  2  0  0  0  0  0  0  0  0  0
   -9.5456    8.3523   20.1850 N   0  3  0  0  0  0  0  0  0  0  0  0
   -7.6608    7.3720   21.4822 C   0  0  0  0  0  0  0  0  0  0  0  0
   -7.3662    6.7073   22.8384 C   0  0  2  0  0  0  0  0  0  0  0  0
   -5.9662    6.4386   22.9689 O   0  0  0  0  0  0  0  0  0  0  0  0
   -8.2021    5.4093   22.9640 C   0  0  2  0  0  0  0  0  0  0  0  0
   -9.6213    5.7049   22.8278 O   0  0  0  0  0  0  0  0  0  0  0  0
   -8.0233    4.6971   24.3025 C   0  0  0  0  0  0  0  0  0  0  0  0
   -6.7029    4.0187   24.3790 N   0  3  0  0  0  0  0  0  0  0  0  0
  -11.6125    1.9670   19.2501 C   0  0  2  0  0  0  0  0  0  0  0  0
  -12.5919    0.9971   18.7267 N   0  3  0  0  0  0  0  0  0  0  0  0
  -12.1787    2.6606   20.4817 C   0  0  0  0  0  0  0  0  0  0  0  0
  -11.1706    3.6748   21.0335 C   0  0  2  0  0  0  0  0  0  0  0  0
  -11.7139    4.2369   22.2950 N   0  3  0  0  0  0  0  0  0  0  0  0
  -10.8033    4.7458   19.9633 C   0  0  2  0  0  0  0  0  0  0  0  0
  -10.2810    4.0404   18.6853 C   0  0  2  0  0  0  0  0  0  0  0  0
  -10.1058    4.9926   17.6643 O   0  0  0  0  0  0  0  0  0  0  0  0
  -11.2981    3.0063   18.1759 C   0  0  1  0  0  0  0  0  0  0  0  0
  -10.7620    2.3615   17.0211 O   0  0  0  0  0  0  0  0  0  0  0  0
  -11.3713    2.6283   15.8050 C   0  0  2  0  0  0  0  0  0  0  0  0
  -11.4078    1.3345   14.9738 C   0  0  2  0  0  0  0  0  0  0  0  0
  -12.1404    0.3518   15.6948 O   0  0  0  0  0  0  0  0  0  0  0  0
   -9.9704    0.8443   14.7261 C   0  0  1  0  0  0  0  0  0  0  0  0
   -9.9430   -0.4231   13.9405 N   0  3  0  0  0  0  0  0  0  0  0  0
   -9.1709    1.9534   13.9998 C   0  0  2  0  0  0  0  0  0  0  0  0
   -7.8254    1.5367   13.7789 O   0  0  0  0  0  0  0  0  0  0  0  0
   -9.2068    3.2576   14.8179 C   0  0  2  0  0  0  0  0  0  0  0  0
  -10.5986    3.6432   15.1127 O   0  0  0  0  0  0  0  0  0  0  0  0
   -8.5732    4.4138   14.0765 C   0  0  0  0  0  0  0  0  0  0  0  0
   -9.1697    4.6073   12.7958 O   0  0  0  0  0  0  0  0  0  0  0  0
  1  2  1  6  0  0  0
  1  3  1  0  0  0  0
  1  9  1  0  0  0  0
  3  4  1  6  0  0  0
  3  5  1  0  0  0  0
  5  6  1  0  0  0  0
  6  7  1  6  0  0  0
  6  8  1  0  0  0  0
  8  9  1  0  0  0  0
  8 10  1  1  0  0  0
 10 11  1  0  0  0  0
 12 13  1  6  0  0  0
 12 14  1  0  0  0  0
 12 20  1  0  0  0  0
 14 15  1  0  0  0  0
 15 16  1  1  0  0  0
 15 17  1  0  0  0  0
 17  2  1  1  0  0  0
 17 18  1  0  0  0  0
 18 19  1  6  0  0  0
 18 20  1  0  0  0  0
 20 21  1  6  0  0  0
 22 21  1  1  0  0  0
 22 23  1  0  0  0  0
 22 30  1  0  0  0  0
 23 24  1  1  0  0  0
 23 25  1  0  0  0  0
 25 26  1  6  0  0  0
 25 27  1  0  0  0  0
 27 28  1  1  0  0  0
 27 29  1  0  0  0  0
 29 30  1  0  0  0  0
 29 31  1  6  0  0  0
 31 32  1  0  0  0  0
M  CHG  5   4   1  11   1  13   1  16   1  26   1
M  END
>  <CHROM.1>
-144.19788542,-66.13894537,123.94890564,168.40499089,-73.89319311,-19.46887733
52.16855916,-76.76373198,-54.93627497,126.91489319,-141.72520555,71.89088513
-177.40684571,-62.00537987,55.18594780,61.36289913,-9.79768738,3.89342104
18.68234577,-1.28827415,-0.83871371,-1.82503129

>  <Name>
1lc4

>  <RI>
0

>  <Rbt.Current_Directory>
/home/afrankz/demos/rdock_decoys_rna/rnas/1lc4

>  <Rbt.Executable>
rbdock ($Id: //depot/dev/client3/rdock/2013.1/src/exe/rbdock.cxx#4 $)

>  <Rbt.Library>
libRbt.so (2013.1, Build901 2013/11/27)

>  <Rbt.Parameter_File>
/export/apps/rDock/src/rDock_2013.1_src/data/scripts/dock_solv.prm

>  <Rbt.Receptor>
prm/pocket_docking_8.prm

>  <SCORE>
-69.1868

>  <SCORE.INTER>
-53.8531

>  <SCORE.INTER.CONST>
1

>  <SCORE.INTER.POLAR>
-7.68039

>  <SCORE.INTER.ROT>
6

>  <SCORE.INTER.SOLV>
32.5358

>  <SCORE.INTER.VDW>
-28.7461

>  <SCORE.INTER.norm>
-1.68291

>  <SCORE.INTRA>
-15.3337

>  <SCORE.INTRA.DIHEDRAL>
-17.9324

>  <SCORE.INTRA.DIHEDRAL.0>
44.2576

>  <SCORE.INTRA.POLAR>
-1.70318

>  <SCORE.INTRA.POLAR.0>
-0.381556

>  <SCORE.INTRA.REPUL>
0

>  <SCORE.INTRA.REPUL.0>
0

>  <SCORE.INTRA.SOLV>
1.91126

>  <SCORE.INTRA.SOLV.lig_0>
-134.592

>  <SCORE.INTRA.VDW>
-1.53231

>  <SCORE.INTRA.VDW.0>
-1.01417

>  <SCORE.INTRA.norm>
-0.479178

>  <SCORE.RESTR>
0

>  <SCORE.RESTR.CAVITY>
0

>  <SCORE.RESTR.norm>
0

>  <SCORE.SYSTEM>
0

>  <SCORE.SYSTEM.CONST>
0

>  <SCORE.SYSTEM.DIHEDRAL>
0

>  <SCORE.SYSTEM.SOLV>
0

>  <SCORE.SYSTEM.norm>
0

>  <SCORE.heavy>
32

>  <SCORE.norm>
-2.16209

>  <RMSD>
6.366

$$$$
1lc4
 OpenBabel02141814113D
libRbt.so/2013.1/901 2013/11/27
 32 34  0  0  0  0  0  0  0  0999 V2000
   -9.1998    7.3619   20.1906 C   0  0  2  0  0  0  0  0  0  0  0  0
   -9.2185    6.2427   21.0409 O   0  0  0  0  0  0  0  0  0  0  0  0
   -8.7486    8.5842   21.0160 C   0  0  2  0  0  0  0  0  0  0  0  0
   -7.4276    8.3427   21.6042 N   0  3  0  0  0  0  0  0  0  0  0  0
   -9.7995    8.9091   22.1035 C   0  0  0  0  0  0  0  0  0  0  0  0
  -11.1346    9.1844   21.3895 C   0  0  2  0  0  0  0  0  0  0  0  0
  -12.1445    9.5407   22.3395 O   0  0  0  0  0  0  0  0  0  0  0  0
  -11.5459    7.9332   20.5741 C   0  0  2  0  0  0  0  0  0  0  0  0
  -10.5056    7.5881   19.6155 O   0  0  0  0  0  0  0  0  0  0  0  0
  -12.8365    8.1208   19.7805 C   0  0  0  0  0  0  0  0  0  0  0  0
  -12.6574    9.1136   18.6887 N   0  3  0  0  0  0  0  0  0  0  0  0
  -11.0987    2.4534   20.7831 C   0  0  2  0  0  0  0  0  0  0  0  0
  -12.1130    1.3869   20.6967 N   0  3  0  0  0  0  0  0  0  0  0  0
  -11.2780    3.2342   22.0780 C   0  0  0  0  0  0  0  0  0  0  0  0
  -10.2309    4.3491   22.1779 C   0  0  2  0  0  0  0  0  0  0  0  0
  -10.3678    5.0034   23.5030 N   0  3  0  0  0  0  0  0  0  0  0  0
  -10.3302    5.3274   20.9695 C   0  0  2  0  0  0  0  0  0  0  0  0
  -10.2067    4.5280   19.6468 C   0  0  2  0  0  0  0  0  0  0  0  0
  -10.4602    5.3831   18.5584 O   0  0  0  0  0  0  0  0  0  0  0  0
  -11.2465    3.3970   19.5912 C   0  0  1  0  0  0  0  0  0  0  0  0
  -11.0740    2.6708   18.3748 O   0  0  0  0  0  0  0  0  0  0  0  0
  -11.7862    3.1072   17.2687 C   0  0  2  0  0  0  0  0  0  0  0  0
  -12.8339    2.0425   16.9013 C   0  0  2  0  0  0  0  0  0  0  0  0
  -13.7015    1.8564   18.0125 O   0  0  0  0  0  0  0  0  0  0  0  0
  -12.1232    0.7211   16.5600 C   0  0  1  0  0  0  0  0  0  0  0  0
  -13.0926   -0.3585   16.2154 N   0  3  0  0  0  0  0  0  0  0  0  0
  -11.1350    0.9597   15.3924 C   0  0  2  0  0  0  0  0  0  0  0  0
  -10.4418   -0.2438   15.0700 O   0  0  0  0  0  0  0  0  0  0  0  0
  -10.1399    2.0769   15.7576 C   0  0  2  0  0  0  0  0  0  0  0  0
  -10.8606    3.2958   16.1669 O   0  0  0  0  0  0  0  0  0  0  0  0
   -9.2540    2.4553   14.5915 C   0  0  0  0  0  0  0  0  0  0  0  0
   -7.8925    2.5989   14.9903 O   0  0  0  0  0  0  0  0  0  0  0  0
  1  2  1  1  0  0  0
  1  3  1  0  0  0  0
  1  9  1  0  0  0  0
  3  4  1  1  0  0  0
  3  5  1  0  0  0  0
  5  6  1  0  0  0  0
  6  7  1  1  0  0  0
  6  8  1  0  0  0  0
  8  9  1  0  0  0  0
  8 10  1  6  0  0  0
 10 11  1  0  0  0  0
 12 13  1  6  0  0  0
 12 14  1  0  0  0  0
 12 20  1  0  0  0  0
 14 15  1  0  0  0  0
 15 16  1  1  0  0  0
 15 17  1  0  0  0  0
 17  2  1  1  0  0  0
 17 18  1  0  0  0  0
 18 19  1  6  0  0  0
 18 20  1  0  0  0  0
 20 21  1  6  0  0  0
 22 21  1  1  0  0  0
 22 23  1  0  0  0  0
 22 30  1  0  0  0  0
 23 24  1  1  0  0  0
 23 25  1  0  0  0  0
 25 26  1  6  0  0  0
 25 27  1  0  0  0  0
 27 28  1  1  0  0  0
 27 29  1  0  0  0  0
 29 30  1  0  0  0  0
 29 31  1  6  0  0  0
 31 32  1  0  0  0  0
M  CHG  5   4   1  11   1  13   1  16   1  26   1
M  END
>  <CHROM.1>
136.64357992,-169.64386379,77.91277583,-172.40891838,67.34931888,30.79180171
137.04222393,-162.74286063,-40.52853338,148.32376514,-112.77495113,-179.22365844
178.62552593,65.67971931,-135.80557614,-59.07998823,-10.85239674,4.58749889
19.09883970,-1.35530177,-1.08124156,-2.30900635

>  <Name>
1lc4

>  <RI>
0

>  <Rbt.Current_Directory>
/home/afrankz/demos/rdock_decoys_rna/rnas/1lc4

>  <Rbt.Executable>
rbdock ($Id: //depot/dev/client3/rdock/2013.1/src/exe/rbdock.cxx#4 $)

>  <Rbt.Library>
libRbt.so (2013.1, Build901 2013/11/27)

>  <Rbt.Parameter_File>
/export/apps/rDock/src/rDock_2013.1_src/data/scripts/dock_solv.prm

>  <Rbt.Receptor>
prm/blind_docking_100.prm

>  <SCORE>
-31.4803

>  <SCORE.INTER>
-24.5526

>  <SCORE.INTER.CONST>
1

>  <SCORE.INTER.POLAR>
-5.88008

>  <SCORE.INTER.ROT>
6

>  <SCORE.INTER.SOLV>
33.7438

>  <SCORE.INTER.VDW>
-15.6161

>  <SCORE.INTER.norm>
-0.76727

>  <SCORE.INTRA>
-11.4962

>  <SCORE.INTRA.DIHEDRAL>
-14.0228

>  <SCORE.INTRA.DIHEDRAL.0>
44.2576

>  <SCORE.INTRA.POLAR>
-1.09148

>  <SCORE.INTRA.POLAR.0>
-0.381556

>  <SCORE.INTRA.REPUL>
0

>  <SCORE.INTRA.REPUL.0>
0

>  <SCORE.INTRA.SOLV>
-0.893038

>  <SCORE.INTRA.SOLV.lig_0>
-134.592

>  <SCORE.INTRA.VDW>
-0.327253

>  <SCORE.INTRA.VDW.0>
-1.01417

>  <SCORE.INTRA.norm>
-0.359255

>  <SCORE.RESTR>
4.56854

>  <SCORE.RESTR.CAVITY>
4.56854

>  <SCORE.RESTR.norm>
0.142767

>  <SCORE.SYSTEM>
0

>  <SCORE.SYSTEM.CONST>
0

>  <SCORE.SYSTEM.DIHEDRAL>
0

>  <SCORE.SYSTEM.SOLV>
0

>  <SCORE.SYSTEM.norm>
0

>  <SCORE.heavy>
32

>  <SCORE.norm>
-0.983759

>  <RMSD>
6.382

$$$$
1lc4
 OpenBabel02141814113D
libRbt.so/2013.1/901 2013/11/27
 32 34  0  0  0  0  0  0  0  0999 V2000
  -10.0218    6.2072   21.7113 C   0  0  2  0  0  0  0  0  0  0  0  0
   -9.8156    5.5138   20.5060 O   0  0  0  0  0  0  0  0  0  0  0  0
   -9.4089    7.6150   21.5660 C   0  0  2  0  0  0  0  0  0  0  0  0
  -10.0188    8.3225   20.4359 N   0  3  0  0  0  0  0  0  0  0  0  0
   -7.8738    7.5130   21.4055 C   0  0  0  0  0  0  0  0  0  0  0  0
   -7.3249    6.7952   22.6509 C   0  0  2  0  0  0  0  0  0  0  0  0
   -5.8972    6.7099   22.5892 O   0  0  0  0  0  0  0  0  0  0  0  0
   -7.9681    5.3900   22.7563 C   0  0  2  0  0  0  0  0  0  0  0  0
   -9.4188    5.4996   22.8171 O   0  0  0  0  0  0  0  0  0  0  0  0
   -7.5295    4.6108   23.9937 C   0  0  0  0  0  0  0  0  0  0  0  0
   -8.2451    5.0822   25.2083 N   0  3  0  0  0  0  0  0  0  0  0  0
  -11.7102    1.9087   19.3337 C   0  0  2  0  0  0  0  0  0  0  0  0
  -12.6886    0.9354   18.8151 N   0  3  0  0  0  0  0  0  0  0  0  0
  -12.3008    2.6518   20.5243 C   0  0  0  0  0  0  0  0  0  0  0  0
  -11.2938    3.6700   21.0706 C   0  0  2  0  0  0  0  0  0  0  0  0
  -11.8643    4.2823   22.2962 N   0  3  0  0  0  0  0  0  0  0  0  0
  -10.8802    4.6987   19.9760 C   0  0  2  0  0  0  0  0  0  0  0  0
  -10.3324    3.9429   18.7382 C   0  0  2  0  0  0  0  0  0  0  0  0
  -10.1140    4.8572   17.6911 O   0  0  0  0  0  0  0  0  0  0  0  0
  -11.3499    2.9063   18.2346 C   0  0  1  0  0  0  0  0  0  0  0  0
  -10.7909    2.2151   17.1182 O   0  0  0  0  0  0  0  0  0  0  0  0
  -11.3956    2.4065   15.8857 C   0  0  2  0  0  0  0  0  0  0  0  0
  -11.3451    1.0862   15.0979 C   0  0  2  0  0  0  0  0  0  0  0  0
  -12.0313    0.0870   15.8414 O   0  0  0  0  0  0  0  0  0  0  0  0
   -9.8784    0.6719   14.8863 C   0  0  1  0  0  0  0  0  0  0  0  0
   -9.7664   -0.6167   14.1440 N   0  3  0  0  0  0  0  0  0  0  0  0
   -9.1326    1.8011   14.1340 C   0  0  2  0  0  0  0  0  0  0  0  0
   -7.7622    1.4558   13.9454 O   0  0  0  0  0  0  0  0  0  0  0  0
   -9.2558    3.1271   14.9075 C   0  0  2  0  0  0  0  0  0  0  0  0
  -10.6717    3.4410   15.1704 O   0  0  0  0  0  0  0  0  0  0  0  0
   -8.6781    4.2930   14.1363 C   0  0  0  0  0  0  0  0  0  0  0  0
   -9.3351    4.4722   12.8835 O   0  0  0  0  0  0  0  0  0  0  0  0
  1  2  1  6  0  0  0
  1  3  1  0  0  0  0
  1  9  1  0  0  0  0
  3  4  1  6  0  0  0
  3  5  1  0  0  0  0
  5  6  1  0  0  0  0
  6  7  1  6  0  0  0
  6  8  1  0  0  0  0
  8  9  1  0  0  0  0
  8 10  1  1  0  0  0
 10 11  1  0  0  0  0
 12 13  1  6  0  0  0
 12 14  1  0  0  0  0
 12 20  1  0  0  0  0
 14 15  1  0  0  0  0
 15 16  1  1  0  0  0
 15 17  1  0  0  0  0
 17  2  1  1  0  0  0
 17 18  1  0  0  0  0
 18 19  1  6  0  0  0
 18 20  1  0  0  0  0
 20 21  1  6  0  0  0
 22 21  1  1  0  0  0
 22 23  1  0  0  0  0
 22 30  1  0  0  0  0
 23 24  1  1  0  0  0
 23 25  1  0  0  0  0
 25 26  1  6  0  0  0
 25 27  1  0  0  0  0
 27 28  1  1  0  0  0
 27 29  1  0  0  0  0
 29 30  1  0  0  0  0
 29 31  1  6  0  0  0
 31 32  1  0  0  0  0
M  CHG  5   4   1  11   1  13   1  16   1  26   1
M  END
>  <CHROM.1>
-138.66487569,-55.81846986,-55.13551652,67.83734017,78.07813686,29.51298627
-71.46830084,-85.14626741,-58.57036789,124.34435468,-144.07784285,179.84347274
-60.15587763,-62.37059930,59.62498924,-176.52495240,-9.87327220,3.85275867
18.74664454,1.33296635,0.82666293,1.24298140

>  <Name>
1lc4

>  <RI>
0

>  <Rbt.Current_Directory>
/home/afrankz/demos/rdock_decoys_rna/rnas/1lc4

>  <Rbt.Executable>
rbdock ($Id: //depot/dev/client3/rdock/2013.1/src/exe/rbdock.cxx#4 $)

>  <Rbt.Library>
libRbt.so (2013.1, Build901 2013/11/27)

>  <Rbt.Parameter_File>
/export/apps/rDock/src/rDock_2013.1_src/data/scripts/dock_solv.prm

>  <Rbt.Receptor>
prm/blind_docking_100.prm

>  <SCORE>
-68.5545

>  <SCORE.INTER>
-51.1757

>  <SCORE.INTER.CONST>
1

>  <SCORE.INTER.POLAR>
-6.59975

>  <SCORE.INTER.ROT>
6

>  <SCORE.INTER.SOLV>
29.8111

>  <SCORE.INTER.VDW>
-29.655

>  <SCORE.INTER.norm>
-1.59924

>  <SCORE.INTRA>
-18.4556

>  <SCORE.INTRA.DIHEDRAL>
-21.6261

>  <SCORE.INTRA.DIHEDRAL.0>
44.2576

>  <SCORE.INTRA.POLAR>
-2.03703

>  <SCORE.INTRA.POLAR.0>
-0.381556

>  <SCORE.INTRA.REPUL>
0

>  <SCORE.INTRA.REPUL.0>
0

>  <SCORE.INTRA.SOLV>
1.72884

>  <SCORE.INTRA.SOLV.lig_0>
-134.592

>  <SCORE.INTRA.VDW>
-1.58112

>  <SCORE.INTRA.VDW.0>
-1.01417

>  <SCORE.INTRA.norm>
-0.576739

>  <SCORE.RESTR>
1.07682

>  <SCORE.RESTR.CAVITY>
1.07682

>  <SCORE.RESTR.norm>
0.0336507

>  <SCORE.SYSTEM>
0

>  <SCORE.SYSTEM.CONST>
0

>  <SCORE.SYSTEM.DIHEDRAL>
0

>  <SCORE.SYSTEM.SOLV>
0

>  <SCORE.SYSTEM.norm>
0

>  <SCORE.heavy>
32

>  <SCORE.norm>
-2.14233

>  <RMSD>
6.437

$$$$
1lc4
 OpenBabel02141814113D
libRbt.so/2013.1/901 2013/11/27
 32 34  0  0  0  0  0  0  0  0999 V2000
   -9.0577    6.0868   20.3235 C   0  0  2  0  0  0  0  0  0  0  0  0
   -9.8345    5.1377   21.0103 O   0  0  0  0  0  0  0  0  0  0  0  0
   -8.3777    6.9963   21.3671 C   0  0  2  0  0  0  0  0  0  0  0  0
   -7.5544    6.1976   22.2803 N   0  3  0  0  0  0  0  0  0  0  0  0
   -9.4430    7.8128   22.1359 C   0  0  0  0  0  0  0  0  0  0  0  0
  -10.2247    8.6428   21.1027 C   0  0  2  0  0  0  0  0  0  0  0  0
  -11.1998    9.4626   21.7556 O   0  0  0  0  0  0  0  0  0  0  0  0
  -10.8873    7.6897   20.0769 C   0  0  2  0  0  0  0  0  0  0  0  0
   -9.8790    6.8655   19.4256 O   0  0  0  0  0  0  0  0  0  0  0  0
  -11.6471    8.4183   18.9712 C   0  0  0  0  0  0  0  0  0  0  0  0
  -12.1283    9.7465   19.4340 N   0  3  0  0  0  0  0  0  0  0  0  0
  -12.2323    1.9879   19.4972 C   0  0  2  0  0  0  0  0  0  0  0  0
  -13.3167    1.2310   18.8453 N   0  3  0  0  0  0  0  0  0  0  0  0
  -12.7907    2.7906   20.6643 C   0  0  0  0  0  0  0  0  0  0  0  0
  -11.6729    3.5854   21.3484 C   0  0  2  0  0  0  0  0  0  0  0  0
  -12.2390    4.2550   22.5459 N   0  3  0  0  0  0  0  0  0  0  0  0
  -10.9732    4.5525   20.3472 C   0  0  2  0  0  0  0  0  0  0  0  0
  -10.4543    3.7467   19.1285 C   0  0  2  0  0  0  0  0  0  0  0  0
   -9.9710    4.6365   18.1514 O   0  0  0  0  0  0  0  0  0  0  0  0
  -11.5899    2.9345   18.4851 C   0  0  1  0  0  0  0  0  0  0  0  0
  -11.0601    2.1863   17.3914 O   0  0  0  0  0  0  0  0  0  0  0  0
  -11.5506    2.4759   16.1277 C   0  0  2  0  0  0  0  0  0  0  0  0
  -11.3689    1.2401   15.2298 C   0  0  2  0  0  0  0  0  0  0  0  0
  -12.0810    0.1519   15.8049 O   0  0  0  0  0  0  0  0  0  0  0  0
   -9.8725    0.8965   15.1284 C   0  0  1  0  0  0  0  0  0  0  0  0
   -9.6352   -0.3102   14.2847 N   0  3  0  0  0  0  0  0  0  0  0  0
   -9.1057    2.1167   14.5626 C   0  0  2  0  0  0  0  0  0  0  0  0
   -7.7102    1.8363   14.4808 O   0  0  0  0  0  0  0  0  0  0  0  0
   -9.3586    3.3571   15.4396 C   0  0  2  0  0  0  0  0  0  0  0  0
  -10.8052    3.5978   15.5875 O   0  0  0  0  0  0  0  0  0  0  0  0
   -8.7587    4.6103   14.8417 C   0  0  0  0  0  0  0  0  0  0  0  0
   -9.3553    4.9321   13.5872 O   0  0  0  0  0  0  0  0  0  0  0  0
  1  2  1  1  0  0  0
  1  3  1  0  0  0  0
  1  9  1  0  0  0  0
  3  4  1  1  0  0  0
  3  5  1  0  0  0  0
  5  6  1  0  0  0  0
  6  7  1  1  0  0  0
  6  8  1  0  0  0  0
  8  9  1  0  0  0  0
  8 10  1  6  0  0  0
 10 11  1  0  0  0  0
 12 13  1  6  0  0  0
 12 14  1  0  0  0  0
 12 20  1  0  0  0  0
 14 15  1  0  0  0  0
 15 16  1  1  0  0  0
 15 17  1  0  0  0  0
 17  2  1  1  0  0  0
 17 18  1  0  0  0  0
 18 19  1  6  0  0  0
 18 20  1  0  0  0  0
 20 21  1  6  0  0  0
 22 21  1  1  0  0  0
 22 23  1  0  0  0  0
 22 30  1  0  0  0  0
 23 24  1  1  0  0  0
 23 25  1  0  0  0  0
 25 26  1  6  0  0  0
 25 27  1  0  0  0  0
 27 28  1  1  0  0  0
 27 29  1  0  0  0  0
 29 30  1  0  0  0  0
 29 31  1  6  0  0  0
 31 32  1  0  0  0  0
M  CHG  5   4   1  11   1  13   1  16   1  26   1
M  END
>  <CHROM.1>
154.15479246,-177.94670557,92.01759945,-66.29597866,-26.97087850,71.41530281
-53.88779708,59.79987650,-55.49019893,120.89777424,-155.32444779,-63.24739432
65.93473120,67.50868950,63.08993343,63.26397734,-10.50978046,4.37003778,18.39986317
-1.61572738,-1.02167497,-2.38616530

>  <Name>
1lc4

>  <RI>
0

>  <Rbt.Current_Directory>
/home/afrankz/demos/rdock_decoys_rna/rnas/1lc4

>  <Rbt.Executable>
rbdock ($Id: //depot/dev/client3/rdock/2013.1/src/exe/rbdock.cxx#4 $)

>  <Rbt.Library>
libRbt.so (2013.1, Build901 2013/11/27)

>  <Rbt.Parameter_File>
/export/apps/rDock/src/rDock_2013.1_src/data/scripts/dock_solv.prm

>  <Rbt.Receptor>
prm/blind_docking_100.prm

>  <SCORE>
-44.7657

>  <SCORE.INTER>
-32.6212

>  <SCORE.INTER.CONST>
1

>  <SCORE.INTER.POLAR>
-4.33526

>  <SCORE.INTER.ROT>
6

>  <SCORE.INTER.SOLV>
29.0538

>  <SCORE.INTER.VDW>
-24.5813

>  <SCORE.INTER.norm>
-1.01941

>  <SCORE.INTRA>
-13.6337

>  <SCORE.INTRA.DIHEDRAL>
-25.2842

>  <SCORE.INTRA.DIHEDRAL.0>
44.2576

>  <SCORE.INTRA.POLAR>
0.207339

>  <SCORE.INTRA.POLAR.0>
-0.381556

>  <SCORE.INTRA.REPUL>
0

>  <SCORE.INTRA.REPUL.0>
0

>  <SCORE.INTRA.SOLV>
-0.135726

>  <SCORE.INTRA.SOLV.lig_0>
-134.592

>  <SCORE.INTRA.VDW>
-1.62867

>  <SCORE.INTRA.VDW.0>
-1.01417

>  <SCORE.INTRA.norm>
-0.426052

>  <SCORE.RESTR>
1.48924

>  <SCORE.RESTR.CAVITY>
1.48924

>  <SCORE.RESTR.norm>
0.0465389

>  <SCORE.SYSTEM>
0

>  <SCORE.SYSTEM.CONST>
0

>  <SCORE.SYSTEM.DIHEDRAL>
0

>  <SCORE.SYSTEM.SOLV>
0

>  <SCORE.SYSTEM.norm>
0

>  <SCORE.heavy>
32

>  <SCORE.norm>
-1.39893

>  <RMSD>
6.459

$$$$
1lc4
 OpenBabel02141814113D
libRbt.so/2013.1/901 2013/11/27
 32 34  0  0  0  0  0  0  0  0999 V2000
  -12.0336    5.1689   21.4901 C   0  0  2  0  0  0  0  0  0  0  0  0
  -11.5434    5.6175   20.2513 O   0  0  0  0  0  0  0  0  0  0  0  0
  -10.9426    4.3035   22.1531 C   0  0  2  0  0  0  0  0  0  0  0  0
   -9.7088    5.0778   22.3197 N   0  3  0  0  0  0  0  0  0  0  0  0
  -10.6976    3.0246   21.3182 C   0  0  0  0  0  0  0  0  0  0  0  0
  -12.0328    2.2644   21.2332 C   0  0  2  0  0  0  0  0  0  0  0  0
  -11.8649    1.0399   20.5108 O   0  0  0  0  0  0  0  0  0  0  0  0
  -13.0956    3.1710   20.5639 C   0  0  2  0  0  0  0  0  0  0  0  0
  -13.2500    4.4098   21.3133 O   0  0  0  0  0  0  0  0  0  0  0  0
  -14.4778    2.5282   20.4789 C   0  0  0  0  0  0  0  0  0  0  0  0
  -14.4014    1.1626   19.8967 N   0  3  0  0  0  0  0  0  0  0  0  0
  -12.7831    9.0916   18.1648 C   0  0  2  0  0  0  0  0  0  0  0  0
  -13.5475   10.0356   17.3292 N   0  3  0  0  0  0  0  0  0  0  0  0
  -12.3525    7.8933   17.3300 C   0  0  0  0  0  0  0  0  0  0  0  0
  -11.5594    6.9021   18.1890 C   0  0  2  0  0  0  0  0  0  0  0  0
  -11.0614    5.8144   17.3106 N   0  3  0  0  0  0  0  0  0  0  0  0
  -12.4010    6.4073   19.4032 C   0  0  2  0  0  0  0  0  0  0  0  0
  -12.8908    7.6284   20.2235 C   0  0  2  0  0  0  0  0  0  0  0  0
  -13.7836    7.1940   21.2205 O   0  0  0  0  0  0  0  0  0  0  0  0
  -13.6524    8.6196   19.3286 C   0  0  1  0  0  0  0  0  0  0  0  0
  -14.0544    9.7389   20.1174 O   0  0  0  0  0  0  0  0  0  0  0  0
  -13.1223   10.2600   21.0011 C   0  0  2  0  0  0  0  0  0  0  0  0
  -13.7937   10.4579   22.3709 C   0  0  2  0  0  0  0  0  0  0  0  0
  -14.2684    9.1987   22.8304 O   0  0  0  0  0  0  0  0  0  0  0  0
  -14.9666   11.4437   22.2286 C   0  0  1  0  0  0  0  0  0  0  0  0
  -15.6718   11.6592   23.5249 N   0  3  0  0  0  0  0  0  0  0  0  0
  -14.4397   12.7859   21.6647 C   0  0  2  0  0  0  0  0  0  0  0  0
  -15.5102   13.7127   21.4979 O   0  0  0  0  0  0  0  0  0  0  0  0
  -13.7121   12.5521   20.3277 C   0  0  2  0  0  0  0  0  0  0  0  0
  -12.6575   11.5345   20.4857 O   0  0  0  0  0  0  0  0  0  0  0  0
  -13.0438   13.8083   19.8147 C   0  0  0  0  0  0  0  0  0  0  0  0
  -11.6873   13.8959   20.2456 O   0  0  0  0  0  0  0  0  0  0  0  0
  1  2  1  6  0  0  0
  1  3  1  0  0  0  0
  1  9  1  0  0  0  0
  3  4  1  6  0  0  0
  3  5  1  0  0  0  0
  5  6  1  0  0  0  0
  6  7  1  6  0  0  0
  6  8  1  0  0  0  0
  8  9  1  0  0  0  0
  8 10  1  1  0  0  0
 10 11  1  0  0  0  0
 12 13  1  6  0  0  0
 12 14  1  0  0  0  0
 12 20  1  0  0  0  0
 14 15  1  0  0  0  0
 15 16  1  6  0  0  0
 15 17  1  0  0  0  0
 17  2  1  1  0  0  0
 17 18  1  0  0  0  0
 18 19  1  1  0  0  0
 18 20  1  0  0  0  0
 20 21  1  1  0  0  0
 22 21  1  6  0  0  0
 22 23  1  0  0  0  0
 22 30  1  0  0  0  0
 23 24  1  6  0  0  0
 23 25  1  0  0  0  0
 25 26  1  1  0  0  0
 25 27  1  0  0  0  0
 27 28  1  6  0  0  0
 27 29  1  0  0  0  0
 29 30  1  0  0  0  0
 29 31  1  1  0  0  0
 31 32  1  0  0  0  0
M  CHG  5   4   1  11   1  13   1  16   1  26   1
M  END
>  <CHROM.1>
177.45929848,173.48905864,-44.60244701,-54.72247443,-50.12465949,175.15847034
6.44773447,67.88649672,-53.66078020,-78.38512915,-132.48293934,49.61262758
62.11131749,-178.84838131,92.57962456,-54.84920735,-12.97691970,7.76436029
20.50952386,1.16335108,-1.11120137,2.81378726

>  <Name>
1lc4

>  <RI>
0

>  <Rbt.Current_Directory>
/home/afrankz/demos/rdock_decoys_rna/rnas/1lc4

>  <Rbt.Executable>
rbdock ($Id: //depot/dev/client3/rdock/2013.1/src/exe/rbdock.cxx#4 $)

>  <Rbt.Library>
libRbt.so (2013.1, Build901 2013/11/27)

>  <Rbt.Parameter_File>
/export/apps/rDock/src/rDock_2013.1_src/data/scripts/dock_solv.prm

>  <Rbt.Receptor>
prm/blind_docking_60.prm

>  <SCORE>
-33.0587

>  <SCORE.INTER>
-22.9575

>  <SCORE.INTER.CONST>
1

>  <SCORE.INTER.POLAR>
-3.40163

>  <SCORE.INTER.ROT>
6

>  <SCORE.INTER.SOLV>
22.1383

>  <SCORE.INTER.VDW>
-18.9456

>  <SCORE.INTER.norm>
-0.71742

>  <SCORE.INTRA>
-14.6222

>  <SCORE.INTRA.DIHEDRAL>
-27.2989

>  <SCORE.INTRA.DIHEDRAL.0>
44.2576

>  <SCORE.INTRA.POLAR>
-0.353923

>  <SCORE.INTRA.POLAR.0>
-0.381556

>  <SCORE.INTRA.REPUL>
0

>  <SCORE.INTRA.REPUL.0>
0

>  <SCORE.INTRA.SOLV>
-2.19895

>  <SCORE.INTRA.SOLV.lig_0>
-134.592

>  <SCORE.INTRA.VDW>
1.33007

>  <SCORE.INTRA.VDW.0>
-1.01417

>  <SCORE.INTRA.norm>
-0.456944

>  <SCORE.RESTR>
4.52094

>  <SCORE.RESTR.CAVITY>
4.52094

>  <SCORE.RESTR.norm>
0.141279

>  <SCORE.SYSTEM>
0

>  <SCORE.SYSTEM.CONST>
0

>  <SCORE.SYSTEM.DIHEDRAL>
0

>  <SCORE.SYSTEM.SOLV>
0

>  <SCORE.SYSTEM.norm>
0

>  <SCORE.heavy>
32

>  <SCORE.norm>
-1.03308

>  <RMSD>
6.460

$$$$
1lc4
 OpenBabel02141814113D
libRbt.so/2013.1/901 2013/11/27
 32 34  0  0  0  0  0  0  0  0999 V2000
   -9.1463    6.1876   20.1247 C   0  0  2  0  0  0  0  0  0  0  0  0
   -9.7495    5.1553   20.8640 O   0  0  0  0  0  0  0  0  0  0  0  0
   -8.7001    7.2865   21.1108 C   0  0  2  0  0  0  0  0  0  0  0  0
   -7.7741    6.7345   22.1045 N   0  3  0  0  0  0  0  0  0  0  0  0
   -9.9348    7.9288   21.7858 C   0  0  0  0  0  0  0  0  0  0  0  0
  -10.8214    8.5109   20.6710 C   0  0  2  0  0  0  0  0  0  0  0  0
  -11.9637    9.1661   21.2325 O   0  0  0  0  0  0  0  0  0  0  0  0
  -11.2426    7.3742   19.7067 C   0  0  2  0  0  0  0  0  0  0  0  0
  -10.0671    6.7216   19.1479 O   0  0  0  0  0  0  0  0  0  0  0  0
  -12.0850    7.8564   18.5283 C   0  0  0  0  0  0  0  0  0  0  0  0
  -12.3359    9.3194   18.6089 N   0  3  0  0  0  0  0  0  0  0  0  0
  -12.1224    1.8758   19.6094 C   0  0  2  0  0  0  0  0  0  0  0  0
  -13.2303    1.0588   19.0812 N   0  3  0  0  0  0  0  0  0  0  0  0
  -12.5852    2.6401   20.8422 C   0  0  0  0  0  0  0  0  0  0  0  0
  -11.4425    3.4967   21.3989 C   0  0  2  0  0  0  0  0  0  0  0  0
  -11.9017    4.1275   22.6614 N   0  3  0  0  0  0  0  0  0  0  0  0
  -10.9225    4.5067   20.3327 C   0  0  2  0  0  0  0  0  0  0  0  0
  -10.5048    3.7371   19.0533 C   0  0  2  0  0  0  0  0  0  0  0  0
  -10.1920    4.6572   18.0356 O   0  0  0  0  0  0  0  0  0  0  0  0
  -11.6593    2.8620   18.5389 C   0  0  1  0  0  0  0  0  0  0  0  0
  -11.2195    2.1501   17.3829 O   0  0  0  0  0  0  0  0  0  0  0  0
  -11.8513    2.4363   16.1828 C   0  0  2  0  0  0  0  0  0  0  0  0
  -11.6613    1.2469   15.2260 C   0  0  2  0  0  0  0  0  0  0  0  0
  -12.2269    0.0876   15.8244 O   0  0  0  0  0  0  0  0  0  0  0  0
  -10.1595    1.0295   14.9712 C   0  0  1  0  0  0  0  0  0  0  0  0
   -9.9114   -0.1280   14.0642 N   0  3  0  0  0  0  0  0  0  0  0  0
   -9.5490    2.3246   14.3820 C   0  0  2  0  0  0  0  0  0  0  0  0
   -8.1503    2.1614   14.1585 O   0  0  0  0  0  0  0  0  0  0  0  0
   -9.8120    3.5135   15.3248 C   0  0  2  0  0  0  0  0  0  0  0  0
  -11.2519    3.6309   15.6173 O   0  0  0  0  0  0  0  0  0  0  0  0
   -9.3728    4.8287   14.7205 C   0  0  0  0  0  0  0  0  0  0  0  0
   -8.0886    5.2239   15.1978 O   0  0  0  0  0  0  0  0  0  0  0  0
  1  2  1  1  0  0  0
  1  3  1  0  0  0  0
  1  9  1  0  0  0  0
  3  4  1  1  0  0  0
  3  5  1  0  0  0  0
  5  6  1  0  0  0  0
  6  7  1  1  0  0  0
  6  8  1  0  0  0  0
  8  9  1  0  0  0  0
  8 10  1  6  0  0  0
 10 11  1  0  0  0  0
 12 13  1  6  0  0  0
 12 14  1  0  0  0  0
 12 20  1  0  0  0  0
 14 15  1  0  0  0  0
 15 16  1  1  0  0  0
 15 17  1  0  0  0  0
 17  2  1  1  0  0  0
 17 18  1  0  0  0  0
 18 19  1  6  0  0  0
 18 20  1  0  0  0  0
 20 21  1  6  0  0  0
 22 21  1  1  0  0  0
 22 23  1  0  0  0  0
 22 30  1  0  0  0  0
 23 24  1  1  0  0  0
 23 25  1  0  0  0  0
 25 26  1  6  0  0  0
 25 27  1  0  0  0  0
 27 28  1  1  0  0  0
 27 29  1  0  0  0  0
 29 30  1  0  0  0  0
 29 31  1  6  0  0  0
 31 32  1  0  0  0  0
M  CHG  5   4   1  11   1  13   1  16   1  26   1
M  END
>  <CHROM.1>
140.41809315,-175.43262155,177.64292673,-47.82144625,-1.60369254,76.96566862
33.08236995,164.76892723,144.81851441,122.27850918,-157.94431564,-59.41923422
65.96028230,-55.57207888,-98.41428505,63.56594898,-10.66471892,4.36365938
18.31697006,-1.60207977,-1.05285720,-2.38844941

>  <Name>
1lc4

>  <RI>
0

>  <Rbt.Current_Directory>
/home/afrankz/demos/rdock_decoys_rna/rnas/1lc4

>  <Rbt.Executable>
rbdock ($Id: //depot/dev/client3/rdock/2013.1/src/exe/rbdock.cxx#4 $)

>  <Rbt.Library>
libRbt.so (2013.1, Build901 2013/11/27)

>  <Rbt.Parameter_File>
/export/apps/rDock/src/rDock_2013.1_src/data/scripts/dock_solv.prm

>  <Rbt.Receptor>
prm/pocket_docking_7.prm

>  <SCORE>
-53.1635

>  <SCORE.INTER>
-47.1486

>  <SCORE.INTER.CONST>
1

>  <SCORE.INTER.POLAR>
-6.98814

>  <SCORE.INTER.ROT>
6

>  <SCORE.INTER.SOLV>
27.5561

>  <SCORE.INTER.VDW>
-24.924

>  <SCORE.INTER.norm>
-1.47339

>  <SCORE.INTRA>
-6.11826

>  <SCORE.INTRA.DIHEDRAL>
-12.1733

>  <SCORE.INTRA.DIHEDRAL.0>
44.2576

>  <SCORE.INTRA.POLAR>
-0.4027

>  <SCORE.INTRA.POLAR.0>
-0.381556

>  <SCORE.INTRA.REPUL>
0.0152457

>  <SCORE.INTRA.REPUL.0>
0

>  <SCORE.INTRA.SOLV>
-0.175875

>  <SCORE.INTRA.SOLV.lig_0>
-134.592

>  <SCORE.INTRA.VDW>
1.34928

>  <SCORE.INTRA.VDW.0>
-1.01417

>  <SCORE.INTRA.norm>
-0.191196

>  <SCORE.RESTR>
0.103324

>  <SCORE.RESTR.CAVITY>
0.103324

>  <SCORE.RESTR.norm>
0.00322889

>  <SCORE.SYSTEM>
0

>  <SCORE.SYSTEM.CONST>
0

>  <SCORE.SYSTEM.DIHEDRAL>
0

>  <SCORE.SYSTEM.SOLV>
0

>  <SCORE.SYSTEM.norm>
0

>  <SCORE.heavy>
32

>  <SCORE.norm>
-1.66136

>  <RMSD>
6.462

$$$$
1lc4
 OpenBabel02141814113D
libRbt.so/2013.1/901 2013/11/27
 32 34  0  0  0  0  0  0  0  0999 V2000
   -9.5537    7.4330   20.0871 C   0  0  2  0  0  0  0  0  0  0  0  0
  -10.0199    6.2160   20.6140 O   0  0  0  0  0  0  0  0  0  0  0  0
   -9.0820    8.3150   21.2612 C   0  0  2  0  0  0  0  0  0  0  0  0
   -8.0333    7.6306   22.0237 N   0  3  0  0  0  0  0  0  0  0  0  0
  -10.2825    8.6878   22.1624 C   0  0  0  0  0  0  0  0  0  0  0  0
  -11.3056    9.4318   21.2863 C   0  0  2  0  0  0  0  0  0  0  0  0
  -12.4260    9.8501   22.0730 O   0  0  0  0  0  0  0  0  0  0  0  0
  -11.7482    8.5103   20.1225 C   0  0  2  0  0  0  0  0  0  0  0  0
  -10.5945    8.0965   19.3364 O   0  0  0  0  0  0  0  0  0  0  0  0
  -12.7273    9.1751   19.1581 C   0  0  0  0  0  0  0  0  0  0  0  0
  -12.4196   10.6196   18.9894 N   0  3  0  0  0  0  0  0  0  0  0  0
  -11.1102    2.6194   18.6556 C   0  0  2  0  0  0  0  0  0  0  0  0
  -11.8227    1.6203   17.8383 N   0  3  0  0  0  0  0  0  0  0  0  0
  -12.0081    3.0960   19.7891 C   0  0  0  0  0  0  0  0  0  0  0  0
  -11.2795    4.1385   20.6444 C   0  0  2  0  0  0  0  0  0  0  0  0
  -12.1444    4.4843   21.7998 N   0  3  0  0  0  0  0  0  0  0  0  0
  -10.8381    5.3631   19.7883 C   0  0  2  0  0  0  0  0  0  0  0  0
   -9.9714    4.8756   18.5988 C   0  0  2  0  0  0  0  0  0  0  0  0
   -9.7109    5.9566   17.7364 O   0  0  0  0  0  0  0  0  0  0  0  0
  -10.7151    3.8074   17.7807 C   0  0  1  0  0  0  0  0  0  0  0  0
   -9.8688    3.3665   16.7195 O   0  0  0  0  0  0  0  0  0  0  0  0
  -10.4136    3.3337   15.4453 C   0  0  2  0  0  0  0  0  0  0  0  0
   -9.7481    2.1973   14.6503 C   0  0  2  0  0  0  0  0  0  0  0  0
   -9.9859    0.9695   15.3272 O   0  0  0  0  0  0  0  0  0  0  0  0
   -8.2353    2.4600   14.5503 C   0  0  1  0  0  0  0  0  0  0  0  0
   -7.5310    1.3764   13.8059 N   0  3  0  0  0  0  0  0  0  0  0  0
   -7.9990    3.8309   13.8708 C   0  0  2  0  0  0  0  0  0  0  0  0
   -6.6041    4.1137   13.7869 O   0  0  0  0  0  0  0  0  0  0  0  0
   -8.7315    4.9420   14.6459 C   0  0  2  0  0  0  0  0  0  0  0  0
  -10.1589    4.6083   14.7998 O   0  0  0  0  0  0  0  0  0  0  0  0
   -8.6612    6.2751   13.9346 C   0  0  0  0  0  0  0  0  0  0  0  0
   -8.1957    6.1322   12.5944 O   0  0  0  0  0  0  0  0  0  0  0  0
  1  2  1  1  0  0  0
  1  3  1  0  0  0  0
  1  9  1  0  0  0  0
  3  4  1  1  0  0  0
  3  5  1  0  0  0  0
  5  6  1  0  0  0  0
  6  7  1  1  0  0  0
  6  8  1  0  0  0  0
  8  9  1  0  0  0  0
  8 10  1  6  0  0  0
 10 11  1  0  0  0  0
 12 13  1  6  0  0  0
 12 14  1  0  0  0  0
 12 20  1  0  0  0  0
 14 15  1  0  0  0  0
 15 16  1  1  0  0  0
 15 17  1  0  0  0  0
 17  2  1  1  0  0  0
 17 18  1  0  0  0  0
 18 19  1  6  0  0  0
 18 20  1  0  0  0  0
 20 21  1  6  0  0  0
 22 21  1  1  0  0  0
 22 23  1  0  0  0  0
 22 30  1  0  0  0  0
 23 24  1  1  0  0  0
 23 25  1  0  0  0  0
 25 26  1  6  0  0  0
 25 27  1  0  0  0  0
 27 28  1  1  0  0  0
 27 29  1  0  0  0  0
 29 30  1  0  0  0  0
 29 31  1  6  0  0  0
 31 32  1  0  0  0  0
M  CHG  5   4   1  11   1  13   1  16   1  26   1
M  END
>  <CHROM.1>
163.53714060,-176.61855858,-140.53367540,166.88352025,35.44787170,149.35563421
-64.41611412,-66.45076247,-26.40277300,107.47855098,-149.00450780,-175.72712805
-119.32377491,-37.26918537,12.74788000,-56.70443042,-10.10869908,5.42405718
17.91100503,-2.24118605,-1.12128381,-2.86870437

>  <Name>
1lc4

>  <RI>
0

>  <Rbt.Current_Directory>
/home/afrankz/demos/rdock_decoys_rna/rnas/1lc4

>  <Rbt.Executable>
rbdock ($Id: //depot/dev/client3/rdock/2013.1/src/exe/rbdock.cxx#4 $)

>  <Rbt.Library>
libRbt.so (2013.1, Build901 2013/11/27)

>  <Rbt.Parameter_File>
/export/apps/rDock/src/rDock_2013.1_src/data/scripts/dock_solv.prm

>  <Rbt.Receptor>
prm/blind_docking_100.prm

>  <SCORE>
-33.1836

>  <SCORE.INTER>
-23.4269

>  <SCORE.INTER.CONST>
1

>  <SCORE.INTER.POLAR>
-3.88247

>  <SCORE.INTER.ROT>
6

>  <SCORE.INTER.SOLV>
25.9977

>  <SCORE.INTER.VDW>
-18.9423

>  <SCORE.INTER.norm>
-0.732091

>  <SCORE.INTRA>
-11.0089

>  <SCORE.INTRA.DIHEDRAL>
-10.3112

>  <SCORE.INTRA.DIHEDRAL.0>
44.2576

>  <SCORE.INTRA.POLAR>
-1.93359

>  <SCORE.INTRA.POLAR.0>
-0.381556

>  <SCORE.INTRA.REPUL>
0

>  <SCORE.INTRA.REPUL.0>
0

>  <SCORE.INTRA.SOLV>
0.0198215

>  <SCORE.INTRA.SOLV.lig_0>
-134.592

>  <SCORE.INTRA.VDW>
0.711059

>  <SCORE.INTRA.VDW.0>
-1.01417

>  <SCORE.INTRA.norm>
-0.344027

>  <SCORE.RESTR>
1.25217

>  <SCORE.RESTR.CAVITY>
1.25217

>  <SCORE.RESTR.norm>
0.0391302

>  <SCORE.SYSTEM>
0

>  <SCORE.SYSTEM.CONST>
0

>  <SCORE.SYSTEM.DIHEDRAL>
0

>  <SCORE.SYSTEM.SOLV>
0

>  <SCORE.SYSTEM.norm>
0

>  <SCORE.heavy>
32

>  <SCORE.norm>
-1.03699

>  <RMSD>
6.477

$$$$
1lc4
 OpenBabel02141814113D
libRbt.so/2013.1/901 2013/11/27
 32 34  0  0  0  0  0  0  0  0999 V2000
   -9.0059    6.2723   20.3737 C   0  0  2  0  0  0  0  0  0  0  0  0
   -9.6977    5.2835   21.0945 O   0  0  0  0  0  0  0  0  0  0  0  0
   -8.4327    7.2887   21.3823 C   0  0  2  0  0  0  0  0  0  0  0  0
   -7.5501    6.6148   22.3395 N   0  3  0  0  0  0  0  0  0  0  0  0
   -9.5834    8.0310   22.1017 C   0  0  0  0  0  0  0  0  0  0  0  0
  -10.4259    8.7347   21.0235 C   0  0  2  0  0  0  0  0  0  0  0  0
  -11.4854    9.4840   21.6280 O   0  0  0  0  0  0  0  0  0  0  0  0
  -10.9778    7.6775   20.0349 C   0  0  2  0  0  0  0  0  0  0  0  0
   -9.8849    6.9272   19.4326 O   0  0  0  0  0  0  0  0  0  0  0  0
  -11.7876    8.2794   18.8893 C   0  0  0  0  0  0  0  0  0  0  0  0
  -11.8492    7.3525   17.7287 N   0  3  0  0  0  0  0  0  0  0  0  0
  -11.8546    1.9614   19.5872 C   0  0  2  0  0  0  0  0  0  0  0  0
  -12.8939    1.1216   18.9640 N   0  3  0  0  0  0  0  0  0  0  0  0
  -12.4233    2.6644   20.8123 C   0  0  0  0  0  0  0  0  0  0  0  0
  -11.3527    3.5440   21.4675 C   0  0  2  0  0  0  0  0  0  0  0  0
  -11.9142    4.1129   22.7180 N   0  3  0  0  0  0  0  0  0  0  0  0
  -10.8085    4.6095   20.4694 C   0  0  2  0  0  0  0  0  0  0  0  0
  -10.2817    3.9011   19.1949 C   0  0  2  0  0  0  0  0  0  0  0  0
   -9.9436    4.8672   18.2292 O   0  0  0  0  0  0  0  0  0  0  0  0
  -11.3660    3.0011   18.5806 C   0  0  1  0  0  0  0  0  0  0  0  0
  -10.8270    2.3469   17.4324 O   0  0  0  0  0  0  0  0  0  0  0  0
  -11.4460    2.5878   16.2158 C   0  0  2  0  0  0  0  0  0  0  0  0
  -11.3622    1.3152   15.3558 C   0  0  2  0  0  0  0  0  0  0  0  0
  -12.0131    0.2563   16.0465 O   0  0  0  0  0  0  0  0  0  0  0  0
   -9.8854    0.9574   15.1133 C   0  0  1  0  0  0  0  0  0  0  0  0
   -9.7406   -0.2844   14.3002 N   0  3  0  0  0  0  0  0  0  0  0  0
   -9.1787    2.1481   14.4208 C   0  0  2  0  0  0  0  0  0  0  0  0
   -7.8001    1.8550   14.2057 O   0  0  0  0  0  0  0  0  0  0  0  0
   -9.3355    3.4251   15.2672 C   0  0  2  0  0  0  0  0  0  0  0  0
  -10.7582    3.6816   15.5549 O   0  0  0  0  0  0  0  0  0  0  0  0
   -8.7981    4.6487   14.5587 C   0  0  0  0  0  0  0  0  0  0  0  0
   -9.5594    4.9584   13.3934 O   0  0  0  0  0  0  0  0  0  0  0  0
  1  2  1  1  0  0  0
  1  3  1  0  0  0  0
  1  9  1  0  0  0  0
  3  4  1  1  0  0  0
  3  5  1  0  0  0  0
  5  6  1  0  0  0  0
  6  7  1  1  0  0  0
  6  8  1  0  0  0  0
  8  9  1  0  0  0  0
  8 10  1  6  0  0  0
 10 11  1  0  0  0  0
 12 13  1  6  0  0  0
 12 14  1  0  0  0  0
 12 20  1  0  0  0  0
 14 15  1  0  0  0  0
 15 16  1  1  0  0  0
 15 17  1  0  0  0  0
 17  2  1  1  0  0  0
 17 18  1  0  0  0  0
 18 19  1  6  0  0  0
 18 20  1  0  0  0  0
 20 21  1  6  0  0  0
 22 21  1  1  0  0  0
 22 23  1  0  0  0  0
 22 30  1  0  0  0  0
 23 24  1  1  0  0  0
 23 25  1  0  0  0  0
 25 26  1  6  0  0  0
 25 27  1  0  0  0  0
 27 28  1  1  0  0  0
 27 29  1  0  0  0  0
 29 30  1  0  0  0  0
 29 31  1  6  0  0  0
 31 32  1  0  0  0  0
M  CHG  5   4   1  11   1  13   1  16   1  26   1
M  END
>  <CHROM.1>
151.01978090,178.20266801,-55.44685539,176.25667853,158.28381665,-14.88922392
-80.97993761,-78.50277962,95.73828383,118.47137537,-146.52342869,-179.93092631
175.26628385,-63.78888330,65.73713281,177.54244410,-10.44301219,4.35009402
18.34149135,-1.60244206,-1.11923372,-2.32687544

>  <Name>
1lc4

>  <RI>
0

>  <Rbt.Current_Directory>
/home/afrankz/demos/rdock_decoys_rna/rnas/1lc4

>  <Rbt.Executable>
rbdock ($Id: //depot/dev/client3/rdock/2013.1/src/exe/rbdock.cxx#4 $)

>  <Rbt.Library>
libRbt.so (2013.1, Build901 2013/11/27)

>  <Rbt.Parameter_File>
/export/apps/rDock/src/rDock_2013.1_src/data/scripts/dock_solv.prm

>  <Rbt.Receptor>
prm/blind_docking_100.prm

>  <SCORE>
-54.2291

>  <SCORE.INTER>
-39.5984

>  <SCORE.INTER.CONST>
1

>  <SCORE.INTER.POLAR>
-5.36224

>  <SCORE.INTER.ROT>
6

>  <SCORE.INTER.SOLV>
28.1601

>  <SCORE.INTER.VDW>
-25.5115

>  <SCORE.INTER.norm>
-1.23745

>  <SCORE.INTRA>
-18.009

>  <SCORE.INTRA.DIHEDRAL>
-17.9017

>  <SCORE.INTRA.DIHEDRAL.0>
44.2576

>  <SCORE.INTRA.POLAR>
-2.25867

>  <SCORE.INTRA.POLAR.0>
-0.381556

>  <SCORE.INTRA.REPUL>
0

>  <SCORE.INTRA.REPUL.0>
0

>  <SCORE.INTRA.SOLV>
-0.461762

>  <SCORE.INTRA.SOLV.lig_0>
-134.592

>  <SCORE.INTRA.VDW>
-1.14777

>  <SCORE.INTRA.VDW.0>
-1.01417

>  <SCORE.INTRA.norm>
-0.56278

>  <SCORE.RESTR>
3.3782

>  <SCORE.RESTR.CAVITY>
3.3782

>  <SCORE.RESTR.norm>
0.105569

>  <SCORE.SYSTEM>
0

>  <SCORE.SYSTEM.CONST>
0

>  <SCORE.SYSTEM.DIHEDRAL>
0

>  <SCORE.SYSTEM.SOLV>
0

>  <SCORE.SYSTEM.norm>
0

>  <SCORE.heavy>
32

>  <SCORE.norm>
-1.69466

>  <RMSD>
6.496

$$$$
1lc4
 OpenBabel02141814113D
libRbt.so/2013.1/901 2013/11/27
 32 34  0  0  0  0  0  0  0  0999 V2000
  -13.3021    2.0762   21.0302 C   0  0  2  0  0  0  0  0  0  0  0  0
  -14.0242    3.2107   20.6210 O   0  0  0  0  0  0  0  0  0  0  0  0
  -12.2128    1.7944   19.9753 C   0  0  2  0  0  0  0  0  0  0  0  0
  -11.3333    2.9581   19.8272 N   0  3  0  0  0  0  0  0  0  0  0  0
  -12.8650    1.4051   18.6279 C   0  0  0  0  0  0  0  0  0  0  0  0
  -13.7319    0.1583   18.8763 C   0  0  2  0  0  0  0  0  0  0  0  0
  -14.3295   -0.2860   17.6537 O   0  0  0  0  0  0  0  0  0  0  0  0
  -14.8078    0.4874   19.9410 C   0  0  2  0  0  0  0  0  0  0  0  0
  -14.1792    0.9374   21.1749 O   0  0  0  0  0  0  0  0  0  0  0  0
  -15.6919   -0.7038   20.3018 C   0  0  0  0  0  0  0  0  0  0  0  0
  -16.5170   -0.4169   21.5045 N   0  3  0  0  0  0  0  0  0  0  0  0
  -14.8310    7.1980   21.8085 C   0  0  2  0  0  0  0  0  0  0  0  0
  -14.7046    8.5498   22.3834 N   0  3  0  0  0  0  0  0  0  0  0  0
  -14.7076    6.1538   22.9098 C   0  0  0  0  0  0  0  0  0  0  0  0
  -14.8337    4.7432   22.3239 C   0  0  2  0  0  0  0  0  0  0  0  0
  -14.8267    3.7684   23.4430 N   0  3  0  0  0  0  0  0  0  0  0  0
  -13.7434    4.4811   21.2421 C   0  0  2  0  0  0  0  0  0  0  0  0
  -13.8279    5.5768   20.1484 C   0  0  2  0  0  0  0  0  0  0  0  0
  -12.7435    5.4373   19.2625 O   0  0  0  0  0  0  0  0  0  0  0  0
  -13.7326    6.9797   20.7699 C   0  0  1  0  0  0  0  0  0  0  0  0
  -13.8472    7.9529   19.7324 O   0  0  0  0  0  0  0  0  0  0  0  0
  -12.6751    8.3705   19.1217 C   0  0  2  0  0  0  0  0  0  0  0  0
  -12.0793    9.5331   19.9339 C   0  0  2  0  0  0  0  0  0  0  0  0
  -11.8191    9.0775   21.2556 O   0  0  0  0  0  0  0  0  0  0  0  0
  -13.0804   10.7012   19.9662 C   0  0  1  0  0  0  0  0  0  0  0  0
  -12.5647   11.8533   20.7604 N   0  3  0  0  0  0  0  0  0  0  0  0
  -13.4014   11.1386   18.5161 C   0  0  2  0  0  0  0  0  0  0  0  0
  -14.3477   12.2049   18.5134 O   0  0  0  0  0  0  0  0  0  0  0  0
  -13.9312    9.9418   17.7045 C   0  0  2  0  0  0  0  0  0  0  0  0
  -12.9867    8.8124   17.7749 O   0  0  0  0  0  0  0  0  0  0  0  0
  -14.1110   10.2798   16.2412 C   0  0  0  0  0  0  0  0  0  0  0  0
  -14.9078    9.3058   15.5705 O   0  0  0  0  0  0  0  0  0  0  0  0
  1  2  1  6  0  0  0
  1  3  1  0  0  0  0
  1  9  1  0  0  0  0
  3  4  1  6  0  0  0
  3  5  1  0  0  0  0
  5  6  1  0  0  0  0
  6  7  1  6  0  0  0
  6  8  1  0  0  0  0
  8  9  1  0  0  0  0
  8 10  1  1  0  0  0
 10 11  1  0  0  0  0
 12 13  1  1  0  0  0
 12 14  1  0  0  0  0
 12 20  1  0  0  0  0
 14 15  1  0  0  0  0
 15 16  1  1  0  0  0
 15 17  1  0  0  0  0
 17  2  1  6  0  0  0
 17 18  1  0  0  0  0
 18 19  1  6  0  0  0
 18 20  1  0  0  0  0
 20 21  1  6  0  0  0
 22 21  1  1  0  0  0
 22 23  1  0  0  0  0
 22 30  1  0  0  0  0
 23 24  1  1  0  0  0
 23 25  1  0  0  0  0
 25 26  1  1  0  0  0
 25 27  1  0  0  0  0
 27 28  1  1  0  0  0
 27 29  1  0  0  0  0
 29 30  1  0  0  0  0
 29 31  1  6  0  0  0
 31 32  1  0  0  0  0
M  CHG  5   4   1  11   1  13   1  16   1  26   1
M  END
>  <CHROM.1>
-101.59804934,-99.84059584,176.57697655,-55.66181927,168.71088785,70.86045009
-157.93428000,14.58088922,170.35761268,148.02160629,-86.78186479,-177.80986160
152.49818773,79.88146106,-165.07020713,-56.51082705,-13.77724668,5.76621601
19.96800088,2.40264328,-1.44557512,-2.44653190

>  <Name>
1lc4

>  <RI>
0

>  <Rbt.Current_Directory>
/home/afrankz/demos/rdock_decoys_rna/rnas/1lc4

>  <Rbt.Executable>
rbdock ($Id: //depot/dev/client3/rdock/2013.1/src/exe/rbdock.cxx#4 $)

>  <Rbt.Library>
libRbt.so (2013.1, Build901 2013/11/27)

>  <Rbt.Parameter_File>
/export/apps/rDock/src/rDock_2013.1_src/data/scripts/dock_solv.prm

>  <Rbt.Receptor>
prm/blind_docking_60.prm

>  <SCORE>
-26.6779

>  <SCORE.INTER>
-18.3276

>  <SCORE.INTER.CONST>
1

>  <SCORE.INTER.POLAR>
-3.69281

>  <SCORE.INTER.ROT>
6

>  <SCORE.INTER.SOLV>
21.6065

>  <SCORE.INTER.VDW>
-14.7112

>  <SCORE.INTER.norm>
-0.572737

>  <SCORE.INTRA>
-14.6311

>  <SCORE.INTRA.DIHEDRAL>
-16.5852

>  <SCORE.INTRA.DIHEDRAL.0>
44.2576

>  <SCORE.INTRA.POLAR>
-1.40241

>  <SCORE.INTRA.POLAR.0>
-0.381556

>  <SCORE.INTRA.REPUL>
0

>  <SCORE.INTRA.REPUL.0>
0

>  <SCORE.INTRA.SOLV>
1.89962

>  <SCORE.INTRA.SOLV.lig_0>
-134.592

>  <SCORE.INTRA.VDW>
-2.52013

>  <SCORE.INTRA.VDW.0>
-1.01417

>  <SCORE.INTRA.norm>
-0.457223

>  <SCORE.RESTR>
6.28079

>  <SCORE.RESTR.CAVITY>
6.28079

>  <SCORE.RESTR.norm>
0.196275

>  <SCORE.SYSTEM>
0

>  <SCORE.SYSTEM.CONST>
0

>  <SCORE.SYSTEM.DIHEDRAL>
0

>  <SCORE.SYSTEM.SOLV>
0

>  <SCORE.SYSTEM.norm>
0

>  <SCORE.heavy>
32

>  <SCORE.norm>
-0.833685

>  <RMSD>
6.521

$$$$
1lc4
 OpenBabel02141814113D
libRbt.so/2013.1/901 2013/11/27
 32 34  0  0  0  0  0  0  0  0999 V2000
   -9.0365    6.2476   20.2727 C   0  0  2  0  0  0  0  0  0  0  0  0
   -9.7151    5.2353   20.9734 O   0  0  0  0  0  0  0  0  0  0  0  0
   -8.3770    7.1858   21.3040 C   0  0  2  0  0  0  0  0  0  0  0  0
   -7.4616    6.4324   22.1666 N   0  3  0  0  0  0  0  0  0  0  0  0
   -9.4624    7.9130   22.1322 C   0  0  0  0  0  0  0  0  0  0  0  0
  -10.3438    8.7024   21.1485 C   0  0  2  0  0  0  0  0  0  0  0  0
  -11.3445    9.4411   21.8571 O   0  0  0  0  0  0  0  0  0  0  0  0
  -10.9821    7.7217   20.1335 C   0  0  2  0  0  0  0  0  0  0  0  0
   -9.9480    6.9809   19.4250 O   0  0  0  0  0  0  0  0  0  0  0  0
  -11.8378    8.4126   19.0747 C   0  0  0  0  0  0  0  0  0  0  0  0
  -12.2614    7.4573   18.0176 N   0  3  0  0  0  0  0  0  0  0  0  0
  -11.8569    1.9080   19.4564 C   0  0  2  0  0  0  0  0  0  0  0  0
  -12.8882    1.0665   18.8223 N   0  3  0  0  0  0  0  0  0  0  0  0
  -12.4439    2.6225   20.6660 C   0  0  0  0  0  0  0  0  0  0  0  0
  -11.3817    3.5041   21.3322 C   0  0  2  0  0  0  0  0  0  0  0  0
  -11.9624    4.0847   22.5684 N   0  3  0  0  0  0  0  0  0  0  0  0
  -10.8173    4.5598   20.3351 C   0  0  2  0  0  0  0  0  0  0  0  0
  -10.2713    3.8397   19.0753 C   0  0  2  0  0  0  0  0  0  0  0  0
   -9.9138    4.7969   18.1078 O   0  0  0  0  0  0  0  0  0  0  0  0
  -11.3480    2.9380   18.4499 C   0  0  1  0  0  0  0  0  0  0  0  0
  -10.7918    2.2730   17.3162 O   0  0  0  0  0  0  0  0  0  0  0  0
  -11.4059    2.4850   16.0918 C   0  0  2  0  0  0  0  0  0  0  0  0
  -11.3081    1.1960   15.2579 C   0  0  2  0  0  0  0  0  0  0  0  0
  -11.9551    0.1465   15.9663 O   0  0  0  0  0  0  0  0  0  0  0  0
   -9.8274    0.8443   15.0306 C   0  0  1  0  0  0  0  0  0  0  0  0
   -9.6692   -0.4124   14.2433 N   0  3  0  0  0  0  0  0  0  0  0  0
   -9.1256    2.0262   14.3180 C   0  0  2  0  0  0  0  0  0  0  0  0
   -7.7437    1.7389   14.1163 O   0  0  0  0  0  0  0  0  0  0  0  0
   -9.2963    3.3186   15.1378 C   0  0  2  0  0  0  0  0  0  0  0  0
  -10.7224    3.5703   15.4128 O   0  0  0  0  0  0  0  0  0  0  0  0
   -8.7639    4.5317   14.4078 C   0  0  0  0  0  0  0  0  0  0  0  0
   -9.5331    4.8242   13.2433 O   0  0  0  0  0  0  0  0  0  0  0  0
  1  2  1  1  0  0  0
  1  3  1  0  0  0  0
  1  9  1  0  0  0  0
  3  4  1  1  0  0  0
  3  5  1  0  0  0  0
  5  6  1  0  0  0  0
  6  7  1  1  0  0  0
  6  8  1  0  0  0  0
  8  9  1  0  0  0  0
  8 10  1  6  0  0  0
 10 11  1  0  0  0  0
 12 13  1  6  0  0  0
 12 14  1  0  0  0  0
 12 20  1  0  0  0  0
 14 15  1  0  0  0  0
 15 16  1  1  0  0  0
 15 17  1  0  0  0  0
 17  2  1  1  0  0  0
 17 18  1  0  0  0  0
 18 19  1  6  0  0  0
 18 20  1  0  0  0  0
 20 21  1  6  0  0  0
 22 21  1  1  0  0  0
 22 23  1  0  0  0  0
 22 30  1  0  0  0  0
 23 24  1  1  0  0  0
 23 25  1  0  0  0  0
 25 26  1  6  0  0  0
 25 27  1  0  0  0  0
 27 28  1  1  0  0  0
 27 29  1  0  0  0  0
 29 30  1  0  0  0  0
 29 31  1  6  0  0  0
 31 32  1  0  0  0  0
M  CHG  5   4   1  11   1  13   1  16   1  26   1
M  END
>  <CHROM.1>
155.65046030,-179.68221565,-160.81109862,176.14318563,171.72840074,-57.51142397
163.66347126,46.76924614,170.08315473,117.20951696,-146.05931668,178.34400783
175.99330399,-55.90591923,66.60123604,-57.85437707,-10.43348366,4.28094558
18.27647684,-1.62100668,-1.08787934,-2.34758986

>  <Name>
1lc4

>  <RI>
0

>  <Rbt.Current_Directory>
/home/afrankz/demos/rdock_decoys_rna/rnas/1lc4

>  <Rbt.Executable>
rbdock ($Id: //depot/dev/client3/rdock/2013.1/src/exe/rbdock.cxx#4 $)

>  <Rbt.Library>
libRbt.so (2013.1, Build901 2013/11/27)

>  <Rbt.Parameter_File>
/export/apps/rDock/src/rDock_2013.1_src/data/scripts/dock_solv.prm

>  <Rbt.Receptor>
prm/blind_docking_100.prm

>  <SCORE>
-54.2236

>  <SCORE.INTER>
-38.1119

>  <SCORE.INTER.CONST>
1

>  <SCORE.INTER.POLAR>
-5.3696

>  <SCORE.INTER.ROT>
6

>  <SCORE.INTER.SOLV>
27.9777

>  <SCORE.INTER.VDW>
-24.4351

>  <SCORE.INTER.norm>
-1.191

>  <SCORE.INTRA>
-19.5374

>  <SCORE.INTRA.DIHEDRAL>
-27.1419

>  <SCORE.INTRA.DIHEDRAL.0>
44.2576

>  <SCORE.INTRA.POLAR>
-0.862716

>  <SCORE.INTRA.POLAR.0>
-0.381556

>  <SCORE.INTRA.REPUL>
0.0301959

>  <SCORE.INTRA.REPUL.0>
0

>  <SCORE.INTRA.SOLV>
-1.51974

>  <SCORE.INTRA.SOLV.lig_0>
-134.592

>  <SCORE.INTRA.VDW>
-2.42429

>  <SCORE.INTRA.VDW.0>
-1.01417

>  <SCORE.INTRA.norm>
-0.610543

>  <SCORE.RESTR>
3.42564

>  <SCORE.RESTR.CAVITY>
3.42564

>  <SCORE.RESTR.norm>
0.107051

>  <SCORE.SYSTEM>
0

>  <SCORE.SYSTEM.CONST>
0

>  <SCORE.SYSTEM.DIHEDRAL>
0

>  <SCORE.SYSTEM.SOLV>
0

>  <SCORE.SYSTEM.norm>
0

>  <SCORE.heavy>
32

>  <SCORE.norm>
-1.69449

>  <RMSD>
6.538

$$$$
1lc4
 OpenBabel02141814113D
libRbt.so/2013.1/901 2013/11/27
 32 34  0  0  0  0  0  0  0  0999 V2000
   -9.0768    6.2647   20.2884 C   0  0  2  0  0  0  0  0  0  0  0  0
   -9.7691    5.2656   20.9945 O   0  0  0  0  0  0  0  0  0  0  0  0
   -8.4584    7.2365   21.3141 C   0  0  2  0  0  0  0  0  0  0  0  0
   -7.5650    6.5150   22.2257 N   0  3  0  0  0  0  0  0  0  0  0  0
   -9.5757    7.9759   22.0871 C   0  0  0  0  0  0  0  0  0  0  0  0
  -10.4316    8.7303   21.0547 C   0  0  2  0  0  0  0  0  0  0  0  0
  -11.4606    9.4788   21.7106 O   0  0  0  0  0  0  0  0  0  0  0  0
  -11.0289    7.7167   20.0470 C   0  0  2  0  0  0  0  0  0  0  0  0
   -9.9665    6.9665   19.3924 O   0  0  0  0  0  0  0  0  0  0  0  0
  -11.8558    8.3710   18.9430 C   0  0  0  0  0  0  0  0  0  0  0  0
  -12.9881    9.1505   19.5088 N   0  3  0  0  0  0  0  0  0  0  0  0
  -11.8735    1.9180   19.4696 C   0  0  2  0  0  0  0  0  0  0  0  0
  -12.8931    1.0671   18.8292 N   0  3  0  0  0  0  0  0  0  0  0  0
  -12.4765    2.6326   20.6714 C   0  0  0  0  0  0  0  0  0  0  0  0
  -11.4267    3.5239   21.3441 C   0  0  2  0  0  0  0  0  0  0  0  0
  -12.0228    4.1045   22.5730 N   0  3  0  0  0  0  0  0  0  0  0  0
  -10.8607    4.5802   20.3485 C   0  0  2  0  0  0  0  0  0  0  0  0
  -10.2982    3.8596   19.0963 C   0  0  2  0  0  0  0  0  0  0  0  0
   -9.9386    4.8160   18.1287 O   0  0  0  0  0  0  0  0  0  0  0  0
  -11.3627    2.9482   18.4642 C   0  0  1  0  0  0  0  0  0  0  0  0
  -10.7916    2.2833   17.3380 O   0  0  0  0  0  0  0  0  0  0  0  0
  -11.3618    2.5300   16.0990 C   0  0  2  0  0  0  0  0  0  0  0  0
  -11.2709    1.2521   15.2476 C   0  0  2  0  0  0  0  0  0  0  0  0
  -11.9659    0.2087   15.9186 O   0  0  0  0  0  0  0  0  0  0  0  0
   -9.7933    0.8659   15.0599 C   0  0  1  0  0  0  0  0  0  0  0  0
   -9.6426   -0.3821   14.2574 N   0  3  0  0  0  0  0  0  0  0  0  0
   -9.0401    2.0402   14.3885 C   0  0  2  0  0  0  0  0  0  0  0  0
   -7.6603    1.7206   14.2244 O   0  0  0  0  0  0  0  0  0  0  0  0
   -9.2033    3.3237   15.2237 C   0  0  2  0  0  0  0  0  0  0  0  0
  -10.6304    3.6078   15.4590 O   0  0  0  0  0  0  0  0  0  0  0  0
   -8.6180    4.5339   14.5302 C   0  0  0  0  0  0  0  0  0  0  0  0
   -9.3889    4.9114   13.3916 O   0  0  0  0  0  0  0  0  0  0  0  0
  1  2  1  1  0  0  0
  1  3  1  0  0  0  0
  1  9  1  0  0  0  0
  3  4  1  1  0  0  0
  3  5  1  0  0  0  0
  5  6  1  0  0  0  0
  6  7  1  1  0  0  0
  6  8  1  0  0  0  0
  8  9  1  0  0  0  0
  8 10  1  6  0  0  0
 10 11  1  0  0  0  0
 12 13  1  6  0  0  0
 12 14  1  0  0  0  0
 12 20  1  0  0  0  0
 14 15  1  0  0  0  0
 15 16  1  1  0  0  0
 15 17  1  0  0  0  0
 17  2  1  1  0  0  0
 17 18  1  0  0  0  0
 18 19  1  6  0  0  0
 18 20  1  0  0  0  0
 20 21  1  6  0  0  0
 22 21  1  1  0  0  0
 22 23  1  0  0  0  0
 22 30  1  0  0  0  0
 23 24  1  1  0  0  0
 23 25  1  0  0  0  0
 25 26  1  6  0  0  0
 25 27  1  0  0  0  0
 27 28  1  1  0  0  0
 27 29  1  0  0  0  0
 29 30  1  0  0  0  0
 29 31  1  6  0  0  0
 31 32  1  0  0  0  0
M  CHG  5   4   1  11   1  13   1  16   1  26   1
M  END
>  <CHROM.1>
154.52066700,179.25348375,-51.28993030,-59.67361433,-58.91279477,48.45058972
-80.29864366,-71.22029574,-54.31056539,119.80099988,-146.26514151,-177.76922188
177.20719201,179.80797474,70.02134513,-178.08031550,-10.46782292,4.37323634
18.34322550,-1.69812756,-1.07551866,-2.44458349

>  <Name>
1lc4

>  <RI>
0

>  <Rbt.Current_Directory>
/home/afrankz/demos/rdock_decoys_rna/rnas/1lc4

>  <Rbt.Executable>
rbdock ($Id: //depot/dev/client3/rdock/2013.1/src/exe/rbdock.cxx#4 $)

>  <Rbt.Library>
libRbt.so (2013.1, Build901 2013/11/27)

>  <Rbt.Parameter_File>
/export/apps/rDock/src/rDock_2013.1_src/data/scripts/dock_solv.prm

>  <Rbt.Receptor>
prm/blind_docking_100.prm

>  <SCORE>
-54.2291

>  <SCORE.INTER>
-35.8685

>  <SCORE.INTER.CONST>
1

>  <SCORE.INTER.POLAR>
-4.85484

>  <SCORE.INTER.ROT>
6

>  <SCORE.INTER.SOLV>
26.5378

>  <SCORE.INTER.VDW>
-24.1755

>  <SCORE.INTER.norm>
-1.12089

>  <SCORE.INTRA>
-20.4332

>  <SCORE.INTRA.DIHEDRAL>
-27.5995

>  <SCORE.INTRA.DIHEDRAL.0>
44.2576

>  <SCORE.INTRA.POLAR>
-1.29599

>  <SCORE.INTRA.POLAR.0>
-0.381556

>  <SCORE.INTRA.REPUL>
0

>  <SCORE.INTRA.REPUL.0>
0

>  <SCORE.INTRA.SOLV>
-0.978739

>  <SCORE.INTRA.SOLV.lig_0>
-134.592

>  <SCORE.INTRA.VDW>
-1.73772

>  <SCORE.INTRA.VDW.0>
-1.01417

>  <SCORE.INTRA.norm>
-0.638537

>  <SCORE.RESTR>
2.07257

>  <SCORE.RESTR.CAVITY>
2.07257

>  <SCORE.RESTR.norm>
0.0647677

>  <SCORE.SYSTEM>
0

>  <SCORE.SYSTEM.CONST>
0

>  <SCORE.SYSTEM.DIHEDRAL>
0

>  <SCORE.SYSTEM.SOLV>
0

>  <SCORE.SYSTEM.norm>
0

>  <SCORE.heavy>
32

>  <SCORE.norm>
-1.69466

>  <RMSD>
6.542

$$$$
1lc4
 OpenBabel02141814113D
libRbt.so/2013.1/901 2013/11/27
 32 34  0  0  0  0  0  0  0  0999 V2000
  -10.1661    6.1821   21.5164 C   0  0  2  0  0  0  0  0  0  0  0  0
   -9.8744    5.5480   20.2963 O   0  0  0  0  0  0  0  0  0  0  0  0
   -9.6100    7.6194   21.4553 C   0  0  2  0  0  0  0  0  0  0  0  0
  -10.1981    8.3461   20.3258 N   0  3  0  0  0  0  0  0  0  0  0  0
   -8.0662    7.5891   21.3643 C   0  0  0  0  0  0  0  0  0  0  0  0
   -7.5438    6.8449   22.6056 C   0  0  2  0  0  0  0  0  0  0  0  0
   -6.1124    6.8227   22.6087 O   0  0  0  0  0  0  0  0  0  0  0  0
   -8.1284    5.4106   22.6255 C   0  0  2  0  0  0  0  0  0  0  0  0
   -9.5838    5.4561   22.6214 O   0  0  0  0  0  0  0  0  0  0  0  0
   -7.7130    4.6007   23.8512 C   0  0  0  0  0  0  0  0  0  0  0  0
   -8.0272    5.3282   25.1088 N   0  3  0  0  0  0  0  0  0  0  0  0
  -11.4990    1.8607   18.9829 C   0  0  2  0  0  0  0  0  0  0  0  0
  -12.3933    0.8420   18.4031 N   0  3  0  0  0  0  0  0  0  0  0  0
  -12.1893    2.5499   20.1521 C   0  0  0  0  0  0  0  0  0  0  0  0
  -11.2705    3.6146   20.7617 C   0  0  2  0  0  0  0  0  0  0  0  0
  -11.9349    4.1739   21.9651 N   0  3  0  0  0  0  0  0  0  0  0  0
  -10.8631    4.6825   19.7029 C   0  0  2  0  0  0  0  0  0  0  0  0
  -10.2124    3.9789   18.4842 C   0  0  2  0  0  0  0  0  0  0  0  0
   -9.9954    4.9209   17.4616 O   0  0  0  0  0  0  0  0  0  0  0  0
  -11.1428    2.8946   17.9166 C   0  0  1  0  0  0  0  0  0  0  0  0
  -10.4907    2.2542   16.8205 O   0  0  0  0  0  0  0  0  0  0  0  0
  -11.0607    2.4063   15.5662 C   0  0  2  0  0  0  0  0  0  0  0  0
  -10.8483    1.1109   14.7643 C   0  0  2  0  0  0  0  0  0  0  0  0
  -11.4624    0.0368   15.4652 O   0  0  0  0  0  0  0  0  0  0  0  0
   -9.3405    0.8459   14.6093 C   0  0  1  0  0  0  0  0  0  0  0  0
   -9.0720   -0.4128   13.8559 N   0  3  0  0  0  0  0  0  0  0  0  0
   -8.6796    2.0552   13.9039 C   0  0  2  0  0  0  0  0  0  0  0  0
   -7.2753    1.8491   13.7688 O   0  0  0  0  0  0  0  0  0  0  0  0
   -8.9642    3.3495   14.6885 C   0  0  2  0  0  0  0  0  0  0  0  0
  -10.4137    3.5188   14.8955 O   0  0  0  0  0  0  0  0  0  0  0  0
   -8.4732    4.5793   13.9575 C   0  0  0  0  0  0  0  0  0  0  0  0
   -7.8261    5.4927   14.8408 O   0  0  0  0  0  0  0  0  0  0  0  0
  1  2  1  6  0  0  0
  1  3  1  0  0  0  0
  1  9  1  0  0  0  0
  3  4  1  6  0  0  0
  3  5  1  0  0  0  0
  5  6  1  0  0  0  0
  6  7  1  6  0  0  0
  6  8  1  0  0  0  0
  8  9  1  0  0  0  0
  8 10  1  1  0  0  0
 10 11  1  0  0  0  0
 12 13  1  6  0  0  0
 12 14  1  0  0  0  0
 12 20  1  0  0  0  0
 14 15  1  0  0  0  0
 15 16  1  1  0  0  0
 15 17  1  0  0  0  0
 17  2  1  1  0  0  0
 17 18  1  0  0  0  0
 18 19  1  6  0  0  0
 18 20  1  0  0  0  0
 20 21  1  6  0  0  0
 22 21  1  1  0  0  0
 22 23  1  0  0  0  0
 22 30  1  0  0  0  0
 23 24  1  1  0  0  0
 23 25  1  0  0  0  0
 25 26  1  6  0  0  0
 25 27  1  0  0  0  0
 27 28  1  1  0  0  0
 27 29  1  0  0  0  0
 29 30  1  0  0  0  0
 29 31  1  6  0  0  0
 31 32  1  0  0  0  0
M  CHG  5   4   1  11   1  13   1  16   1  26   1
M  END
>  <CHROM.1>
-140.30559756,-54.19635830,-56.97241583,61.65198902,53.62894000,-69.85338542
168.89822163,155.49740985,-58.99089540,122.95129015,-145.51615012,179.13675802
55.42273394,-58.17277791,-137.13208321,-167.94454463,-9.68598601,3.94688518
18.59708850,1.42020748,0.80833919,1.16746533

>  <Name>
1lc4

>  <RI>
0

>  <Rbt.Current_Directory>
/home/afrankz/demos/rdock_decoys_rna/rnas/1lc4

>  <Rbt.Executable>
rbdock ($Id: //depot/dev/client3/rdock/2013.1/src/exe/rbdock.cxx#4 $)

>  <Rbt.Library>
libRbt.so (2013.1, Build901 2013/11/27)

>  <Rbt.Parameter_File>
/export/apps/rDock/src/rDock_2013.1_src/data/scripts/dock_solv.prm

>  <Rbt.Receptor>
prm/blind_docking_100.prm

>  <SCORE>
-66.4277

>  <SCORE.INTER>
-50.8302

>  <SCORE.INTER.CONST>
1

>  <SCORE.INTER.POLAR>
-6.78093

>  <SCORE.INTER.ROT>
6

>  <SCORE.INTER.SOLV>
29.1593

>  <SCORE.INTER.VDW>
-28.6035

>  <SCORE.INTER.norm>
-1.58845

>  <SCORE.INTRA>
-16.6084

>  <SCORE.INTRA.DIHEDRAL>
-20.033

>  <SCORE.INTRA.DIHEDRAL.0>
44.2576

>  <SCORE.INTRA.POLAR>
-1.7202

>  <SCORE.INTRA.POLAR.0>
-0.381556

>  <SCORE.INTRA.REPUL>
0

>  <SCORE.INTRA.REPUL.0>
0

>  <SCORE.INTRA.SOLV>
1.4037

>  <SCORE.INTRA.SOLV.lig_0>
-134.592

>  <SCORE.INTRA.VDW>
-1.44506

>  <SCORE.INTRA.VDW.0>
-1.01417

>  <SCORE.INTRA.norm>
-0.519013

>  <SCORE.RESTR>
1.01097

>  <SCORE.RESTR.CAVITY>
1.01097

>  <SCORE.RESTR.norm>
0.0315928

>  <SCORE.SYSTEM>
0

>  <SCORE.SYSTEM.CONST>
0

>  <SCORE.SYSTEM.DIHEDRAL>
0

>  <SCORE.SYSTEM.SOLV>
0

>  <SCORE.SYSTEM.norm>
0

>  <SCORE.heavy>
32

>  <SCORE.norm>
-2.07587

>  <RMSD>
6.545

$$$$
1lc4
 OpenBabel02141814113D
libRbt.so/2013.1/901 2013/11/27
 32 34  0  0  0  0  0  0  0  0999 V2000
   -9.0814    6.1993   20.2531 C   0  0  2  0  0  0  0  0  0  0  0  0
   -9.7850    5.2040   20.9533 O   0  0  0  0  0  0  0  0  0  0  0  0
   -8.4584    7.1622   21.2845 C   0  0  2  0  0  0  0  0  0  0  0  0
   -7.5745    6.4298   22.1967 N   0  3  0  0  0  0  0  0  0  0  0  0
   -9.5719    7.9086   22.0560 C   0  0  0  0  0  0  0  0  0  0  0  0
  -10.4175    8.6741   21.0231 C   0  0  2  0  0  0  0  0  0  0  0  0
  -11.4422    9.4293   21.6780 O   0  0  0  0  0  0  0  0  0  0  0  0
  -11.0200    7.6692   20.0099 C   0  0  2  0  0  0  0  0  0  0  0  0
   -9.9618    6.9120   19.3564 O   0  0  0  0  0  0  0  0  0  0  0  0
  -11.8372    8.3345   18.9052 C   0  0  0  0  0  0  0  0  0  0  0  0
  -12.9504    9.1411   19.4707 N   0  3  0  0  0  0  0  0  0  0  0  0
  -11.9054    1.8762   19.4074 C   0  0  2  0  0  0  0  0  0  0  0  0
  -12.9279    1.0345   18.7594 N   0  3  0  0  0  0  0  0  0  0  0  0
  -12.5089    2.5907   20.6089 C   0  0  0  0  0  0  0  0  0  0  0  0
  -11.4560    3.4724   21.2895 C   0  0  2  0  0  0  0  0  0  0  0  0
  -12.0536    4.0529   22.5177 N   0  3  0  0  0  0  0  0  0  0  0  0
  -10.8783    4.5283   20.3001 C   0  0  2  0  0  0  0  0  0  0  0  0
  -10.3151    3.8082   19.0479 C   0  0  2  0  0  0  0  0  0  0  0  0
   -9.9447    4.7654   18.0853 O   0  0  0  0  0  0  0  0  0  0  0  0
  -11.3831    2.9063   18.4079 C   0  0  1  0  0  0  0  0  0  0  0  0
  -10.8114    2.2414   17.2819 O   0  0  0  0  0  0  0  0  0  0  0  0
  -11.4287    2.4267   16.0548 C   0  0  2  0  0  0  0  0  0  0  0  0
  -11.3055    1.1299   15.2365 C   0  0  2  0  0  0  0  0  0  0  0  0
  -11.9325    0.0766   15.9573 O   0  0  0  0  0  0  0  0  0  0  0  0
   -9.8182    0.8043   15.0140 C   0  0  1  0  0  0  0  0  0  0  0  0
   -9.6351   -0.4585   14.2420 N   0  3  0  0  0  0  0  0  0  0  0  0
   -9.1390    1.9908   14.2875 C   0  0  2  0  0  0  0  0  0  0  0  0
   -7.7517    1.7281   14.0896 O   0  0  0  0  0  0  0  0  0  0  0  0
   -9.3352    3.2895   15.0916 C   0  0  2  0  0  0  0  0  0  0  0  0
  -10.7660    3.5168   15.3630 O   0  0  0  0  0  0  0  0  0  0  0  0
   -8.8260    4.5038   14.3472 C   0  0  0  0  0  0  0  0  0  0  0  0
   -8.8452    5.6699   15.1676 O   0  0  0  0  0  0  0  0  0  0  0  0
  1  2  1  1  0  0  0
  1  3  1  0  0  0  0
  1  9  1  0  0  0  0
  3  4  1  1  0  0  0
  3  5  1  0  0  0  0
  5  6  1  0  0  0  0
  6  7  1  1  0  0  0
  6  8  1  0  0  0  0
  8  9  1  0  0  0  0
  8 10  1  6  0  0  0
 10 11  1  0  0  0  0
 12 13  1  6  0  0  0
 12 14  1  0  0  0  0
 12 20  1  0  0  0  0
 14 15  1  0  0  0  0
 15 16  1  1  0  0  0
 15 17  1  0  0  0  0
 17  2  1  1  0  0  0
 17 18  1  0  0  0  0
 18 19  1  6  0  0  0
 18 20  1  0  0  0  0
 20 21  1  6  0  0  0
 22 21  1  1  0  0  0
 22 23  1  0  0  0  0
 22 30  1  0  0  0  0
 23 24  1  1  0  0  0
 23 25  1  0  0  0  0
 25 26  1  6  0  0  0
 25 27  1  0  0  0  0
 27 28  1  1  0  0  0
 27 29  1  0  0  0  0
 29 30  1  0  0  0  0
 29 31  1  6  0  0  0
 31 32  1  0  0  0  0
M  CHG  5   4   1  11   1  13   1  16   1  26   1
M  END
>  <CHROM.1>
154.65356028,179.16425954,-34.93324355,61.38974568,-57.91834895,-80.92240529
-76.73708872,-71.88763744,175.37558331,115.64247590,-145.90167304,177.70031883
61.70328561,-59.50064441,-172.08805835,-172.56748363,-10.47129282,4.34470897
18.35763429,-1.66016664,-1.02926948,-2.44213486

>  <Name>
1lc4

>  <RI>
0

>  <Rbt.Current_Directory>
/home/afrankz/demos/rdock_decoys_rna/rnas/1lc4

>  <Rbt.Executable>
rbdock ($Id: //depot/dev/client3/rdock/2013.1/src/exe/rbdock.cxx#4 $)

>  <Rbt.Library>
libRbt.so (2013.1, Build901 2013/11/27)

>  <Rbt.Parameter_File>
/export/apps/rDock/src/rDock_2013.1_src/data/scripts/dock_solv.prm

>  <Rbt.Receptor>
prm/blind_docking_100.prm

>  <SCORE>
-66.711

>  <SCORE.INTER>
-48.0761

>  <SCORE.INTER.CONST>
1

>  <SCORE.INTER.POLAR>
-6.96156

>  <SCORE.INTER.ROT>
6

>  <SCORE.INTER.SOLV>
28.3373

>  <SCORE.INTER.VDW>
-25.8913

>  <SCORE.INTER.norm>
-1.50238

>  <SCORE.INTRA>
-20.7886

>  <SCORE.INTRA.DIHEDRAL>
-26.0075

>  <SCORE.INTRA.DIHEDRAL.0>
44.2576

>  <SCORE.INTRA.POLAR>
-1.82219

>  <SCORE.INTRA.POLAR.0>
-0.381556

>  <SCORE.INTRA.REPUL>
0.0530854

>  <SCORE.INTRA.REPUL.0>
0

>  <SCORE.INTRA.SOLV>
-0.856319

>  <SCORE.INTRA.SOLV.lig_0>
-134.592

>  <SCORE.INTRA.VDW>
-1.4267

>  <SCORE.INTRA.VDW.0>
-1.01417

>  <SCORE.INTRA.norm>
-0.649645

>  <SCORE.RESTR>
2.15374

>  <SCORE.RESTR.CAVITY>
2.15374

>  <SCORE.RESTR.norm>
0.0673044

>  <SCORE.SYSTEM>
0

>  <SCORE.SYSTEM.CONST>
0

>  <SCORE.SYSTEM.DIHEDRAL>
0

>  <SCORE.SYSTEM.SOLV>
0

>  <SCORE.SYSTEM.norm>
0

>  <SCORE.heavy>
32

>  <SCORE.norm>
-2.08472

>  <RMSD>
6.571

$$$$
1lc4
 OpenBabel02141814113D
libRbt.so/2013.1/901 2013/11/27
 32 34  0  0  0  0  0  0  0  0999 V2000
  -11.7703    6.0864   13.4755 C   0  0  2  0  0  0  0  0  0  0  0  0
  -11.8783    7.3889   13.9928 O   0  0  0  0  0  0  0  0  0  0  0  0
  -11.8139    5.0956   14.6567 C   0  0  2  0  0  0  0  0  0  0  0  0
  -13.0562    5.2631   15.4171 N   0  3  0  0  0  0  0  0  0  0  0  0
  -10.5711    5.2867   15.5576 C   0  0  0  0  0  0  0  0  0  0  0  0
   -9.3259    5.0536   14.6841 C   0  0  2  0  0  0  0  0  0  0  0  0
   -8.1356    5.1682   15.4709 O   0  0  0  0  0  0  0  0  0  0  0  0
   -9.3257    6.0674   13.5129 C   0  0  2  0  0  0  0  0  0  0  0  0
  -10.5441    5.9344   12.7268 O   0  0  0  0  0  0  0  0  0  0  0  0
   -8.1544    5.8860   12.5508 C   0  0  0  0  0  0  0  0  0  0  0  0
   -7.1912    7.0132   12.6569 N   0  3  0  0  0  0  0  0  0  0  0  0
  -14.8992   10.2367   14.8442 C   0  0  2  0  0  0  0  0  0  0  0  0
  -16.1518   10.8694   15.2963 N   0  3  0  0  0  0  0  0  0  0  0  0
  -15.2015    9.1987   13.7719 C   0  0  0  0  0  0  0  0  0  0  0  0
  -13.9067    8.5307   13.2960 C   0  0  2  0  0  0  0  0  0  0  0  0
  -14.2356    7.6172   12.1736 N   0  3  0  0  0  0  0  0  0  0  0  0
  -13.1569    7.8460   14.4777 C   0  0  2  0  0  0  0  0  0  0  0  0
  -12.8989    8.8869   15.5975 C   0  0  2  0  0  0  0  0  0  0  0  0
  -12.3719    8.2359   16.7283 O   0  0  0  0  0  0  0  0  0  0  0  0
  -14.2101    9.5632   16.0294 C   0  0  1  0  0  0  0  0  0  0  0  0
  -13.9198   10.5331   17.0352 O   0  0  0  0  0  0  0  0  0  0  0  0
  -14.8761   10.7334   18.0184 C   0  0  2  0  0  0  0  0  0  0  0  0
  -14.5958   12.0749   18.7172 C   0  0  2  0  0  0  0  0  0  0  0  0
  -14.6517   13.1129   17.7470 O   0  0  0  0  0  0  0  0  0  0  0  0
  -13.2008   12.0331   19.3652 C   0  0  1  0  0  0  0  0  0  0  0  0
  -12.8636   13.3185   20.0420 N   0  3  0  0  0  0  0  0  0  0  0  0
  -13.1392   10.8558   20.3688 C   0  0  2  0  0  0  0  0  0  0  0  0
  -11.8477   10.7763   20.9676 O   0  0  0  0  0  0  0  0  0  0  0  0
  -13.4905    9.5342   19.6607 C   0  0  2  0  0  0  0  0  0  0  0  0
  -14.7908    9.6460   18.9757 O   0  0  0  0  0  0  0  0  0  0  0  0
  -13.5973    8.3783   20.6305 C   0  0  0  0  0  0  0  0  0  0  0  0
  -14.5609    8.6345   21.6499 O   0  0  0  0  0  0  0  0  0  0  0  0
  1  2  1  1  0  0  0
  1  3  1  0  0  0  0
  1  9  1  0  0  0  0
  3  4  1  1  0  0  0
  3  5  1  0  0  0  0
  5  6  1  0  0  0  0
  6  7  1  1  0  0  0
  6  8  1  0  0  0  0
  8  9  1  0  0  0  0
  8 10  1  6  0  0  0
 10 11  1  0  0  0  0
 12 13  1  1  0  0  0
 12 14  1  0  0  0  0
 12 20  1  0  0  0  0
 14 15  1  0  0  0  0
 15 16  1  6  0  0  0
 15 17  1  0  0  0  0
 17  2  1  6  0  0  0
 17 18  1  0  0  0  0
 18 19  1  1  0  0  0
 18 20  1  0  0  0  0
 20 21  1  1  0  0  0
 22 21  1  6  0  0  0
 22 23  1  0  0  0  0
 22 30  1  0  0  0  0
 23 24  1  6  0  0  0
 23 25  1  0  0  0  0
 25 26  1  1  0  0  0
 25 27  1  0  0  0  0
 27 28  1  6  0  0  0
 27 29  1  0  0  0  0
 29 30  1  0  0  0  0
 29 31  1  1  0  0  0
 31 32  1  0  0  0  0
M  CHG  5   4   1  11   1  13   1  16   1  26   1
M  END
>  <CHROM.1>
-73.91910324,-90.96318934,160.59773245,62.04218634,-110.40362908,159.29012767
55.95027381,179.97640252,62.65256648,91.38552217,-162.41487409,168.87472863
-142.79740603,156.48318492,57.08334705,63.27829136,-12.62436683,8.60886705
16.28479896,0.96951720,0.62104293,-1.92305514

>  <Name>
1lc4

>  <RI>
0

>  <Rbt.Current_Directory>
/home/afrankz/demos/rdock_decoys_rna/rnas/1lc4

>  <Rbt.Executable>
rbdock ($Id: //depot/dev/client3/rdock/2013.1/src/exe/rbdock.cxx#4 $)

>  <Rbt.Library>
libRbt.so (2013.1, Build901 2013/11/27)

>  <Rbt.Parameter_File>
/export/apps/rDock/src/rDock_2013.1_src/data/scripts/dock_solv.prm

>  <Rbt.Receptor>
prm/blind_docking_80.prm

>  <SCORE>
-38.098

>  <SCORE.INTER>
-32.351

>  <SCORE.INTER.CONST>
1

>  <SCORE.INTER.POLAR>
-4.99801

>  <SCORE.INTER.ROT>
6

>  <SCORE.INTER.SOLV>
29.0988

>  <SCORE.INTER.VDW>
-22.2069

>  <SCORE.INTER.norm>
-1.01097

>  <SCORE.INTRA>
-11.133

>  <SCORE.INTRA.DIHEDRAL>
-21.8326

>  <SCORE.INTRA.DIHEDRAL.0>
44.2576

>  <SCORE.INTRA.POLAR>
0.300274

>  <SCORE.INTRA.POLAR.0>
-0.381556

>  <SCORE.INTRA.REPUL>
0

>  <SCORE.INTRA.REPUL.0>
0

>  <SCORE.INTRA.SOLV>
1.12661

>  <SCORE.INTRA.SOLV.lig_0>
-134.592

>  <SCORE.INTRA.VDW>
-1.80091

>  <SCORE.INTRA.VDW.0>
-1.01417

>  <SCORE.INTRA.norm>
-0.347906

>  <SCORE.RESTR>
5.38605

>  <SCORE.RESTR.CAVITY>
5.38605

>  <SCORE.RESTR.norm>
0.168314

>  <SCORE.SYSTEM>
0

>  <SCORE.SYSTEM.CONST>
0

>  <SCORE.SYSTEM.DIHEDRAL>
0

>  <SCORE.SYSTEM.SOLV>
0

>  <SCORE.SYSTEM.norm>
0

>  <SCORE.heavy>
32

>  <SCORE.norm>
-1.19056

>  <RMSD>
6.587

$$$$
1lc4
 OpenBabel02141814113D
libRbt.so/2013.1/901 2013/11/27
 32 34  0  0  0  0  0  0  0  0999 V2000
  -14.8820   10.2447   18.1267 C   0  0  2  0  0  0  0  0  0  0  0  0
  -13.5325   10.3682   17.7532 O   0  0  0  0  0  0  0  0  0  0  0  0
  -15.2814   11.5126   18.9090 C   0  0  2  0  0  0  0  0  0  0  0  0
  -15.0654   12.7077   18.0875 N   0  3  0  0  0  0  0  0  0  0  0  0
  -14.4908   11.5899   20.2362 C   0  0  0  0  0  0  0  0  0  0  0  0
  -14.8114   10.3181   21.0408 C   0  0  2  0  0  0  0  0  0  0  0  0
  -14.1463   10.3482   22.3081 O   0  0  0  0  0  0  0  0  0  0  0  0
  -14.3959    9.0737   20.2172 C   0  0  2  0  0  0  0  0  0  0  0  0
  -15.0826    9.0630   18.9332 O   0  0  0  0  0  0  0  0  0  0  0  0
  -14.7220    7.7509   20.9061 C   0  0  0  0  0  0  0  0  0  0  0  0
  -13.5308    6.8632   20.9581 N   0  3  0  0  0  0  0  0  0  0  0  0
  -13.4423    6.7875   15.4881 C   0  0  2  0  0  0  0  0  0  0  0  0
  -13.0049    5.6851   14.6122 N   0  3  0  0  0  0  0  0  0  0  0  0
  -13.4188    8.1007   14.7178 C   0  0  0  0  0  0  0  0  0  0  0  0
  -13.8683    9.2560   15.6192 C   0  0  2  0  0  0  0  0  0  0  0  0
  -13.9436   10.4897   14.7977 N   0  3  0  0  0  0  0  0  0  0  0  0
  -12.9555    9.3803   16.8757 C   0  0  2  0  0  0  0  0  0  0  0  0
  -12.9302    8.0267   17.6312 C   0  0  2  0  0  0  0  0  0  0  0  0
  -11.9812    8.0879   18.6683 O   0  0  0  0  0  0  0  0  0  0  0  0
  -12.5090    6.8837   16.6933 C   0  0  1  0  0  0  0  0  0  0  0  0
  -12.5315    5.6567   17.4218 O   0  0  0  0  0  0  0  0  0  0  0  0
  -11.3585    5.2710   18.0517 C   0  0  2  0  0  0  0  0  0  0  0  0
  -10.4991    4.4743   17.0552 C   0  0  2  0  0  0  0  0  0  0  0  0
  -10.2155    5.3036   15.9354 O   0  0  0  0  0  0  0  0  0  0  0  0
  -11.2691    3.2215   16.6022 C   0  0  1  0  0  0  0  0  0  0  0  0
  -10.4916    2.4178   15.6154 N   0  3  0  0  0  0  0  0  0  0  0  0
  -11.6262    2.3658   17.8420 C   0  0  2  0  0  0  0  0  0  0  0  0
  -12.3636    1.2085   17.4552 O   0  0  0  0  0  0  0  0  0  0  0  0
  -12.4270    3.2050   18.8549 C   0  0  2  0  0  0  0  0  0  0  0  0
  -11.6971    4.4403   19.1924 O   0  0  0  0  0  0  0  0  0  0  0  0
  -12.6646    2.4615   20.1505 C   0  0  0  0  0  0  0  0  0  0  0  0
  -11.4658    2.3363   20.9124 O   0  0  0  0  0  0  0  0  0  0  0  0
  1  2  1  1  0  0  0
  1  3  1  0  0  0  0
  1  9  1  0  0  0  0
  3  4  1  6  0  0  0
  3  5  1  0  0  0  0
  5  6  1  0  0  0  0
  6  7  1  1  0  0  0
  6  8  1  0  0  0  0
  8  9  1  0  0  0  0
  8 10  1  1  0  0  0
 10 11  1  0  0  0  0
 12 13  1  6  0  0  0
 12 14  1  0  0  0  0
 12 20  1  0  0  0  0
 14 15  1  0  0  0  0
 15 16  1  6  0  0  0
 15 17  1  0  0  0  0
 17  2  1  1  0  0  0
 17 18  1  0  0  0  0
 18 19  1  1  0  0  0
 18 20  1  0  0  0  0
 20 21  1  1  0  0  0
 22 21  1  6  0  0  0
 22 23  1  0  0  0  0
 22 30  1  0  0  0  0
 23 24  1  6  0  0  0
 23 25  1  0  0  0  0
 25 26  1  6  0  0  0
 25 27  1  0  0  0  0
 27 28  1  6  0  0  0
 27 29  1  0  0  0  0
 29 30  1  0  0  0  0
 29 31  1  1  0  0  0
 31 32  1  0  0  0  0
M  CHG  5   4   1  11   1  13   1  16   1  26   1
M  END
>  <CHROM.1>
-172.91638958,52.45165490,-40.87350146,60.59991337,-128.46110510,81.66699865
93.42564377,-136.37421573,-49.29130177,147.18148342,-87.14792789,55.59467186
-48.26709001,-179.80238310,71.53696715,176.60173621,-12.99204982,7.00191377
18.05657064,-2.87330802,-1.19083567,2.01362860

>  <Name>
1lc4

>  <RI>
0

>  <Rbt.Current_Directory>
/home/afrankz/demos/rdock_decoys_rna/rnas/1lc4

>  <Rbt.Executable>
rbdock ($Id: //depot/dev/client3/rdock/2013.1/src/exe/rbdock.cxx#4 $)

>  <Rbt.Library>
libRbt.so (2013.1, Build901 2013/11/27)

>  <Rbt.Parameter_File>
/export/apps/rDock/src/rDock_2013.1_src/data/scripts/dock_solv.prm

>  <Rbt.Receptor>
prm/pocket_docking_5.prm

>  <SCORE>
-46.2351

>  <SCORE.INTER>
-27.3957

>  <SCORE.INTER.CONST>
1

>  <SCORE.INTER.POLAR>
-4.53374

>  <SCORE.INTER.ROT>
6

>  <SCORE.INTER.SOLV>
19.2522

>  <SCORE.INTER.VDW>
-17.1688

>  <SCORE.INTER.norm>
-0.856117

>  <SCORE.INTRA>
-18.8393

>  <SCORE.INTRA.DIHEDRAL>
-23.0141

>  <SCORE.INTRA.DIHEDRAL.0>
44.2576

>  <SCORE.INTRA.POLAR>
-1.98315

>  <SCORE.INTRA.POLAR.0>
-0.381556

>  <SCORE.INTRA.REPUL>
0

>  <SCORE.INTRA.REPUL.0>
0

>  <SCORE.INTRA.SOLV>
2.92622

>  <SCORE.INTRA.SOLV.lig_0>
-134.592

>  <SCORE.INTRA.VDW>
-2.0527

>  <SCORE.INTRA.VDW.0>
-1.01417

>  <SCORE.INTRA.norm>
-0.58873

>  <SCORE.RESTR>
0

>  <SCORE.RESTR.CAVITY>
0

>  <SCORE.RESTR.norm>
0

>  <SCORE.SYSTEM>
0

>  <SCORE.SYSTEM.CONST>
0

>  <SCORE.SYSTEM.DIHEDRAL>
0

>  <SCORE.SYSTEM.SOLV>
0

>  <SCORE.SYSTEM.norm>
0

>  <SCORE.heavy>
32

>  <SCORE.norm>
-1.44485

>  <RMSD>
6.608

$$$$
1lc4
 OpenBabel02141814113D
libRbt.so/2013.1/901 2013/11/27
 32 34  0  0  0  0  0  0  0  0999 V2000
  -10.1365    6.1240   21.3435 C   0  0  2  0  0  0  0  0  0  0  0  0
   -9.8372    5.4440   20.1502 O   0  0  0  0  0  0  0  0  0  0  0  0
   -9.6467    7.5797   21.2021 C   0  0  2  0  0  0  0  0  0  0  0  0
  -10.2858    8.2231   20.0501 N   0  3  0  0  0  0  0  0  0  0  0  0
   -8.1048    7.6130   21.0832 C   0  0  0  0  0  0  0  0  0  0  0  0
   -7.5286    6.9546   22.3490 C   0  0  2  0  0  0  0  0  0  0  0  0
   -6.0979    6.9957   22.3259 O   0  0  0  0  0  0  0  0  0  0  0  0
   -8.0478    5.4986   22.4496 C   0  0  2  0  0  0  0  0  0  0  0  0
   -9.5035    5.4797   22.4710 O   0  0  0  0  0  0  0  0  0  0  0  0
   -7.5757    4.7693   23.7050 C   0  0  0  0  0  0  0  0  0  0  0  0
   -8.6026    4.8256   24.7783 N   0  3  0  0  0  0  0  0  0  0  0  0
  -11.5623    1.7885   18.8767 C   0  0  2  0  0  0  0  0  0  0  0  0
  -12.4795    0.7894   18.2985 N   0  3  0  0  0  0  0  0  0  0  0  0
  -12.2520    2.5253   20.0169 C   0  0  0  0  0  0  0  0  0  0  0  0
  -11.3093    3.5701   20.6244 C   0  0  2  0  0  0  0  0  0  0  0  0
  -11.9785    4.1769   21.8019 N   0  3  0  0  0  0  0  0  0  0  0  0
  -10.8431    4.6010   19.5533 C   0  0  2  0  0  0  0  0  0  0  0  0
  -10.1924    3.8501   18.3631 C   0  0  2  0  0  0  0  0  0  0  0  0
   -9.9216    4.7626   17.3267 O   0  0  0  0  0  0  0  0  0  0  0  0
  -11.1482    2.7871   17.7977 C   0  0  1  0  0  0  0  0  0  0  0  0
  -10.4964    2.1019   16.7289 O   0  0  0  0  0  0  0  0  0  0  0  0
  -10.9488    2.3550   15.4433 C   0  0  2  0  0  0  0  0  0  0  0  0
  -10.9869    1.0311   14.6610 C   0  0  2  0  0  0  0  0  0  0  0  0
  -11.8622    0.1326   15.3308 O   0  0  0  0  0  0  0  0  0  0  0  0
   -9.5699    0.4351   14.5937 C   0  0  1  0  0  0  0  0  0  0  0  0
   -9.5478   -0.8648   13.8629 N   0  3  0  0  0  0  0  0  0  0  0  0
   -8.6185    1.4549   13.9215 C   0  0  2  0  0  0  0  0  0  0  0  0
   -7.2903    0.9395   13.8678 O   0  0  0  0  0  0  0  0  0  0  0  0
   -8.6501    2.7934   14.6824 C   0  0  2  0  0  0  0  0  0  0  0  0
  -10.0345    3.2841   14.8054 O   0  0  0  0  0  0  0  0  0  0  0  0
   -7.8583    3.8706   13.9748 C   0  0  0  0  0  0  0  0  0  0  0  0
   -8.4952    4.2845   12.7680 O   0  0  0  0  0  0  0  0  0  0  0  0
  1  2  1  6  0  0  0
  1  3  1  0  0  0  0
  1  9  1  0  0  0  0
  3  4  1  6  0  0  0
  3  5  1  0  0  0  0
  5  6  1  0  0  0  0
  6  7  1  6  0  0  0
  6  8  1  0  0  0  0
  8  9  1  0  0  0  0
  8 10  1  1  0  0  0
 10 11  1  0  0  0  0
 12 13  1  6  0  0  0
 12 14  1  0  0  0  0
 12 20  1  0  0  0  0
 14 15  1  0  0  0  0
 15 16  1  1  0  0  0
 15 17  1  0  0  0  0
 17  2  1  1  0  0  0
 17 18  1  0  0  0  0
 18 19  1  6  0  0  0
 18 20  1  0  0  0  0
 20 21  1  6  0  0  0
 22 21  1  1  0  0  0
 22 23  1  0  0  0  0
 22 30  1  0  0  0  0
 23 24  1  1  0  0  0
 23 25  1  0  0  0  0
 25 26  1  6  0  0  0
 25 27  1  0  0  0  0
 27 28  1  1  0  0  0
 27 29  1  0  0  0  0
 29 30  1  0  0  0  0
 29 31  1  6  0  0  0
 31 32  1  0  0  0  0
M  CHG  5   4   1  11   1  13   1  16   1  26   1
M  END
>  <CHROM.1>
-134.69988044,-54.85137629,-55.37619767,-39.15972466,96.61248195,79.20534451
170.40599651,156.41193481,-172.87173516,129.40404409,-138.99879567,-139.99674135
-39.10396612,64.00638164,69.90679673,69.50893796,-9.72910857,3.73815444,18.39082836
1.44515156,0.77584647,1.12203377

>  <Name>
1lc4

>  <RI>
0

>  <Rbt.Current_Directory>
/home/afrankz/demos/rdock_decoys_rna/rnas/1lc4

>  <Rbt.Executable>
rbdock ($Id: //depot/dev/client3/rdock/2013.1/src/exe/rbdock.cxx#4 $)

>  <Rbt.Library>
libRbt.so (2013.1, Build901 2013/11/27)

>  <Rbt.Parameter_File>
/export/apps/rDock/src/rDock_2013.1_src/data/scripts/dock_solv.prm

>  <Rbt.Receptor>
prm/blind_docking_100.prm

>  <SCORE>
-61.6542

>  <SCORE.INTER>
-53.4128

>  <SCORE.INTER.CONST>
1

>  <SCORE.INTER.POLAR>
-7.10926

>  <SCORE.INTER.ROT>
6

>  <SCORE.INTER.SOLV>
30.8562

>  <SCORE.INTER.VDW>
-29.7964

>  <SCORE.INTER.norm>
-1.66915

>  <SCORE.INTRA>
-9.87942

>  <SCORE.INTRA.DIHEDRAL>
-10.2731

>  <SCORE.INTRA.DIHEDRAL.0>
44.2576

>  <SCORE.INTRA.POLAR>
-2.16806

>  <SCORE.INTRA.POLAR.0>
-0.381556

>  <SCORE.INTRA.REPUL>
0

>  <SCORE.INTRA.REPUL.0>
0

>  <SCORE.INTRA.SOLV>
1.97996

>  <SCORE.INTRA.SOLV.lig_0>
-134.592

>  <SCORE.INTRA.VDW>
1.63857

>  <SCORE.INTRA.VDW.0>
-1.01417

>  <SCORE.INTRA.norm>
-0.308732

>  <SCORE.RESTR>
1.63801

>  <SCORE.RESTR.CAVITY>
1.63801

>  <SCORE.RESTR.norm>
0.0511877

>  <SCORE.SYSTEM>
0

>  <SCORE.SYSTEM.CONST>
0

>  <SCORE.SYSTEM.DIHEDRAL>
0

>  <SCORE.SYSTEM.SOLV>
0

>  <SCORE.SYSTEM.norm>
0

>  <SCORE.heavy>
32

>  <SCORE.norm>
-1.9267

>  <RMSD>
6.624

$$$$
1lc4
 OpenBabel02141814113D
libRbt.so/2013.1/901 2013/11/27
 32 34  0  0  0  0  0  0  0  0999 V2000
  -10.5615    6.1979   20.7521 C   0  0  2  0  0  0  0  0  0  0  0  0
   -9.9587    5.4487   19.7268 O   0  0  0  0  0  0  0  0  0  0  0  0
   -9.7985    7.5319   20.8839 C   0  0  2  0  0  0  0  0  0  0  0  0
   -9.8209    8.2599   19.6114 N   0  3  0  0  0  0  0  0  0  0  0  0
   -8.3499    7.2715   21.3595 C   0  0  0  0  0  0  0  0  0  0  0  0
   -8.4307    6.5430   22.7124 C   0  0  2  0  0  0  0  0  0  0  0  0
   -7.1179    6.3133   23.2349 O   0  0  0  0  0  0  0  0  0  0  0  0
   -9.2048    5.2135   22.5319 C   0  0  2  0  0  0  0  0  0  0  0  0
  -10.5356    5.4697   21.9995 O   0  0  0  0  0  0  0  0  0  0  0  0
   -9.3890    4.4348   23.8321 C   0  0  0  0  0  0  0  0  0  0  0  0
   -8.6081    5.0449   24.9400 N   0  3  0  0  0  0  0  0  0  0  0  0
  -11.1792    1.8086   17.9324 C   0  0  2  0  0  0  0  0  0  0  0  0
  -11.9088    0.8065   17.1341 N   0  3  0  0  0  0  0  0  0  0  0  0
  -12.1104    2.4214   18.9696 C   0  0  0  0  0  0  0  0  0  0  0  0
  -11.3641    3.4682   19.8042 C   0  0  2  0  0  0  0  0  0  0  0  0
  -12.2731    3.9499   20.8738 N   0  3  0  0  0  0  0  0  0  0  0  0
  -10.7824    4.5986   18.9036 C   0  0  2  0  0  0  0  0  0  0  0  0
   -9.8796    3.9734   17.8091 C   0  0  2  0  0  0  0  0  0  0  0  0
   -9.4879    4.9727   16.8992 O   0  0  0  0  0  0  0  0  0  0  0  0
  -10.6451    2.9045   17.0123 C   0  0  1  0  0  0  0  0  0  0  0  0
   -9.7674    2.3359   16.0412 O   0  0  0  0  0  0  0  0  0  0  0  0
  -10.2253    2.2675   14.7347 C   0  0  2  0  0  0  0  0  0  0  0  0
   -9.2488    1.4109   13.9108 C   0  0  2  0  0  0  0  0  0  0  0  0
   -9.1861    0.1123   14.4869 O   0  0  0  0  0  0  0  0  0  0  0  0
   -7.8553    2.0633   13.9282 C   0  0  1  0  0  0  0  0  0  0  0  0
   -6.8576    1.2635   13.1607 N   0  3  0  0  0  0  0  0  0  0  0  0
   -7.9570    3.4995   13.3589 C   0  0  2  0  0  0  0  0  0  0  0  0
   -6.6832    4.1394   13.3859 O   0  0  0  0  0  0  0  0  0  0  0  0
   -8.9905    4.3160   14.1569 C   0  0  2  0  0  0  0  0  0  0  0  0
  -10.2855    3.6130   14.1942 O   0  0  0  0  0  0  0  0  0  0  0  0
   -9.2407    5.6754   13.5427 C   0  0  0  0  0  0  0  0  0  0  0  0
  -10.3225    6.3500   14.1814 O   0  0  0  0  0  0  0  0  0  0  0  0
  1  2  1  6  0  0  0
  1  3  1  0  0  0  0
  1  9  1  0  0  0  0
  3  4  1  6  0  0  0
  3  5  1  0  0  0  0
  5  6  1  0  0  0  0
  6  7  1  6  0  0  0
  6  8  1  0  0  0  0
  8  9  1  0  0  0  0
  8 10  1  1  0  0  0
 10 11  1  0  0  0  0
 12 13  1  6  0  0  0
 12 14  1  0  0  0  0
 12 20  1  0  0  0  0
 14 15  1  0  0  0  0
 15 16  1  1  0  0  0
 15 17  1  0  0  0  0
 17  2  1  1  0  0  0
 17 18  1  0  0  0  0
 18 19  1  6  0  0  0
 18 20  1  0  0  0  0
 20 21  1  6  0  0  0
 22 21  1  1  0  0  0
 22 23  1  0  0  0  0
 22 30  1  0  0  0  0
 23 24  1  1  0  0  0
 23 25  1  0  0  0  0
 25 26  1  6  0  0  0
 25 27  1  0  0  0  0
 27 28  1  1  0  0  0
 27 29  1  0  0  0  0
 29 30  1  0  0  0  0
 29 31  1  6  0  0  0
 31 32  1  0  0  0  0
M  CHG  5   4   1  11   1  13   1  16   1  26   1
M  END
>  <CHROM.1>
-146.18323667,-65.38016995,-2.87377141,-51.26246460,-8.20893179,-168.69832316
63.81396629,161.87920400,-61.35380972,108.22974572,-170.14166251,168.71146047
-164.83564894,-54.88338048,172.23834428,-58.60122098,-9.60666165,4.17753240
17.99169887,-1.67785017,-1.04217790,-2.02425840

>  <Name>
1lc4

>  <RI>
0

>  <Rbt.Current_Directory>
/home/afrankz/demos/rdock_decoys_rna/rnas/1lc4

>  <Rbt.Executable>
rbdock ($Id: //depot/dev/client3/rdock/2013.1/src/exe/rbdock.cxx#4 $)

>  <Rbt.Library>
libRbt.so (2013.1, Build901 2013/11/27)

>  <Rbt.Parameter_File>
/export/apps/rDock/src/rDock_2013.1_src/data/scripts/dock_solv.prm

>  <Rbt.Receptor>
prm/blind_docking_100.prm

>  <SCORE>
-44.0918

>  <SCORE.INTER>
-31.4743

>  <SCORE.INTER.CONST>
1

>  <SCORE.INTER.POLAR>
-4.34773

>  <SCORE.INTER.ROT>
6

>  <SCORE.INTER.SOLV>
27.7412

>  <SCORE.INTER.VDW>
-23.3375

>  <SCORE.INTER.norm>
-0.983571

>  <SCORE.INTRA>
-13.584

>  <SCORE.INTRA.DIHEDRAL>
-21.1658

>  <SCORE.INTRA.DIHEDRAL.0>
44.2576

>  <SCORE.INTRA.POLAR>
-1.25608

>  <SCORE.INTRA.POLAR.0>
-0.381556

>  <SCORE.INTRA.REPUL>
0

>  <SCORE.INTRA.REPUL.0>
0

>  <SCORE.INTRA.SOLV>
2.90023

>  <SCORE.INTRA.SOLV.lig_0>
-134.592

>  <SCORE.INTRA.VDW>
-0.180551

>  <SCORE.INTRA.VDW.0>
-1.01417

>  <SCORE.INTRA.norm>
-0.4245

>  <SCORE.RESTR>
0.966446

>  <SCORE.RESTR.CAVITY>
0.966446

>  <SCORE.RESTR.norm>
0.0302015

>  <SCORE.SYSTEM>
0

>  <SCORE.SYSTEM.CONST>
0

>  <SCORE.SYSTEM.DIHEDRAL>
0

>  <SCORE.SYSTEM.SOLV>
0

>  <SCORE.SYSTEM.norm>
0

>  <SCORE.heavy>
32

>  <SCORE.norm>
-1.37787

>  <RMSD>
6.627

$$$$
1lc4
 OpenBabel02141814113D
libRbt.so/2013.1/901 2013/11/27
 32 34  0  0  0  0  0  0  0  0999 V2000
  -14.2101    1.7107   21.2542 C   0  0  2  0  0  0  0  0  0  0  0  0
  -14.0887    2.9555   20.6127 O   0  0  0  0  0  0  0  0  0  0  0  0
  -13.1004    0.7838   20.7174 C   0  0  2  0  0  0  0  0  0  0  0  0
  -11.7809    1.3770   20.9559 N   0  3  0  0  0  0  0  0  0  0  0  0
  -13.3269    0.4978   19.2142 C   0  0  0  0  0  0  0  0  0  0  0  0
  -14.7126   -0.1559   19.0711 C   0  0  2  0  0  0  0  0  0  0  0  0
  -14.9669   -0.4924   17.7032 O   0  0  0  0  0  0  0  0  0  0  0  0
  -15.7922    0.8081   19.6232 C   0  0  2  0  0  0  0  0  0  0  0  0
  -15.5143    1.1375   21.0140 O   0  0  0  0  0  0  0  0  0  0  0  0
  -17.2047    0.2308   19.5772 C   0  0  0  0  0  0  0  0  0  0  0  0
  -17.3422   -0.9294   20.4963 N   0  3  0  0  0  0  0  0  0  0  0  0
  -15.0737    6.8126   22.0661 C   0  0  2  0  0  0  0  0  0  0  0  0
  -15.0476    8.0900   22.8019 N   0  3  0  0  0  0  0  0  0  0  0  0
  -15.1695    5.6522   23.0472 C   0  0  0  0  0  0  0  0  0  0  0  0
  -15.1937    4.3175   22.2941 C   0  0  2  0  0  0  0  0  0  0  0  0
  -15.4067    3.2276   23.2786 N   0  3  0  0  0  0  0  0  0  0  0  0
  -13.9205    4.1426   21.4135 C   0  0  2  0  0  0  0  0  0  0  0  0
  -13.7873    5.3521   20.4527 C   0  0  2  0  0  0  0  0  0  0  0  0
  -12.5559    5.2780   19.7758 O   0  0  0  0  0  0  0  0  0  0  0  0
  -13.8002    6.6762   21.2339 C   0  0  1  0  0  0  0  0  0  0  0  0
  -13.7084    7.7589   20.3087 O   0  0  0  0  0  0  0  0  0  0  0  0
  -12.4380    8.1929   19.9637 C   0  0  2  0  0  0  0  0  0  0  0  0
  -12.4427    9.7291   19.8849 C   0  0  2  0  0  0  0  0  0  0  0  0
  -12.8205   10.2480   21.1538 O   0  0  0  0  0  0  0  0  0  0  0  0
  -13.4452   10.1835   18.8096 C   0  0  1  0  0  0  0  0  0  0  0  0
  -13.5093   11.6696   18.7021 N   0  3  0  0  0  0  0  0  0  0  0  0
  -13.0550    9.5548   17.4497 C   0  0  2  0  0  0  0  0  0  0  0  0
  -13.9823    9.9384   16.4369 O   0  0  0  0  0  0  0  0  0  0  0  0
  -12.9899    8.0210   17.5719 C   0  0  2  0  0  0  0  0  0  0  0  0
  -12.0909    7.6291   18.6723 O   0  0  0  0  0  0  0  0  0  0  0  0
  -12.4608    7.3704   16.3130 C   0  0  0  0  0  0  0  0  0  0  0  0
  -11.0597    7.1199   16.3995 O   0  0  0  0  0  0  0  0  0  0  0  0
  1  2  1  6  0  0  0
  1  3  1  0  0  0  0
  1  9  1  0  0  0  0
  3  4  1  6  0  0  0
  3  5  1  0  0  0  0
  5  6  1  0  0  0  0
  6  7  1  6  0  0  0
  6  8  1  0  0  0  0
  8  9  1  0  0  0  0
  8 10  1  1  0  0  0
 10 11  1  0  0  0  0
 12 13  1  1  0  0  0
 12 14  1  0  0  0  0
 12 20  1  0  0  0  0
 14 15  1  0  0  0  0
 15 16  1  1  0  0  0
 15 17  1  0  0  0  0
 17  2  1  6  0  0  0
 17 18  1  0  0  0  0
 18 19  1  1  0  0  0
 18 20  1  0  0  0  0
 20 21  1  6  0  0  0
 22 21  1  6  0  0  0
 22 23  1  0  0  0  0
 22 30  1  0  0  0  0
 23 24  1  1  0  0  0
 23 25  1  0  0  0  0
 25 26  1  6  0  0  0
 25 27  1  0  0  0  0
 27 28  1  6  0  0  0
 27 29  1  0  0  0  0
 29 30  1  0  0  0  0
 29 31  1  6  0  0  0
 31 32  1  0  0  0  0
M  CHG  5   4   1  11   1  13   1  16   1  26   1
M  END
>  <CHROM.1>
-123.04734750,-62.76084508,26.92581644,72.15925751,66.17667810,173.62054340
-164.46189802,-82.48961561,-56.36219612,148.95720172,-139.83076384,79.33402079
131.45087819,74.81615830,95.47935644,70.24845817,-13.92619013,5.16490321
19.94036795,2.19016914,-1.17365803,-2.72121055

>  <Name>
1lc4

>  <RI>
0

>  <Rbt.Current_Directory>
/home/afrankz/demos/rdock_decoys_rna/rnas/1lc4

>  <Rbt.Executable>
rbdock ($Id: //depot/dev/client3/rdock/2013.1/src/exe/rbdock.cxx#4 $)

>  <Rbt.Library>
libRbt.so (2013.1, Build901 2013/11/27)

>  <Rbt.Parameter_File>
/export/apps/rDock/src/rDock_2013.1_src/data/scripts/dock_solv.prm

>  <Rbt.Receptor>
prm/blind_docking_60.prm

>  <SCORE>
-22.4239

>  <SCORE.INTER>
-21.4221

>  <SCORE.INTER.CONST>
1

>  <SCORE.INTER.POLAR>
-4.67178

>  <SCORE.INTER.ROT>
6

>  <SCORE.INTER.SOLV>
24.375

>  <SCORE.INTER.VDW>
-14.4338

>  <SCORE.INTER.norm>
-0.669441

>  <SCORE.INTRA>
-8.98282

>  <SCORE.INTRA.DIHEDRAL>
-13.1236

>  <SCORE.INTRA.DIHEDRAL.0>
44.2576

>  <SCORE.INTRA.POLAR>
-0.459506

>  <SCORE.INTRA.POLAR.0>
-0.381556

>  <SCORE.INTRA.REPUL>
0

>  <SCORE.INTRA.REPUL.0>
0

>  <SCORE.INTRA.SOLV>
-0.0634755

>  <SCORE.INTRA.SOLV.lig_0>
-134.592

>  <SCORE.INTRA.VDW>
-0.826979

>  <SCORE.INTRA.VDW.0>
-1.01417

>  <SCORE.INTRA.norm>
-0.280713

>  <SCORE.RESTR>
7.98107

>  <SCORE.RESTR.CAVITY>
7.98107

>  <SCORE.RESTR.norm>
0.249408

>  <SCORE.SYSTEM>
0

>  <SCORE.SYSTEM.CONST>
0

>  <SCORE.SYSTEM.DIHEDRAL>
0

>  <SCORE.SYSTEM.SOLV>
0

>  <SCORE.SYSTEM.norm>
0

>  <SCORE.heavy>
32

>  <SCORE.norm>
-0.700746

>  <RMSD>
6.640

$$$$
1lc4
 OpenBabel02141814113D
libRbt.so/2013.1/901 2013/11/27
 32 34  0  0  0  0  0  0  0  0999 V2000
  -10.7418    5.7368   20.8192 C   0  0  2  0  0  0  0  0  0  0  0  0
  -10.1960    4.9441   19.7946 O   0  0  0  0  0  0  0  0  0  0  0  0
  -10.3606    7.2058   20.5443 C   0  0  2  0  0  0  0  0  0  0  0  0
  -10.8561    7.6236   19.2292 N   0  3  0  0  0  0  0  0  0  0  0  0
   -8.8283    7.3871   20.6535 C   0  0  0  0  0  0  0  0  0  0  0  0
   -8.4119    6.9625   22.0726 C   0  0  2  0  0  0  0  0  0  0  0  0
   -7.0051    7.1521   22.2578 O   0  0  0  0  0  0  0  0  0  0  0  0
   -8.8153    5.4848   22.3033 C   0  0  2  0  0  0  0  0  0  0  0  0
  -10.2483    5.3142   22.1095 O   0  0  0  0  0  0  0  0  0  0  0  0
   -8.4936    4.9778   23.7069 C   0  0  0  0  0  0  0  0  0  0  0  0
   -7.0257    4.8841   23.9220 N   0  3  0  0  0  0  0  0  0  0  0  0
  -11.3495    1.1916   18.1982 C   0  0  2  0  0  0  0  0  0  0  0  0
  -12.0965    0.1228   17.5101 N   0  3  0  0  0  0  0  0  0  0  0  0
  -12.1798    1.7452   19.3483 C   0  0  0  0  0  0  0  0  0  0  0  0
  -11.4150    2.8604   20.0698 C   0  0  2  0  0  0  0  0  0  0  0  0
  -12.2087    3.2856   21.2496 N   0  3  0  0  0  0  0  0  0  0  0  0
  -11.0514    4.0191   19.0937 C   0  0  2  0  0  0  0  0  0  0  0  0
  -10.2558    3.4500   17.8909 C   0  0  2  0  0  0  0  0  0  0  0  0
  -10.0707    4.4628   16.9317 O   0  0  0  0  0  0  0  0  0  0  0  0
  -11.0327    2.3118   17.2094 C   0  0  1  0  0  0  0  0  0  0  0  0
  -10.2499    1.7991   16.1319 O   0  0  0  0  0  0  0  0  0  0  0  0
  -10.8259    1.8029   14.8711 C   0  0  2  0  0  0  0  0  0  0  0  0
   -9.9195    1.0158   13.9092 C   0  0  2  0  0  0  0  0  0  0  0  0
   -9.7884   -0.3144   14.3946 O   0  0  0  0  0  0  0  0  0  0  0  0
   -8.5383    1.6904   13.8397 C   0  0  1  0  0  0  0  0  0  0  0  0
   -7.6064    0.9569   12.9355 N   0  3  0  0  0  0  0  0  0  0  0  0
   -8.7093    3.1568   13.3733 C   0  0  2  0  0  0  0  0  0  0  0  0
   -7.4462    3.8162   13.3236 O   0  0  0  0  0  0  0  0  0  0  0  0
   -9.6743    3.9044   14.3122 C   0  0  2  0  0  0  0  0  0  0  0  0
  -10.9518    3.1777   14.4238 O   0  0  0  0  0  0  0  0  0  0  0  0
   -9.9964    5.2943   13.8099 C   0  0  0  0  0  0  0  0  0  0  0  0
  -10.7990    6.0171   14.7409 O   0  0  0  0  0  0  0  0  0  0  0  0
  1  2  1  6  0  0  0
  1  3  1  0  0  0  0
  1  9  1  0  0  0  0
  3  4  1  6  0  0  0
  3  5  1  0  0  0  0
  5  6  1  0  0  0  0
  6  7  1  6  0  0  0
  6  8  1  0  0  0  0
  8  9  1  0  0  0  0
  8 10  1  1  0  0  0
 10 11  1  0  0  0  0
 12 13  1  6  0  0  0
 12 14  1  0  0  0  0
 12 20  1  0  0  0  0
 14 15  1  0  0  0  0
 15 16  1  1  0  0  0
 15 17  1  0  0  0  0
 17  2  1  1  0  0  0
 17 18  1  0  0  0  0
 18 19  1  6  0  0  0
 18 20  1  0  0  0  0
 20 21  1  6  0  0  0
 22 21  1  1  0  0  0
 22 23  1  0  0  0  0
 22 30  1  0  0  0  0
 23 24  1  1  0  0  0
 23 25  1  0  0  0  0
 25 26  1  6  0  0  0
 25 27  1  0  0  0  0
 27 28  1  1  0  0  0
 27 29  1  0  0  0  0
 29 30  1  0  0  0  0
 29 31  1  6  0  0  0
 31 32  1  0  0  0  0
M  CHG  5   4   1  11   1  13   1  16   1  26   1
M  END
>  <CHROM.1>
-128.75326045,-70.37322813,74.26493584,58.52007327,-68.01989128,47.28319865
64.03916655,170.52083444,73.20203082,114.69951634,-171.14071144,174.70630584
-64.13457288,68.48026369,-175.09110172,-69.37931958,-9.88485902,3.85886231
17.95235476,1.46906978,1.05741211,1.21115446

>  <Name>
1lc4

>  <RI>
0

>  <Rbt.Current_Directory>
/home/afrankz/demos/rdock_decoys_rna/rnas/1lc4

>  <Rbt.Executable>
rbdock ($Id: //depot/dev/client3/rdock/2013.1/src/exe/rbdock.cxx#4 $)

>  <Rbt.Library>
libRbt.so (2013.1, Build901 2013/11/27)

>  <Rbt.Parameter_File>
/export/apps/rDock/src/rDock_2013.1_src/data/scripts/dock_solv.prm

>  <Rbt.Receptor>
prm/blind_docking_100.prm

>  <SCORE>
-59.2556

>  <SCORE.INTER>
-41.3286

>  <SCORE.INTER.CONST>
1

>  <SCORE.INTER.POLAR>
-5.56806

>  <SCORE.INTER.ROT>
6

>  <SCORE.INTER.SOLV>
24.4169

>  <SCORE.INTER.VDW>
-24.7311

>  <SCORE.INTER.norm>
-1.29152

>  <SCORE.INTRA>
-20.4146

>  <SCORE.INTRA.DIHEDRAL>
-26.1683

>  <SCORE.INTRA.DIHEDRAL.0>
44.2576

>  <SCORE.INTRA.POLAR>
-1.6207

>  <SCORE.INTRA.POLAR.0>
-0.381556

>  <SCORE.INTRA.REPUL>
0

>  <SCORE.INTRA.REPUL.0>
0

>  <SCORE.INTRA.SOLV>
1.72464

>  <SCORE.INTRA.SOLV.lig_0>
-134.592

>  <SCORE.INTRA.VDW>
-2.68238

>  <SCORE.INTRA.VDW.0>
-1.01417

>  <SCORE.INTRA.norm>
-0.637956

>  <SCORE.RESTR>
2.48755

>  <SCORE.RESTR.CAVITY>
2.48755

>  <SCORE.RESTR.norm>
0.0777358

>  <SCORE.SYSTEM>
0

>  <SCORE.SYSTEM.CONST>
0

>  <SCORE.SYSTEM.DIHEDRAL>
0

>  <SCORE.SYSTEM.SOLV>
0

>  <SCORE.SYSTEM.norm>
0

>  <SCORE.heavy>
32

>  <SCORE.norm>
-1.85174

>  <RMSD>
6.646

$$$$
1lc4
 OpenBabel02141814113D
libRbt.so/2013.1/901 2013/11/27
 32 34  0  0  0  0  0  0  0  0999 V2000
  -12.3055    7.1593   16.2549 C   0  0  2  0  0  0  0  0  0  0  0  0
  -13.4260    6.4158   15.8451 O   0  0  0  0  0  0  0  0  0  0  0  0
  -11.5835    6.3671   17.3640 C   0  0  2  0  0  0  0  0  0  0  0  0
  -11.1905    5.0432   16.8716 N   0  3  0  0  0  0  0  0  0  0  0  0
  -12.4872    6.2584   18.6146 C   0  0  0  0  0  0  0  0  0  0  0  0
  -12.8115    7.6897   19.0771 C   0  0  2  0  0  0  0  0  0  0  0  0
  -13.6094    7.6616   20.2654 O   0  0  0  0  0  0  0  0  0  0  0  0
  -13.5325    8.4457   17.9334 C   0  0  2  0  0  0  0  0  0  0  0  0
  -12.7049    8.4618   16.7355 O   0  0  0  0  0  0  0  0  0  0  0  0
  -13.8527    9.8996   18.2715 C   0  0  0  0  0  0  0  0  0  0  0  0
  -14.9008   10.4438   17.3688 N   0  3  0  0  0  0  0  0  0  0  0  0
  -15.7624    6.2131   12.3152 C   0  0  2  0  0  0  0  0  0  0  0  0
  -16.1831    6.0501   10.9116 N   0  3  0  0  0  0  0  0  0  0  0  0
  -14.7655    7.3586   12.4268 C   0  0  0  0  0  0  0  0  0  0  0  0
  -14.3173    7.5359   13.8818 C   0  0  2  0  0  0  0  0  0  0  0  0
  -13.4430    8.7325   13.9605 N   0  3  0  0  0  0  0  0  0  0  0  0
  -13.6674    6.2327   14.4356 C   0  0  2  0  0  0  0  0  0  0  0  0
  -14.6579    5.0514   14.2700 C   0  0  2  0  0  0  0  0  0  0  0  0
  -14.0135    3.8492   14.6160 O   0  0  0  0  0  0  0  0  0  0  0  0
  -15.1148    4.9205   12.8080 C   0  0  1  0  0  0  0  0  0  0  0  0
  -16.0472    3.8444   12.7104 O   0  0  0  0  0  0  0  0  0  0  0  0
  -15.6039    2.6724   12.1178 C   0  0  2  0  0  0  0  0  0  0  0  0
  -16.6696    2.1868   11.1204 C   0  0  2  0  0  0  0  0  0  0  0  0
  -16.8689    3.1978   10.1405 O   0  0  0  0  0  0  0  0  0  0  0  0
  -17.9851    1.9121   11.8699 C   0  0  1  0  0  0  0  0  0  0  0  0
  -19.0655    1.4573   10.9480 N   0  3  0  0  0  0  0  0  0  0  0  0
  -17.7321    0.8583   12.9755 C   0  0  2  0  0  0  0  0  0  0  0  0
  -18.9299    0.6015   13.7050 O   0  0  0  0  0  0  0  0  0  0  0  0
  -16.6142    1.3366   13.9206 C   0  0  2  0  0  0  0  0  0  0  0  0
  -15.4019    1.6771   13.1544 O   0  0  0  0  0  0  0  0  0  0  0  0
  -16.2220    0.2746   14.9237 C   0  0  0  0  0  0  0  0  0  0  0  0
  -15.2720    0.7668   15.8663 O   0  0  0  0  0  0  0  0  0  0  0  0
  1  2  1  1  0  0  0
  1  3  1  0  0  0  0
  1  9  1  0  0  0  0
  3  4  1  6  0  0  0
  3  5  1  0  0  0  0
  5  6  1  0  0  0  0
  6  7  1  1  0  0  0
  6  8  1  0  0  0  0
  8  9  1  0  0  0  0
  8 10  1  1  0  0  0
 10 11  1  0  0  0  0
 12 13  1  6  0  0  0
 12 14  1  0  0  0  0
 12 20  1  0  0  0  0
 14 15  1  0  0  0  0
 15 16  1  6  0  0  0
 15 17  1  0  0  0  0
 17  2  1  1  0  0  0
 17 18  1  0  0  0  0
 18 19  1  6  0  0  0
 18 20  1  0  0  0  0
 20 21  1  1  0  0  0
 22 21  1  1  0  0  0
 22 23  1  0  0  0  0
 22 30  1  0  0  0  0
 23 24  1  6  0  0  0
 23 25  1  0  0  0  0
 25 26  1  6  0  0  0
 25 27  1  0  0  0  0
 27 28  1  1  0  0  0
 27 29  1  0  0  0  0
 29 30  1  0  0  0  0
 29 31  1  1  0  0  0
 31 32  1  0  0  0  0
M  CHG  5   4   1  11   1  13   1  16   1  26   1
M  END
>  <CHROM.1>
-132.85379042,-79.08410716,-60.49511984,72.30914443,-161.55108920,-62.32413036
175.41347941,58.48182634,76.01032498,131.84643615,-134.25904370,-179.31655328
63.48162383,-59.11991922,-174.86146824,-57.31177674,-14.91957682,5.00911211
14.61134538,-0.27637377,1.08312619,2.58660898

>  <Name>
1lc4

>  <RI>
0

>  <Rbt.Current_Directory>
/home/afrankz/demos/rdock_decoys_rna/rnas/1lc4

>  <Rbt.Executable>
rbdock ($Id: //depot/dev/client3/rdock/2013.1/src/exe/rbdock.cxx#4 $)

>  <Rbt.Library>
libRbt.so (2013.1, Build901 2013/11/27)

>  <Rbt.Parameter_File>
/export/apps/rDock/src/rDock_2013.1_src/data/scripts/dock_solv.prm

>  <Rbt.Receptor>
prm/pocket_docking_7.prm

>  <SCORE>
-30.2438

>  <SCORE.INTER>
-10.7574

>  <SCORE.INTER.CONST>
1

>  <SCORE.INTER.POLAR>
-1.96321

>  <SCORE.INTER.ROT>
6

>  <SCORE.INTER.SOLV>
17.8875

>  <SCORE.INTER.VDW>
-14.1901

>  <SCORE.INTER.norm>
-0.336168

>  <SCORE.INTRA>
-19.4864

>  <SCORE.INTRA.DIHEDRAL>
-20.0364

>  <SCORE.INTRA.DIHEDRAL.0>
44.2576

>  <SCORE.INTRA.POLAR>
-1.7997

>  <SCORE.INTRA.POLAR.0>
-0.381556

>  <SCORE.INTRA.REPUL>
0

>  <SCORE.INTRA.REPUL.0>
0

>  <SCORE.INTRA.SOLV>
1.51766

>  <SCORE.INTRA.SOLV.lig_0>
-134.592

>  <SCORE.INTRA.VDW>
-4.10802

>  <SCORE.INTRA.VDW.0>
-1.01417

>  <SCORE.INTRA.norm>
-0.60895

>  <SCORE.RESTR>
0

>  <SCORE.RESTR.CAVITY>
0

>  <SCORE.RESTR.norm>
0

>  <SCORE.SYSTEM>
0

>  <SCORE.SYSTEM.CONST>
0

>  <SCORE.SYSTEM.DIHEDRAL>
0

>  <SCORE.SYSTEM.SOLV>
0

>  <SCORE.SYSTEM.norm>
0

>  <SCORE.heavy>
32

>  <SCORE.norm>
-0.945118

>  <RMSD>
6.647

$$$$
1lc4
 OpenBabel02141814113D
libRbt.so/2013.1/901 2013/11/27
 32 34  0  0  0  0  0  0  0  0999 V2000
   -5.5763    6.0600   23.9255 C   0  0  2  0  0  0  0  0  0  0  0  0
   -6.7721    6.7336   24.2296 O   0  0  0  0  0  0  0  0  0  0  0  0
   -5.5194    4.7752   24.7769 C   0  0  2  0  0  0  0  0  0  0  0  0
   -6.6873    3.9315   24.5055 N   0  3  0  0  0  0  0  0  0  0  0  0
   -5.4204    5.1355   26.2779 C   0  0  0  0  0  0  0  0  0  0  0  0
   -4.1502    5.9831   26.4677 C   0  0  2  0  0  0  0  0  0  0  0  0
   -3.9714    6.3120   27.8494 O   0  0  0  0  0  0  0  0  0  0  0  0
   -4.2514    7.2586   25.5945 C   0  0  2  0  0  0  0  0  0  0  0  0
   -4.4334    6.9017   24.1947 O   0  0  0  0  0  0  0  0  0  0  0  0
   -3.0122    8.1472   25.6687 C   0  0  0  0  0  0  0  0  0  0  0  0
   -3.2006    9.3996   24.8905 N   0  3  0  0  0  0  0  0  0  0  0  0
  -10.0278    8.4546   22.1323 C   0  0  2  0  0  0  0  0  0  0  0  0
  -10.8326    9.2142   21.1581 N   0  3  0  0  0  0  0  0  0  0  0  0
   -9.1122    9.4010   22.8968 C   0  0  0  0  0  0  0  0  0  0  0  0
   -8.2669    8.6223   23.9109 C   0  0  2  0  0  0  0  0  0  0  0  0
   -7.4809    9.5945   24.7108 N   0  3  0  0  0  0  0  0  0  0  0  0
   -7.4064    7.5298   23.2086 C   0  0  2  0  0  0  0  0  0  0  0  0
   -8.3296    6.5986   22.3814 C   0  0  2  0  0  0  0  0  0  0  0  0
   -7.5417    5.7169   21.6186 O   0  0  0  0  0  0  0  0  0  0  0  0
   -9.1881    7.4109   21.3983 C   0  0  1  0  0  0  0  0  0  0  0  0
  -10.0422    6.5180   20.6842 O   0  0  0  0  0  0  0  0  0  0  0  0
  -11.1130    5.9744   21.3764 C   0  0  2  0  0  0  0  0  0  0  0  0
  -11.2045    4.4739   21.0503 C   0  0  2  0  0  0  0  0  0  0  0  0
   -9.9882    3.8491   21.4408 O   0  0  0  0  0  0  0  0  0  0  0  0
  -11.4298    4.2911   19.5392 C   0  0  1  0  0  0  0  0  0  0  0  0
  -11.5056    2.8511   19.1587 N   0  3  0  0  0  0  0  0  0  0  0  0
  -12.7226    5.0340   19.1223 C   0  0  2  0  0  0  0  0  0  0  0  0
  -12.9444    4.9034   17.7200 O   0  0  0  0  0  0  0  0  0  0  0  0
  -12.6349    6.5189   19.5211 C   0  0  2  0  0  0  0  0  0  0  0  0
  -12.3268    6.6501   20.9565 O   0  0  0  0  0  0  0  0  0  0  0  0
  -13.9348    7.2529   19.2770 C   0  0  0  0  0  0  0  0  0  0  0  0
  -14.9891    6.7391   20.0881 O   0  0  0  0  0  0  0  0  0  0  0  0
  1  2  1  1  0  0  0
  1  3  1  0  0  0  0
  1  9  1  0  0  0  0
  3  4  1  1  0  0  0
  3  5  1  0  0  0  0
  5  6  1  0  0  0  0
  6  7  1  1  0  0  0
  6  8  1  0  0  0  0
  8  9  1  0  0  0  0
  8 10  1  6  0  0  0
 10 11  1  0  0  0  0
 12 13  1  6  0  0  0
 12 14  1  0  0  0  0
 12 20  1  0  0  0  0
 14 15  1  0  0  0  0
 15 16  1  6  0  0  0
 15 17  1  0  0  0  0
 17  2  1  1  0  0  0
 17 18  1  0  0  0  0
 18 19  1  6  0  0  0
 18 20  1  0  0  0  0
 20 21  1  1  0  0  0
 22 21  1  6  0  0  0
 22 23  1  0  0  0  0
 22 30  1  0  0  0  0
 23 24  1  6  0  0  0
 23 25  1  0  0  0  0
 25 26  1  1  0  0  0
 25 27  1  0  0  0  0
 27 28  1  6  0  0  0
 27 29  1  0  0  0  0
 29 30  1  0  0  0  0
 29 31  1  1  0  0  0
 31 32  1  0  0  0  0
M  CHG  5   4   1  11   1  13   1  16   1  26   1
M  END
>  <CHROM.1>
-149.53250069,-154.89361763,-62.31880040,-60.68758389,-175.99732315,65.16675370
-172.03524525,-58.18039497,168.32291491,-48.70792722,-135.90279771,169.22770313
150.03563511,-60.16784775,63.70755084,-179.44131716,-8.64299782,6.49951532
22.53715150,-0.22101611,0.61600684,-2.98743924

>  <Name>
1lc4

>  <RI>
0

>  <Rbt.Current_Directory>
/home/afrankz/demos/rdock_decoys_rna/rnas/1lc4

>  <Rbt.Executable>
rbdock ($Id: //depot/dev/client3/rdock/2013.1/src/exe/rbdock.cxx#4 $)

>  <Rbt.Library>
libRbt.so (2013.1, Build901 2013/11/27)

>  <Rbt.Parameter_File>
/export/apps/rDock/src/rDock_2013.1_src/data/scripts/dock_solv.prm

>  <Rbt.Receptor>
prm/pocket_docking_8.prm

>  <SCORE>
-41.0454

>  <SCORE.INTER>
-20.2429

>  <SCORE.INTER.CONST>
1

>  <SCORE.INTER.POLAR>
-4.0584

>  <SCORE.INTER.ROT>
6

>  <SCORE.INTER.SOLV>
23.2316

>  <SCORE.INTER.VDW>
-15.3112

>  <SCORE.INTER.norm>
-0.632592

>  <SCORE.INTRA>
-20.8025

>  <SCORE.INTRA.DIHEDRAL>
-27.7868

>  <SCORE.INTRA.DIHEDRAL.0>
44.2576

>  <SCORE.INTRA.POLAR>
-0.969499

>  <SCORE.INTRA.POLAR.0>
-0.381556

>  <SCORE.INTRA.REPUL>
0

>  <SCORE.INTRA.REPUL.0>
0

>  <SCORE.INTRA.SOLV>
-0.296164

>  <SCORE.INTRA.SOLV.lig_0>
-134.592

>  <SCORE.INTRA.VDW>
-3.46468

>  <SCORE.INTRA.VDW.0>
-1.01417

>  <SCORE.INTRA.norm>
-0.650077

>  <SCORE.RESTR>
0

>  <SCORE.RESTR.CAVITY>
0

>  <SCORE.RESTR.norm>
0

>  <SCORE.SYSTEM>
0

>  <SCORE.SYSTEM.CONST>
0

>  <SCORE.SYSTEM.DIHEDRAL>
0

>  <SCORE.SYSTEM.SOLV>
0

>  <SCORE.SYSTEM.norm>
0

>  <SCORE.heavy>
32

>  <SCORE.norm>
-1.28267

>  <RMSD>
6.675

$$$$
1lc4
 OpenBabel02141814113D
libRbt.so/2013.1/901 2013/11/27
 32 34  0  0  0  0  0  0  0  0999 V2000
  -10.5520    5.8417   12.3087 C   0  0  2  0  0  0  0  0  0  0  0  0
  -11.2645    6.8658   12.9563 O   0  0  0  0  0  0  0  0  0  0  0  0
  -10.3868    4.6712   13.2995 C   0  0  2  0  0  0  0  0  0  0  0  0
  -11.6984    4.1993   13.7543 N   0  3  0  0  0  0  0  0  0  0  0  0
   -9.4988    5.1032   14.4900 C   0  0  0  0  0  0  0  0  0  0  0  0
   -8.1392    5.5415   13.9182 C   0  0  2  0  0  0  0  0  0  0  0  0
   -7.2481    5.9102   14.9762 O   0  0  0  0  0  0  0  0  0  0  0  0
   -8.3543    6.7147   12.9298 C   0  0  2  0  0  0  0  0  0  0  0  0
   -9.2632    6.3191   11.8633 O   0  0  0  0  0  0  0  0  0  0  0  0
   -7.0672    7.1922   12.2621 C   0  0  0  0  0  0  0  0  0  0  0  0
   -6.6142    6.2340   11.2197 N   0  3  0  0  0  0  0  0  0  0  0  0
  -15.3537    7.9638   13.1368 C   0  0  2  0  0  0  0  0  0  0  0  0
  -16.8100    7.9404   13.3657 N   0  3  0  0  0  0  0  0  0  0  0  0
  -14.9678    6.8721   12.1480 C   0  0  0  0  0  0  0  0  0  0  0  0
  -13.4546    6.8838   11.9044 C   0  0  2  0  0  0  0  0  0  0  0  0
  -13.1418    5.8871   10.8501 N   0  3  0  0  0  0  0  0  0  0  0  0
  -12.6669    6.6767   13.2325 C   0  0  2  0  0  0  0  0  0  0  0  0
  -13.1002    7.7515   14.2625 C   0  0  2  0  0  0  0  0  0  0  0  0
  -12.5145    7.4665   15.5098 O   0  0  0  0  0  0  0  0  0  0  0  0
  -14.6247    7.7379   14.4599 C   0  0  1  0  0  0  0  0  0  0  0  0
  -14.9792    8.7619   15.3886 O   0  0  0  0  0  0  0  0  0  0  0  0
  -15.6501    8.3723   16.5372 C   0  0  2  0  0  0  0  0  0  0  0  0
  -16.3175    9.6078   17.1652 C   0  0  2  0  0  0  0  0  0  0  0  0
  -17.2242   10.1635   16.2212 O   0  0  0  0  0  0  0  0  0  0  0  0
  -15.2386   10.6418   17.5320 C   0  0  1  0  0  0  0  0  0  0  0  0
  -15.8298   11.8746   18.1275 N   0  3  0  0  0  0  0  0  0  0  0  0
  -14.2245    9.9970   18.5081 C   0  0  2  0  0  0  0  0  0  0  0  0
  -13.1967   10.9253   18.8467 O   0  0  0  0  0  0  0  0  0  0  0  0
  -13.6214    8.7245   17.8846 C   0  0  2  0  0  0  0  0  0  0  0  0
  -14.6897    7.8007   17.4630 O   0  0  0  0  0  0  0  0  0  0  0  0
  -12.7432    7.9725   18.8599 C   0  0  0  0  0  0  0  0  0  0  0  0
  -11.6457    8.7687   19.3013 O   0  0  0  0  0  0  0  0  0  0  0  0
  1  2  1  1  0  0  0
  1  3  1  0  0  0  0
  1  9  1  0  0  0  0
  3  4  1  1  0  0  0
  3  5  1  0  0  0  0
  5  6  1  0  0  0  0
  6  7  1  1  0  0  0
  6  8  1  0  0  0  0
  8  9  1  0  0  0  0
  8 10  1  6  0  0  0
 10 11  1  0  0  0  0
 12 13  1  1  0  0  0
 12 14  1  0  0  0  0
 12 20  1  0  0  0  0
 14 15  1  0  0  0  0
 15 16  1  6  0  0  0
 15 17  1  0  0  0  0
 17  2  1  6  0  0  0
 17 18  1  0  0  0  0
 18 19  1  1  0  0  0
 18 20  1  0  0  0  0
 20 21  1  1  0  0  0
 22 21  1  6  0  0  0
 22 23  1  0  0  0  0
 22 30  1  0  0  0  0
 23 24  1  6  0  0  0
 23 25  1  0  0  0  0
 25 26  1  1  0  0  0
 25 27  1  0  0  0  0
 27 28  1  6  0  0  0
 27 29  1  0  0  0  0
 29 30  1  0  0  0  0
 29 31  1  1  0  0  0
 31 32  1  0  0  0  0
M  CHG  5   4   1  11   1  13   1  16   1  26   1
M  END
>  <CHROM.1>
-71.06273039,-76.72671232,39.09740493,-141.20964066,74.56702504,-178.02667734
141.77210936,174.74724096,-62.32987058,116.49873535,-162.37776706,-51.56691037
-53.67843908,-54.69416171,-60.46726201,-59.42219517,-12.55448954,7.62197471
14.84544112,0.73337997,0.22325849,-2.02012603

>  <Name>
1lc4

>  <RI>
0

>  <Rbt.Current_Directory>
/home/afrankz/demos/rdock_decoys_rna/rnas/1lc4

>  <Rbt.Executable>
rbdock ($Id: //depot/dev/client3/rdock/2013.1/src/exe/rbdock.cxx#4 $)

>  <Rbt.Library>
libRbt.so (2013.1, Build901 2013/11/27)

>  <Rbt.Parameter_File>
/export/apps/rDock/src/rDock_2013.1_src/data/scripts/dock_solv.prm

>  <Rbt.Receptor>
prm/pocket_docking_8.prm

>  <SCORE>
-60.2868

>  <SCORE.INTER>
-51.4451

>  <SCORE.INTER.CONST>
1

>  <SCORE.INTER.POLAR>
-8.63136

>  <SCORE.INTER.ROT>
6

>  <SCORE.INTER.SOLV>
19.0875

>  <SCORE.INTER.VDW>
-19.488

>  <SCORE.INTER.norm>
-1.60766

>  <SCORE.INTRA>
-8.84173

>  <SCORE.INTRA.DIHEDRAL>
-23.5856

>  <SCORE.INTRA.DIHEDRAL.0>
44.2576

>  <SCORE.INTRA.POLAR>
0.349521

>  <SCORE.INTRA.POLAR.0>
-0.381556

>  <SCORE.INTRA.REPUL>
0

>  <SCORE.INTRA.REPUL.0>
0

>  <SCORE.INTRA.SOLV>
4.25321

>  <SCORE.INTRA.SOLV.lig_0>
-134.592

>  <SCORE.INTRA.VDW>
-0.363884

>  <SCORE.INTRA.VDW.0>
-1.01417

>  <SCORE.INTRA.norm>
-0.276304

>  <SCORE.RESTR>
0

>  <SCORE.RESTR.CAVITY>
0

>  <SCORE.RESTR.norm>
0

>  <SCORE.SYSTEM>
0

>  <SCORE.SYSTEM.CONST>
0

>  <SCORE.SYSTEM.DIHEDRAL>
0

>  <SCORE.SYSTEM.SOLV>
0

>  <SCORE.SYSTEM.norm>
0

>  <SCORE.heavy>
32

>  <SCORE.norm>
-1.88396

>  <RMSD>
6.677

$$$$
1lc4
 OpenBabel02141814113D
libRbt.so/2013.1/901 2013/11/27
 32 34  0  0  0  0  0  0  0  0999 V2000
  -10.7923    5.7007   20.7318 C   0  0  2  0  0  0  0  0  0  0  0  0
  -10.2169    4.9113   19.7210 O   0  0  0  0  0  0  0  0  0  0  0  0
  -10.3782    7.1666   20.4903 C   0  0  2  0  0  0  0  0  0  0  0  0
  -10.8132    7.6069   19.1611 N   0  3  0  0  0  0  0  0  0  0  0  0
   -8.8492    7.3231   20.6639 C   0  0  0  0  0  0  0  0  0  0  0  0
   -8.4975    6.8761   22.0937 C   0  0  2  0  0  0  0  0  0  0  0  0
   -7.0968    7.0419   22.3383 O   0  0  0  0  0  0  0  0  0  0  0  0
   -8.9321    5.4023   22.2902 C   0  0  2  0  0  0  0  0  0  0  0  0
  -10.3584    5.2560   22.0361 O   0  0  0  0  0  0  0  0  0  0  0  0
   -8.6757    4.8746   23.6996 C   0  0  0  0  0  0  0  0  0  0  0  0
   -7.2194    4.7580   23.9739 N   0  3  0  0  0  0  0  0  0  0  0  0
  -11.2230    1.1119   18.1359 C   0  0  2  0  0  0  0  0  0  0  0  0
  -11.9304    0.0113   17.4563 N   0  3  0  0  0  0  0  0  0  0  0  0
  -12.0624    1.6278   19.2968 C   0  0  0  0  0  0  0  0  0  0  0  0
  -11.3388    2.7756   20.0097 C   0  0  2  0  0  0  0  0  0  0  0  0
  -12.1356    3.1648   21.1998 N   0  3  0  0  0  0  0  0  0  0  0  0
  -11.0393    3.9495   19.0301 C   0  0  2  0  0  0  0  0  0  0  0  0
  -10.2344    3.4166   17.8169 C   0  0  2  0  0  0  0  0  0  0  0  0
  -10.1065    4.4369   16.8563 O   0  0  0  0  0  0  0  0  0  0  0  0
  -10.9686    2.2454   17.1442 C   0  0  1  0  0  0  0  0  0  0  0  0
  -10.1775    1.7681   16.0565 O   0  0  0  0  0  0  0  0  0  0  0  0
  -10.7486    1.8014   14.7939 C   0  0  2  0  0  0  0  0  0  0  0  0
   -9.8452    1.0255   13.8202 C   0  0  2  0  0  0  0  0  0  0  0  0
   -9.7271   -0.3149   14.2800 O   0  0  0  0  0  0  0  0  0  0  0  0
   -8.4581    1.6896   13.7689 C   0  0  1  0  0  0  0  0  0  0  0  0
   -7.5289    0.9660   12.8540 N   0  3  0  0  0  0  0  0  0  0  0  0
   -8.6149    3.1662   13.3306 C   0  0  2  0  0  0  0  0  0  0  0  0
   -7.3461    3.8157   13.2984 O   0  0  0  0  0  0  0  0  0  0  0  0
   -9.5772    3.9036   14.2803 C   0  0  2  0  0  0  0  0  0  0  0  0
  -10.8612    3.1857   14.3730 O   0  0  0  0  0  0  0  0  0  0  0  0
   -9.8857    5.3057   13.8041 C   0  0  0  0  0  0  0  0  0  0  0  0
  -10.7871    5.9736   14.6842 O   0  0  0  0  0  0  0  0  0  0  0  0
  1  2  1  6  0  0  0
  1  3  1  0  0  0  0
  1  9  1  0  0  0  0
  3  4  1  6  0  0  0
  3  5  1  0  0  0  0
  5  6  1  0  0  0  0
  6  7  1  6  0  0  0
  6  8  1  0  0  0  0
  8  9  1  0  0  0  0
  8 10  1  1  0  0  0
 10 11  1  0  0  0  0
 12 13  1  6  0  0  0
 12 14  1  0  0  0  0
 12 20  1  0  0  0  0
 14 15  1  0  0  0  0
 15 16  1  1  0  0  0
 15 17  1  0  0  0  0
 17  2  1  1  0  0  0
 17 18  1  0  0  0  0
 18 19  1  6  0  0  0
 18 20  1  0  0  0  0
 20 21  1  6  0  0  0
 22 21  1  1  0  0  0
 22 23  1  0  0  0  0
 22 30  1  0  0  0  0
 23 24  1  1  0  0  0
 23 25  1  0  0  0  0
 25 26  1  6  0  0  0
 25 27  1  0  0  0  0
 27 28  1  1  0  0  0
 27 29  1  0  0  0  0
 29 30  1  0  0  0  0
 29 31  1  6  0  0  0
 31 32  1  0  0  0  0
M  CHG  5   4   1  11   1  13   1  16   1  26   1
M  END
>  <CHROM.1>
-132.48263113,-71.84616046,-52.22039401,67.37252345,-67.92853078,-72.87003047
65.80445797,49.91035437,100.28188554,117.44040262,-170.10225325,-178.91222942
54.87123855,-174.63315542,179.44045371,47.06288414,-9.86094600,3.81482520
17.90929487,-1.50490338,-1.10606030,-1.94795261

>  <Name>
1lc4

>  <RI>
0

>  <Rbt.Current_Directory>
/home/afrankz/demos/rdock_decoys_rna/rnas/1lc4

>  <Rbt.Executable>
rbdock ($Id: //depot/dev/client3/rdock/2013.1/src/exe/rbdock.cxx#4 $)

>  <Rbt.Library>
libRbt.so (2013.1, Build901 2013/11/27)

>  <Rbt.Parameter_File>
/export/apps/rDock/src/rDock_2013.1_src/data/scripts/dock_solv.prm

>  <Rbt.Receptor>
prm/blind_docking_100.prm

>  <SCORE>
-59.1506

>  <SCORE.INTER>
-40.8006

>  <SCORE.INTER.CONST>
1

>  <SCORE.INTER.POLAR>
-5.51614

>  <SCORE.INTER.ROT>
6

>  <SCORE.INTER.SOLV>
25.7219

>  <SCORE.INTER.VDW>
-24.9872

>  <SCORE.INTER.norm>
-1.27502

>  <SCORE.INTRA>
-20.7628

>  <SCORE.INTRA.DIHEDRAL>
-21.6064

>  <SCORE.INTRA.DIHEDRAL.0>
44.2576

>  <SCORE.INTRA.POLAR>
-2.39488

>  <SCORE.INTRA.POLAR.0>
-0.381556

>  <SCORE.INTRA.REPUL>
0

>  <SCORE.INTRA.REPUL.0>
0

>  <SCORE.INTRA.SOLV>
1.34464

>  <SCORE.INTRA.SOLV.lig_0>
-134.592

>  <SCORE.INTRA.VDW>
-2.48938

>  <SCORE.INTRA.VDW.0>
-1.01417

>  <SCORE.INTRA.norm>
-0.648838

>  <SCORE.RESTR>
2.41292

>  <SCORE.RESTR.CAVITY>
2.41292

>  <SCORE.RESTR.norm>
0.0754037

>  <SCORE.SYSTEM>
0

>  <SCORE.SYSTEM.CONST>
0

>  <SCORE.SYSTEM.DIHEDRAL>
0

>  <SCORE.SYSTEM.SOLV>
0

>  <SCORE.SYSTEM.norm>
0

>  <SCORE.heavy>
32

>  <SCORE.norm>
-1.84845

>  <RMSD>
6.702

$$$$
1lc4
 OpenBabel02141814113D
libRbt.so/2013.1/901 2013/11/27
 32 34  0  0  0  0  0  0  0  0999 V2000
   -6.2546    6.2428   24.0055 C   0  0  2  0  0  0  0  0  0  0  0  0
   -7.5978    6.5552   23.7330 O   0  0  0  0  0  0  0  0  0  0  0  0
   -6.2222    5.2558   25.1903 C   0  0  2  0  0  0  0  0  0  0  0  0
   -6.9930    4.0502   24.8708 N   0  3  0  0  0  0  0  0  0  0  0  0
   -6.7543    5.9430   26.4698 C   0  0  0  0  0  0  0  0  0  0  0  0
   -5.8624    7.1667   26.7431 C   0  0  2  0  0  0  0  0  0  0  0  0
   -6.2722    7.8242   27.9469 O   0  0  0  0  0  0  0  0  0  0  0  0
   -5.9250    8.1265   25.5288 C   0  0  2  0  0  0  0  0  0  0  0  0
   -5.5053    7.4382   24.3163 O   0  0  0  0  0  0  0  0  0  0  0  0
   -5.0286    9.3535   25.6758 C   0  0  0  0  0  0  0  0  0  0  0  0
   -5.6209   10.3435   26.6132 N   0  3  0  0  0  0  0  0  0  0  0  0
  -10.2100    7.4909   20.5297 C   0  0  2  0  0  0  0  0  0  0  0  0
  -10.8178    7.5888   19.1900 N   0  3  0  0  0  0  0  0  0  0  0  0
   -8.8362    8.1474   20.5238 C   0  0  0  0  0  0  0  0  0  0  0  0
   -8.1919    8.0488   21.9110 C   0  0  2  0  0  0  0  0  0  0  0  0
   -6.9133    8.8021   21.8887 N   0  3  0  0  0  0  0  0  0  0  0  0
   -8.0508    6.5649   22.3643 C   0  0  2  0  0  0  0  0  0  0  0  0
   -9.4390    5.8762   22.3156 C   0  0  2  0  0  0  0  0  0  0  0  0
   -9.2869    4.4997   22.5645 O   0  0  0  0  0  0  0  0  0  0  0  0
  -10.0739    6.0212   20.9230 C   0  0  1  0  0  0  0  0  0  0  0  0
  -11.3599    5.4025   20.9351 O   0  0  0  0  0  0  0  0  0  0  0  0
  -11.4044    4.0357   21.1613 C   0  0  2  0  0  0  0  0  0  0  0  0
  -11.5252    3.3127   19.8089 C   0  0  2  0  0  0  0  0  0  0  0  0
  -10.3979    3.6506   19.0107 O   0  0  0  0  0  0  0  0  0  0  0  0
  -12.8207    3.7546   19.1059 C   0  0  1  0  0  0  0  0  0  0  0  0
  -12.9821    3.1004   17.7755 N   0  3  0  0  0  0  0  0  0  0  0  0
  -14.0303    3.4388   20.0192 C   0  0  2  0  0  0  0  0  0  0  0  0
  -15.2451    3.8611   19.4039 O   0  0  0  0  0  0  0  0  0  0  0  0
  -13.8531    4.1172   21.3903 C   0  0  2  0  0  0  0  0  0  0  0  0
  -12.5597    3.7407   21.9886 O   0  0  0  0  0  0  0  0  0  0  0  0
  -14.9309    3.7116   22.3710 C   0  0  0  0  0  0  0  0  0  0  0  0
  -16.2156    4.1760   21.9622 O   0  0  0  0  0  0  0  0  0  0  0  0
  1  2  1  1  0  0  0
  1  3  1  0  0  0  0
  1  9  1  0  0  0  0
  3  4  1  6  0  0  0
  3  5  1  0  0  0  0
  5  6  1  0  0  0  0
  6  7  1  1  0  0  0
  6  8  1  0  0  0  0
  8  9  1  0  0  0  0
  8 10  1  1  0  0  0
 10 11  1  0  0  0  0
 12 13  1  6  0  0  0
 12 14  1  0  0  0  0
 12 20  1  0  0  0  0
 14 15  1  0  0  0  0
 15 16  1  6  0  0  0
 15 17  1  0  0  0  0
 17  2  1  1  0  0  0
 17 18  1  0  0  0  0
 18 19  1  6  0  0  0
 18 20  1  0  0  0  0
 20 21  1  1  0  0  0
 22 21  1  6  0  0  0
 22 23  1  0  0  0  0
 22 30  1  0  0  0  0
 23 24  1  6  0  0  0
 23 25  1  0  0  0  0
 25 26  1  6  0  0  0
 25 27  1  0  0  0  0
 27 28  1  6  0  0  0
 27 29  1  0  0  0  0
 29 30  1  0  0  0  0
 29 31  1  1  0  0  0
 31 32  1  0  0  0  0
M  CHG  5   4   1  11   1  13   1  16   1  26   1
M  END
>  <CHROM.1>
-135.15864557,-104.17791590,-156.20695240,-56.88846884,-75.77903615,-58.48903809
72.14225029,95.36638809,-62.05431983,174.61937958,-98.15590852,-61.44385897
66.09923021,-54.51337736,-65.67503450,-57.72316813,-9.62647257,5.86973914
22.43042518,0.38757370,0.63597911,1.92934407

>  <Name>
1lc4

>  <RI>
0

>  <Rbt.Current_Directory>
/home/afrankz/demos/rdock_decoys_rna/rnas/1lc4

>  <Rbt.Executable>
rbdock ($Id: //depot/dev/client3/rdock/2013.1/src/exe/rbdock.cxx#4 $)

>  <Rbt.Library>
libRbt.so (2013.1, Build901 2013/11/27)

>  <Rbt.Parameter_File>
/export/apps/rDock/src/rDock_2013.1_src/data/scripts/dock_solv.prm

>  <Rbt.Receptor>
prm/pocket_docking_6.prm

>  <SCORE>
-43.3072

>  <SCORE.INTER>
-27.036

>  <SCORE.INTER.CONST>
1

>  <SCORE.INTER.POLAR>
-3.76762

>  <SCORE.INTER.ROT>
6

>  <SCORE.INTER.SOLV>
19.826

>  <SCORE.INTER.VDW>
-19.6739

>  <SCORE.INTER.norm>
-0.844874

>  <SCORE.INTRA>
-16.6116

>  <SCORE.INTRA.DIHEDRAL>
-21.6502

>  <SCORE.INTRA.DIHEDRAL.0>
44.2576

>  <SCORE.INTRA.POLAR>
-1.39931

>  <SCORE.INTRA.POLAR.0>
-0.381556

>  <SCORE.INTRA.REPUL>
0.0300476

>  <SCORE.INTRA.REPUL.0>
0

>  <SCORE.INTRA.SOLV>
0.42707

>  <SCORE.INTRA.SOLV.lig_0>
-134.592

>  <SCORE.INTRA.VDW>
-1.39257

>  <SCORE.INTRA.VDW.0>
-1.01417

>  <SCORE.INTRA.norm>
-0.519111

>  <SCORE.RESTR>
0.340301

>  <SCORE.RESTR.CAVITY>
0.340301

>  <SCORE.RESTR.norm>
0.0106344

>  <SCORE.SYSTEM>
0

>  <SCORE.SYSTEM.CONST>
0

>  <SCORE.SYSTEM.DIHEDRAL>
0

>  <SCORE.SYSTEM.SOLV>
0

>  <SCORE.SYSTEM.norm>
0

>  <SCORE.heavy>
32

>  <SCORE.norm>
-1.35335

>  <RMSD>
6.712

$$$$
1lc4
 OpenBabel02141814113D
libRbt.so/2013.1/901 2013/11/27
 32 34  0  0  0  0  0  0  0  0999 V2000
   -6.0856    5.1014   24.7818 C   0  0  2  0  0  0  0  0  0  0  0  0
   -7.0889    6.0630   24.5700 O   0  0  0  0  0  0  0  0  0  0  0  0
   -5.9510    4.8749   26.3015 C   0  0  2  0  0  0  0  0  0  0  0  0
   -7.2314    4.4392   26.8675 N   0  3  0  0  0  0  0  0  0  0  0  0
   -5.4399    6.1633   26.9881 C   0  0  0  0  0  0  0  0  0  0  0  0
   -4.0813    6.5161   26.3576 C   0  0  2  0  0  0  0  0  0  0  0  0
   -3.5268    7.6776   26.9843 O   0  0  0  0  0  0  0  0  0  0  0  0
   -4.2650    6.7324   24.8348 C   0  0  2  0  0  0  0  0  0  0  0  0
   -4.8301    5.5407   24.2179 O   0  0  0  0  0  0  0  0  0  0  0  0
   -2.9611    7.0363   24.1013 C   0  0  0  0  0  0  0  0  0  0  0  0
   -2.1055    5.8249   24.0003 N   0  3  0  0  0  0  0  0  0  0  0  0
   -9.2405    7.9514   21.4452 C   0  0  2  0  0  0  0  0  0  0  0  0
   -9.6191    8.5192   20.1383 N   0  3  0  0  0  0  0  0  0  0  0  0
   -8.0217    8.6814   21.9930 C   0  0  0  0  0  0  0  0  0  0  0  0
   -7.6157    8.0975   23.3507 C   0  0  2  0  0  0  0  0  0  0  0  0
   -6.5034    8.9133   23.8982 N   0  3  0  0  0  0  0  0  0  0  0  0
   -7.2970    6.5765   23.2390 C   0  0  2  0  0  0  0  0  0  0  0  0
   -8.5149    5.8376   22.6269 C   0  0  2  0  0  0  0  0  0  0  0  0
   -8.1694    4.4973   22.3735 O   0  0  0  0  0  0  0  0  0  0  0  0
   -8.9189    6.4670   21.2837 C   0  0  1  0  0  0  0  0  0  0  0  0
  -10.0602    5.7772   20.7754 O   0  0  0  0  0  0  0  0  0  0  0  0
   -9.8870    5.0272   19.6227 C   0  0  2  0  0  0  0  0  0  0  0  0
  -10.7464    5.6354   18.5012 C   0  0  2  0  0  0  0  0  0  0  0  0
  -10.3325    6.9793   18.2897 O   0  0  0  0  0  0  0  0  0  0  0  0
  -12.2282    5.5987   18.9144 C   0  0  1  0  0  0  0  0  0  0  0  0
  -13.1109    6.1969   17.8717 N   0  3  0  0  0  0  0  0  0  0  0  0
  -12.6412    4.1350   19.2043 C   0  0  2  0  0  0  0  0  0  0  0  0
  -14.0051    4.0723   19.6148 O   0  0  0  0  0  0  0  0  0  0  0  0
  -11.7229    3.5265   20.2804 C   0  0  2  0  0  0  0  0  0  0  0  0
  -10.3085    3.6643   19.8894 O   0  0  0  0  0  0  0  0  0  0  0  0
  -11.9851    2.0510   20.4861 C   0  0  0  0  0  0  0  0  0  0  0  0
  -11.7916    1.3099   19.2834 O   0  0  0  0  0  0  0  0  0  0  0  0
  1  2  1  1  0  0  0
  1  3  1  0  0  0  0
  1  9  1  0  0  0  0
  3  4  1  1  0  0  0
  3  5  1  0  0  0  0
  5  6  1  0  0  0  0
  6  7  1  1  0  0  0
  6  8  1  0  0  0  0
  8  9  1  0  0  0  0
  8 10  1  6  0  0  0
 10 11  1  0  0  0  0
 12 13  1  6  0  0  0
 12 14  1  0  0  0  0
 12 20  1  0  0  0  0
 14 15  1  0  0  0  0
 15 16  1  6  0  0  0
 15 17  1  0  0  0  0
 17  2  1  1  0  0  0
 17 18  1  0  0  0  0
 18 19  1  6  0  0  0
 18 20  1  0  0  0  0
 20 21  1  1  0  0  0
 22 21  1  1  0  0  0
 22 23  1  0  0  0  0
 22 30  1  0  0  0  0
 23 24  1  1  0  0  0
 23 25  1  0  0  0  0
 25 26  1  6  0  0  0
 25 27  1  0  0  0  0
 27 28  1  1  0  0  0
 27 29  1  0  0  0  0
 29 30  1  0  0  0  0
 29 31  1  6  0  0  0
 31 32  1  0  0  0  0
M  CHG  5   4   1  11   1  13   1  16   1  26   1
M  END
>  <CHROM.1>
172.38536354,-141.69465116,-162.43185190,176.74614593,72.32007654,45.73467781
51.32709605,-72.41059945,58.88612187,125.43293464,-115.90346038,178.22050293
-66.69756048,67.13714718,59.09652596,51.78279862,-8.33023302,5.79049430,22.26067514
0.11530230,0.72027789,2.67744303

>  <Name>
1lc4

>  <RI>
0

>  <Rbt.Current_Directory>
/home/afrankz/demos/rdock_decoys_rna/rnas/1lc4

>  <Rbt.Executable>
rbdock ($Id: //depot/dev/client3/rdock/2013.1/src/exe/rbdock.cxx#4 $)

>  <Rbt.Library>
libRbt.so (2013.1, Build901 2013/11/27)

>  <Rbt.Parameter_File>
/export/apps/rDock/src/rDock_2013.1_src/data/scripts/dock_solv.prm

>  <Rbt.Receptor>
prm/pocket_docking_8.prm

>  <SCORE>
-49.6221

>  <SCORE.INTER>
-34.5263

>  <SCORE.INTER.CONST>
1

>  <SCORE.INTER.POLAR>
-5.24389

>  <SCORE.INTER.ROT>
6

>  <SCORE.INTER.SOLV>
23.0025

>  <SCORE.INTER.VDW>
-20.8054

>  <SCORE.INTER.norm>
-1.07895

>  <SCORE.INTRA>
-15.0958

>  <SCORE.INTRA.DIHEDRAL>
-21.5783

>  <SCORE.INTRA.DIHEDRAL.0>
44.2576

>  <SCORE.INTRA.POLAR>
-0.529344

>  <SCORE.INTRA.POLAR.0>
-0.381556

>  <SCORE.INTRA.REPUL>
0

>  <SCORE.INTRA.REPUL.0>
0

>  <SCORE.INTRA.SOLV>
2.77525

>  <SCORE.INTRA.SOLV.lig_0>
-134.592

>  <SCORE.INTRA.VDW>
-3.89452

>  <SCORE.INTRA.VDW.0>
-1.01417

>  <SCORE.INTRA.norm>
-0.471745

>  <SCORE.RESTR>
0

>  <SCORE.RESTR.CAVITY>
0

>  <SCORE.RESTR.norm>
0

>  <SCORE.SYSTEM>
0

>  <SCORE.SYSTEM.CONST>
0

>  <SCORE.SYSTEM.DIHEDRAL>
0

>  <SCORE.SYSTEM.SOLV>
0

>  <SCORE.SYSTEM.norm>
0

>  <SCORE.heavy>
32

>  <SCORE.norm>
-1.55069

>  <RMSD>
6.718

$$$$
1lc4
 OpenBabel02141814113D
libRbt.so/2013.1/901 2013/11/27
 32 34  0  0  0  0  0  0  0  0999 V2000
   -9.1308    5.5606   14.7444 C   0  0  2  0  0  0  0  0  0  0  0  0
  -10.1333    5.4584   13.7644 O   0  0  0  0  0  0  0  0  0  0  0  0
   -7.7672    5.6477   14.0287 C   0  0  2  0  0  0  0  0  0  0  0  0
   -7.7407    6.7984   13.1206 N   0  3  0  0  0  0  0  0  0  0  0  0
   -7.4762    4.3281   13.2760 C   0  0  0  0  0  0  0  0  0  0  0  0
   -7.4863    3.1916   14.3133 C   0  0  2  0  0  0  0  0  0  0  0  0
   -7.1744    1.9422   13.6879 O   0  0  0  0  0  0  0  0  0  0  0  0
   -8.8711    3.1436   15.0057 C   0  0  2  0  0  0  0  0  0  0  0  0
   -9.1685    4.4230   15.6341 O   0  0  0  0  0  0  0  0  0  0  0  0
   -8.9701    2.0797   16.0962 C   0  0  0  0  0  0  0  0  0  0  0  0
  -10.1264    2.3358   16.9945 N   0  3  0  0  0  0  0  0  0  0  0  0
  -13.4332    7.8831   14.8562 C   0  0  2  0  0  0  0  0  0  0  0  0
  -14.7813    8.3355   15.2457 N   0  3  0  0  0  0  0  0  0  0  0  0
  -13.4894    7.1999   13.4966 C   0  0  0  0  0  0  0  0  0  0  0  0
  -12.0936    6.7214   13.0819 C   0  0  2  0  0  0  0  0  0  0  0  0
  -12.1762    6.1713   11.7059 N   0  3  0  0  0  0  0  0  0  0  0  0
  -11.5007    5.7329   14.1301 C   0  0  2  0  0  0  0  0  0  0  0  0
  -11.4959    6.4043   15.5276 C   0  0  2  0  0  0  0  0  0  0  0  0
  -11.1164    5.4594   16.4988 O   0  0  0  0  0  0  0  0  0  0  0  0
  -12.9014    6.9034   15.9003 C   0  0  1  0  0  0  0  0  0  0  0  0
  -12.8417    7.5408   17.1758 O   0  0  0  0  0  0  0  0  0  0  0  0
  -12.1309    8.7279   17.2594 C   0  0  2  0  0  0  0  0  0  0  0  0
  -11.1649    8.6447   18.4536 C   0  0  2  0  0  0  0  0  0  0  0  0
  -10.2833    7.5478   18.2494 O   0  0  0  0  0  0  0  0  0  0  0  0
  -11.9691    8.4409   19.7495 C   0  0  1  0  0  0  0  0  0  0  0  0
  -11.0815    8.3312   20.9430 N   0  3  0  0  0  0  0  0  0  0  0  0
  -12.9690    9.6107   19.9191 C   0  0  2  0  0  0  0  0  0  0  0  0
  -13.7474    9.4357   21.1007 O   0  0  0  0  0  0  0  0  0  0  0  0
  -13.8791    9.7162   18.6813 C   0  0  2  0  0  0  0  0  0  0  0  0
  -13.0699    9.8172   17.4534 O   0  0  0  0  0  0  0  0  0  0  0  0
  -14.7678   10.9393   18.7294 C   0  0  0  0  0  0  0  0  0  0  0  0
  -15.0679   11.4230   17.4219 O   0  0  0  0  0  0  0  0  0  0  0  0
  1  2  1  6  0  0  0
  1  3  1  0  0  0  0
  1  9  1  0  0  0  0
  3  4  1  6  0  0  0
  3  5  1  0  0  0  0
  5  6  1  0  0  0  0
  6  7  1  6  0  0  0
  6  8  1  0  0  0  0
  8  9  1  0  0  0  0
  8 10  1  1  0  0  0
 10 11  1  0  0  0  0
 12 13  1  1  0  0  0
 12 14  1  0  0  0  0
 12 20  1  0  0  0  0
 14 15  1  0  0  0  0
 15 16  1  6  0  0  0
 15 17  1  0  0  0  0
 17  2  1  6  0  0  0
 17 18  1  0  0  0  0
 18 19  1  1  0  0  0
 18 20  1  0  0  0  0
 20 21  1  1  0  0  0
 22 21  1  1  0  0  0
 22 23  1  0  0  0  0
 22 30  1  0  0  0  0
 23 24  1  6  0  0  0
 23 25  1  0  0  0  0
 25 26  1  1  0  0  0
 25 27  1  0  0  0  0
 27 28  1  1  0  0  0
 27 29  1  0  0  0  0
 29 30  1  0  0  0  0
 29 31  1  1  0  0  0
 31 32  1  0  0  0  0
M  CHG  5   4   1  11   1  13   1  16   1  26   1
M  END
>  <CHROM.1>
-162.94970173,130.83925310,84.81539857,167.03170295,162.63207055,-24.14066151
-172.13771611,-52.29623544,-60.57872212,-54.57851906,-130.65718419,46.66427775
-62.57323555,-60.50681399,149.99417861,-176.58300821,-11.26261726,6.74434814
16.15362296,-0.67972025,-0.76675515,1.37434019

>  <Name>
1lc4

>  <RI>
0

>  <Rbt.Current_Directory>
/home/afrankz/demos/rdock_decoys_rna/rnas/1lc4

>  <Rbt.Executable>
rbdock ($Id: //depot/dev/client3/rdock/2013.1/src/exe/rbdock.cxx#4 $)

>  <Rbt.Library>
libRbt.so (2013.1, Build901 2013/11/27)

>  <Rbt.Parameter_File>
/export/apps/rDock/src/rDock_2013.1_src/data/scripts/dock_solv.prm

>  <Rbt.Receptor>
prm/blind_docking_80.prm

>  <SCORE>
-7.62436

>  <SCORE.INTER>
-1.75978

>  <SCORE.INTER.CONST>
1

>  <SCORE.INTER.POLAR>
-5.28968

>  <SCORE.INTER.ROT>
6

>  <SCORE.INTER.SOLV>
23.8023

>  <SCORE.INTER.VDW>
0.924974

>  <SCORE.INTER.norm>
-0.0549933

>  <SCORE.INTRA>
-10.6129

>  <SCORE.INTRA.DIHEDRAL>
-20.0875

>  <SCORE.INTRA.DIHEDRAL.0>
44.2576

>  <SCORE.INTRA.POLAR>
-0.853543

>  <SCORE.INTRA.POLAR.0>
-0.381556

>  <SCORE.INTRA.REPUL>
0

>  <SCORE.INTRA.REPUL.0>
0

>  <SCORE.INTRA.SOLV>
-0.707604

>  <SCORE.INTRA.SOLV.lig_0>
-134.592

>  <SCORE.INTRA.VDW>
2.6867

>  <SCORE.INTRA.VDW.0>
-1.01417

>  <SCORE.INTRA.norm>
-0.331654

>  <SCORE.RESTR>
4.74834

>  <SCORE.RESTR.CAVITY>
4.74834

>  <SCORE.RESTR.norm>
0.148386

>  <SCORE.SYSTEM>
0

>  <SCORE.SYSTEM.CONST>
0

>  <SCORE.SYSTEM.DIHEDRAL>
0

>  <SCORE.SYSTEM.SOLV>
0

>  <SCORE.SYSTEM.norm>
0

>  <SCORE.heavy>
32

>  <SCORE.norm>
-0.238261

>  <RMSD>
6.733

$$$$
1lc4
 OpenBabel02141814113D
libRbt.so/2013.1/901 2013/11/27
 32 34  0  0  0  0  0  0  0  0999 V2000
  -11.0957    3.3700   20.1737 C   0  0  2  0  0  0  0  0  0  0  0  0
  -11.7758    3.8370   19.0356 O   0  0  0  0  0  0  0  0  0  0  0  0
  -11.9091    3.7769   21.4194 C   0  0  2  0  0  0  0  0  0  0  0  0
  -13.2646    3.2227   21.3466 N   0  3  0  0  0  0  0  0  0  0  0  0
  -11.9362    5.3172   21.5574 C   0  0  0  0  0  0  0  0  0  0  0  0
  -10.4785    5.7980   21.6658 C   0  0  2  0  0  0  0  0  0  0  0  0
  -10.4330    7.2175   21.8452 O   0  0  0  0  0  0  0  0  0  0  0  0
   -9.7020    5.3663   20.3968 C   0  0  2  0  0  0  0  0  0  0  0  0
   -9.7615    3.9207   20.2331 O   0  0  0  0  0  0  0  0  0  0  0  0
   -8.2245    5.7493   20.4274 C   0  0  0  0  0  0  0  0  0  0  0  0
   -8.0426    7.1582   20.8652 N   0  3  0  0  0  0  0  0  0  0  0  0
  -10.2681    0.9719   16.3011 C   0  0  2  0  0  0  0  0  0  0  0  0
  -10.1096    0.0858   15.1333 N   0  3  0  0  0  0  0  0  0  0  0  0
  -11.5442    0.6157   17.0514 C   0  0  0  0  0  0  0  0  0  0  0  0
  -11.7222    1.5329   18.2664 C   0  0  2  0  0  0  0  0  0  0  0  0
  -12.9091    1.0740   19.0303 N   0  3  0  0  0  0  0  0  0  0  0  0
  -11.7771    3.0305   17.8405 C   0  0  2  0  0  0  0  0  0  0  0  0
  -10.5059    3.3821   17.0254 C   0  0  2  0  0  0  0  0  0  0  0  0
  -10.6311    4.6823   16.5021 O   0  0  0  0  0  0  0  0  0  0  0  0
  -10.3365    2.4247   15.8346 C   0  0  1  0  0  0  0  0  0  0  0  0
   -9.1401    2.7652   15.1351 O   0  0  0  0  0  0  0  0  0  0  0  0
   -9.1442    2.6097   13.7577 C   0  0  2  0  0  0  0  0  0  0  0  0
   -7.7726    3.0350   13.2063 C   0  0  2  0  0  0  0  0  0  0  0  0
   -6.7714    2.2170   13.7984 O   0  0  0  0  0  0  0  0  0  0  0  0
   -7.5179    4.5128   13.5509 C   0  0  1  0  0  0  0  0  0  0  0  0
   -6.1890    4.9773   13.0585 N   0  3  0  0  0  0  0  0  0  0  0  0
   -8.6538    5.3792   12.9541 C   0  0  2  0  0  0  0  0  0  0  0  0
   -8.4580    6.7535   13.2793 O   0  0  0  0  0  0  0  0  0  0  0  0
  -10.0211    4.8905   13.4671 C   0  0  2  0  0  0  0  0  0  0  0  0
  -10.1874    3.4505   13.2000 O   0  0  0  0  0  0  0  0  0  0  0  0
  -11.1717    5.6032   12.7918 C   0  0  0  0  0  0  0  0  0  0  0  0
  -11.3343    6.9292   13.2904 O   0  0  0  0  0  0  0  0  0  0  0  0
  1  2  1  6  0  0  0
  1  3  1  0  0  0  0
  1  9  1  0  0  0  0
  3  4  1  6  0  0  0
  3  5  1  0  0  0  0
  5  6  1  0  0  0  0
  6  7  1  6  0  0  0
  6  8  1  0  0  0  0
  8  9  1  0  0  0  0
  8 10  1  1  0  0  0
 10 11  1  0  0  0  0
 12 13  1  6  0  0  0
 12 14  1  0  0  0  0
 12 20  1  0  0  0  0
 14 15  1  0  0  0  0
 15 16  1  6  0  0  0
 15 17  1  0  0  0  0
 17  2  1  1  0  0  0
 17 18  1  0  0  0  0
 18 19  1  6  0  0  0
 18 20  1  0  0  0  0
 20 21  1  1  0  0  0
 22 21  1  1  0  0  0
 22 23  1  0  0  0  0
 22 30  1  0  0  0  0
 23 24  1  1  0  0  0
 23 25  1  0  0  0  0
 25 26  1  6  0  0  0
 25 27  1  0  0  0  0
 27 28  1  1  0  0  0
 27 29  1  0  0  0  0
 29 30  1  0  0  0  0
 29 31  1  6  0  0  0
 31 32  1  0  0  0  0
M  CHG  5   4   1  11   1  13   1  16   1  26   1
M  END
>  <CHROM.1>
-143.22707828,31.43064711,-151.62680717,-34.01675158,-46.49595906,145.62712254
-163.14302351,41.95636380,176.47630484,92.85931338,179.74527324,-43.83402564
-54.68721086,69.76431464,-75.43461035,-177.48044831,-10.07429384,3.96460703
16.97199497,2.18341002,1.02051213,0.97288496

>  <Name>
1lc4

>  <RI>
0

>  <Rbt.Current_Directory>
/home/afrankz/demos/rdock_decoys_rna/rnas/1lc4

>  <Rbt.Executable>
rbdock ($Id: //depot/dev/client3/rdock/2013.1/src/exe/rbdock.cxx#4 $)

>  <Rbt.Library>
libRbt.so (2013.1, Build901 2013/11/27)

>  <Rbt.Parameter_File>
/export/apps/rDock/src/rDock_2013.1_src/data/scripts/dock_solv.prm

>  <Rbt.Receptor>
prm/blind_docking_100.prm

>  <SCORE>
-41.7882

>  <SCORE.INTER>
-32.7824

>  <SCORE.INTER.CONST>
1

>  <SCORE.INTER.POLAR>
-5.12853

>  <SCORE.INTER.ROT>
6

>  <SCORE.INTER.SOLV>
23.0091

>  <SCORE.INTER.VDW>
-20.0295

>  <SCORE.INTER.norm>
-1.02445

>  <SCORE.INTRA>
-10.1085

>  <SCORE.INTRA.DIHEDRAL>
-20.4931

>  <SCORE.INTRA.DIHEDRAL.0>
44.2576

>  <SCORE.INTRA.POLAR>
-0.847547

>  <SCORE.INTRA.POLAR.0>
-0.381556

>  <SCORE.INTRA.REPUL>
0

>  <SCORE.INTRA.REPUL.0>
0

>  <SCORE.INTRA.SOLV>
5.01111

>  <SCORE.INTRA.SOLV.lig_0>
-134.592

>  <SCORE.INTRA.VDW>
0.514161

>  <SCORE.INTRA.VDW.0>
-1.01417

>  <SCORE.INTRA.norm>
-0.315891

>  <SCORE.RESTR>
1.10264

>  <SCORE.RESTR.CAVITY>
1.10264

>  <SCORE.RESTR.norm>
0.0344576

>  <SCORE.SYSTEM>
0

>  <SCORE.SYSTEM.CONST>
0

>  <SCORE.SYSTEM.DIHEDRAL>
0

>  <SCORE.SYSTEM.SOLV>
0

>  <SCORE.SYSTEM.norm>
0

>  <SCORE.heavy>
32

>  <SCORE.norm>
-1.30588

>  <RMSD>
6.741

$$$$
1lc4
 OpenBabel02141814113D
libRbt.so/2013.1/901 2013/11/27
 32 34  0  0  0  0  0  0  0  0999 V2000
  -11.5876    2.1379   19.4934 C   0  0  2  0  0  0  0  0  0  0  0  0
  -12.3055    2.6404   18.3942 O   0  0  0  0  0  0  0  0  0  0  0  0
  -12.6022    1.6977   20.5685 C   0  0  2  0  0  0  0  0  0  0  0  0
  -13.5153    0.6877   20.0247 N   0  3  0  0  0  0  0  0  0  0  0  0
  -13.3745    2.9255   21.1058 C   0  0  0  0  0  0  0  0  0  0  0  0
  -12.3400    3.9048   21.6876 C   0  0  2  0  0  0  0  0  0  0  0  0
  -12.9947    5.0476   22.2484 O   0  0  0  0  0  0  0  0  0  0  0  0
  -11.3438    4.3169   20.5753 C   0  0  2  0  0  0  0  0  0  0  0  0
  -10.6902    3.1408   20.0188 O   0  0  0  0  0  0  0  0  0  0  0  0
  -10.2385    5.2502   21.0631 C   0  0  0  0  0  0  0  0  0  0  0  0
   -9.4496    5.7909   19.9251 N   0  3  0  0  0  0  0  0  0  0  0  0
   -9.4560    1.5927   15.4374 C   0  0  2  0  0  0  0  0  0  0  0  0
   -8.8144    1.2788   14.1475 N   0  3  0  0  0  0  0  0  0  0  0  0
  -10.5692    0.5926   15.7185 C   0  0  0  0  0  0  0  0  0  0  0  0
  -11.2468    0.9107   17.0560 C   0  0  2  0  0  0  0  0  0  0  0  0
  -12.2398   -0.1542   17.3434 N   0  3  0  0  0  0  0  0  0  0  0  0
  -11.8373    2.3524   17.0613 C   0  0  2  0  0  0  0  0  0  0  0  0
  -10.7187    3.3695   16.7177 C   0  0  2  0  0  0  0  0  0  0  0  0
  -11.2826    4.6491   16.5606 O   0  0  0  0  0  0  0  0  0  0  0  0
  -10.0360    3.0049   15.3894 C   0  0  1  0  0  0  0  0  0  0  0  0
   -8.9954    3.9468   15.1314 O   0  0  0  0  0  0  0  0  0  0  0  0
   -9.3667    5.2708   14.9570 C   0  0  2  0  0  0  0  0  0  0  0  0
  -10.3466    5.3597   13.7745 C   0  0  2  0  0  0  0  0  0  0  0  0
  -11.4833    4.5560   14.0650 O   0  0  0  0  0  0  0  0  0  0  0  0
   -9.6549    4.8527   12.4970 C   0  0  1  0  0  0  0  0  0  0  0  0
  -10.5662    4.8952   11.3172 N   0  3  0  0  0  0  0  0  0  0  0  0
   -8.3841    5.6973   12.2351 C   0  0  2  0  0  0  0  0  0  0  0  0
   -7.7068    5.2335   11.0693 O   0  0  0  0  0  0  0  0  0  0  0  0
   -7.4511    5.6482   13.4593 C   0  0  2  0  0  0  0  0  0  0  0  0
   -8.1765    6.0525   14.6771 O   0  0  0  0  0  0  0  0  0  0  0  0
   -6.2705    6.5827   13.3147 C   0  0  0  0  0  0  0  0  0  0  0  0
   -5.0513    5.8657   13.1340 O   0  0  0  0  0  0  0  0  0  0  0  0
  1  2  1  6  0  0  0
  1  3  1  0  0  0  0
  1  9  1  0  0  0  0
  3  4  1  6  0  0  0
  3  5  1  0  0  0  0
  5  6  1  0  0  0  0
  6  7  1  6  0  0  0
  6  8  1  0  0  0  0
  8  9  1  0  0  0  0
  8 10  1  1  0  0  0
 10 11  1  0  0  0  0
 12 13  1  6  0  0  0
 12 14  1  0  0  0  0
 12 20  1  0  0  0  0
 14 15  1  0  0  0  0
 15 16  1  6  0  0  0
 15 17  1  0  0  0  0
 17  2  1  1  0  0  0
 17 18  1  0  0  0  0
 18 19  1  6  0  0  0
 18 20  1  0  0  0  0
 20 21  1  1  0  0  0
 22 21  1  6  0  0  0
 22 23  1  0  0  0  0
 22 30  1  0  0  0  0
 23 24  1  1  0  0  0
 23 25  1  0  0  0  0
 25 26  1  6  0  0  0
 25 27  1  0  0  0  0
 27 28  1  6  0  0  0
 27 29  1  0  0  0  0
 29 30  1  0  0  0  0
 29 31  1  6  0  0  0
 31 32  1  0  0  0  0
M  CHG  5   4   1  11   1  13   1  16   1  26   1
M  END
>  <CHROM.1>
-141.46773737,35.92943203,-174.01213825,62.50706497,-170.61984415,-58.73876350
177.37113546,119.48540195,55.59926044,175.32750842,-58.86822750,168.04762579
17.97060420,173.12783603,-109.98285636,63.52521891,-10.31108147,3.73134212
16.53519099,2.49473751,0.95180867,1.04371907

>  <Name>
1lc4

>  <RI>
0

>  <Rbt.Current_Directory>
/home/afrankz/demos/rdock_decoys_rna/rnas/1lc4

>  <Rbt.Executable>
rbdock ($Id: //depot/dev/client3/rdock/2013.1/src/exe/rbdock.cxx#4 $)

>  <Rbt.Library>
libRbt.so (2013.1, Build901 2013/11/27)

>  <Rbt.Parameter_File>
/export/apps/rDock/src/rDock_2013.1_src/data/scripts/dock_solv.prm

>  <Rbt.Receptor>
prm/blind_docking_100.prm

>  <SCORE>
-41.4706

>  <SCORE.INTER>
-37.49

>  <SCORE.INTER.CONST>
1

>  <SCORE.INTER.POLAR>
-5.25012

>  <SCORE.INTER.ROT>
6

>  <SCORE.INTER.SOLV>
22.0822

>  <SCORE.INTER.VDW>
-22.4537

>  <SCORE.INTER.norm>
-1.17156

>  <SCORE.INTRA>
-5.18584

>  <SCORE.INTRA.DIHEDRAL>
-23.5688

>  <SCORE.INTRA.DIHEDRAL.0>
44.2576

>  <SCORE.INTRA.POLAR>
0.34906

>  <SCORE.INTRA.POLAR.0>
-0.381556

>  <SCORE.INTRA.REPUL>
0.111547

>  <SCORE.INTRA.REPUL.0>
0

>  <SCORE.INTRA.SOLV>
3.25776

>  <SCORE.INTRA.SOLV.lig_0>
-134.592

>  <SCORE.INTRA.VDW>
3.22513

>  <SCORE.INTRA.VDW.0>
-1.01417

>  <SCORE.INTRA.norm>
-0.162057

>  <SCORE.RESTR>
1.20526

>  <SCORE.RESTR.CAVITY>
1.20526

>  <SCORE.RESTR.norm>
0.0376642

>  <SCORE.SYSTEM>
0

>  <SCORE.SYSTEM.CONST>
0

>  <SCORE.SYSTEM.DIHEDRAL>
0

>  <SCORE.SYSTEM.SOLV>
0

>  <SCORE.SYSTEM.norm>
0

>  <SCORE.heavy>
32

>  <SCORE.norm>
-1.29596

>  <RMSD>
6.770

$$$$
1lc4
 OpenBabel02141814113D
libRbt.so/2013.1/901 2013/11/27
 32 34  0  0  0  0  0  0  0  0999 V2000
  -13.0835    4.4544   20.2540 C   0  0  2  0  0  0  0  0  0  0  0  0
  -11.9332    4.4650   21.0619 O   0  0  0  0  0  0  0  0  0  0  0  0
  -14.3120    4.6523   21.1653 C   0  0  2  0  0  0  0  0  0  0  0  0
  -14.1976    5.9107   21.9090 N   0  3  0  0  0  0  0  0  0  0  0  0
  -14.4663    3.4450   22.1198 C   0  0  0  0  0  0  0  0  0  0  0  0
  -14.6182    2.1843   21.2508 C   0  0  2  0  0  0  0  0  0  0  0  0
  -14.8145    1.0304   22.0750 O   0  0  0  0  0  0  0  0  0  0  0  0
  -13.3652    2.0278   20.3535 C   0  0  2  0  0  0  0  0  0  0  0  0
  -13.1839    3.2113   19.5248 O   0  0  0  0  0  0  0  0  0  0  0  0
  -13.4386    0.8310   19.4085 C   0  0  0  0  0  0  0  0  0  0  0  0
  -14.8200    0.2868   19.3356 N   0  3  0  0  0  0  0  0  0  0  0  0
   -9.9177    8.0458   22.0989 C   0  0  2  0  0  0  0  0  0  0  0  0
   -9.0064    9.2048   22.0835 N   0  3  0  0  0  0  0  0  0  0  0  0
   -9.1118    6.7547   22.1412 C   0  0  0  0  0  0  0  0  0  0  0  0
  -10.0484    5.5414   22.1538 C   0  0  2  0  0  0  0  0  0  0  0  0
   -9.2264    4.3163   22.3147 N   0  3  0  0  0  0  0  0  0  0  0  0
  -10.9740    5.5292   20.9006 C   0  0  2  0  0  0  0  0  0  0  0  0
  -11.7534    6.8671   20.8216 C   0  0  2  0  0  0  0  0  0  0  0  0
  -12.4620    6.9243   19.6073 O   0  0  0  0  0  0  0  0  0  0  0  0
  -10.7897    8.0647   20.8450 C   0  0  1  0  0  0  0  0  0  0  0  0
  -11.5513    9.2710   20.8035 O   0  0  0  0  0  0  0  0  0  0  0  0
  -12.6924    9.2742   20.0167 C   0  0  2  0  0  0  0  0  0  0  0  0
  -12.9813   10.7168   19.5674 C   0  0  2  0  0  0  0  0  0  0  0  0
  -11.8641   11.1951   18.8292 O   0  0  0  0  0  0  0  0  0  0  0  0
  -13.2138   11.6015   20.8047 C   0  0  1  0  0  0  0  0  0  0  0  0
  -13.4784   13.0209   20.4312 N   0  3  0  0  0  0  0  0  0  0  0  0
  -14.3907   11.0262   21.6298 C   0  0  2  0  0  0  0  0  0  0  0  0
  -14.6137   11.8124   22.7982 O   0  0  0  0  0  0  0  0  0  0  0  0
  -14.1084    9.5605   22.0087 C   0  0  2  0  0  0  0  0  0  0  0  0
  -13.8001    8.7671   20.8054 O   0  0  0  0  0  0  0  0  0  0  0  0
  -15.2953    8.9061   22.6801 C   0  0  0  0  0  0  0  0  0  0  0  0
  -14.9113    7.7425   23.4096 O   0  0  0  0  0  0  0  0  0  0  0  0
  1  2  1  1  0  0  0
  1  3  1  0  0  0  0
  1  9  1  0  0  0  0
  3  4  1  1  0  0  0
  3  5  1  0  0  0  0
  5  6  1  0  0  0  0
  6  7  1  1  0  0  0
  6  8  1  0  0  0  0
  8  9  1  0  0  0  0
  8 10  1  6  0  0  0
 10 11  1  0  0  0  0
 12 13  1  6  0  0  0
 12 14  1  0  0  0  0
 12 20  1  0  0  0  0
 14 15  1  0  0  0  0
 15 16  1  6  0  0  0
 15 17  1  0  0  0  0
 17  2  1  1  0  0  0
 17 18  1  0  0  0  0
 18 19  1  6  0  0  0
 18 20  1  0  0  0  0
 20 21  1  1  0  0  0
 22 21  1  1  0  0  0
 22 23  1  0  0  0  0
 22 30  1  0  0  0  0
 23 24  1  1  0  0  0
 23 25  1  0  0  0  0
 25 26  1  6  0  0  0
 25 27  1  0  0  0  0
 27 28  1  1  0  0  0
 27 29  1  0  0  0  0
 29 30  1  0  0  0  0
 29 31  1  6  0  0  0
 31 32  1  0  0  0  0
M  CHG  5   4   1  11   1  13   1  16   1  26   1
M  END
>  <CHROM.1>
-114.93133878,163.71284084,64.67984928,-46.99107011,13.64518770,-175.88919361
-26.20300109,-45.31951021,134.23338190,-158.99757749,-153.58868257,69.30483346
-155.11363021,178.60035198,-160.75287999,173.98119527,-12.78053608,6.77888127
21.10866890,1.65406108,-0.00566809,-3.10113900

>  <Name>
1lc4

>  <RI>
0

>  <Rbt.Current_Directory>
/home/afrankz/demos/rdock_decoys_rna/rnas/1lc4

>  <Rbt.Executable>
rbdock ($Id: //depot/dev/client3/rdock/2013.1/src/exe/rbdock.cxx#4 $)

>  <Rbt.Library>
libRbt.so (2013.1, Build901 2013/11/27)

>  <Rbt.Parameter_File>
/export/apps/rDock/src/rDock_2013.1_src/data/scripts/dock_solv.prm

>  <Rbt.Receptor>
prm/blind_docking_60.prm

>  <SCORE>
-23.7879

>  <SCORE.INTER>
-26.4524

>  <SCORE.INTER.CONST>
1

>  <SCORE.INTER.POLAR>
-3.69969

>  <SCORE.INTER.ROT>
6

>  <SCORE.INTER.SOLV>
28.1025

>  <SCORE.INTER.VDW>
-22.2701

>  <SCORE.INTER.norm>
-0.826637

>  <SCORE.INTRA>
-0.36956

>  <SCORE.INTRA.DIHEDRAL>
-13.3963

>  <SCORE.INTRA.DIHEDRAL.0>
44.2576

>  <SCORE.INTRA.POLAR>
-2.02464

>  <SCORE.INTRA.POLAR.0>
-0.381556

>  <SCORE.INTRA.REPUL>
0

>  <SCORE.INTRA.REPUL.0>
0

>  <SCORE.INTRA.SOLV>
5.97953

>  <SCORE.INTRA.SOLV.lig_0>
-134.592

>  <SCORE.INTRA.VDW>
10.2226

>  <SCORE.INTRA.VDW.0>
-1.01417

>  <SCORE.INTRA.norm>
-0.0115488

>  <SCORE.RESTR>
3.03402

>  <SCORE.RESTR.CAVITY>
3.03402

>  <SCORE.RESTR.norm>
0.0948131

>  <SCORE.SYSTEM>
0

>  <SCORE.SYSTEM.CONST>
0

>  <SCORE.SYSTEM.DIHEDRAL>
0

>  <SCORE.SYSTEM.SOLV>
0

>  <SCORE.SYSTEM.norm>
0

>  <SCORE.heavy>
32

>  <SCORE.norm>
-0.743372

>  <RMSD>
6.787

$$$$
1lc4
 OpenBabel02141814113D
libRbt.so/2013.1/901 2013/11/27
 32 34  0  0  0  0  0  0  0  0999 V2000
  -13.7230   10.2808   19.0713 C   0  0  2  0  0  0  0  0  0  0  0  0
  -14.0649    9.4521   20.1541 O   0  0  0  0  0  0  0  0  0  0  0  0
  -13.4489   11.6966   19.6184 C   0  0  2  0  0  0  0  0  0  0  0  0
  -12.3760   11.6585   20.6169 N   0  3  0  0  0  0  0  0  0  0  0  0
  -14.7459   12.2999   20.2068 C   0  0  0  0  0  0  0  0  0  0  0  0
  -15.7933   12.3341   19.0801 C   0  0  2  0  0  0  0  0  0  0  0  0
  -17.0090   12.9288   19.5464 O   0  0  0  0  0  0  0  0  0  0  0  0
  -16.0342   10.8942   18.5620 C   0  0  2  0  0  0  0  0  0  0  0  0
  -14.7863   10.3084   18.0937 O   0  0  0  0  0  0  0  0  0  0  0  0
  -17.0220   10.8225   17.4002 C   0  0  0  0  0  0  0  0  0  0  0  0
  -16.4508   11.4302   16.1698 N   0  3  0  0  0  0  0  0  0  0  0  0
  -13.8910    5.2203   20.3014 C   0  0  2  0  0  0  0  0  0  0  0  0
  -14.1993    3.7903   20.1176 N   0  3  0  0  0  0  0  0  0  0  0  0
  -15.0198    5.8989   21.0654 C   0  0  0  0  0  0  0  0  0  0  0  0
  -14.7126    7.3879   21.2600 C   0  0  2  0  0  0  0  0  0  0  0  0
  -15.7775    7.9794   22.1078 N   0  3  0  0  0  0  0  0  0  0  0  0
  -14.5124    8.1068   19.8923 C   0  0  2  0  0  0  0  0  0  0  0  0
  -13.4034    7.3828   19.0862 C   0  0  2  0  0  0  0  0  0  0  0  0
  -13.3365    7.9271   17.7904 O   0  0  0  0  0  0  0  0  0  0  0  0
  -13.7228    5.8864   18.9372 C   0  0  1  0  0  0  0  0  0  0  0  0
  -12.6621    5.2572   18.2191 O   0  0  0  0  0  0  0  0  0  0  0  0
  -13.0006    4.2128   17.3730 C   0  0  2  0  0  0  0  0  0  0  0  0
  -11.8363    3.2082   17.3343 C   0  0  2  0  0  0  0  0  0  0  0  0
  -11.6061    2.7284   18.6530 O   0  0  0  0  0  0  0  0  0  0  0  0
  -10.5741    3.9075   16.7998 C   0  0  1  0  0  0  0  0  0  0  0  0
   -9.4027    2.9854   16.7596 N   0  3  0  0  0  0  0  0  0  0  0  0
  -10.8657    4.4804   15.3913 C   0  0  2  0  0  0  0  0  0  0  0  0
   -9.7200    5.1575   14.8799 O   0  0  0  0  0  0  0  0  0  0  0  0
  -12.0775    5.4293   15.4435 C   0  0  2  0  0  0  0  0  0  0  0  0
  -13.2387    4.7503   16.0462 O   0  0  0  0  0  0  0  0  0  0  0  0
  -12.4992    5.8924   14.0667 C   0  0  0  0  0  0  0  0  0  0  0  0
  -11.5369    6.7729   13.4904 O   0  0  0  0  0  0  0  0  0  0  0  0
  1  2  1  1  0  0  0
  1  3  1  0  0  0  0
  1  9  1  0  0  0  0
  3  4  1  1  0  0  0
  3  5  1  0  0  0  0
  5  6  1  0  0  0  0
  6  7  1  1  0  0  0
  6  8  1  0  0  0  0
  8  9  1  0  0  0  0
  8 10  1  6  0  0  0
 10 11  1  0  0  0  0
 12 13  1  6  0  0  0
 12 14  1  0  0  0  0
 12 20  1  0  0  0  0
 14 15  1  0  0  0  0
 15 16  1  6  0  0  0
 15 17  1  0  0  0  0
 17  2  1  1  0  0  0
 17 18  1  0  0  0  0
 18 19  1  6  0  0  0
 18 20  1  0  0  0  0
 20 21  1  1  0  0  0
 22 21  1  1  0  0  0
 22 23  1  0  0  0  0
 22 30  1  0  0  0  0
 23 24  1  1  0  0  0
 23 25  1  0  0  0  0
 25 26  1  6  0  0  0
 25 27  1  0  0  0  0
 27 28  1  1  0  0  0
 27 29  1  0  0  0  0
 29 30  1  0  0  0  0
 29 31  1  6  0  0  0
 31 32  1  0  0  0  0
M  CHG  5   4   1  11   1  13   1  16   1  26   1
M  END
>  <CHROM.1>
173.25159720,175.63643501,-53.30367756,63.57516795,68.92596944,49.91227881
-53.42641136,62.61576421,176.80770835,92.36396430,-148.23301241,-176.80763696
-38.49547451,64.60907464,-69.37595723,178.34648414,-13.50783078,7.45013463
18.21151911,-2.80255622,-1.05731077,2.33997394

>  <Name>
1lc4

>  <RI>
0

>  <Rbt.Current_Directory>
/home/afrankz/demos/rdock_decoys_rna/rnas/1lc4

>  <Rbt.Executable>
rbdock ($Id: //depot/dev/client3/rdock/2013.1/src/exe/rbdock.cxx#4 $)

>  <Rbt.Library>
libRbt.so (2013.1, Build901 2013/11/27)

>  <Rbt.Parameter_File>
/export/apps/rDock/src/rDock_2013.1_src/data/scripts/dock_solv.prm

>  <Rbt.Receptor>
prm/pocket_docking_8.prm

>  <SCORE>
-47.9954

>  <SCORE.INTER>
-26.0624

>  <SCORE.INTER.CONST>
1

>  <SCORE.INTER.POLAR>
-5.77692

>  <SCORE.INTER.ROT>
6

>  <SCORE.INTER.SOLV>
21.645

>  <SCORE.INTER.VDW>
-12.9335

>  <SCORE.INTER.norm>
-0.814451

>  <SCORE.INTRA>
-21.9329

>  <SCORE.INTRA.DIHEDRAL>
-33.4839

>  <SCORE.INTRA.DIHEDRAL.0>
44.2576

>  <SCORE.INTRA.POLAR>
-0.848863

>  <SCORE.INTRA.POLAR.0>
-0.381556

>  <SCORE.INTRA.REPUL>
0.0103457

>  <SCORE.INTRA.REPUL.0>
0

>  <SCORE.INTRA.SOLV>
-1.44042

>  <SCORE.INTRA.SOLV.lig_0>
-134.592

>  <SCORE.INTRA.VDW>
-1.63638

>  <SCORE.INTRA.VDW.0>
-1.01417

>  <SCORE.INTRA.norm>
-0.685405

>  <SCORE.RESTR>
0

>  <SCORE.RESTR.CAVITY>
0

>  <SCORE.RESTR.norm>
0

>  <SCORE.SYSTEM>
0

>  <SCORE.SYSTEM.CONST>
0

>  <SCORE.SYSTEM.DIHEDRAL>
0

>  <SCORE.SYSTEM.SOLV>
0

>  <SCORE.SYSTEM.norm>
0

>  <SCORE.heavy>
32

>  <SCORE.norm>
-1.49986

>  <RMSD>
6.790

$$$$
1lc4
 OpenBabel02141814113D
libRbt.so/2013.1/901 2013/11/27
 32 34  0  0  0  0  0  0  0  0999 V2000
   -8.5939    5.5352   20.5997 C   0  0  2  0  0  0  0  0  0  0  0  0
   -9.4768    4.6223   21.2024 O   0  0  0  0  0  0  0  0  0  0  0  0
   -8.0642    6.4844   21.6940 C   0  0  2  0  0  0  0  0  0  0  0  0
   -7.3965    5.7202   22.7522 N   0  3  0  0  0  0  0  0  0  0  0  0
   -9.2208    7.3410   22.2607 C   0  0  0  0  0  0  0  0  0  0  0  0
   -9.8292    8.1308   21.0887 C   0  0  2  0  0  0  0  0  0  0  0  0
  -10.8793    8.9851   21.5542 O   0  0  0  0  0  0  0  0  0  0  0  0
  -10.3448    7.1388   20.0165 C   0  0  2  0  0  0  0  0  0  0  0  0
   -9.2622    6.2800   19.5577 O   0  0  0  0  0  0  0  0  0  0  0  0
  -10.9222    7.8241   18.7805 C   0  0  0  0  0  0  0  0  0  0  0  0
  -11.3806    6.8275   17.7773 N   0  3  0  0  0  0  0  0  0  0  0  0
  -13.0462    2.6108   20.1191 C   0  0  2  0  0  0  0  0  0  0  0  0
  -14.4046    2.3185   19.6262 N   0  3  0  0  0  0  0  0  0  0  0  0
  -13.1189    3.5762   21.2944 C   0  0  0  0  0  0  0  0  0  0  0  0
  -11.7117    3.8910   21.8139 C   0  0  2  0  0  0  0  0  0  0  0  0
  -11.8382    4.7365   23.0271 N   0  3  0  0  0  0  0  0  0  0  0  0
  -10.8215    4.5094   20.6948 C   0  0  2  0  0  0  0  0  0  0  0  0
  -10.7924    3.5558   19.4726 C   0  0  2  0  0  0  0  0  0  0  0  0
  -10.1274    4.1854   18.4043 O   0  0  0  0  0  0  0  0  0  0  0  0
  -12.2177    3.2321   18.9963 C   0  0  1  0  0  0  0  0  0  0  0  0
  -12.1421    2.3287   17.8941 O   0  0  0  0  0  0  0  0  0  0  0  0
  -11.6240    1.0671   18.1419 C   0  0  2  0  0  0  0  0  0  0  0  0
  -10.8748    0.5834   16.8886 C   0  0  2  0  0  0  0  0  0  0  0  0
   -9.8307    1.5044   16.5996 O   0  0  0  0  0  0  0  0  0  0  0  0
  -11.8540    0.5077   15.7040 C   0  0  1  0  0  0  0  0  0  0  0  0
  -11.1777    0.0634   14.4513 N   0  3  0  0  0  0  0  0  0  0  0  0
  -13.0176   -0.4481   16.0639 C   0  0  2  0  0  0  0  0  0  0  0  0
  -13.9560   -0.5189   14.9929 O   0  0  0  0  0  0  0  0  0  0  0  0
  -13.7079    0.0184   17.3591 C   0  0  2  0  0  0  0  0  0  0  0  0
  -12.7216    0.1671   18.4443 O   0  0  0  0  0  0  0  0  0  0  0  0
  -14.7494   -0.9686   17.8378 C   0  0  0  0  0  0  0  0  0  0  0  0
  -14.2036   -2.2772   17.9889 O   0  0  0  0  0  0  0  0  0  0  0  0
  1  2  1  1  0  0  0
  1  3  1  0  0  0  0
  1  9  1  0  0  0  0
  3  4  1  1  0  0  0
  3  5  1  0  0  0  0
  5  6  1  0  0  0  0
  6  7  1  1  0  0  0
  6  8  1  0  0  0  0
  8  9  1  0  0  0  0
  8 10  1  6  0  0  0
 10 11  1  0  0  0  0
 12 13  1  6  0  0  0
 12 14  1  0  0  0  0
 12 20  1  0  0  0  0
 14 15  1  0  0  0  0
 15 16  1  1  0  0  0
 15 17  1  0  0  0  0
 17  2  1  1  0  0  0
 17 18  1  0  0  0  0
 18 19  1  6  0  0  0
 18 20  1  0  0  0  0
 20 21  1  6  0  0  0
 22 21  1  6  0  0  0
 22 23  1  0  0  0  0
 22 30  1  0  0  0  0
 23 24  1  6  0  0  0
 23 25  1  0  0  0  0
 25 26  1  6  0  0  0
 25 27  1  0  0  0  0
 27 28  1  6  0  0  0
 27 29  1  0  0  0  0
 29 30  1  0  0  0  0
 29 31  1  1  0  0  0
 31 32  1  0  0  0  0
M  CHG  5   4   1  11   1  13   1  16   1  26   1
M  END
>  <CHROM.1>
124.22000184,-158.60422971,2.85067282,63.68292665,179.07531633,-38.56101845
-47.98594171,-70.50139415,47.38248994,-57.11686806,-147.09040456,174.73560688
-167.82414177,-64.61941167,54.53400212,-178.09653738,-11.36100521,3.40695887
19.13266820,-1.01183321,-0.80005658,-2.14839020

>  <Name>
1lc4

>  <RI>
0

>  <Rbt.Current_Directory>
/home/afrankz/demos/rdock_decoys_rna/rnas/1lc4

>  <Rbt.Executable>
rbdock ($Id: //depot/dev/client3/rdock/2013.1/src/exe/rbdock.cxx#4 $)

>  <Rbt.Library>
libRbt.so (2013.1, Build901 2013/11/27)

>  <Rbt.Parameter_File>
/export/apps/rDock/src/rDock_2013.1_src/data/scripts/dock_solv.prm

>  <Rbt.Receptor>
prm/blind_docking_100.prm

>  <SCORE>
-35.4764

>  <SCORE.INTER>
-26.9839

>  <SCORE.INTER.CONST>
1

>  <SCORE.INTER.POLAR>
-3.3226

>  <SCORE.INTER.ROT>
6

>  <SCORE.INTER.SOLV>
29.4103

>  <SCORE.INTER.VDW>
-24.3174

>  <SCORE.INTER.norm>
-0.843247

>  <SCORE.INTRA>
-12.6777

>  <SCORE.INTRA.DIHEDRAL>
-24.0988

>  <SCORE.INTRA.DIHEDRAL.0>
44.2576

>  <SCORE.INTRA.POLAR>
-1.36745

>  <SCORE.INTRA.POLAR.0>
-0.381556

>  <SCORE.INTRA.REPUL>
0

>  <SCORE.INTRA.REPUL.0>
0

>  <SCORE.INTRA.SOLV>
2.90942

>  <SCORE.INTRA.SOLV.lig_0>
-134.592

>  <SCORE.INTRA.VDW>
2.56636

>  <SCORE.INTRA.VDW.0>
-1.01417

>  <SCORE.INTRA.norm>
-0.396177

>  <SCORE.RESTR>
4.18513

>  <SCORE.RESTR.CAVITY>
4.18513

>  <SCORE.RESTR.norm>
0.130785

>  <SCORE.SYSTEM>
0

>  <SCORE.SYSTEM.CONST>
0

>  <SCORE.SYSTEM.DIHEDRAL>
0

>  <SCORE.SYSTEM.SOLV>
0

>  <SCORE.SYSTEM.norm>
0

>  <SCORE.heavy>
32

>  <SCORE.norm>
-1.10864

>  <RMSD>
6.796

$$$$
1lc4
 OpenBabel02141814113D
libRbt.so/2013.1/901 2013/11/27
 32 34  0  0  0  0  0  0  0  0999 V2000
   -7.4834    4.9197   24.7243 C   0  0  2  0  0  0  0  0  0  0  0  0
   -6.8636    5.8925   23.9210 O   0  0  0  0  0  0  0  0  0  0  0  0
   -7.4642    5.4190   26.1835 C   0  0  2  0  0  0  0  0  0  0  0  0
   -8.1504    6.7103   26.2896 N   0  3  0  0  0  0  0  0  0  0  0  0
   -6.0075    5.5105   26.6954 C   0  0  0  0  0  0  0  0  0  0  0  0
   -5.3878    4.1066   26.5816 C   0  0  2  0  0  0  0  0  0  0  0  0
   -4.0482    4.1098   27.0865 O   0  0  0  0  0  0  0  0  0  0  0  0
   -5.4303    3.6472   25.1029 C   0  0  2  0  0  0  0  0  0  0  0  0
   -6.8003    3.6519   24.6097 O   0  0  0  0  0  0  0  0  0  0  0  0
   -4.8856    2.2374   24.8874 C   0  0  0  0  0  0  0  0  0  0  0  0
   -4.9777    1.8374   23.4587 N   0  3  0  0  0  0  0  0  0  0  0  0
   -9.4862    7.6819   21.1138 C   0  0  2  0  0  0  0  0  0  0  0  0
  -10.1590    8.0634   19.8586 N   0  3  0  0  0  0  0  0  0  0  0  0
   -8.0219    8.0961   21.0626 C   0  0  0  0  0  0  0  0  0  0  0  0
   -7.3101    7.7013   22.3613 C   0  0  2  0  0  0  0  0  0  0  0  0
   -5.9234    8.2280   22.3147 N   0  3  0  0  0  0  0  0  0  0  0  0
   -7.4019    6.1663   22.6118 C   0  0  2  0  0  0  0  0  0  0  0  0
   -8.8899    5.7307   22.6064 C   0  0  2  0  0  0  0  0  0  0  0  0
   -8.9661    4.3269   22.6673 O   0  0  0  0  0  0  0  0  0  0  0  0
   -9.5846    6.1700   21.3072 C   0  0  1  0  0  0  0  0  0  0  0  0
  -10.9555    5.7773   21.3612 O   0  0  0  0  0  0  0  0  0  0  0  0
  -11.6116    5.5954   20.1538 C   0  0  2  0  0  0  0  0  0  0  0  0
  -13.0598    6.0942   20.2959 C   0  0  2  0  0  0  0  0  0  0  0  0
  -13.0333    7.4718   20.6475 O   0  0  0  0  0  0  0  0  0  0  0  0
  -13.7753    5.2840   21.3909 C   0  0  1  0  0  0  0  0  0  0  0  0
  -15.1818    5.7387   21.5893 N   0  3  0  0  0  0  0  0  0  0  0  0
  -13.7351    3.7808   21.0224 C   0  0  2  0  0  0  0  0  0  0  0  0
  -14.3697    3.0009   22.0332 O   0  0  0  0  0  0  0  0  0  0  0  0
  -12.2792    3.3220   20.8181 C   0  0  2  0  0  0  0  0  0  0  0  0
  -11.6018    4.1807   19.8301 O   0  0  0  0  0  0  0  0  0  0  0  0
  -12.1955    1.9020   20.3040 C   0  0  0  0  0  0  0  0  0  0  0  0
  -11.8403    1.8626   18.9236 O   0  0  0  0  0  0  0  0  0  0  0  0
  1  2  1  6  0  0  0
  1  3  1  0  0  0  0
  1  9  1  0  0  0  0
  3  4  1  6  0  0  0
  3  5  1  0  0  0  0
  5  6  1  0  0  0  0
  6  7  1  6  0  0  0
  6  8  1  0  0  0  0
  8  9  1  0  0  0  0
  8 10  1  1  0  0  0
 10 11  1  0  0  0  0
 12 13  1  6  0  0  0
 12 14  1  0  0  0  0
 12 20  1  0  0  0  0
 14 15  1  0  0  0  0
 15 16  1  6  0  0  0
 15 17  1  0  0  0  0
 17  2  1  1  0  0  0
 17 18  1  0  0  0  0
 18 19  1  6  0  0  0
 18 20  1  0  0  0  0
 20 21  1  1  0  0  0
 22 21  1  1  0  0  0
 22 23  1  0  0  0  0
 22 30  1  0  0  0  0
 23 24  1  1  0  0  0
 23 25  1  0  0  0  0
 25 26  1  6  0  0  0
 25 27  1  0  0  0  0
 27 28  1  1  0  0  0
 27 29  1  0  0  0  0
 29 30  1  0  0  0  0
 29 31  1  6  0  0  0
 31 32  1  0  0  0  0
M  CHG  5   4   1  11   1  13   1  16   1  26   1
M  END
>  <CHROM.1>
-141.60751190,141.33116453,54.34055490,-63.65132047,178.74896127,-23.56479632
-166.72106908,173.95184622,-1.77254312,82.77889838,-142.87644705,-175.78727254
51.49641101,-79.99449435,105.70389470,76.87984782,-9.28915862,5.12453193
22.60553427,0.15108950,0.55708797,2.91208984

>  <Name>
1lc4

>  <RI>
0

>  <Rbt.Current_Directory>
/home/afrankz/demos/rdock_decoys_rna/rnas/1lc4

>  <Rbt.Executable>
rbdock ($Id: //depot/dev/client3/rdock/2013.1/src/exe/rbdock.cxx#4 $)

>  <Rbt.Library>
libRbt.so (2013.1, Build901 2013/11/27)

>  <Rbt.Parameter_File>
/export/apps/rDock/src/rDock_2013.1_src/data/scripts/dock_solv.prm

>  <Rbt.Receptor>
prm/pocket_docking_6.prm

>  <SCORE>
-54.1031

>  <SCORE.INTER>
-48.0602

>  <SCORE.INTER.CONST>
1

>  <SCORE.INTER.POLAR>
-7.40005

>  <SCORE.INTER.ROT>
6

>  <SCORE.INTER.SOLV>
32.0448

>  <SCORE.INTER.VDW>
-25.6549

>  <SCORE.INTER.norm>
-1.50188

>  <SCORE.INTRA>
-6.48355

>  <SCORE.INTRA.DIHEDRAL>
-8.49949

>  <SCORE.INTRA.DIHEDRAL.0>
44.2576

>  <SCORE.INTRA.POLAR>
-1.12001

>  <SCORE.INTRA.POLAR.0>
-0.381556

>  <SCORE.INTRA.REPUL>
0

>  <SCORE.INTRA.REPUL.0>
0

>  <SCORE.INTRA.SOLV>
-1.89872

>  <SCORE.INTRA.SOLV.lig_0>
-134.592

>  <SCORE.INTRA.VDW>
2.52359

>  <SCORE.INTRA.VDW.0>
-1.01417

>  <SCORE.INTRA.norm>
-0.202611

>  <SCORE.RESTR>
0.440669

>  <SCORE.RESTR.CAVITY>
0.440669

>  <SCORE.RESTR.norm>
0.0137709

>  <SCORE.SYSTEM>
0

>  <SCORE.SYSTEM.CONST>
0

>  <SCORE.SYSTEM.DIHEDRAL>
0

>  <SCORE.SYSTEM.SOLV>
0

>  <SCORE.SYSTEM.norm>
0

>  <SCORE.heavy>
32

>  <SCORE.norm>
-1.69072

>  <RMSD>
6.809

$$$$
1lc4
 OpenBabel02141814113D
libRbt.so/2013.1/901 2013/11/27
 32 34  0  0  0  0  0  0  0  0999 V2000
   -5.3470    8.3770   22.3719 C   0  0  2  0  0  0  0  0  0  0  0  0
   -5.6286    7.0269   22.6436 O   0  0  0  0  0  0  0  0  0  0  0  0
   -4.0142    8.7371   23.0597 C   0  0  2  0  0  0  0  0  0  0  0  0
   -2.9396    7.8637   22.5779 N   0  3  0  0  0  0  0  0  0  0  0  0
   -4.1674    8.6481   24.5963 C   0  0  0  0  0  0  0  0  0  0  0  0
   -5.2845    9.6232   25.0074 C   0  0  2  0  0  0  0  0  0  0  0  0
   -5.4461    9.6262   26.4297 O   0  0  0  0  0  0  0  0  0  0  0  0
   -6.5998    9.2244   24.2929 C   0  0  2  0  0  0  0  0  0  0  0  0
   -6.4134    9.2270   22.8488 O   0  0  0  0  0  0  0  0  0  0  0  0
   -7.7645   10.1650   24.5919 C   0  0  0  0  0  0  0  0  0  0  0  0
   -9.0389    9.6364   24.0386 N   0  3  0  0  0  0  0  0  0  0  0  0
   -9.1599    4.6887   22.4937 C   0  0  2  0  0  0  0  0  0  0  0  0
  -10.5197    4.1732   22.7367 N   0  3  0  0  0  0  0  0  0  0  0  0
   -8.3550    4.6540   23.7857 C   0  0  0  0  0  0  0  0  0  0  0  0
   -6.9395    5.1913   23.5468 C   0  0  2  0  0  0  0  0  0  0  0  0
   -6.1588    5.0283   24.7985 N   0  3  0  0  0  0  0  0  0  0  0  0
   -6.9736    6.6502   23.0011 C   0  0  2  0  0  0  0  0  0  0  0  0
   -7.8411    6.7007   21.7171 C   0  0  2  0  0  0  0  0  0  0  0  0
   -8.0077    8.0397   21.3179 O   0  0  0  0  0  0  0  0  0  0  0  0
   -9.2421    6.1246   21.9795 C   0  0  1  0  0  0  0  0  0  0  0  0
   -9.9913    6.1616   20.7655 O   0  0  0  0  0  0  0  0  0  0  0  0
  -11.3647    6.0007   20.8622 C   0  0  2  0  0  0  0  0  0  0  0  0
  -11.8467    5.1342   19.6861 C   0  0  2  0  0  0  0  0  0  0  0  0
  -11.1902    3.8745   19.7508 O   0  0  0  0  0  0  0  0  0  0  0  0
  -11.5089    5.8374   18.3598 C   0  0  1  0  0  0  0  0  0  0  0  0
  -11.9348    5.0317   17.1793 N   0  3  0  0  0  0  0  0  0  0  0  0
  -12.1780    7.2334   18.3373 C   0  0  2  0  0  0  0  0  0  0  0  0
  -11.8614    7.9203   17.1287 O   0  0  0  0  0  0  0  0  0  0  0  0
  -11.7332    8.0563   19.5607 C   0  0  2  0  0  0  0  0  0  0  0  0
  -11.9894    7.3094   20.8053 O   0  0  0  0  0  0  0  0  0  0  0  0
  -12.4794    9.3676   19.6681 C   0  0  0  0  0  0  0  0  0  0  0  0
  -12.2483   10.1987   18.5327 O   0  0  0  0  0  0  0  0  0  0  0  0
  1  2  1  1  0  0  0
  1  3  1  0  0  0  0
  1  9  1  0  0  0  0
  3  4  1  6  0  0  0
  3  5  1  0  0  0  0
  5  6  1  0  0  0  0
  6  7  1  1  0  0  0
  6  8  1  0  0  0  0
  8  9  1  0  0  0  0
  8 10  1  6  0  0  0
 10 11  1  0  0  0  0
 12 13  1  1  0  0  0
 12 14  1  0  0  0  0
 12 20  1  0  0  0  0
 14 15  1  0  0  0  0
 15 16  1  1  0  0  0
 15 17  1  0  0  0  0
 17  2  1  6  0  0  0
 17 18  1  0  0  0  0
 18 19  1  1  0  0  0
 18 20  1  0  0  0  0
 20 21  1  6  0  0  0
 22 21  1  6  0  0  0
 22 23  1  0  0  0  0
 22 30  1  0  0  0  0
 23 24  1  6  0  0  0
 23 25  1  0  0  0  0
 25 26  1  6  0  0  0
 25 27  1  0  0  0  0
 27 28  1  6  0  0  0
 27 29  1  0  0  0  0
 29 30  1  0  0  0  0
 29 31  1  1  0  0  0
 31 32  1  0  0  0  0
M  CHG  5   4   1  11   1  13   1  16   1  26   1
M  END
>  <CHROM.1>
136.78482079,-167.67434053,144.63986463,-179.19633359,-172.14330850,-142.58037516
83.47817889,61.72153908,97.97798356,73.71070710,-140.85234046,178.61588976
55.89930379,-46.90821661,-61.30350163,57.47558573,-8.65000267,7.23533773
21.79931579,0.13490661,-0.69227807,-0.10141513

>  <Name>
1lc4

>  <RI>
0

>  <Rbt.Current_Directory>
/home/afrankz/demos/rdock_decoys_rna/rnas/1lc4

>  <Rbt.Executable>
rbdock ($Id: //depot/dev/client3/rdock/2013.1/src/exe/rbdock.cxx#4 $)

>  <Rbt.Library>
libRbt.so (2013.1, Build901 2013/11/27)

>  <Rbt.Parameter_File>
/export/apps/rDock/src/rDock_2013.1_src/data/scripts/dock_solv.prm

>  <Rbt.Receptor>
prm/pocket_docking_8.prm

>  <SCORE>
-52.3362

>  <SCORE.INTER>
-36.6715

>  <SCORE.INTER.CONST>
1

>  <SCORE.INTER.POLAR>
-4.83982

>  <SCORE.INTER.ROT>
6

>  <SCORE.INTER.SOLV>
33.2615

>  <SCORE.INTER.VDW>
-27.0021

>  <SCORE.INTER.norm>
-1.14598

>  <SCORE.INTRA>
-15.6648

>  <SCORE.INTRA.DIHEDRAL>
-19.2288

>  <SCORE.INTRA.DIHEDRAL.0>
44.2576

>  <SCORE.INTRA.POLAR>
-1.84284

>  <SCORE.INTRA.POLAR.0>
-0.381556

>  <SCORE.INTRA.REPUL>
0

>  <SCORE.INTRA.REPUL.0>
0

>  <SCORE.INTRA.SOLV>
1.10457

>  <SCORE.INTRA.SOLV.lig_0>
-134.592

>  <SCORE.INTRA.VDW>
-0.337

>  <SCORE.INTRA.VDW.0>
-1.01417

>  <SCORE.INTRA.norm>
-0.489524

>  <SCORE.RESTR>
0

>  <SCORE.RESTR.CAVITY>
0

>  <SCORE.RESTR.norm>
0

>  <SCORE.SYSTEM>
0

>  <SCORE.SYSTEM.CONST>
0

>  <SCORE.SYSTEM.DIHEDRAL>
0

>  <SCORE.SYSTEM.SOLV>
0

>  <SCORE.SYSTEM.norm>
0

>  <SCORE.heavy>
32

>  <SCORE.norm>
-1.63551

>  <RMSD>
6.857

$$$$
1lc4
 OpenBabel02141814113D
libRbt.so/2013.1/901 2013/11/27
 32 34  0  0  0  0  0  0  0  0999 V2000
   -8.8699    5.5852   13.7994 C   0  0  2  0  0  0  0  0  0  0  0  0
   -9.3334    5.3976   12.4856 O   0  0  0  0  0  0  0  0  0  0  0  0
   -7.3701    5.9388   13.7332 C   0  0  2  0  0  0  0  0  0  0  0  0
   -7.1653    7.1424   12.9214 N   0  3  0  0  0  0  0  0  0  0  0  0
   -6.5649    4.7404   13.1782 C   0  0  0  0  0  0  0  0  0  0  0  0
   -6.8116    3.5439   14.1138 C   0  0  2  0  0  0  0  0  0  0  0  0
   -6.0536    2.4086   13.6828 O   0  0  0  0  0  0  0  0  0  0  0  0
   -8.3275    3.2271   14.1499 C   0  0  2  0  0  0  0  0  0  0  0  0
   -9.0791    4.3941   14.5897 O   0  0  0  0  0  0  0  0  0  0  0  0
   -8.6883    2.0842   15.0956 C   0  0  0  0  0  0  0  0  0  0  0  0
   -9.2016    2.6000   16.3918 N   0  3  0  0  0  0  0  0  0  0  0  0
  -13.0862    6.9315   11.2513 C   0  0  2  0  0  0  0  0  0  0  0  0
  -14.5234    7.0662   10.9510 N   0  3  0  0  0  0  0  0  0  0  0  0
  -12.4886    5.8013   10.4242 C   0  0  0  0  0  0  0  0  0  0  0  0
  -10.9945    5.6487   10.7303 C   0  0  2  0  0  0  0  0  0  0  0  0
  -10.4320    4.6208    9.8195 N   0  3  0  0  0  0  0  0  0  0  0  0
  -10.7541    5.3619   12.2427 C   0  0  2  0  0  0  0  0  0  0  0  0
  -11.4121    6.4804   13.0910 C   0  0  2  0  0  0  0  0  0  0  0  0
  -11.3388    6.1378   14.4539 O   0  0  0  0  0  0  0  0  0  0  0  0
  -12.9006    6.6322   12.7376 C   0  0  1  0  0  0  0  0  0  0  0  0
  -13.4545    7.6914   13.5173 O   0  0  0  0  0  0  0  0  0  0  0  0
  -14.2641    7.3370   14.5851 C   0  0  2  0  0  0  0  0  0  0  0  0
  -15.6474    7.9824   14.3948 C   0  0  2  0  0  0  0  0  0  0  0  0
  -16.2018    7.5160   13.1712 O   0  0  0  0  0  0  0  0  0  0  0  0
  -15.4972    9.5133   14.3561 C   0  0  1  0  0  0  0  0  0  0  0  0
  -16.8076   10.1953   14.1514 N   0  3  0  0  0  0  0  0  0  0  0  0
  -14.8314    9.9942   15.6686 C   0  0  2  0  0  0  0  0  0  0  0  0
  -14.6558   11.4090   15.6510 O   0  0  0  0  0  0  0  0  0  0  0  0
  -13.4805    9.2830   15.8713 C   0  0  2  0  0  0  0  0  0  0  0  0
  -13.6533    7.8205   15.8096 O   0  0  0  0  0  0  0  0  0  0  0  0
  -12.8645    9.6011   17.2156 C   0  0  0  0  0  0  0  0  0  0  0  0
  -11.9962    8.5593   17.6559 O   0  0  0  0  0  0  0  0  0  0  0  0
  1  2  1  6  0  0  0
  1  3  1  0  0  0  0
  1  9  1  0  0  0  0
  3  4  1  6  0  0  0
  3  5  1  0  0  0  0
  5  6  1  0  0  0  0
  6  7  1  6  0  0  0
  6  8  1  0  0  0  0
  8  9  1  0  0  0  0
  8 10  1  1  0  0  0
 10 11  1  0  0  0  0
 12 13  1  1  0  0  0
 12 14  1  0  0  0  0
 12 20  1  0  0  0  0
 14 15  1  0  0  0  0
 15 16  1  6  0  0  0
 15 17  1  0  0  0  0
 17  2  1  6  0  0  0
 17 18  1  0  0  0  0
 18 19  1  1  0  0  0
 18 20  1  0  0  0  0
 20 21  1  1  0  0  0
 22 21  1  6  0  0  0
 22 23  1  0  0  0  0
 22 30  1  0  0  0  0
 23 24  1  6  0  0  0
 23 25  1  0  0  0  0
 25 26  1  1  0  0  0
 25 27  1  0  0  0  0
 27 28  1  6  0  0  0
 27 29  1  0  0  0  0
 29 30  1  0  0  0  0
 29 31  1  1  0  0  0
 31 32  1  0  0  0  0
M  CHG  5   4   1  11   1  13   1  16   1  26   1
M  END
>  <CHROM.1>
-165.84952636,160.36412697,103.78301190,73.13240618,99.62074399,-160.50318306
-119.92090881,158.10674516,-52.11539350,133.29248769,-121.93807489,-131.45533754
179.78473386,-176.53742536,153.90019359,-40.18973735,-11.53762258,6.52865609
13.82358963,-0.32188964,-0.56319113,1.20617057

>  <Name>
1lc4

>  <RI>
0

>  <Rbt.Current_Directory>
/home/afrankz/demos/rdock_decoys_rna/rnas/1lc4

>  <Rbt.Executable>
rbdock ($Id: //depot/dev/client3/rdock/2013.1/src/exe/rbdock.cxx#4 $)

>  <Rbt.Library>
libRbt.so (2013.1, Build901 2013/11/27)

>  <Rbt.Parameter_File>
/export/apps/rDock/src/rDock_2013.1_src/data/scripts/dock_solv.prm

>  <Rbt.Receptor>
prm/blind_docking_80.prm

>  <SCORE>
-46.5786

>  <SCORE.INTER>
-47.3482

>  <SCORE.INTER.CONST>
1

>  <SCORE.INTER.POLAR>
-8.25496

>  <SCORE.INTER.ROT>
6

>  <SCORE.INTER.SOLV>
37.8166

>  <SCORE.INTER.VDW>
-24.2545

>  <SCORE.INTER.norm>
-1.47963

>  <SCORE.INTRA>
-3.99381

>  <SCORE.INTRA.DIHEDRAL>
-3.94581

>  <SCORE.INTRA.DIHEDRAL.0>
44.2576

>  <SCORE.INTRA.POLAR>
-1.03669

>  <SCORE.INTRA.POLAR.0>
-0.381556

>  <SCORE.INTRA.REPUL>
0

>  <SCORE.INTRA.REPUL.0>
0

>  <SCORE.INTRA.SOLV>
-1.82003

>  <SCORE.INTRA.SOLV.lig_0>
-134.592

>  <SCORE.INTRA.VDW>
2.41386

>  <SCORE.INTRA.VDW.0>
-1.01417

>  <SCORE.INTRA.norm>
-0.124807

>  <SCORE.RESTR>
4.7634

>  <SCORE.RESTR.CAVITY>
4.7634

>  <SCORE.RESTR.norm>
0.148856

>  <SCORE.SYSTEM>
0

>  <SCORE.SYSTEM.CONST>
0

>  <SCORE.SYSTEM.DIHEDRAL>
0

>  <SCORE.SYSTEM.SOLV>
0

>  <SCORE.SYSTEM.norm>
0

>  <SCORE.heavy>
32

>  <SCORE.norm>
-1.45558

>  <RMSD>
6.892

$$$$
1lc4
 OpenBabel02141814113D
libRbt.so/2013.1/901 2013/11/27
 32 34  0  0  0  0  0  0  0  0999 V2000
   -9.1277    5.2333   14.1964 C   0  0  2  0  0  0  0  0  0  0  0  0
   -9.7808    5.3146   12.9543 O   0  0  0  0  0  0  0  0  0  0  0  0
   -7.6451    5.6019   13.9842 C   0  0  2  0  0  0  0  0  0  0  0  0
   -7.5310    6.9469   13.4119 N   0  3  0  0  0  0  0  0  0  0  0  0
   -6.9578    4.5466   13.0861 C   0  0  0  0  0  0  0  0  0  0  0  0
   -7.0954    3.1831   13.7859 C   0  0  2  0  0  0  0  0  0  0  0  0
   -6.4352    2.1640   13.0276 O   0  0  0  0  0  0  0  0  0  0  0  0
   -8.5973    2.8566   13.9789 C   0  0  2  0  0  0  0  0  0  0  0  0
   -9.2489    3.9049   14.7511 O   0  0  0  0  0  0  0  0  0  0  0  0
   -8.8449    1.5428   14.7160 C   0  0  0  0  0  0  0  0  0  0  0  0
   -8.5080    0.3742   13.8612 N   0  3  0  0  0  0  0  0  0  0  0  0
  -13.5381    7.2639   12.7481 C   0  0  2  0  0  0  0  0  0  0  0  0
  -14.9882    7.5279   12.7114 N   0  3  0  0  0  0  0  0  0  0  0  0
  -13.1420    6.3865   11.5684 C   0  0  0  0  0  0  0  0  0  0  0  0
  -11.6363    6.1016   11.5974 C   0  0  2  0  0  0  0  0  0  0  0  0
  -11.2783    5.3468   10.3707 N   0  3  0  0  0  0  0  0  0  0  0  0
  -11.2198    5.3986   12.9239 C   0  0  2  0  0  0  0  0  0  0  0  0
  -11.6736    6.2612   14.1296 C   0  0  2  0  0  0  0  0  0  0  0  0
  -11.4462    5.5520   15.3236 O   0  0  0  0  0  0  0  0  0  0  0  0
  -13.1801    6.5582   14.0545 C   0  0  1  0  0  0  0  0  0  0  0  0
  -13.5447    7.3791   15.1635 O   0  0  0  0  0  0  0  0  0  0  0  0
  -13.0744    8.6830   15.1696 C   0  0  2  0  0  0  0  0  0  0  0  0
  -12.5408    9.0115   16.5745 C   0  0  2  0  0  0  0  0  0  0  0  0
  -11.4939    8.1013   16.8871 O   0  0  0  0  0  0  0  0  0  0  0  0
  -13.6804    8.8768   17.5995 C   0  0  1  0  0  0  0  0  0  0  0  0
  -13.2163    9.1634   18.9875 N   0  3  0  0  0  0  0  0  0  0  0  0
  -14.8374    9.8266   17.2044 C   0  0  2  0  0  0  0  0  0  0  0  0
  -15.9204    9.7050   18.1237 O   0  0  0  0  0  0  0  0  0  0  0  0
  -15.3079    9.5236   15.7696 C   0  0  2  0  0  0  0  0  0  0  0  0
  -14.1709    9.5722   14.8330 O   0  0  0  0  0  0  0  0  0  0  0  0
  -16.3293   10.5263   15.2805 C   0  0  0  0  0  0  0  0  0  0  0  0
  -15.9096   11.8668   15.5259 O   0  0  0  0  0  0  0  0  0  0  0  0
  1  2  1  6  0  0  0
  1  3  1  0  0  0  0
  1  9  1  0  0  0  0
  3  4  1  6  0  0  0
  3  5  1  0  0  0  0
  5  6  1  0  0  0  0
  6  7  1  6  0  0  0
  6  8  1  0  0  0  0
  8  9  1  0  0  0  0
  8 10  1  1  0  0  0
 10 11  1  0  0  0  0
 12 13  1  1  0  0  0
 12 14  1  0  0  0  0
 12 20  1  0  0  0  0
 14 15  1  0  0  0  0
 15 16  1  6  0  0  0
 15 17  1  0  0  0  0
 17  2  1  6  0  0  0
 17 18  1  0  0  0  0
 18 19  1  1  0  0  0
 18 20  1  0  0  0  0
 20 21  1  1  0  0  0
 22 21  1  1  0  0  0
 22 23  1  0  0  0  0
 22 30  1  0  0  0  0
 23 24  1  1  0  0  0
 23 25  1  0  0  0  0
 25 26  1  1  0  0  0
 25 27  1  0  0  0  0
 27 28  1  1  0  0  0
 27 29  1  0  0  0  0
 29 30  1  0  0  0  0
 29 31  1  6  0  0  0
 31 32  1  0  0  0  0
M  CHG  5   4   1  11   1  13   1  16   1  26   1
M  END
>  <CHROM.1>
-162.30450783,154.78195269,-101.56325651,67.81244680,-71.57971830,-57.30255071
-55.42794341,-84.53570048,170.13474607,-52.72426221,-135.11439828,161.58221387
-53.21758086,69.11093321,48.15832024,-169.53031661,-11.62338957,6.57735605
14.52937967,-0.50494235,-0.66101173,1.24927783

>  <Name>
1lc4

>  <RI>
0

>  <Rbt.Current_Directory>
/home/afrankz/demos/rdock_decoys_rna/rnas/1lc4

>  <Rbt.Executable>
rbdock ($Id: //depot/dev/client3/rdock/2013.1/src/exe/rbdock.cxx#4 $)

>  <Rbt.Library>
libRbt.so (2013.1, Build901 2013/11/27)

>  <Rbt.Parameter_File>
/export/apps/rDock/src/rDock_2013.1_src/data/scripts/dock_solv.prm

>  <Rbt.Receptor>
prm/blind_docking_80.prm

>  <SCORE>
-25.8085

>  <SCORE.INTER>
-14.5126

>  <SCORE.INTER.CONST>
1

>  <SCORE.INTER.POLAR>
-2.81585

>  <SCORE.INTER.ROT>
6

>  <SCORE.INTER.SOLV>
26.6189

>  <SCORE.INTER.VDW>
-16.7618

>  <SCORE.INTER.norm>
-0.453518

>  <SCORE.INTRA>
-17.8533

>  <SCORE.INTRA.DIHEDRAL>
-25.1687

>  <SCORE.INTRA.DIHEDRAL.0>
44.2576

>  <SCORE.INTRA.POLAR>
-1.41356

>  <SCORE.INTRA.POLAR.0>
-0.381556

>  <SCORE.INTRA.REPUL>
0

>  <SCORE.INTRA.REPUL.0>
0

>  <SCORE.INTRA.SOLV>
-1.16025

>  <SCORE.INTRA.SOLV.lig_0>
-134.592

>  <SCORE.INTRA.VDW>
0.117306

>  <SCORE.INTRA.VDW.0>
-1.01417

>  <SCORE.INTRA.norm>
-0.557915

>  <SCORE.RESTR>
6.55736

>  <SCORE.RESTR.CAVITY>
6.55736

>  <SCORE.RESTR.norm>
0.204917

>  <SCORE.SYSTEM>
0

>  <SCORE.SYSTEM.CONST>
0

>  <SCORE.SYSTEM.DIHEDRAL>
0

>  <SCORE.SYSTEM.SOLV>
0

>  <SCORE.SYSTEM.norm>
0

>  <SCORE.heavy>
32

>  <SCORE.norm>
-0.806516

>  <RMSD>
6.955

$$$$
1lc4
 OpenBabel02141814113D
libRbt.so/2013.1/901 2013/11/27
 32 34  0  0  0  0  0  0  0  0999 V2000
  -14.0982    1.7747   21.3617 C   0  0  2  0  0  0  0  0  0  0  0  0
  -14.6476    2.9825   20.8976 O   0  0  0  0  0  0  0  0  0  0  0  0
  -12.7149    1.5927   20.7041 C   0  0  2  0  0  0  0  0  0  0  0  0
  -11.8450    2.7288   21.0238 N   0  3  0  0  0  0  0  0  0  0  0  0
  -12.8717    1.4148   19.1756 C   0  0  0  0  0  0  0  0  0  0  0  0
  -13.7631    0.1825   18.9421 C   0  0  2  0  0  0  0  0  0  0  0  0
  -13.9101   -0.0688   17.5405 O   0  0  0  0  0  0  0  0  0  0  0  0
  -15.1373    0.4095   19.6199 C   0  0  2  0  0  0  0  0  0  0  0  0
  -14.9649    0.6636   21.0432 O   0  0  0  0  0  0  0  0  0  0  0  0
  -16.0831   -0.7822   19.4930 C   0  0  0  0  0  0  0  0  0  0  0  0
  -15.4965   -2.0026   20.1064 N   0  3  0  0  0  0  0  0  0  0  0  0
  -14.8794    7.0957   21.8913 C   0  0  2  0  0  0  0  0  0  0  0  0
  -14.5670    8.4388   22.4131 N   0  3  0  0  0  0  0  0  0  0  0  0
  -14.9416    6.0965   23.0386 C   0  0  0  0  0  0  0  0  0  0  0  0
  -15.2622    4.6947   22.5082 C   0  0  2  0  0  0  0  0  0  0  0  0
  -15.4297    3.7822   23.6666 N   0  3  0  0  0  0  0  0  0  0  0  0
  -14.1961    4.2245   21.4740 C   0  0  2  0  0  0  0  0  0  0  0  0
  -14.0877    5.2690   20.3334 C   0  0  2  0  0  0  0  0  0  0  0  0
  -13.0141    4.9298   19.4894 O   0  0  0  0  0  0  0  0  0  0  0  0
  -13.7997    6.6694   20.8986 C   0  0  1  0  0  0  0  0  0  0  0  0
  -13.7409    7.6001   19.8183 O   0  0  0  0  0  0  0  0  0  0  0  0
  -12.6481    8.4515   19.7729 C   0  0  2  0  0  0  0  0  0  0  0  0
  -12.0288    8.3894   18.3662 C   0  0  2  0  0  0  0  0  0  0  0  0
  -13.0119    8.7875   17.4190 O   0  0  0  0  0  0  0  0  0  0  0  0
  -11.5661    6.9514   18.0734 C   0  0  1  0  0  0  0  0  0  0  0  0
  -10.9744    6.8246   16.7104 N   0  3  0  0  0  0  0  0  0  0  0  0
  -10.5467    6.5134   19.1533 C   0  0  2  0  0  0  0  0  0  0  0  0
  -10.1183    5.1733   18.9222 O   0  0  0  0  0  0  0  0  0  0  0  0
  -11.1666    6.6497   20.5564 C   0  0  2  0  0  0  0  0  0  0  0  0
  -11.6803    8.0158   20.7627 O   0  0  0  0  0  0  0  0  0  0  0  0
  -10.1596    6.3835   21.6532 C   0  0  0  0  0  0  0  0  0  0  0  0
   -9.1842    7.4205   21.7345 O   0  0  0  0  0  0  0  0  0  0  0  0
  1  2  1  6  0  0  0
  1  3  1  0  0  0  0
  1  9  1  0  0  0  0
  3  4  1  6  0  0  0
  3  5  1  0  0  0  0
  5  6  1  0  0  0  0
  6  7  1  6  0  0  0
  6  8  1  0  0  0  0
  8  9  1  0  0  0  0
  8 10  1  1  0  0  0
 10 11  1  0  0  0  0
 12 13  1  1  0  0  0
 12 14  1  0  0  0  0
 12 20  1  0  0  0  0
 14 15  1  0  0  0  0
 15 16  1  1  0  0  0
 15 17  1  0  0  0  0
 17  2  1  6  0  0  0
 17 18  1  0  0  0  0
 18 19  1  6  0  0  0
 18 20  1  0  0  0  0
 20 21  1  6  0  0  0
 22 21  1  6  0  0  0
 22 23  1  0  0  0  0
 22 30  1  0  0  0  0
 23 24  1  6  0  0  0
 23 25  1  0  0  0  0
 25 26  1  6  0  0  0
 25 27  1  0  0  0  0
 27 28  1  6  0  0  0
 27 29  1  0  0  0  0
 29 30  1  0  0  0  0
 29 31  1  1  0  0  0
 31 32  1  0  0  0  0
M  CHG  5   4   1  11   1  13   1  16   1  26   1
M  END
>  <CHROM.1>
-78.90044515,-100.85911563,48.83842543,60.12219984,59.46852540,-171.41102341
62.53143430,176.68763719,157.58628320,107.53006494,129.45721832,173.51979616
-178.20389309,-63.99973645,69.74006600,52.66573487,-13.17993970,4.59732185
20.24835304,2.13252666,-0.85583913,-2.72480143

>  <Name>
1lc4

>  <RI>
0

>  <Rbt.Current_Directory>
/home/afrankz/demos/rdock_decoys_rna/rnas/1lc4

>  <Rbt.Executable>
rbdock ($Id: //depot/dev/client3/rdock/2013.1/src/exe/rbdock.cxx#4 $)

>  <Rbt.Library>
libRbt.so (2013.1, Build901 2013/11/27)

>  <Rbt.Parameter_File>
/export/apps/rDock/src/rDock_2013.1_src/data/scripts/dock_solv.prm

>  <Rbt.Receptor>
prm/blind_docking_60.prm

>  <SCORE>
-17.0494

>  <SCORE.INTER>
-10.7476

>  <SCORE.INTER.CONST>
1

>  <SCORE.INTER.POLAR>
-1.93447

>  <SCORE.INTER.ROT>
6

>  <SCORE.INTER.SOLV>
23.9575

>  <SCORE.INTER.VDW>
-16.3027

>  <SCORE.INTER.norm>
-0.335863

>  <SCORE.INTRA>
-11.5737

>  <SCORE.INTRA.DIHEDRAL>
-20.1667

>  <SCORE.INTRA.DIHEDRAL.0>
44.2576

>  <SCORE.INTRA.POLAR>
-1.39717

>  <SCORE.INTRA.POLAR.0>
-0.381556

>  <SCORE.INTRA.REPUL>
0.0209323

>  <SCORE.INTRA.REPUL.0>
0

>  <SCORE.INTRA.SOLV>
5.19965

>  <SCORE.INTRA.SOLV.lig_0>
-134.592

>  <SCORE.INTRA.VDW>
0.555573

>  <SCORE.INTRA.VDW.0>
-1.01417

>  <SCORE.INTRA.norm>
-0.361677

>  <SCORE.RESTR>
5.27189

>  <SCORE.RESTR.CAVITY>
5.27189

>  <SCORE.RESTR.norm>
0.164747

>  <SCORE.SYSTEM>
0

>  <SCORE.SYSTEM.CONST>
0

>  <SCORE.SYSTEM.DIHEDRAL>
0

>  <SCORE.SYSTEM.SOLV>
0

>  <SCORE.SYSTEM.norm>
0

>  <SCORE.heavy>
32

>  <SCORE.norm>
-0.532794

>  <RMSD>
6.973

$$$$
1lc4
 OpenBabel02141814113D
libRbt.so/2013.1/901 2013/11/27
 32 34  0  0  0  0  0  0  0  0999 V2000
  -12.0521    1.4918   17.8571 C   0  0  2  0  0  0  0  0  0  0  0  0
  -11.1384    1.7809   18.8854 O   0  0  0  0  0  0  0  0  0  0  0  0
  -11.4880    0.3189   17.0295 C   0  0  2  0  0  0  0  0  0  0  0  0
  -11.2667   -0.8499   17.8866 N   0  3  0  0  0  0  0  0  0  0  0  0
  -10.1852    0.7496   16.3155 C   0  0  0  0  0  0  0  0  0  0  0  0
  -10.5260    1.9500   15.4151 C   0  0  2  0  0  0  0  0  0  0  0  0
   -9.3688    2.3705   14.6847 O   0  0  0  0  0  0  0  0  0  0  0  0
  -11.0890    3.0998   16.2872 C   0  0  2  0  0  0  0  0  0  0  0  0
  -12.2637    2.6510   17.0212 O   0  0  0  0  0  0  0  0  0  0  0  0
  -11.5109    4.3253   15.4805 C   0  0  0  0  0  0  0  0  0  0  0  0
  -10.3634    5.2435   15.2569 N   0  3  0  0  0  0  0  0  0  0  0  0
  -13.6872    4.4798   20.9297 C   0  0  2  0  0  0  0  0  0  0  0  0
  -14.2547    5.3898   21.9415 N   0  3  0  0  0  0  0  0  0  0  0  0
  -13.5356    3.0831   21.5169 C   0  0  0  0  0  0  0  0  0  0  0  0
  -12.9427    2.1279   20.4751 C   0  0  2  0  0  0  0  0  0  0  0  0
  -12.9243    0.7599   21.0502 N   0  3  0  0  0  0  0  0  0  0  0  0
  -11.5550    2.6288   19.9745 C   0  0  2  0  0  0  0  0  0  0  0  0
  -11.6937    4.0735   19.4292 C   0  0  2  0  0  0  0  0  0  0  0  0
  -10.4173    4.5851   19.1308 O   0  0  0  0  0  0  0  0  0  0  0  0
  -12.3218    4.9991   20.4838 C   0  0  1  0  0  0  0  0  0  0  0  0
  -12.4593    6.3062   19.9277 O   0  0  0  0  0  0  0  0  0  0  0  0
  -11.3522    6.8445   19.2906 C   0  0  2  0  0  0  0  0  0  0  0  0
  -10.3758    7.3737   20.3550 C   0  0  2  0  0  0  0  0  0  0  0  0
   -9.9919    6.2936   21.1965 O   0  0  0  0  0  0  0  0  0  0  0  0
  -11.0677    8.4690   21.1852 C   0  0  1  0  0  0  0  0  0  0  0  0
  -10.1736    9.0068   22.2508 N   0  3  0  0  0  0  0  0  0  0  0  0
  -11.5369    9.6041   20.2427 C   0  0  2  0  0  0  0  0  0  0  0  0
  -12.2054   10.6236   20.9820 O   0  0  0  0  0  0  0  0  0  0  0  0
  -12.4576    9.0382   19.1456 C   0  0  2  0  0  0  0  0  0  0  0  0
  -11.7929    7.9309   18.4352 O   0  0  0  0  0  0  0  0  0  0  0  0
  -12.8161   10.0794   18.1087 C   0  0  0  0  0  0  0  0  0  0  0  0
  -13.5748   11.1458   18.6748 O   0  0  0  0  0  0  0  0  0  0  0  0
  1  2  1  1  0  0  0
  1  3  1  0  0  0  0
  1  9  1  0  0  0  0
  3  4  1  1  0  0  0
  3  5  1  0  0  0  0
  5  6  1  0  0  0  0
  6  7  1  1  0  0  0
  6  8  1  0  0  0  0
  8  9  1  0  0  0  0
  8 10  1  6  0  0  0
 10 11  1  0  0  0  0
 12 13  1  1  0  0  0
 12 14  1  0  0  0  0
 12 20  1  0  0  0  0
 14 15  1  0  0  0  0
 15 16  1  1  0  0  0
 15 17  1  0  0  0  0
 17  2  1  6  0  0  0
 17 18  1  0  0  0  0
 18 19  1  1  0  0  0
 18 20  1  0  0  0  0
 20 21  1  6  0  0  0
 22 21  1  1  0  0  0
 22 23  1  0  0  0  0
 22 30  1  0  0  0  0
 23 24  1  1  0  0  0
 23 25  1  0  0  0  0
 25 26  1  1  0  0  0
 25 27  1  0  0  0  0
 27 28  1  1  0  0  0
 27 29  1  0  0  0  0
 29 30  1  0  0  0  0
 29 31  1  6  0  0  0
 31 32  1  0  0  0  0
M  CHG  5   4   1  11   1  13   1  16   1  26   1
M  END
>  <CHROM.1>
-166.30678939,47.50769479,50.71847100,167.10232679,-86.56492809,-65.94398780
-138.30196667,101.38440724,60.77822147,-170.54357467,-78.80302346,45.33938315
77.30082415,-177.86670601,-63.90709075,-65.57588056,-11.68630400,4.96923797
18.97331676,1.28727022,-1.23686534,-3.06119592

>  <Name>
1lc4

>  <RI>
0

>  <Rbt.Current_Directory>
/home/afrankz/demos/rdock_decoys_rna/rnas/1lc4

>  <Rbt.Executable>
rbdock ($Id: //depot/dev/client3/rdock/2013.1/src/exe/rbdock.cxx#4 $)

>  <Rbt.Library>
libRbt.so (2013.1, Build901 2013/11/27)

>  <Rbt.Parameter_File>
/export/apps/rDock/src/rDock_2013.1_src/data/scripts/dock_solv.prm

>  <Rbt.Receptor>
prm/blind_docking_100.prm

>  <SCORE>
-36.0256

>  <SCORE.INTER>
-28.4875

>  <SCORE.INTER.CONST>
1

>  <SCORE.INTER.POLAR>
-5.67588

>  <SCORE.INTER.ROT>
6

>  <SCORE.INTER.SOLV>
36.0836

>  <SCORE.INTER.VDW>
-19.6999

>  <SCORE.INTER.norm>
-0.890235

>  <SCORE.INTRA>
-14.4882

>  <SCORE.INTRA.DIHEDRAL>
-29.7241

>  <SCORE.INTRA.DIHEDRAL.0>
44.2576

>  <SCORE.INTRA.POLAR>
-0.804107

>  <SCORE.INTRA.POLAR.0>
-0.381556

>  <SCORE.INTRA.REPUL>
0

>  <SCORE.INTRA.REPUL.0>
0

>  <SCORE.INTRA.SOLV>
-0.238608

>  <SCORE.INTRA.SOLV.lig_0>
-134.592

>  <SCORE.INTRA.VDW>
3.22715

>  <SCORE.INTRA.VDW.0>
-1.01417

>  <SCORE.INTRA.norm>
-0.452755

>  <SCORE.RESTR>
6.95006

>  <SCORE.RESTR.CAVITY>
6.95006

>  <SCORE.RESTR.norm>
0.217189

>  <SCORE.SYSTEM>
0

>  <SCORE.SYSTEM.CONST>
0

>  <SCORE.SYSTEM.DIHEDRAL>
0

>  <SCORE.SYSTEM.SOLV>
0

>  <SCORE.SYSTEM.norm>
0

>  <SCORE.heavy>
32

>  <SCORE.norm>
-1.1258

>  <RMSD>
7.029

$$$$
1lc4
 OpenBabel02141814113D
libRbt.so/2013.1/901 2013/11/27
 32 34  0  0  0  0  0  0  0  0999 V2000
   -6.6459    5.4784   25.3844 C   0  0  2  0  0  0  0  0  0  0  0  0
   -7.2296    6.7191   25.0744 O   0  0  0  0  0  0  0  0  0  0  0  0
   -7.4209    4.8660   26.5689 C   0  0  2  0  0  0  0  0  0  0  0  0
   -8.8386    4.7146   26.2269 N   0  3  0  0  0  0  0  0  0  0  0  0
   -7.2356    5.7373   27.8335 C   0  0  0  0  0  0  0  0  0  0  0  0
   -5.7277    5.8040   28.1327 C   0  0  2  0  0  0  0  0  0  0  0  0
   -5.4884    6.5594   29.3249 O   0  0  0  0  0  0  0  0  0  0  0  0
   -4.9922    6.4225   26.9179 C   0  0  2  0  0  0  0  0  0  0  0  0
   -5.2494    5.6401   25.7172 O   0  0  0  0  0  0  0  0  0  0  0  0
   -3.4766    6.4851   27.0910 C   0  0  0  0  0  0  0  0  0  0  0  0
   -2.8998    5.1278   27.2774 N   0  3  0  0  0  0  0  0  0  0  0  0
   -9.2373    7.9701   21.5582 C   0  0  2  0  0  0  0  0  0  0  0  0
   -9.5276    8.3849   20.1734 N   0  3  0  0  0  0  0  0  0  0  0  0
   -8.2812    8.9625   22.2058 C   0  0  0  0  0  0  0  0  0  0  0  0
   -7.9686    8.5401   23.6456 C   0  0  2  0  0  0  0  0  0  0  0  0
   -7.1327    9.5941   24.2725 N   0  3  0  0  0  0  0  0  0  0  0  0
   -7.3403    7.1151   23.6925 C   0  0  2  0  0  0  0  0  0  0  0  0
   -8.2844    6.1113   22.9820 C   0  0  2  0  0  0  0  0  0  0  0  0
   -7.6456    4.8617   22.8788 O   0  0  0  0  0  0  0  0  0  0  0  0
   -8.6063    6.5792   21.5534 C   0  0  1  0  0  0  0  0  0  0  0  0
   -9.5010    5.6441   20.9519 O   0  0  0  0  0  0  0  0  0  0  0  0
  -10.8589    5.8711   21.1130 C   0  0  2  0  0  0  0  0  0  0  0  0
  -11.5406    4.5479   21.5013 C   0  0  2  0  0  0  0  0  0  0  0  0
  -10.9650    4.0791   22.7141 O   0  0  0  0  0  0  0  0  0  0  0  0
  -11.3268    3.5140   20.3819 C   0  0  1  0  0  0  0  0  0  0  0  0
  -11.9495    2.1999   20.7127 N   0  3  0  0  0  0  0  0  0  0  0  0
  -11.9006    4.0710   19.0562 C   0  0  2  0  0  0  0  0  0  0  0  0
  -11.6941    3.1436   17.9931 O   0  0  0  0  0  0  0  0  0  0  0  0
  -11.2527    5.4282   18.7248 C   0  0  2  0  0  0  0  0  0  0  0  0
  -11.3987    6.3597   19.8577 O   0  0  0  0  0  0  0  0  0  0  0  0
  -11.8920    6.0872   17.5227 C   0  0  0  0  0  0  0  0  0  0  0  0
  -11.6373    5.3566   16.3250 O   0  0  0  0  0  0  0  0  0  0  0  0
  1  2  1  1  0  0  0
  1  3  1  0  0  0  0
  1  9  1  0  0  0  0
  3  4  1  6  0  0  0
  3  5  1  0  0  0  0
  5  6  1  0  0  0  0
  6  7  1  1  0  0  0
  6  8  1  0  0  0  0
  8  9  1  0  0  0  0
  8 10  1  1  0  0  0
 10 11  1  0  0  0  0
 12 13  1  6  0  0  0
 12 14  1  0  0  0  0
 12 20  1  0  0  0  0
 14 15  1  0  0  0  0
 15 16  1  6  0  0  0
 15 17  1  0  0  0  0
 17  2  1  1  0  0  0
 17 18  1  0  0  0  0
 18 19  1  6  0  0  0
 18 20  1  0  0  0  0
 20 21  1  1  0  0  0
 22 21  1  6  0  0  0
 22 23  1  0  0  0  0
 22 30  1  0  0  0  0
 23 24  1  1  0  0  0
 23 25  1  0  0  0  0
 25 26  1  1  0  0  0
 25 27  1  0  0  0  0
 27 28  1  6  0  0  0
 27 29  1  0  0  0  0
 29 30  1  0  0  0  0
 29 31  1  6  0  0  0
 31 32  1  0  0  0  0
M  CHG  5   4   1  11   1  13   1  16   1  26   1
M  END
>  <CHROM.1>
-142.09098890,-177.89846117,-59.33006072,71.60384918,60.33596196,45.72187081
66.46614405,61.34202323,178.43314261,-31.97894232,-134.26957873,58.51384107
-156.27881734,63.54412154,-67.11813752,56.61661015,-8.60494488,5.84095187
22.97023206,0.35527897,0.89035877,2.54343748

>  <Name>
1lc4

>  <RI>
0

>  <Rbt.Current_Directory>
/home/afrankz/demos/rdock_decoys_rna/rnas/1lc4

>  <Rbt.Executable>
rbdock ($Id: //depot/dev/client3/rdock/2013.1/src/exe/rbdock.cxx#4 $)

>  <Rbt.Library>
libRbt.so (2013.1, Build901 2013/11/27)

>  <Rbt.Parameter_File>
/export/apps/rDock/src/rDock_2013.1_src/data/scripts/dock_solv.prm

>  <Rbt.Receptor>
prm/pocket_docking_8.prm

>  <SCORE>
-57.7989

>  <SCORE.INTER>
-39.5818

>  <SCORE.INTER.CONST>
1

>  <SCORE.INTER.POLAR>
-5.09283

>  <SCORE.INTER.ROT>
6

>  <SCORE.INTER.SOLV>
26.9735

>  <SCORE.INTER.VDW>
-26.003

>  <SCORE.INTER.norm>
-1.23693

>  <SCORE.INTRA>
-18.2171

>  <SCORE.INTRA.DIHEDRAL>
-26.8527

>  <SCORE.INTRA.DIHEDRAL.0>
44.2576

>  <SCORE.INTRA.POLAR>
-1.26135

>  <SCORE.INTRA.POLAR.0>
-0.381556

>  <SCORE.INTRA.REPUL>
0

>  <SCORE.INTRA.REPUL.0>
0

>  <SCORE.INTRA.SOLV>
1.0593

>  <SCORE.INTRA.SOLV.lig_0>
-134.592

>  <SCORE.INTRA.VDW>
-1.03176

>  <SCORE.INTRA.VDW.0>
-1.01417

>  <SCORE.INTRA.norm>
-0.569283

>  <SCORE.RESTR>
0

>  <SCORE.RESTR.CAVITY>
0

>  <SCORE.RESTR.norm>
0

>  <SCORE.SYSTEM>
0

>  <SCORE.SYSTEM.CONST>
0

>  <SCORE.SYSTEM.DIHEDRAL>
0

>  <SCORE.SYSTEM.SOLV>
0

>  <SCORE.SYSTEM.norm>
0

>  <SCORE.heavy>
32

>  <SCORE.norm>
-1.80622

>  <RMSD>
7.031

$$$$
1lc4
 OpenBabel02141814113D
libRbt.so/2013.1/901 2013/11/27
 32 34  0  0  0  0  0  0  0  0999 V2000
  -13.7147    9.5635   16.4248 C   0  0  2  0  0  0  0  0  0  0  0  0
  -14.6021    9.2449   17.4674 O   0  0  0  0  0  0  0  0  0  0  0  0
  -14.5484    9.9691   15.1921 C   0  0  2  0  0  0  0  0  0  0  0  0
  -15.4169   11.1053   15.5154 N   0  3  0  0  0  0  0  0  0  0  0  0
  -15.3675    8.7600   14.6825 C   0  0  0  0  0  0  0  0  0  0  0  0
  -14.3716    7.6400   14.3341 C   0  0  2  0  0  0  0  0  0  0  0  0
  -15.0636    6.5026   13.8080 O   0  0  0  0  0  0  0  0  0  0  0  0
  -13.5578    7.2678   15.5985 C   0  0  2  0  0  0  0  0  0  0  0  0
  -12.8632    8.4377   16.1170 O   0  0  0  0  0  0  0  0  0  0  0  0
  -12.4984    6.1975   15.3475 C   0  0  0  0  0  0  0  0  0  0  0  0
  -11.4874    6.1751   16.4370 N   0  3  0  0  0  0  0  0  0  0  0  0
  -11.9590    6.9476   19.8541 C   0  0  2  0  0  0  0  0  0  0  0  0
  -11.3015    6.2991   21.0034 N   0  3  0  0  0  0  0  0  0  0  0  0
  -11.9062    8.4609   20.0140 C   0  0  0  0  0  0  0  0  0  0  0  0
  -12.5904    9.1470   18.8264 C   0  0  2  0  0  0  0  0  0  0  0  0
  -12.4108   10.6136   18.9652 N   0  3  0  0  0  0  0  0  0  0  0  0
  -14.0754    8.6955   18.6919 C   0  0  2  0  0  0  0  0  0  0  0  0
  -14.1375    7.1498   18.5876 C   0  0  2  0  0  0  0  0  0  0  0  0
  -15.4804    6.7319   18.6322 O   0  0  0  0  0  0  0  0  0  0  0  0
  -13.4145    6.4913   19.7738 C   0  0  1  0  0  0  0  0  0  0  0  0
  -13.4692    5.0737   19.6185 O   0  0  0  0  0  0  0  0  0  0  0  0
  -14.3947    4.3863   20.3880 C   0  0  2  0  0  0  0  0  0  0  0  0
  -13.6830    3.2215   21.0973 C   0  0  2  0  0  0  0  0  0  0  0  0
  -12.6484    3.7522   21.9158 O   0  0  0  0  0  0  0  0  0  0  0  0
  -13.0875    2.2688   20.0459 C   0  0  1  0  0  0  0  0  0  0  0  0
  -12.3641    1.1273   20.6766 N   0  3  0  0  0  0  0  0  0  0  0  0
  -14.2197    1.7543   19.1238 C   0  0  2  0  0  0  0  0  0  0  0  0
  -13.6933    0.8873   18.1217 O   0  0  0  0  0  0  0  0  0  0  0  0
  -14.9611    2.9402   18.4792 C   0  0  2  0  0  0  0  0  0  0  0  0
  -15.4354    3.8760   19.5145 O   0  0  0  0  0  0  0  0  0  0  0  0
  -16.1744    2.4953   17.6933 C   0  0  0  0  0  0  0  0  0  0  0  0
  -16.3967    3.3246   16.5548 O   0  0  0  0  0  0  0  0  0  0  0  0
  1  2  1  1  0  0  0
  1  3  1  0  0  0  0
  1  9  1  0  0  0  0
  3  4  1  1  0  0  0
  3  5  1  0  0  0  0
  5  6  1  0  0  0  0
  6  7  1  1  0  0  0
  6  8  1  0  0  0  0
  8  9  1  0  0  0  0
  8 10  1  6  0  0  0
 10 11  1  0  0  0  0
 12 13  1  1  0  0  0
 12 14  1  0  0  0  0
 12 20  1  0  0  0  0
 14 15  1  0  0  0  0
 15 16  1  1  0  0  0
 15 17  1  0  0  0  0
 17  2  1  6  0  0  0
 17 18  1  0  0  0  0
 18 19  1  1  0  0  0
 18 20  1  0  0  0  0
 20 21  1  6  0  0  0
 22 21  1  6  0  0  0
 22 23  1  0  0  0  0
 22 30  1  0  0  0  0
 23 24  1  1  0  0  0
 23 25  1  0  0  0  0
 25 26  1  1  0  0  0
 25 27  1  0  0  0  0
 27 28  1  6  0  0  0
 27 29  1  0  0  0  0
 29 30  1  0  0  0  0
 29 31  1  1  0  0  0
 31 32  1  0  0  0  0
M  CHG  5   4   1  11   1  13   1  16   1  26   1
M  END
>  <CHROM.1>
173.44015505,24.74490338,-69.61431472,63.03208178,162.40002412,-39.30508713
-76.26266624,-68.61435989,-59.89794880,135.83871752,-129.60858126,70.88486333
143.32262272,177.37463086,-146.51963888,-177.67001023,-13.78935949,6.11774175
18.08266645,-1.65761562,1.05270880,2.71534698

>  <Name>
1lc4

>  <RI>
0

>  <Rbt.Current_Directory>
/home/afrankz/demos/rdock_decoys_rna/rnas/1lc4

>  <Rbt.Executable>
rbdock ($Id: //depot/dev/client3/rdock/2013.1/src/exe/rbdock.cxx#4 $)

>  <Rbt.Library>
libRbt.so (2013.1, Build901 2013/11/27)

>  <Rbt.Parameter_File>
/export/apps/rDock/src/rDock_2013.1_src/data/scripts/dock_solv.prm

>  <Rbt.Receptor>
prm/pocket_docking_7.prm

>  <SCORE>
-42.8035

>  <SCORE.INTER>
-29.2148

>  <SCORE.INTER.CONST>
1

>  <SCORE.INTER.POLAR>
-5.84744

>  <SCORE.INTER.ROT>
6

>  <SCORE.INTER.SOLV>
25.9776

>  <SCORE.INTER.VDW>
-16.2443

>  <SCORE.INTER.norm>
-0.912963

>  <SCORE.INTRA>
-13.5887

>  <SCORE.INTRA.DIHEDRAL>
-17.391

>  <SCORE.INTRA.DIHEDRAL.0>
44.2576

>  <SCORE.INTRA.POLAR>
-1.05832

>  <SCORE.INTRA.POLAR.0>
-0.381556

>  <SCORE.INTRA.REPUL>
0.0158654

>  <SCORE.INTRA.REPUL.0>
0

>  <SCORE.INTRA.SOLV>
1.43336

>  <SCORE.INTRA.SOLV.lig_0>
-134.592

>  <SCORE.INTRA.VDW>
-2.09097

>  <SCORE.INTRA.VDW.0>
-1.01417

>  <SCORE.INTRA.norm>
-0.424648

>  <SCORE.RESTR>
0

>  <SCORE.RESTR.CAVITY>
0

>  <SCORE.RESTR.norm>
0

>  <SCORE.SYSTEM>
0

>  <SCORE.SYSTEM.CONST>
0

>  <SCORE.SYSTEM.DIHEDRAL>
0

>  <SCORE.SYSTEM.SOLV>
0

>  <SCORE.SYSTEM.norm>
0

>  <SCORE.heavy>
32

>  <SCORE.norm>
-1.33761

>  <RMSD>
7.052

$$$$
1lc4
 OpenBabel02141814113D
libRbt.so/2013.1/901 2013/11/27
 32 34  0  0  0  0  0  0  0  0999 V2000
  -15.0281   10.3663   18.6513 C   0  0  2  0  0  0  0  0  0  0  0  0
  -13.6799   10.6335   18.3567 O   0  0  0  0  0  0  0  0  0  0  0  0
  -15.5710   11.5271   19.5096 C   0  0  2  0  0  0  0  0  0  0  0  0
  -15.4260   12.7998   18.7962 N   0  3  0  0  0  0  0  0  0  0  0  0
  -14.8483   11.5611   20.8767 C   0  0  0  0  0  0  0  0  0  0  0  0
  -15.0900   10.2048   21.5620 C   0  0  2  0  0  0  0  0  0  0  0  0
  -14.4855   10.1863   22.8595 O   0  0  0  0  0  0  0  0  0  0  0  0
  -14.5314    9.0720   20.6652 C   0  0  2  0  0  0  0  0  0  0  0  0
  -15.1584    9.1094   19.3516 O   0  0  0  0  0  0  0  0  0  0  0  0
  -14.7691    7.6742   21.2311 C   0  0  0  0  0  0  0  0  0  0  0  0
  -14.5017    6.6275   20.2100 N   0  3  0  0  0  0  0  0  0  0  0  0
  -12.9049    6.8576   16.5953 C   0  0  2  0  0  0  0  0  0  0  0  0
  -12.2593    5.7447   15.8753 N   0  3  0  0  0  0  0  0  0  0  0  0
  -13.0980    8.0394   15.6548 C   0  0  0  0  0  0  0  0  0  0  0  0
  -13.7654    9.2051   16.3930 C   0  0  2  0  0  0  0  0  0  0  0  0
  -14.0404   10.2849   15.4127 N   0  3  0  0  0  0  0  0  0  0  0  0
  -12.9173    9.6570   17.6194 C   0  0  2  0  0  0  0  0  0  0  0  0
  -12.6688    8.4425   18.5505 C   0  0  2  0  0  0  0  0  0  0  0  0
  -11.7689    8.8101   19.5680 O   0  0  0  0  0  0  0  0  0  0  0  0
  -12.0305    7.2789   17.7747 C   0  0  1  0  0  0  0  0  0  0  0  0
  -11.8509    6.1758   18.6621 O   0  0  0  0  0  0  0  0  0  0  0  0
  -10.8457    5.2718   18.3556 C   0  0  2  0  0  0  0  0  0  0  0  0
  -11.2898    3.8671   18.7981 C   0  0  2  0  0  0  0  0  0  0  0  0
  -12.4892    3.5325   18.1114 O   0  0  0  0  0  0  0  0  0  0  0  0
  -11.5329    3.8618   20.3175 C   0  0  1  0  0  0  0  0  0  0  0  0
  -11.9878    2.5271   20.8029 N   0  3  0  0  0  0  0  0  0  0  0  0
  -10.2353    4.2929   21.0435 C   0  0  2  0  0  0  0  0  0  0  0  0
  -10.4378    4.3219   22.4545 O   0  0  0  0  0  0  0  0  0  0  0  0
   -9.7733    5.6708   20.5341 C   0  0  2  0  0  0  0  0  0  0  0  0
   -9.6414    5.6601   19.0660 O   0  0  0  0  0  0  0  0  0  0  0  0
   -8.4265    6.0654   21.0982 C   0  0  0  0  0  0  0  0  0  0  0  0
   -7.7967    7.0680   20.3034 O   0  0  0  0  0  0  0  0  0  0  0  0
  1  2  1  1  0  0  0
  1  3  1  0  0  0  0
  1  9  1  0  0  0  0
  3  4  1  6  0  0  0
  3  5  1  0  0  0  0
  5  6  1  0  0  0  0
  6  7  1  1  0  0  0
  6  8  1  0  0  0  0
  8  9  1  0  0  0  0
  8 10  1  1  0  0  0
 10 11  1  0  0  0  0
 12 13  1  6  0  0  0
 12 14  1  0  0  0  0
 12 20  1  0  0  0  0
 14 15  1  0  0  0  0
 15 16  1  6  0  0  0
 15 17  1  0  0  0  0
 17  2  1  1  0  0  0
 17 18  1  0  0  0  0
 18 19  1  1  0  0  0
 18 20  1  0  0  0  0
 20 21  1  1  0  0  0
 22 21  1  1  0  0  0
 22 23  1  0  0  0  0
 22 30  1  0  0  0  0
 23 24  1  6  0  0  0
 23 25  1  0  0  0  0
 25 26  1  1  0  0  0
 25 27  1  0  0  0  0
 27 28  1  1  0  0  0
 27 29  1  0  0  0  0
 29 30  1  0  0  0  0
 29 31  1  1  0  0  0
 31 32  1  0  0  0  0
M  CHG  5   4   1  11   1  13   1  16   1  26   1
M  END
>  <CHROM.1>
176.72031519,47.30209665,-173.39154952,67.52510100,167.05163590,-49.88709024
72.21234619,21.50615087,-178.63516426,83.77253636,-146.37551785,177.32222246
-178.36586669,68.04696791,159.59460136,-173.78336560,-12.63907844,7.55128260
19.23421590,-3.05214439,-0.97239821,1.52474331

>  <Name>
1lc4

>  <RI>
0

>  <Rbt.Current_Directory>
/home/afrankz/demos/rdock_decoys_rna/rnas/1lc4

>  <Rbt.Executable>
rbdock ($Id: //depot/dev/client3/rdock/2013.1/src/exe/rbdock.cxx#4 $)

>  <Rbt.Library>
libRbt.so (2013.1, Build901 2013/11/27)

>  <Rbt.Parameter_File>
/export/apps/rDock/src/rDock_2013.1_src/data/scripts/dock_solv.prm

>  <Rbt.Receptor>
prm/pocket_docking_6.prm

>  <SCORE>
-49.4202

>  <SCORE.INTER>
-27.4375

>  <SCORE.INTER.CONST>
1

>  <SCORE.INTER.POLAR>
-3.55167

>  <SCORE.INTER.ROT>
6

>  <SCORE.INTER.SOLV>
19.2873

>  <SCORE.INTER.VDW>
-20.4819

>  <SCORE.INTER.norm>
-0.857423

>  <SCORE.INTRA>
-21.9826

>  <SCORE.INTRA.DIHEDRAL>
-30.6066

>  <SCORE.INTRA.DIHEDRAL.0>
44.2576

>  <SCORE.INTRA.POLAR>
-1.97189

>  <SCORE.INTRA.POLAR.0>
-0.381556

>  <SCORE.INTRA.REPUL>
0

>  <SCORE.INTRA.REPUL.0>
0

>  <SCORE.INTRA.SOLV>
4.36509

>  <SCORE.INTRA.SOLV.lig_0>
-134.592

>  <SCORE.INTRA.VDW>
-2.15741

>  <SCORE.INTRA.VDW.0>
-1.01417

>  <SCORE.INTRA.norm>
-0.686957

>  <SCORE.RESTR>
0

>  <SCORE.RESTR.CAVITY>
0

>  <SCORE.RESTR.norm>
0

>  <SCORE.SYSTEM>
0

>  <SCORE.SYSTEM.CONST>
0

>  <SCORE.SYSTEM.DIHEDRAL>
0

>  <SCORE.SYSTEM.SOLV>
0

>  <SCORE.SYSTEM.norm>
0

>  <SCORE.heavy>
32

>  <SCORE.norm>
-1.54438

>  <RMSD>
7.077

$$$$
1lc4
 OpenBabel02141814113D
libRbt.so/2013.1/901 2013/11/27
 32 34  0  0  0  0  0  0  0  0999 V2000
  -15.6199   10.6824   17.8316 C   0  0  2  0  0  0  0  0  0  0  0  0
  -15.0277   10.9355   16.5821 O   0  0  0  0  0  0  0  0  0  0  0  0
  -16.5162   11.8852   18.1905 C   0  0  2  0  0  0  0  0  0  0  0  0
  -17.5323   12.0911   17.1537 N   0  3  0  0  0  0  0  0  0  0  0  0
  -15.6514   13.1517   18.3921 C   0  0  0  0  0  0  0  0  0  0  0  0
  -14.6479   12.8522   19.5195 C   0  0  2  0  0  0  0  0  0  0  0  0
  -13.8441   14.0051   19.7916 O   0  0  0  0  0  0  0  0  0  0  0  0
  -13.7730   11.6392   19.1165 C   0  0  2  0  0  0  0  0  0  0  0  0
  -14.6094   10.4789   18.8438 O   0  0  0  0  0  0  0  0  0  0  0  0
  -12.7747   11.2235   20.1942 C   0  0  0  0  0  0  0  0  0  0  0  0
  -11.9553   10.0652   19.7509 N   0  3  0  0  0  0  0  0  0  0  0  0
  -14.3618    6.8586   15.6357 C   0  0  2  0  0  0  0  0  0  0  0  0
  -13.9002    5.6220   14.9789 N   0  3  0  0  0  0  0  0  0  0  0  0
  -15.2194    7.6673   14.6718 C   0  0  0  0  0  0  0  0  0  0  0  0
  -15.7027    8.9581   15.3420 C   0  0  2  0  0  0  0  0  0  0  0  0
  -16.6271    9.6520   14.4111 N   0  3  0  0  0  0  0  0  0  0  0  0
  -14.5032    9.8304   15.8190 C   0  0  2  0  0  0  0  0  0  0  0  0
  -13.5952    8.9918   16.7550 C   0  0  2  0  0  0  0  0  0  0  0  0
  -12.4299    9.7219   17.0530 O   0  0  0  0  0  0  0  0  0  0  0  0
  -13.1548    7.6890   16.0678 C   0  0  1  0  0  0  0  0  0  0  0  0
  -12.3504    6.9372   16.9758 O   0  0  0  0  0  0  0  0  0  0  0  0
  -10.9789    7.1292   16.9172 C   0  0  2  0  0  0  0  0  0  0  0  0
  -10.3169    5.8320   16.4222 C   0  0  2  0  0  0  0  0  0  0  0  0
  -10.8333    5.5212   15.1343 O   0  0  0  0  0  0  0  0  0  0  0  0
  -10.6293    4.6902   17.4053 C   0  0  1  0  0  0  0  0  0  0  0  0
  -10.0293    3.3978   16.9650 N   0  3  0  0  0  0  0  0  0  0  0  0
  -10.1186    5.0763   18.8150 C   0  0  2  0  0  0  0  0  0  0  0  0
  -10.4172    4.0462   19.7544 O   0  0  0  0  0  0  0  0  0  0  0  0
  -10.7425    6.4123   19.2593 C   0  0  2  0  0  0  0  0  0  0  0  0
  -10.5000    7.4564   18.2475 O   0  0  0  0  0  0  0  0  0  0  0  0
  -10.1558    6.9108   20.5613 C   0  0  0  0  0  0  0  0  0  0  0  0
  -10.5271    6.0785   21.6581 O   0  0  0  0  0  0  0  0  0  0  0  0
  1  2  1  6  0  0  0
  1  3  1  0  0  0  0
  1  9  1  0  0  0  0
  3  4  1  6  0  0  0
  3  5  1  0  0  0  0
  5  6  1  0  0  0  0
  6  7  1  6  0  0  0
  6  8  1  0  0  0  0
  8  9  1  0  0  0  0
  8 10  1  1  0  0  0
 10 11  1  0  0  0  0
 12 13  1  6  0  0  0
 12 14  1  0  0  0  0
 12 20  1  0  0  0  0
 14 15  1  0  0  0  0
 15 16  1  6  0  0  0
 15 17  1  0  0  0  0
 17  2  1  1  0  0  0
 17 18  1  0  0  0  0
 18 19  1  6  0  0  0
 18 20  1  0  0  0  0
 20 21  1  1  0  0  0
 22 21  1  1  0  0  0
 22 23  1  0  0  0  0
 22 30  1  0  0  0  0
 23 24  1  6  0  0  0
 23 25  1  0  0  0  0
 25 26  1  6  0  0  0
 25 27  1  0  0  0  0
 27 28  1  1  0  0  0
 27 29  1  0  0  0  0
 29 30  1  0  0  0  0
 29 31  1  1  0  0  0
 31 32  1  0  0  0  0
M  CHG  5   4   1  11   1  13   1  16   1  26   1
M  END
>  <CHROM.1>
-160.11080899,68.52560279,-166.68694110,175.69745739,-179.50324215,143.94614246
23.96396401,-9.75207985,-52.33255351,145.59073748,-113.41549035,76.52865447
167.47407000,178.25361785,-68.32091552,-78.55303726,-13.07318852,8.52088967
17.63784342,2.54229706,-0.77181630,0.76966921

>  <Name>
1lc4

>  <RI>
0

>  <Rbt.Current_Directory>
/home/afrankz/demos/rdock_decoys_rna/rnas/1lc4

>  <Rbt.Executable>
rbdock ($Id: //depot/dev/client3/rdock/2013.1/src/exe/rbdock.cxx#4 $)

>  <Rbt.Library>
libRbt.so (2013.1, Build901 2013/11/27)

>  <Rbt.Parameter_File>
/export/apps/rDock/src/rDock_2013.1_src/data/scripts/dock_solv.prm

>  <Rbt.Receptor>
prm/pocket_docking_6.prm

>  <SCORE>
-53.0956

>  <SCORE.INTER>
-35.9199

>  <SCORE.INTER.CONST>
1

>  <SCORE.INTER.POLAR>
-5.525

>  <SCORE.INTER.ROT>
6

>  <SCORE.INTER.SOLV>
24.7916

>  <SCORE.INTER.VDW>
-21.3938

>  <SCORE.INTER.norm>
-1.1225

>  <SCORE.INTRA>
-17.1757

>  <SCORE.INTRA.DIHEDRAL>
-18.3234

>  <SCORE.INTRA.DIHEDRAL.0>
44.2576

>  <SCORE.INTRA.POLAR>
-2.46771

>  <SCORE.INTRA.POLAR.0>
-0.381556

>  <SCORE.INTRA.REPUL>
0

>  <SCORE.INTRA.REPUL.0>
0

>  <SCORE.INTRA.SOLV>
5.36985

>  <SCORE.INTRA.SOLV.lig_0>
-134.592

>  <SCORE.INTRA.VDW>
-2.30872

>  <SCORE.INTRA.VDW.0>
-1.01417

>  <SCORE.INTRA.norm>
-0.53674

>  <SCORE.RESTR>
0

>  <SCORE.RESTR.CAVITY>
0

>  <SCORE.RESTR.norm>
0

>  <SCORE.SYSTEM>
0

>  <SCORE.SYSTEM.CONST>
0

>  <SCORE.SYSTEM.DIHEDRAL>
0

>  <SCORE.SYSTEM.SOLV>
0

>  <SCORE.SYSTEM.norm>
0

>  <SCORE.heavy>
32

>  <SCORE.norm>
-1.65924

>  <RMSD>
7.119

$$$$
1lc4
 OpenBabel02141814113D
libRbt.so/2013.1/901 2013/11/27
 32 34  0  0  0  0  0  0  0  0999 V2000
  -11.6927    8.7740   18.8691 C   0  0  2  0  0  0  0  0  0  0  0  0
  -12.5073    8.3779   19.9440 O   0  0  0  0  0  0  0  0  0  0  0  0
  -12.5701    9.5424   17.8598 C   0  0  2  0  0  0  0  0  0  0  0  0
  -13.1958   10.7002   18.5060 N   0  3  0  0  0  0  0  0  0  0  0  0
  -13.6302    8.5965   17.2482 C   0  0  0  0  0  0  0  0  0  0  0  0
  -12.8795    7.4411   16.5632 C   0  0  2  0  0  0  0  0  0  0  0  0
  -13.8046    6.5496   15.9317 O   0  0  0  0  0  0  0  0  0  0  0  0
  -12.0126    6.7013   17.6123 C   0  0  2  0  0  0  0  0  0  0  0  0
  -11.0802    7.6255   18.2422 O   0  0  0  0  0  0  0  0  0  0  0  0
  -11.1812    5.5647   17.0229 C   0  0  0  0  0  0  0  0  0  0  0  0
  -10.2594    6.0629   15.9684 N   0  3  0  0  0  0  0  0  0  0  0  0
  -10.1777    5.0544   21.1638 C   0  0  2  0  0  0  0  0  0  0  0  0
   -9.5817    3.9697   21.9650 N   0  3  0  0  0  0  0  0  0  0  0  0
   -9.8551    6.4017   21.7956 C   0  0  0  0  0  0  0  0  0  0  0  0
  -10.4728    7.5381   20.9733 C   0  0  2  0  0  0  0  0  0  0  0  0
  -10.0347    8.8306   21.5565 N   0  3  0  0  0  0  0  0  0  0  0  0
  -12.0187    7.3793   20.8620 C   0  0  2  0  0  0  0  0  0  0  0  0
  -12.3531    5.9846   20.2731 C   0  0  2  0  0  0  0  0  0  0  0  0
  -13.7438    5.7762   20.3258 O   0  0  0  0  0  0  0  0  0  0  0  0
  -11.6924    4.8686   21.0987 C   0  0  1  0  0  0  0  0  0  0  0  0
  -12.0002    3.6092   20.5022 O   0  0  0  0  0  0  0  0  0  0  0  0
  -12.5020    2.6194   21.3328 C   0  0  2  0  0  0  0  0  0  0  0  0
  -12.7841    1.3623   20.4923 C   0  0  2  0  0  0  0  0  0  0  0  0
  -11.5692    0.9382   19.8872 O   0  0  0  0  0  0  0  0  0  0  0  0
  -13.8253    1.6937   19.4090 C   0  0  1  0  0  0  0  0  0  0  0  0
  -14.1243    0.5146   18.5461 N   0  3  0  0  0  0  0  0  0  0  0  0
  -15.1166    2.2162   20.0848 C   0  0  2  0  0  0  0  0  0  0  0  0
  -16.0926    2.5561   19.1026 O   0  0  0  0  0  0  0  0  0  0  0  0
  -14.7968    3.4320   20.9743 C   0  0  2  0  0  0  0  0  0  0  0  0
  -13.7307    3.1007   21.9367 O   0  0  0  0  0  0  0  0  0  0  0  0
  -15.9966    3.8821   21.7780 C   0  0  0  0  0  0  0  0  0  0  0  0
  -15.7186    5.0688   22.5182 O   0  0  0  0  0  0  0  0  0  0  0  0
  1  2  1  1  0  0  0
  1  3  1  0  0  0  0
  1  9  1  0  0  0  0
  3  4  1  1  0  0  0
  3  5  1  0  0  0  0
  5  6  1  0  0  0  0
  6  7  1  1  0  0  0
  6  8  1  0  0  0  0
  8  9  1  0  0  0  0
  8 10  1  6  0  0  0
 10 11  1  0  0  0  0
 12 13  1  1  0  0  0
 12 14  1  0  0  0  0
 12 20  1  0  0  0  0
 14 15  1  0  0  0  0
 15 16  1  1  0  0  0
 15 17  1  0  0  0  0
 17  2  1  6  0  0  0
 17 18  1  0  0  0  0
 18 19  1  1  0  0  0
 18 20  1  0  0  0  0
 20 21  1  6  0  0  0
 22 21  1  6  0  0  0
 22 23  1  0  0  0  0
 22 30  1  0  0  0  0
 23 24  1  6  0  0  0
 23 25  1  0  0  0  0
 25 26  1  1  0  0  0
 25 27  1  0  0  0  0
 27 28  1  6  0  0  0
 27 29  1  0  0  0  0
 29 30  1  0  0  0  0
 29 31  1  1  0  0  0
 31 32  1  0  0  0  0
M  CHG  5   4   1  11   1  13   1  16   1  26   1
M  END
>  <CHROM.1>
165.25074939,32.55881862,-90.52651547,178.89779210,59.18628001,-87.00820208
-178.99104884,-86.87893380,63.95291402,108.48036321,179.12241580,106.00607001
12.97399116,-58.20526607,-175.48983937,-58.55630762,-12.60101249,5.38602966
19.68408452,-1.12481361,0.84466663,2.49917842

>  <Name>
1lc4

>  <RI>
0

>  <Rbt.Current_Directory>
/home/afrankz/demos/rdock_decoys_rna/rnas/1lc4

>  <Rbt.Executable>
rbdock ($Id: //depot/dev/client3/rdock/2013.1/src/exe/rbdock.cxx#4 $)

>  <Rbt.Library>
libRbt.so (2013.1, Build901 2013/11/27)

>  <Rbt.Parameter_File>
/export/apps/rDock/src/rDock_2013.1_src/data/scripts/dock_solv.prm

>  <Rbt.Receptor>
prm/blind_docking_60.prm

>  <SCORE>
-11.8867

>  <SCORE.INTER>
-13.8273

>  <SCORE.INTER.CONST>
1

>  <SCORE.INTER.POLAR>
-4.15799

>  <SCORE.INTER.ROT>
6

>  <SCORE.INTER.SOLV>
31.4171

>  <SCORE.INTER.VDW>
-13.4306

>  <SCORE.INTER.norm>
-0.432102

>  <SCORE.INTRA>
-9.12974

>  <SCORE.INTRA.DIHEDRAL>
-18.9713

>  <SCORE.INTRA.DIHEDRAL.0>
44.2576

>  <SCORE.INTRA.POLAR>
0.335809

>  <SCORE.INTRA.POLAR.0>
-0.381556

>  <SCORE.INTRA.REPUL>
0

>  <SCORE.INTRA.REPUL.0>
0

>  <SCORE.INTRA.SOLV>
-1.37752

>  <SCORE.INTRA.SOLV.lig_0>
-134.592

>  <SCORE.INTRA.VDW>
-0.0970914

>  <SCORE.INTRA.VDW.0>
-1.01417

>  <SCORE.INTRA.norm>
-0.285304

>  <SCORE.RESTR>
11.0703

>  <SCORE.RESTR.CAVITY>
11.0703

>  <SCORE.RESTR.norm>
0.345945

>  <SCORE.SYSTEM>
0

>  <SCORE.SYSTEM.CONST>
0

>  <SCORE.SYSTEM.DIHEDRAL>
0

>  <SCORE.SYSTEM.SOLV>
0

>  <SCORE.SYSTEM.norm>
0

>  <SCORE.heavy>
32

>  <SCORE.norm>
-0.371461

>  <RMSD>
7.120

$$$$
1lc4
 OpenBabel02141814113D
libRbt.so/2013.1/901 2013/11/27
 32 34  0  0  0  0  0  0  0  0999 V2000
   -8.7927    6.4157   13.2769 C   0  0  2  0  0  0  0  0  0  0  0  0
   -9.3772    6.1226   12.0325 O   0  0  0  0  0  0  0  0  0  0  0  0
   -7.2678    6.5305   13.0757 C   0  0  2  0  0  0  0  0  0  0  0  0
   -6.9607    7.5691   12.0874 N   0  3  0  0  0  0  0  0  0  0  0  0
   -6.6820    5.1618   12.6562 C   0  0  0  0  0  0  0  0  0  0  0  0
   -7.0201    4.1532   13.7680 C   0  0  2  0  0  0  0  0  0  0  0  0
   -6.4625    2.8701   13.4645 O   0  0  0  0  0  0  0  0  0  0  0  0
   -8.5580    4.0728   13.9351 C   0  0  2  0  0  0  0  0  0  0  0  0
   -9.1041    5.3871   14.2423 O   0  0  0  0  0  0  0  0  0  0  0  0
   -9.0005    3.1350   15.0555 C   0  0  0  0  0  0  0  0  0  0  0  0
   -8.5926    1.7330   14.7766 N   0  3  0  0  0  0  0  0  0  0  0  0
  -13.4938    6.3955   11.0636 C   0  0  2  0  0  0  0  0  0  0  0  0
  -14.9339    6.1051   10.9378 N   0  3  0  0  0  0  0  0  0  0  0  0
  -12.6844    5.3092   10.3686 C   0  0  0  0  0  0  0  0  0  0  0  0
  -11.1845    5.5979   10.4956 C   0  0  2  0  0  0  0  0  0  0  0  0
  -10.4432    4.5831    9.7061 N   0  3  0  0  0  0  0  0  0  0  0  0
  -10.7507    5.6862   11.9894 C   0  0  2  0  0  0  0  0  0  0  0  0
  -11.6132    6.7507   12.7152 C   0  0  2  0  0  0  0  0  0  0  0  0
  -11.3371    6.7148   14.0945 O   0  0  0  0  0  0  0  0  0  0  0  0
  -13.1114    6.4532   12.5412 C   0  0  1  0  0  0  0  0  0  0  0  0
  -13.8638    7.4738   13.1963 O   0  0  0  0  0  0  0  0  0  0  0  0
  -14.7178    7.0784   14.2139 C   0  0  2  0  0  0  0  0  0  0  0  0
  -16.0265    7.8792   14.1026 C   0  0  2  0  0  0  0  0  0  0  0  0
  -16.6103    7.6212   12.8319 O   0  0  0  0  0  0  0  0  0  0  0  0
  -15.7222    9.3805   14.2481 C   0  0  1  0  0  0  0  0  0  0  0  0
  -16.9545   10.2117   14.1270 N   0  3  0  0  0  0  0  0  0  0  0  0
  -15.0271    9.6309   15.6087 C   0  0  2  0  0  0  0  0  0  0  0  0
  -14.7095   11.0124   15.7612 O   0  0  0  0  0  0  0  0  0  0  0  0
  -13.7575    8.7670   15.7244 C   0  0  2  0  0  0  0  0  0  0  0  0
  -14.0763    7.3475   15.4875 O   0  0  0  0  0  0  0  0  0  0  0  0
  -13.1288    8.8579   17.0971 C   0  0  0  0  0  0  0  0  0  0  0  0
  -13.2782   10.1600   17.6588 O   0  0  0  0  0  0  0  0  0  0  0  0
  1  2  1  6  0  0  0
  1  3  1  0  0  0  0
  1  9  1  0  0  0  0
  3  4  1  6  0  0  0
  3  5  1  0  0  0  0
  5  6  1  0  0  0  0
  6  7  1  6  0  0  0
  6  8  1  0  0  0  0
  8  9  1  0  0  0  0
  8 10  1  1  0  0  0
 10 11  1  0  0  0  0
 12 13  1  1  0  0  0
 12 14  1  0  0  0  0
 12 20  1  0  0  0  0
 14 15  1  0  0  0  0
 15 16  1  1  0  0  0
 15 17  1  0  0  0  0
 17  2  1  6  0  0  0
 17 18  1  0  0  0  0
 18 19  1  1  0  0  0
 18 20  1  0  0  0  0
 20 21  1  1  0  0  0
 22 21  1  6  0  0  0
 22 23  1  0  0  0  0
 22 30  1  0  0  0  0
 23 24  1  6  0  0  0
 23 25  1  0  0  0  0
 25 26  1  1  0  0  0
 25 27  1  0  0  0  0
 27 28  1  6  0  0  0
 27 29  1  0  0  0  0
 29 30  1  0  0  0  0
 29 31  1  1  0  0  0
 31 32  1  0  0  0  0
M  CHG  5   4   1  11   1  13   1  16   1  26   1
M  END
>  <CHROM.1>
166.96584984,173.39600151,77.58433670,73.87078843,-62.99936541,-39.97536820
-51.59557755,165.03035611,-131.67741471,117.79196950,-139.50062876,80.13244803
63.04739176,170.54762934,-34.66057156,-73.00047339,-11.73775371,6.63808881
13.52050629,-0.44142342,-0.40245794,1.04050831

>  <Name>
1lc4

>  <RI>
0

>  <Rbt.Current_Directory>
/home/afrankz/demos/rdock_decoys_rna/rnas/1lc4

>  <Rbt.Executable>
rbdock ($Id: //depot/dev/client3/rdock/2013.1/src/exe/rbdock.cxx#4 $)

>  <Rbt.Library>
libRbt.so (2013.1, Build901 2013/11/27)

>  <Rbt.Parameter_File>
/export/apps/rDock/src/rDock_2013.1_src/data/scripts/dock_solv.prm

>  <Rbt.Receptor>
prm/blind_docking_80.prm

>  <SCORE>
-50.5954

>  <SCORE.INTER>
-42.6175

>  <SCORE.INTER.CONST>
1

>  <SCORE.INTER.POLAR>
-6.5921

>  <SCORE.INTER.ROT>
6

>  <SCORE.INTER.SOLV>
36.2443

>  <SCORE.INTER.VDW>
-26.1194

>  <SCORE.INTER.norm>
-1.3318

>  <SCORE.INTRA>
-13.3053

>  <SCORE.INTRA.DIHEDRAL>
-15.6235

>  <SCORE.INTRA.DIHEDRAL.0>
44.2576

>  <SCORE.INTRA.POLAR>
-1.49198

>  <SCORE.INTRA.POLAR.0>
-0.381556

>  <SCORE.INTRA.REPUL>
0.0230673

>  <SCORE.INTRA.REPUL.0>
0

>  <SCORE.INTRA.SOLV>
-1.06751

>  <SCORE.INTRA.SOLV.lig_0>
-134.592

>  <SCORE.INTRA.VDW>
-0.00239315

>  <SCORE.INTRA.VDW.0>
-1.01417

>  <SCORE.INTRA.norm>
-0.415791

>  <SCORE.RESTR>
5.32736

>  <SCORE.RESTR.CAVITY>
5.32736

>  <SCORE.RESTR.norm>
0.16648

>  <SCORE.SYSTEM>
0

>  <SCORE.SYSTEM.CONST>
0

>  <SCORE.SYSTEM.DIHEDRAL>
0

>  <SCORE.SYSTEM.SOLV>
0

>  <SCORE.SYSTEM.norm>
0

>  <SCORE.heavy>
32

>  <SCORE.norm>
-1.58111

>  <RMSD>
7.133

$$$$
1lc4
 OpenBabel02141814113D
libRbt.so/2013.1/901 2013/11/27
 32 34  0  0  0  0  0  0  0  0999 V2000
   -9.1296    4.0766   13.1414 C   0  0  2  0  0  0  0  0  0  0  0  0
   -9.5387    4.9110   14.1961 O   0  0  0  0  0  0  0  0  0  0  0  0
   -8.0932    3.0771   13.6944 C   0  0  2  0  0  0  0  0  0  0  0  0
   -8.6721    2.2981   14.7933 N   0  3  0  0  0  0  0  0  0  0  0  0
   -6.8183    3.8278   14.1456 C   0  0  0  0  0  0  0  0  0  0  0  0
   -6.2658    4.5789   12.9216 C   0  0  2  0  0  0  0  0  0  0  0  0
   -5.0525    5.2595   13.2593 O   0  0  0  0  0  0  0  0  0  0  0  0
   -7.3388    5.5674   12.4009 C   0  0  2  0  0  0  0  0  0  0  0  0
   -8.5634    4.8553   12.0642 O   0  0  0  0  0  0  0  0  0  0  0  0
   -6.9093    6.3285   11.1492 C   0  0  0  0  0  0  0  0  0  0  0  0
   -6.7016    7.7712   11.4414 N   0  3  0  0  0  0  0  0  0  0  0  0
  -12.9116    7.4167   14.7485 C   0  0  2  0  0  0  0  0  0  0  0  0
  -14.2931    7.9018   14.9208 N   0  3  0  0  0  0  0  0  0  0  0  0
  -12.7710    6.7237   13.4000 C   0  0  0  0  0  0  0  0  0  0  0  0
  -11.3390    6.2112   13.2103 C   0  0  2  0  0  0  0  0  0  0  0  0
  -11.2189    5.6518   11.8409 N   0  3  0  0  0  0  0  0  0  0  0  0
  -10.9396    5.2185   14.3428 C   0  0  2  0  0  0  0  0  0  0  0  0
  -11.1371    5.9012   15.7207 C   0  0  2  0  0  0  0  0  0  0  0  0
  -10.9355    4.9562   16.7437 O   0  0  0  0  0  0  0  0  0  0  0  0
  -12.5717    6.4341   15.8674 C   0  0  1  0  0  0  0  0  0  0  0  0
  -12.6968    7.0805   17.1336 O   0  0  0  0  0  0  0  0  0  0  0  0
  -11.8887    8.1824   17.3661 C   0  0  2  0  0  0  0  0  0  0  0  0
  -11.0085    7.9016   18.5960 C   0  0  2  0  0  0  0  0  0  0  0  0
  -10.2182    6.7485   18.3354 O   0  0  0  0  0  0  0  0  0  0  0  0
  -11.9052    7.6601   19.8230 C   0  0  1  0  0  0  0  0  0  0  0  0
  -11.1054    7.3605   21.0455 N   0  3  0  0  0  0  0  0  0  0  0  0
  -12.8045    8.8998   20.0500 C   0  0  2  0  0  0  0  0  0  0  0  0
  -13.6660    8.6947   21.1673 O   0  0  0  0  0  0  0  0  0  0  0  0
  -13.6244    9.2014   18.7817 C   0  0  2  0  0  0  0  0  0  0  0  0
  -12.7362    9.3343   17.6130 O   0  0  0  0  0  0  0  0  0  0  0  0
  -14.4010   10.4942   18.8987 C   0  0  0  0  0  0  0  0  0  0  0  0
  -14.6125   11.0977   17.6242 O   0  0  0  0  0  0  0  0  0  0  0  0
  1  2  1  1  0  0  0
  1  3  1  0  0  0  0
  1  9  1  0  0  0  0
  3  4  1  1  0  0  0
  3  5  1  0  0  0  0
  5  6  1  0  0  0  0
  6  7  1  1  0  0  0
  6  8  1  0  0  0  0
  8  9  1  0  0  0  0
  8 10  1  6  0  0  0
 10 11  1  0  0  0  0
 12 13  1  1  0  0  0
 12 14  1  0  0  0  0
 12 20  1  0  0  0  0
 14 15  1  0  0  0  0
 15 16  1  6  0  0  0
 15 17  1  0  0  0  0
 17  2  1  6  0  0  0
 17 18  1  0  0  0  0
 18 19  1  1  0  0  0
 18 20  1  0  0  0  0
 20 21  1  1  0  0  0
 22 21  1  1  0  0  0
 22 23  1  0  0  0  0
 22 30  1  0  0  0  0
 23 24  1  6  0  0  0
 23 25  1  0  0  0  0
 25 26  1  1  0  0  0
 25 27  1  0  0  0  0
 27 28  1  1  0  0  0
 27 29  1  0  0  0  0
 29 30  1  0  0  0  0
 29 31  1  1  0  0  0
 31 32  1  0  0  0  0
M  CHG  5   4   1  11   1  13   1  16   1  26   1
M  END
>  <CHROM.1>
-136.59230377,-72.94537794,74.06881083,-177.70086086,-111.41041620,102.15428821
179.94269820,48.91556355,71.04731211,-60.33366175,-120.63546025,-156.63057266
59.37748453,67.91801964,151.81908198,-61.17438400,-10.67610250,6.62745048
15.66181520,0.75077584,0.60623980,-1.58739622

>  <Name>
1lc4

>  <RI>
0

>  <Rbt.Current_Directory>
/home/afrankz/demos/rdock_decoys_rna/rnas/1lc4

>  <Rbt.Executable>
rbdock ($Id: //depot/dev/client3/rdock/2013.1/src/exe/rbdock.cxx#4 $)

>  <Rbt.Library>
libRbt.so (2013.1, Build901 2013/11/27)

>  <Rbt.Parameter_File>
/export/apps/rDock/src/rDock_2013.1_src/data/scripts/dock_solv.prm

>  <Rbt.Receptor>
prm/blind_docking_80.prm

>  <SCORE>
-35.6528

>  <SCORE.INTER>
-30.9001

>  <SCORE.INTER.CONST>
1

>  <SCORE.INTER.POLAR>
-6.43804

>  <SCORE.INTER.ROT>
6

>  <SCORE.INTER.SOLV>
27.3406

>  <SCORE.INTER.VDW>
-15.8535

>  <SCORE.INTER.norm>
-0.965628

>  <SCORE.INTRA>
-10.3276

>  <SCORE.INTRA.DIHEDRAL>
-15.9386

>  <SCORE.INTRA.DIHEDRAL.0>
44.2576

>  <SCORE.INTRA.POLAR>
-0.805048

>  <SCORE.INTRA.POLAR.0>
-0.381556

>  <SCORE.INTRA.REPUL>
0

>  <SCORE.INTRA.REPUL.0>
0

>  <SCORE.INTRA.SOLV>
0.740992

>  <SCORE.INTRA.SOLV.lig_0>
-134.592

>  <SCORE.INTRA.VDW>
0.00837106

>  <SCORE.INTRA.VDW.0>
-1.01417

>  <SCORE.INTRA.norm>
-0.322738

>  <SCORE.RESTR>
5.57488

>  <SCORE.RESTR.CAVITY>
5.57488

>  <SCORE.RESTR.norm>
0.174215

>  <SCORE.SYSTEM>
0

>  <SCORE.SYSTEM.CONST>
0

>  <SCORE.SYSTEM.DIHEDRAL>
0

>  <SCORE.SYSTEM.SOLV>
0

>  <SCORE.SYSTEM.norm>
0

>  <SCORE.heavy>
32

>  <SCORE.norm>
-1.11415

>  <RMSD>
7.193

$$$$
1lc4
 OpenBabel02141814113D
libRbt.so/2013.1/901 2013/11/27
 32 34  0  0  0  0  0  0  0  0999 V2000
  -11.8253    5.8820   14.3938 C   0  0  2  0  0  0  0  0  0  0  0  0
  -11.8659    7.2026   14.8740 O   0  0  0  0  0  0  0  0  0  0  0  0
  -10.4645    5.2706   14.7854 C   0  0  2  0  0  0  0  0  0  0  0  0
  -10.2868    5.3118   16.2402 N   0  3  0  0  0  0  0  0  0  0  0  0
   -9.3189    6.0109   14.0560 C   0  0  0  0  0  0  0  0  0  0  0  0
   -9.5713    5.8789   12.5439 C   0  0  2  0  0  0  0  0  0  0  0  0
   -8.5164    6.5040   11.8052 O   0  0  0  0  0  0  0  0  0  0  0  0
  -10.9462    6.5034   12.1986 C   0  0  2  0  0  0  0  0  0  0  0  0
  -12.0037    5.8542   12.9604 O   0  0  0  0  0  0  0  0  0  0  0  0
  -11.3195    6.3765   10.7237 C   0  0  0  0  0  0  0  0  0  0  0  0
  -12.4298    5.4071   10.5310 N   0  3  0  0  0  0  0  0  0  0  0  0
  -14.7157   10.3246   15.1765 C   0  0  2  0  0  0  0  0  0  0  0  0
  -15.9495   11.0845   15.4490 N   0  3  0  0  0  0  0  0  0  0  0  0
  -15.0032    9.2124   14.1771 C   0  0  0  0  0  0  0  0  0  0  0  0
  -13.7283    8.4122   13.8881 C   0  0  2  0  0  0  0  0  0  0  0  0
  -14.0279    7.4206   12.8254 N   0  3  0  0  0  0  0  0  0  0  0  0
  -13.1421    7.7930   15.1922 C   0  0  2  0  0  0  0  0  0  0  0  0
  -12.9026    8.9158   16.2342 C   0  0  2  0  0  0  0  0  0  0  0  0
  -12.5307    8.3409   17.4635 O   0  0  0  0  0  0  0  0  0  0  0  0
  -14.1894    9.7212   16.4772 C   0  0  1  0  0  0  0  0  0  0  0  0
  -13.9133   10.7603   17.4157 O   0  0  0  0  0  0  0  0  0  0  0  0
  -14.7174   10.8275   18.5428 C   0  0  2  0  0  0  0  0  0  0  0  0
  -14.9243   12.3050   18.9173 C   0  0  2  0  0  0  0  0  0  0  0  0
  -15.5424   12.9690   17.8223 O   0  0  0  0  0  0  0  0  0  0  0  0
  -13.5620   12.9510   19.2248 C   0  0  1  0  0  0  0  0  0  0  0  0
  -13.6975   14.3943   19.5748 N   0  3  0  0  0  0  0  0  0  0  0  0
  -12.8761   12.1732   20.3745 C   0  0  2  0  0  0  0  0  0  0  0  0
  -11.5981   12.7344   20.6651 O   0  0  0  0  0  0  0  0  0  0  0  0
  -12.7426   10.6844   20.0039 C   0  0  2  0  0  0  0  0  0  0  0  0
  -14.0541   10.1272   19.6271 O   0  0  0  0  0  0  0  0  0  0  0  0
  -12.2218    9.8543   21.1561 C   0  0  0  0  0  0  0  0  0  0  0  0
  -11.2540    8.9011   20.7223 O   0  0  0  0  0  0  0  0  0  0  0  0
  1  2  1  6  0  0  0
  1  3  1  0  0  0  0
  1  9  1  0  0  0  0
  3  4  1  1  0  0  0
  3  5  1  0  0  0  0
  5  6  1  0  0  0  0
  6  7  1  6  0  0  0
  6  8  1  0  0  0  0
  8  9  1  0  0  0  0
  8 10  1  6  0  0  0
 10 11  1  0  0  0  0
 12 13  1  1  0  0  0
 12 14  1  0  0  0  0
 12 20  1  0  0  0  0
 14 15  1  0  0  0  0
 15 16  1  6  0  0  0
 15 17  1  0  0  0  0
 17  2  1  6  0  0  0
 17 18  1  0  0  0  0
 18 19  1  1  0  0  0
 18 20  1  0  0  0  0
 20 21  1  1  0  0  0
 22 21  1  6  0  0  0
 22 23  1  0  0  0  0
 22 30  1  0  0  0  0
 23 24  1  6  0  0  0
 23 25  1  0  0  0  0
 25 26  1  1  0  0  0
 25 27  1  0  0  0  0
 27 28  1  6  0  0  0
 27 29  1  0  0  0  0
 29 30  1  0  0  0  0
 29 31  1  1  0  0  0
 31 32  1  0  0  0  0
M  CHG  5   4   1  11   1  13   1  16   1  26   1
M  END
>  <CHROM.1>
-152.39356162,-86.35530366,70.66682673,-178.01262920,109.44539969,161.16069435
171.09900407,-149.62470223,142.64722021,112.35983361,-144.57936589,-176.33293858
173.18002699,76.78669739,-137.94449391,69.27678297,-12.67655825,8.95764499
16.13554625,-1.22217149,-0.66562280,1.08172334

>  <Name>
1lc4

>  <RI>
0

>  <Rbt.Current_Directory>
/home/afrankz/demos/rdock_decoys_rna/rnas/1lc4

>  <Rbt.Executable>
rbdock ($Id: //depot/dev/client3/rdock/2013.1/src/exe/rbdock.cxx#4 $)

>  <Rbt.Library>
libRbt.so (2013.1, Build901 2013/11/27)

>  <Rbt.Parameter_File>
/export/apps/rDock/src/rDock_2013.1_src/data/scripts/dock_solv.prm

>  <Rbt.Receptor>
prm/blind_docking_80.prm

>  <SCORE>
-48.8536

>  <SCORE.INTER>
-42.3988

>  <SCORE.INTER.CONST>
1

>  <SCORE.INTER.POLAR>
-6.30769

>  <SCORE.INTER.ROT>
6

>  <SCORE.INTER.SOLV>
25.6617

>  <SCORE.INTER.VDW>
-23.3941

>  <SCORE.INTER.norm>
-1.32496

>  <SCORE.INTRA>
-9.93427

>  <SCORE.INTRA.DIHEDRAL>
-7.5738

>  <SCORE.INTRA.DIHEDRAL.0>
44.2576

>  <SCORE.INTRA.POLAR>
-1.92449

>  <SCORE.INTRA.POLAR.0>
-0.381556

>  <SCORE.INTRA.REPUL>
0

>  <SCORE.INTRA.REPUL.0>
0

>  <SCORE.INTRA.SOLV>
6.0958

>  <SCORE.INTRA.SOLV.lig_0>
-134.592

>  <SCORE.INTRA.VDW>
-2.65202

>  <SCORE.INTRA.VDW.0>
-1.01417

>  <SCORE.INTRA.norm>
-0.310446

>  <SCORE.RESTR>
3.47943

>  <SCORE.RESTR.CAVITY>
3.47943

>  <SCORE.RESTR.norm>
0.108732

>  <SCORE.SYSTEM>
0

>  <SCORE.SYSTEM.CONST>
0

>  <SCORE.SYSTEM.DIHEDRAL>
0

>  <SCORE.SYSTEM.SOLV>
0

>  <SCORE.SYSTEM.norm>
0

>  <SCORE.heavy>
32

>  <SCORE.norm>
-1.52668

>  <RMSD>
7.221

$$$$
1lc4
 OpenBabel02141814113D
libRbt.so/2013.1/901 2013/11/27
 32 34  0  0  0  0  0  0  0  0999 V2000
   -8.4274    5.9526   13.3759 C   0  0  2  0  0  0  0  0  0  0  0  0
   -9.0615    5.8064   12.1299 O   0  0  0  0  0  0  0  0  0  0  0  0
   -6.9617    6.3611   13.1235 C   0  0  2  0  0  0  0  0  0  0  0  0
   -6.9052    7.6054   12.3502 N   0  3  0  0  0  0  0  0  0  0  0  0
   -6.2063    5.2170   12.4073 C   0  0  0  0  0  0  0  0  0  0  0  0
   -6.2877    3.9729   13.3091 C   0  0  2  0  0  0  0  0  0  0  0  0
   -5.5638    2.8847   12.7250 O   0  0  0  0  0  0  0  0  0  0  0  0
   -7.7745    3.6019   13.5357 C   0  0  2  0  0  0  0  0  0  0  0  0
   -8.4917    4.7215   14.1292 O   0  0  0  0  0  0  0  0  0  0  0  0
   -7.9690    2.4069   14.4657 C   0  0  0  0  0  0  0  0  0  0  0  0
   -9.3990    2.2398   14.8354 N   0  3  0  0  0  0  0  0  0  0  0  0
  -13.1346    6.6693   11.3390 C   0  0  2  0  0  0  0  0  0  0  0  0
  -14.6019    6.5682   11.2356 N   0  3  0  0  0  0  0  0  0  0  0  0
  -12.4807    5.5718   10.5106 C   0  0  0  0  0  0  0  0  0  0  0  0
  -10.9542    5.6640   10.6129 C   0  0  2  0  0  0  0  0  0  0  0  0
  -10.3613    4.6551    9.7001 N   0  3  0  0  0  0  0  0  0  0  0  0
  -10.4788    5.5445   12.0918 C   0  0  2  0  0  0  0  0  0  0  0  0
  -11.1873    6.6237   12.9504 C   0  0  2  0  0  0  0  0  0  0  0  0
  -10.8863    6.4123   14.3086 O   0  0  0  0  0  0  0  0  0  0  0  0
  -12.7143    6.5274   12.8005 C   0  0  1  0  0  0  0  0  0  0  0  0
  -13.3205    7.5574   13.5805 O   0  0  0  0  0  0  0  0  0  0  0  0
  -14.3613    7.1893   14.4187 C   0  0  2  0  0  0  0  0  0  0  0  0
  -15.3349    8.3730   14.5501 C   0  0  2  0  0  0  0  0  0  0  0  0
  -15.8271    8.7022   13.2573 O   0  0  0  0  0  0  0  0  0  0  0  0
  -14.5959    9.5791   15.1559 C   0  0  1  0  0  0  0  0  0  0  0  0
  -15.4867   10.7677   15.2881 N   0  3  0  0  0  0  0  0  0  0  0  0
  -14.0109    9.1803   16.5328 C   0  0  2  0  0  0  0  0  0  0  0  0
  -13.2974   10.2723   17.1082 O   0  0  0  0  0  0  0  0  0  0  0  0
  -13.0943    7.9515   16.3856 C   0  0  2  0  0  0  0  0  0  0  0  0
  -13.8115    6.8502   15.7182 O   0  0  0  0  0  0  0  0  0  0  0  0
  -12.6230    7.4278   17.7241 C   0  0  0  0  0  0  0  0  0  0  0  0
  -12.0837    8.4689   18.5358 O   0  0  0  0  0  0  0  0  0  0  0  0
  1  2  1  6  0  0  0
  1  3  1  0  0  0  0
  1  9  1  0  0  0  0
  3  4  1  6  0  0  0
  3  5  1  0  0  0  0
  5  6  1  0  0  0  0
  6  7  1  6  0  0  0
  6  8  1  0  0  0  0
  8  9  1  0  0  0  0
  8 10  1  1  0  0  0
 10 11  1  0  0  0  0
 12 13  1  1  0  0  0
 12 14  1  0  0  0  0
 12 20  1  0  0  0  0
 14 15  1  0  0  0  0
 15 16  1  6  0  0  0
 15 17  1  0  0  0  0
 17  2  1  6  0  0  0
 17 18  1  0  0  0  0
 18 19  1  1  0  0  0
 18 20  1  0  0  0  0
 20 21  1  1  0  0  0
 22 21  1  6  0  0  0
 22 23  1  0  0  0  0
 22 30  1  0  0  0  0
 23 24  1  6  0  0  0
 23 25  1  0  0  0  0
 25 26  1  1  0  0  0
 25 27  1  0  0  0  0
 27 28  1  6  0  0  0
 27 29  1  0  0  0  0
 29 30  1  0  0  0  0
 29 31  1  1  0  0  0
 31 32  1  0  0  0  0
M  CHG  5   4   1  11   1  13   1  16   1  26   1
M  END
>  <CHROM.1>
-174.43398723,170.75291717,-33.34846318,-178.16807298,170.17820843,-39.67326312
-166.81070153,44.60167911,-59.71738669,106.78040350,-149.25347304,175.63968232
55.22179439,-57.50112884,-50.21715836,-56.22206136,-11.19229339,6.49459889
13.77199549,-0.46570065,-0.46504426,1.23713453

>  <Name>
1lc4

>  <RI>
0

>  <Rbt.Current_Directory>
/home/afrankz/demos/rdock_decoys_rna/rnas/1lc4

>  <Rbt.Executable>
rbdock ($Id: //depot/dev/client3/rdock/2013.1/src/exe/rbdock.cxx#4 $)

>  <Rbt.Library>
libRbt.so (2013.1, Build901 2013/11/27)

>  <Rbt.Parameter_File>
/export/apps/rDock/src/rDock_2013.1_src/data/scripts/dock_solv.prm

>  <Rbt.Receptor>
prm/blind_docking_80.prm

>  <SCORE>
-46.4106

>  <SCORE.INTER>
-32.411

>  <SCORE.INTER.CONST>
1

>  <SCORE.INTER.POLAR>
-5.90906

>  <SCORE.INTER.ROT>
6

>  <SCORE.INTER.SOLV>
28.0862

>  <SCORE.INTER.VDW>
-18.8726

>  <SCORE.INTER.norm>
-1.01284

>  <SCORE.INTRA>
-20.2001

>  <SCORE.INTRA.DIHEDRAL>
-29.178

>  <SCORE.INTRA.DIHEDRAL.0>
44.2576

>  <SCORE.INTRA.POLAR>
-0.764485

>  <SCORE.INTRA.POLAR.0>
-0.381556

>  <SCORE.INTRA.REPUL>
0

>  <SCORE.INTRA.REPUL.0>
0

>  <SCORE.INTRA.SOLV>
-2.50044

>  <SCORE.INTRA.SOLV.lig_0>
-134.592

>  <SCORE.INTRA.VDW>
-1.7616

>  <SCORE.INTRA.VDW.0>
-1.01417

>  <SCORE.INTRA.norm>
-0.631253

>  <SCORE.RESTR>
6.20049

>  <SCORE.RESTR.CAVITY>
6.20049

>  <SCORE.RESTR.norm>
0.193765

>  <SCORE.SYSTEM>
0

>  <SCORE.SYSTEM.CONST>
0

>  <SCORE.SYSTEM.DIHEDRAL>
0

>  <SCORE.SYSTEM.SOLV>
0

>  <SCORE.SYSTEM.norm>
0

>  <SCORE.heavy>
32

>  <SCORE.norm>
-1.45033

>  <RMSD>
7.223

$$$$
1lc4
 OpenBabel02141814113D
libRbt.so/2013.1/901 2013/11/27
 32 34  0  0  0  0  0  0  0  0999 V2000
  -13.1125    8.5307   18.7076 C   0  0  2  0  0  0  0  0  0  0  0  0
  -11.7866    8.0758   18.8128 O   0  0  0  0  0  0  0  0  0  0  0  0
  -13.1087    9.8338   17.8826 C   0  0  2  0  0  0  0  0  0  0  0  0
  -12.5222    9.5980   16.5597 N   0  3  0  0  0  0  0  0  0  0  0  0
  -12.3502   10.9447   18.6461 C   0  0  0  0  0  0  0  0  0  0  0  0
  -13.0598   11.1456   19.9966 C   0  0  2  0  0  0  0  0  0  0  0  0
  -12.4345   12.1990   20.7373 O   0  0  0  0  0  0  0  0  0  0  0  0
  -13.0405    9.8138   20.7875 C   0  0  2  0  0  0  0  0  0  0  0  0
  -13.6801    8.7570   20.0167 O   0  0  0  0  0  0  0  0  0  0  0  0
  -13.7696    9.8903   22.1266 C   0  0  0  0  0  0  0  0  0  0  0  0
  -15.2433    9.9282   21.9356 N   0  3  0  0  0  0  0  0  0  0  0  0
   -9.7385    4.9642   20.8336 C   0  0  2  0  0  0  0  0  0  0  0  0
   -9.2558    4.0401   21.8761 N   0  3  0  0  0  0  0  0  0  0  0  0
   -9.3678    6.3952   21.1988 C   0  0  0  0  0  0  0  0  0  0  0  0
   -9.8677    7.3666   20.1238 C   0  0  2  0  0  0  0  0  0  0  0  0
   -9.3827    8.7283   20.4603 N   0  3  0  0  0  0  0  0  0  0  0  0
  -11.4121    7.2651   19.9448 C   0  0  2  0  0  0  0  0  0  0  0  0
  -11.7998    5.7973   19.6304 C   0  0  2  0  0  0  0  0  0  0  0  0
  -13.2015    5.6735   19.6318 O   0  0  0  0  0  0  0  0  0  0  0  0
  -11.2559    4.8444   20.7073 C   0  0  1  0  0  0  0  0  0  0  0  0
  -11.6083    3.5058   20.3598 O   0  0  0  0  0  0  0  0  0  0  0  0
  -12.0856    2.6914   21.3748 C   0  0  2  0  0  0  0  0  0  0  0  0
  -12.8246    1.4973   20.7468 C   0  0  2  0  0  0  0  0  0  0  0  0
  -11.9142    0.7835   19.9199 O   0  0  0  0  0  0  0  0  0  0  0  0
  -14.0076    2.0111   19.9077 C   0  0  1  0  0  0  0  0  0  0  0  0
  -14.7516    0.8957   19.2546 N   0  3  0  0  0  0  0  0  0  0  0  0
  -14.9520    2.8410   20.8113 C   0  0  2  0  0  0  0  0  0  0  0  0
  -16.0467    3.3524   20.0543 O   0  0  0  0  0  0  0  0  0  0  0  0
  -14.1740    3.9884   21.4820 C   0  0  2  0  0  0  0  0  0  0  0  0
  -12.9973    3.4640   22.1982 O   0  0  0  0  0  0  0  0  0  0  0  0
  -15.0155    4.7323   22.4951 C   0  0  0  0  0  0  0  0  0  0  0  0
  -14.2856    5.7934   23.1073 O   0  0  0  0  0  0  0  0  0  0  0  0
  1  2  1  1  0  0  0
  1  3  1  0  0  0  0
  1  9  1  0  0  0  0
  3  4  1  6  0  0  0
  3  5  1  0  0  0  0
  5  6  1  0  0  0  0
  6  7  1  1  0  0  0
  6  8  1  0  0  0  0
  8  9  1  0  0  0  0
  8 10  1  1  0  0  0
 10 11  1  0  0  0  0
 12 13  1  1  0  0  0
 12 14  1  0  0  0  0
 12 20  1  0  0  0  0
 14 15  1  0  0  0  0
 15 16  1  1  0  0  0
 15 17  1  0  0  0  0
 17  2  1  6  0  0  0
 17 18  1  0  0  0  0
 18 19  1  1  0  0  0
 18 20  1  0  0  0  0
 20 21  1  6  0  0  0
 22 21  1  6  0  0  0
 22 23  1  0  0  0  0
 22 30  1  0  0  0  0
 23 24  1  6  0  0  0
 23 25  1  0  0  0  0
 25 26  1  1  0  0  0
 25 27  1  0  0  0  0
 27 28  1  6  0  0  0
 27 29  1  0  0  0  0
 29 30  1  0  0  0  0
 29 31  1  1  0  0  0
 31 32  1  0  0  0  0
M  CHG  5   4   1  11   1  13   1  16   1  26   1
M  END
>  <CHROM.1>
153.47038461,-158.20980686,-149.42727979,-57.59216812,73.39067126,-53.92721210
61.63798557,-40.12526046,70.05119850,101.89718090,161.58169644,170.61762449
-176.72161820,70.64682731,-179.88877509,-178.78531420,-12.65039149,6.22342522
20.38542857,1.49001109,0.08503124,-0.10958820

>  <Name>
1lc4

>  <RI>
0

>  <Rbt.Current_Directory>
/home/afrankz/demos/rdock_decoys_rna/rnas/1lc4

>  <Rbt.Executable>
rbdock ($Id: //depot/dev/client3/rdock/2013.1/src/exe/rbdock.cxx#4 $)

>  <Rbt.Library>
libRbt.so (2013.1, Build901 2013/11/27)

>  <Rbt.Parameter_File>
/export/apps/rDock/src/rDock_2013.1_src/data/scripts/dock_solv.prm

>  <Rbt.Receptor>
prm/blind_docking_60.prm

>  <SCORE>
-23.8896

>  <SCORE.INTER>
-11.7229

>  <SCORE.INTER.CONST>
1

>  <SCORE.INTER.POLAR>
-3.2233

>  <SCORE.INTER.ROT>
6

>  <SCORE.INTER.SOLV>
33.3417

>  <SCORE.INTER.VDW>
-15.7849

>  <SCORE.INTER.norm>
-0.366342

>  <SCORE.INTRA>
-15.508

>  <SCORE.INTRA.DIHEDRAL>
-26.9107

>  <SCORE.INTRA.DIHEDRAL.0>
44.2576

>  <SCORE.INTRA.POLAR>
0.284443

>  <SCORE.INTRA.POLAR.0>
-0.381556

>  <SCORE.INTRA.REPUL>
0

>  <SCORE.INTRA.REPUL.0>
0

>  <SCORE.INTRA.SOLV>
-0.961271

>  <SCORE.INTRA.SOLV.lig_0>
-134.592

>  <SCORE.INTRA.VDW>
-2.53912

>  <SCORE.INTRA.VDW.0>
-1.01417

>  <SCORE.INTRA.norm>
-0.484625

>  <SCORE.RESTR>
3.34138

>  <SCORE.RESTR.CAVITY>
3.34138

>  <SCORE.RESTR.norm>
0.104418

>  <SCORE.SYSTEM>
0

>  <SCORE.SYSTEM.CONST>
0

>  <SCORE.SYSTEM.DIHEDRAL>
0

>  <SCORE.SYSTEM.SOLV>
0

>  <SCORE.SYSTEM.norm>
0

>  <SCORE.heavy>
32

>  <SCORE.norm>
-0.746549

>  <RMSD>
7.261

$$$$
1lc4
 OpenBabel02141814113D
libRbt.so/2013.1/901 2013/11/27
 32 34  0  0  0  0  0  0  0  0999 V2000
  -10.8689    1.0895   17.3227 C   0  0  2  0  0  0  0  0  0  0  0  0
  -11.3496    2.3878   17.5663 O   0  0  0  0  0  0  0  0  0  0  0  0
  -10.1193    1.1003   15.9748 C   0  0  2  0  0  0  0  0  0  0  0  0
   -9.0237    2.0741   16.0085 N   0  3  0  0  0  0  0  0  0  0  0  0
  -11.1045    1.3994   14.8205 C   0  0  0  0  0  0  0  0  0  0  0  0
  -12.1890    0.3079   14.8430 C   0  0  2  0  0  0  0  0  0  0  0  0
  -13.1113    0.4982   13.7649 O   0  0  0  0  0  0  0  0  0  0  0  0
  -12.9120    0.3337   16.2127 C   0  0  2  0  0  0  0  0  0  0  0  0
  -11.9566    0.1392   17.2942 O   0  0  0  0  0  0  0  0  0  0  0  0
  -13.9762   -0.7510   16.3599 C   0  0  0  0  0  0  0  0  0  0  0  0
  -15.1659   -0.4553   15.5192 N   0  3  0  0  0  0  0  0  0  0  0  0
  -12.9565    4.3764   20.9461 C   0  0  2  0  0  0  0  0  0  0  0  0
  -13.1246    4.9587   22.2902 N   0  3  0  0  0  0  0  0  0  0  0  0
  -12.7469    2.8723   21.0564 C   0  0  0  0  0  0  0  0  0  0  0  0
  -12.5670    2.2554   19.6649 C   0  0  2  0  0  0  0  0  0  0  0  0
  -12.4855    0.7809   19.8127 N   0  3  0  0  0  0  0  0  0  0  0  0
  -11.3561    2.8901   18.9177 C   0  0  2  0  0  0  0  0  0  0  0  0
  -11.5373    4.4285   18.8548 C   0  0  2  0  0  0  0  0  0  0  0  0
  -10.3713    5.0154   18.3292 O   0  0  0  0  0  0  0  0  0  0  0  0
  -11.7491    5.0132   20.2607 C   0  0  1  0  0  0  0  0  0  0  0  0
  -11.9431    6.4227   20.1502 O   0  0  0  0  0  0  0  0  0  0  0  0
  -10.9741    7.1454   19.4719 C   0  0  2  0  0  0  0  0  0  0  0  0
  -10.8549    8.5387   20.1127 C   0  0  2  0  0  0  0  0  0  0  0  0
  -10.4952    8.3810   21.4794 O   0  0  0  0  0  0  0  0  0  0  0  0
  -12.2045    9.2698   20.0035 C   0  0  1  0  0  0  0  0  0  0  0  0
  -12.1559   10.6227   20.6291 N   0  3  0  0  0  0  0  0  0  0  0  0
  -12.6103    9.3724   18.5130 C   0  0  2  0  0  0  0  0  0  0  0  0
  -13.8716   10.0241   18.3819 O   0  0  0  0  0  0  0  0  0  0  0  0
  -12.6557    7.9709   17.8763 C   0  0  2  0  0  0  0  0  0  0  0  0
  -11.3762    7.2689   18.0829 O   0  0  0  0  0  0  0  0  0  0  0  0
  -12.8940    8.0298   16.3838 C   0  0  0  0  0  0  0  0  0  0  0  0
  -14.2265    8.4366   16.0796 O   0  0  0  0  0  0  0  0  0  0  0  0
  1  2  1  6  0  0  0
  1  3  1  0  0  0  0
  1  9  1  0  0  0  0
  3  4  1  1  0  0  0
  3  5  1  0  0  0  0
  5  6  1  0  0  0  0
  6  7  1  6  0  0  0
  6  8  1  0  0  0  0
  8  9  1  0  0  0  0
  8 10  1  6  0  0  0
 10 11  1  0  0  0  0
 12 13  1  1  0  0  0
 12 14  1  0  0  0  0
 12 20  1  0  0  0  0
 14 15  1  0  0  0  0
 15 16  1  1  0  0  0
 15 17  1  0  0  0  0
 17  2  1  6  0  0  0
 17 18  1  0  0  0  0
 18 19  1  1  0  0  0
 18 20  1  0  0  0  0
 20 21  1  6  0  0  0
 22 21  1  1  0  0  0
 22 23  1  0  0  0  0
 22 30  1  0  0  0  0
 23 24  1  1  0  0  0
 23 25  1  0  0  0  0
 25 26  1  6  0  0  0
 25 27  1  0  0  0  0
 27 28  1  1  0  0  0
 27 29  1  0  0  0  0
 29 30  1  0  0  0  0
 29 31  1  6  0  0  0
 31 32  1  0  0  0  0
M  CHG  5   4   1  11   1  13   1  16   1  26   1
M  END
>  <CHROM.1>
-143.49704196,-77.60027866,-85.09159371,54.79580317,-71.75666695,50.82431751
-68.09702223,-67.37224205,-58.29453049,-175.96632755,-146.79903036,-66.29051379
176.92311918,65.59670303,-70.81301677,-54.91343807,-12.11231267,4.47210667
18.21574148,-1.66292528,-1.39626922,0.30036937

>  <Name>
1lc4

>  <RI>
0

>  <Rbt.Current_Directory>
/home/afrankz/demos/rdock_decoys_rna/rnas/1lc4

>  <Rbt.Executable>
rbdock ($Id: //depot/dev/client3/rdock/2013.1/src/exe/rbdock.cxx#4 $)

>  <Rbt.Library>
libRbt.so (2013.1, Build901 2013/11/27)

>  <Rbt.Parameter_File>
/export/apps/rDock/src/rDock_2013.1_src/data/scripts/dock_solv.prm

>  <Rbt.Receptor>
prm/pocket_docking_7.prm

>  <SCORE>
-49.1123

>  <SCORE.INTER>
-29.769

>  <SCORE.INTER.CONST>
1

>  <SCORE.INTER.POLAR>
-4.05886

>  <SCORE.INTER.ROT>
6

>  <SCORE.INTER.SOLV>
25.8253

>  <SCORE.INTER.VDW>
-22.5249

>  <SCORE.INTER.norm>
-0.93028

>  <SCORE.INTRA>
-19.3944

>  <SCORE.INTRA.DIHEDRAL>
-30.2894

>  <SCORE.INTRA.DIHEDRAL.0>
44.2576

>  <SCORE.INTRA.POLAR>
-1.56619

>  <SCORE.INTRA.POLAR.0>
-0.381556

>  <SCORE.INTRA.REPUL>
0.000328154

>  <SCORE.INTRA.REPUL.0>
0

>  <SCORE.INTRA.SOLV>
-0.0836264

>  <SCORE.INTRA.SOLV.lig_0>
-134.592

>  <SCORE.INTRA.VDW>
1.11547

>  <SCORE.INTRA.VDW.0>
-1.01417

>  <SCORE.INTRA.norm>
-0.606076

>  <SCORE.RESTR>
0.0510884

>  <SCORE.RESTR.CAVITY>
0.0510884

>  <SCORE.RESTR.norm>
0.00159651

>  <SCORE.SYSTEM>
0

>  <SCORE.SYSTEM.CONST>
0

>  <SCORE.SYSTEM.DIHEDRAL>
0

>  <SCORE.SYSTEM.SOLV>
0

>  <SCORE.SYSTEM.norm>
0

>  <SCORE.heavy>
32

>  <SCORE.norm>
-1.53476

>  <RMSD>
7.264

$$$$
1lc4
 OpenBabel02141814113D
libRbt.so/2013.1/901 2013/11/27
 32 34  0  0  0  0  0  0  0  0999 V2000
   -8.5180    6.3755   12.8101 C   0  0  2  0  0  0  0  0  0  0  0  0
   -9.1783    5.9657   11.6388 O   0  0  0  0  0  0  0  0  0  0  0  0
   -7.0370    6.6299   12.4621 C   0  0  2  0  0  0  0  0  0  0  0  0
   -6.9277    7.6440   11.4089 N   0  3  0  0  0  0  0  0  0  0  0  0
   -6.3539    5.3066   12.0442 C   0  0  0  0  0  0  0  0  0  0  0  0
   -6.4860    4.3253   13.2221 C   0  0  2  0  0  0  0  0  0  0  0  0
   -5.8292    3.0900   12.9188 O   0  0  0  0  0  0  0  0  0  0  0  0
   -7.9864    4.1022   13.5359 C   0  0  2  0  0  0  0  0  0  0  0  0
   -8.6347    5.3698   13.8407 O   0  0  0  0  0  0  0  0  0  0  0  0
   -8.2284    3.1815   14.7294 C   0  0  0  0  0  0  0  0  0  0  0  0
   -9.0605    3.8494   15.7644 N   0  3  0  0  0  0  0  0  0  0  0  0
  -13.3281    6.4848   10.9530 C   0  0  2  0  0  0  0  0  0  0  0  0
  -14.7892    6.2878   10.9387 N   0  3  0  0  0  0  0  0  0  0  0  0
  -12.6429    5.3267   10.2403 C   0  0  0  0  0  0  0  0  0  0  0  0
  -11.1222    5.5180   10.2516 C   0  0  2  0  0  0  0  0  0  0  0  0
  -10.5072    4.4331    9.4470 N   0  3  0  0  0  0  0  0  0  0  0  0
  -10.5766    5.6211   11.7073 C   0  0  2  0  0  0  0  0  0  0  0  0
  -11.3137    6.7619   12.4551 C   0  0  2  0  0  0  0  0  0  0  0  0
  -10.9414    6.7482   13.8120 O   0  0  0  0  0  0  0  0  0  0  0  0
  -12.8367    6.5603   12.3972 C   0  0  1  0  0  0  0  0  0  0  0  0
  -13.4721    7.6478   13.0682 O   0  0  0  0  0  0  0  0  0  0  0  0
  -14.4072    7.3334   14.0420 C   0  0  2  0  0  0  0  0  0  0  0  0
  -15.1345    8.6209   14.4657 C   0  0  2  0  0  0  0  0  0  0  0  0
  -15.7711    9.1799   13.3236 O   0  0  0  0  0  0  0  0  0  0  0  0
  -14.1150    9.6188   15.0424 C   0  0  1  0  0  0  0  0  0  0  0  0
  -14.7610   10.8990   15.4522 N   0  3  0  0  0  0  0  0  0  0  0  0
  -13.3859    8.9672   16.2428 C   0  0  2  0  0  0  0  0  0  0  0  0
  -12.4153    9.8608   16.7833 O   0  0  0  0  0  0  0  0  0  0  0  0
  -12.7241    7.6458   15.8097 C   0  0  2  0  0  0  0  0  0  0  0  0
  -13.7150    6.7553   15.1790 O   0  0  0  0  0  0  0  0  0  0  0  0
  -12.1327    6.8933   16.9810 C   0  0  0  0  0  0  0  0  0  0  0  0
  -11.5627    5.6512   16.5742 O   0  0  0  0  0  0  0  0  0  0  0  0
  1  2  1  6  0  0  0
  1  3  1  0  0  0  0
  1  9  1  0  0  0  0
  3  4  1  6  0  0  0
  3  5  1  0  0  0  0
  5  6  1  0  0  0  0
  6  7  1  6  0  0  0
  6  8  1  0  0  0  0
  8  9  1  0  0  0  0
  8 10  1  1  0  0  0
 10 11  1  0  0  0  0
 12 13  1  1  0  0  0
 12 14  1  0  0  0  0
 12 20  1  0  0  0  0
 14 15  1  0  0  0  0
 15 16  1  1  0  0  0
 15 17  1  0  0  0  0
 17  2  1  6  0  0  0
 17 18  1  0  0  0  0
 18 19  1  1  0  0  0
 18 20  1  0  0  0  0
 20 21  1  6  0  0  0
 22 21  1  6  0  0  0
 22 23  1  0  0  0  0
 22 30  1  0  0  0  0
 23 24  1  6  0  0  0
 23 25  1  0  0  0  0
 25 26  1  1  0  0  0
 25 27  1  0  0  0  0
 27 28  1  6  0  0  0
 27 29  1  0  0  0  0
 29 30  1  0  0  0  0
 29 31  1  1  0  0  0
 31 32  1  0  0  0  0
M  CHG  5   4   1  11   1  13   1  16   1  26   1
M  END
>  <CHROM.1>
177.99422850,167.55991126,-159.90296409,-60.73205266,123.69110926,113.22103432
-47.64285264,171.12352644,-67.12475566,109.61717773,-170.57658298,-60.34551913
-162.85965388,55.54762300,178.04124458,173.86159939,-11.12882916,6.52866903
13.44156800,-0.39217481,-0.45036415,1.29954208

>  <Name>
1lc4

>  <RI>
0

>  <Rbt.Current_Directory>
/home/afrankz/demos/rdock_decoys_rna/rnas/1lc4

>  <Rbt.Executable>
rbdock ($Id: //depot/dev/client3/rdock/2013.1/src/exe/rbdock.cxx#4 $)

>  <Rbt.Library>
libRbt.so (2013.1, Build901 2013/11/27)

>  <Rbt.Parameter_File>
/export/apps/rDock/src/rDock_2013.1_src/data/scripts/dock_solv.prm

>  <Rbt.Receptor>
prm/blind_docking_80.prm

>  <SCORE>
-44.1121

>  <SCORE.INTER>
-35.3894

>  <SCORE.INTER.CONST>
1

>  <SCORE.INTER.POLAR>
-6.06167

>  <SCORE.INTER.ROT>
6

>  <SCORE.INTER.SOLV>
35.0659

>  <SCORE.INTER.VDW>
-22.676

>  <SCORE.INTER.norm>
-1.10592

>  <SCORE.INTRA>
-14.4755

>  <SCORE.INTRA.DIHEDRAL>
-24.9218

>  <SCORE.INTRA.DIHEDRAL.0>
44.2576

>  <SCORE.INTRA.POLAR>
-0.312999

>  <SCORE.INTRA.POLAR.0>
-0.381556

>  <SCORE.INTRA.REPUL>
0.156671

>  <SCORE.INTRA.REPUL.0>
0

>  <SCORE.INTRA.SOLV>
-0.0256304

>  <SCORE.INTRA.SOLV.lig_0>
-134.592

>  <SCORE.INTRA.VDW>
-1.72094

>  <SCORE.INTRA.VDW.0>
-1.01417

>  <SCORE.INTRA.norm>
-0.452359

>  <SCORE.RESTR>
5.75277

>  <SCORE.RESTR.CAVITY>
5.75277

>  <SCORE.RESTR.norm>
0.179774

>  <SCORE.SYSTEM>
0

>  <SCORE.SYSTEM.CONST>
0

>  <SCORE.SYSTEM.DIHEDRAL>
0

>  <SCORE.SYSTEM.SOLV>
0

>  <SCORE.SYSTEM.norm>
0

>  <SCORE.heavy>
32

>  <SCORE.norm>
-1.3785

>  <RMSD>
7.265

$$$$
1lc4
 OpenBabel02141814113D
libRbt.so/2013.1/901 2013/11/27
 32 34  0  0  0  0  0  0  0  0999 V2000
  -13.5067    9.7140   19.9724 C   0  0  2  0  0  0  0  0  0  0  0  0
  -12.5550   10.7392   20.1117 O   0  0  0  0  0  0  0  0  0  0  0  0
  -12.7529    8.3843   19.7660 C   0  0  2  0  0  0  0  0  0  0  0  0
  -11.8563    8.1257   20.8969 N   0  3  0  0  0  0  0  0  0  0  0  0
  -11.9786    8.4138   18.4274 C   0  0  0  0  0  0  0  0  0  0  0  0
  -13.0039    8.6499   17.3046 C   0  0  2  0  0  0  0  0  0  0  0  0
  -12.3569    8.6402   16.0276 O   0  0  0  0  0  0  0  0  0  0  0  0
  -13.7355    9.9922   17.5541 C   0  0  2  0  0  0  0  0  0  0  0  0
  -14.3853    9.9810   18.8571 O   0  0  0  0  0  0  0  0  0  0  0  0
  -14.8173   10.2973   16.5210 C   0  0  0  0  0  0  0  0  0  0  0  0
  -15.3011   11.6973   16.6457 N   0  3  0  0  0  0  0  0  0  0  0  0
  -15.0637   13.9368   21.3122 C   0  0  2  0  0  0  0  0  0  0  0  0
  -15.5827   15.1498   21.9703 N   0  3  0  0  0  0  0  0  0  0  0  0
  -14.7264   12.8841   22.3593 C   0  0  0  0  0  0  0  0  0  0  0  0
  -14.1820   11.6187   21.6874 C   0  0  2  0  0  0  0  0  0  0  0  0
  -13.9803   10.5833   22.7314 N   0  3  0  0  0  0  0  0  0  0  0  0
  -12.9103   11.9299   20.8428 C   0  0  2  0  0  0  0  0  0  0  0  0
  -13.2341   13.0436   19.8138 C   0  0  2  0  0  0  0  0  0  0  0  0
  -12.0496   13.4397   19.1657 O   0  0  0  0  0  0  0  0  0  0  0  0
  -13.8092   14.2856   20.5137 C   0  0  1  0  0  0  0  0  0  0  0  0
  -14.1214   15.2684   19.5271 O   0  0  0  0  0  0  0  0  0  0  0  0
  -13.8272   14.9594   18.2082 C   0  0  2  0  0  0  0  0  0  0  0  0
  -13.6011   16.2673   17.4307 C   0  0  2  0  0  0  0  0  0  0  0  0
  -12.5221   16.9723   18.0314 O   0  0  0  0  0  0  0  0  0  0  0  0
  -14.8809   17.1202   17.4802 C   0  0  1  0  0  0  0  0  0  0  0  0
  -14.7143   18.4148   16.7588 N   0  3  0  0  0  0  0  0  0  0  0  0
  -16.0574   16.3105   16.8827 C   0  0  2  0  0  0  0  0  0  0  0  0
  -17.2645   17.0672   16.9383 O   0  0  0  0  0  0  0  0  0  0  0  0
  -16.2197   14.9755   17.6332 C   0  0  2  0  0  0  0  0  0  0  0  0
  -14.9476   14.2311   17.6423 O   0  0  0  0  0  0  0  0  0  0  0  0
  -17.2537   14.0801   16.9874 C   0  0  0  0  0  0  0  0  0  0  0  0
  -17.5115   12.9205   17.7763 O   0  0  0  0  0  0  0  0  0  0  0  0
  1  2  1  6  0  0  0
  1  3  1  0  0  0  0
  1  9  1  0  0  0  0
  3  4  1  1  0  0  0
  3  5  1  0  0  0  0
  5  6  1  0  0  0  0
  6  7  1  6  0  0  0
  6  8  1  0  0  0  0
  8  9  1  0  0  0  0
  8 10  1  6  0  0  0
 10 11  1  0  0  0  0
 12 13  1  1  0  0  0
 12 14  1  0  0  0  0
 12 20  1  0  0  0  0
 14 15  1  0  0  0  0
 15 16  1  1  0  0  0
 15 17  1  0  0  0  0
 17  2  1  6  0  0  0
 17 18  1  0  0  0  0
 18 19  1  1  0  0  0
 18 20  1  0  0  0  0
 20 21  1  6  0  0  0
 22 21  1  1  0  0  0
 22 23  1  0  0  0  0
 22 30  1  0  0  0  0
 23 24  1  1  0  0  0
 23 25  1  0  0  0  0
 25 26  1  6  0  0  0
 25 27  1  0  0  0  0
 27 28  1  1  0  0  0
 27 29  1  0  0  0  0
 29 30  1  0  0  0  0
 29 31  1  6  0  0  0
 31 32  1  0  0  0  0
M  CHG  5   4   1  11   1  13   1  16   1  26   1
M  END
>  <CHROM.1>
-154.40236657,16.71801790,68.79831924,82.15404420,-168.96625237,38.04806850
-174.09525005,-103.33309154,-51.36002894,-123.82742501,-153.80826880,-51.95223510
82.29830576,-56.62197375,-173.00534187,63.92235154,-14.21681919,12.84158785
18.86563134,-0.38216946,-1.23286719,0.94733702

>  <Name>
1lc4

>  <RI>
0

>  <Rbt.Current_Directory>
/home/afrankz/demos/rdock_decoys_rna/rnas/1lc4

>  <Rbt.Executable>
rbdock ($Id: //depot/dev/client3/rdock/2013.1/src/exe/rbdock.cxx#4 $)

>  <Rbt.Library>
libRbt.so (2013.1, Build901 2013/11/27)

>  <Rbt.Parameter_File>
/export/apps/rDock/src/rDock_2013.1_src/data/scripts/dock_solv.prm

>  <Rbt.Receptor>
prm/blind_docking_40.prm

>  <SCORE>
6.67954

>  <SCORE.INTER>
5.28547

>  <SCORE.INTER.CONST>
1

>  <SCORE.INTER.POLAR>
-3.45931

>  <SCORE.INTER.ROT>
6

>  <SCORE.INTER.SOLV>
27.2403

>  <SCORE.INTER.VDW>
-1.6254

>  <SCORE.INTER.norm>
0.165171

>  <SCORE.INTRA>
-4.42244

>  <SCORE.INTRA.DIHEDRAL>
-16.5793

>  <SCORE.INTRA.DIHEDRAL.0>
44.2576

>  <SCORE.INTRA.POLAR>
-0.885738

>  <SCORE.INTRA.POLAR.0>
-0.381556

>  <SCORE.INTRA.REPUL>
0

>  <SCORE.INTRA.REPUL.0>
0

>  <SCORE.INTRA.SOLV>
5.12774

>  <SCORE.INTRA.SOLV.lig_0>
-134.592

>  <SCORE.INTRA.VDW>
4.31483

>  <SCORE.INTRA.VDW.0>
-1.01417

>  <SCORE.INTRA.norm>
-0.138201

>  <SCORE.RESTR>
5.81651

>  <SCORE.RESTR.CAVITY>
5.81651

>  <SCORE.RESTR.norm>
0.181766

>  <SCORE.SYSTEM>
0

>  <SCORE.SYSTEM.CONST>
0

>  <SCORE.SYSTEM.DIHEDRAL>
0

>  <SCORE.SYSTEM.SOLV>
0

>  <SCORE.SYSTEM.norm>
0

>  <SCORE.heavy>
32

>  <SCORE.norm>
0.208736

>  <RMSD>
7.275

$$$$
1lc4
 OpenBabel02141814113D
libRbt.so/2013.1/901 2013/11/27
 32 34  0  0  0  0  0  0  0  0999 V2000
   -9.8197    4.1111   13.7487 C   0  0  2  0  0  0  0  0  0  0  0  0
  -10.1887    4.7071   12.5302 O   0  0  0  0  0  0  0  0  0  0  0  0
   -8.2839    4.1831   13.8724 C   0  0  2  0  0  0  0  0  0  0  0  0
   -7.8317    5.5761   13.8046 N   0  3  0  0  0  0  0  0  0  0  0  0
   -7.6207    3.3205   12.7730 C   0  0  0  0  0  0  0  0  0  0  0  0
   -8.1241    1.8773   12.9502 C   0  0  2  0  0  0  0  0  0  0  0  0
   -7.5088    1.0124   11.9897 O   0  0  0  0  0  0  0  0  0  0  0  0
   -9.6675    1.8546   12.8201 C   0  0  2  0  0  0  0  0  0  0  0  0
  -10.2726    2.7404   13.8046 O   0  0  0  0  0  0  0  0  0  0  0  0
  -10.2763    0.4710   13.0342 C   0  0  0  0  0  0  0  0  0  0  0  0
  -10.1506    0.0411   14.4516 N   0  3  0  0  0  0  0  0  0  0  0  0
  -13.3119    7.4753   11.7935 C   0  0  2  0  0  0  0  0  0  0  0  0
  -14.6424    8.0761   11.5866 N   0  3  0  0  0  0  0  0  0  0  0  0
  -13.0491    6.4204   10.7274 C   0  0  0  0  0  0  0  0  0  0  0  0
  -11.6696    5.7853   10.9340 C   0  0  2  0  0  0  0  0  0  0  0  0
  -11.4091    4.8536    9.8085 N   0  3  0  0  0  0  0  0  0  0  0  0
  -11.5538    5.1319   12.3436 C   0  0  2  0  0  0  0  0  0  0  0  0
  -11.8781    6.1888   13.4305 C   0  0  2  0  0  0  0  0  0  0  0  0
  -11.9353    5.5624   14.6893 O   0  0  0  0  0  0  0  0  0  0  0  0
  -13.2516    6.8314   13.1772 C   0  0  1  0  0  0  0  0  0  0  0  0
  -13.4921    7.8173   14.1806 O   0  0  0  0  0  0  0  0  0  0  0  0
  -14.8006    7.9829   14.6069 C   0  0  2  0  0  0  0  0  0  0  0  0
  -14.8518    9.1470   15.6111 C   0  0  2  0  0  0  0  0  0  0  0  0
  -14.3838   10.3246   14.9658 O   0  0  0  0  0  0  0  0  0  0  0  0
  -13.9599    8.8189   16.8213 C   0  0  1  0  0  0  0  0  0  0  0  0
  -13.9528    9.9243   17.8224 N   0  3  0  0  0  0  0  0  0  0  0  0
  -14.4445    7.4992   17.4697 C   0  0  2  0  0  0  0  0  0  0  0  0
  -13.6198    7.1556   18.5808 O   0  0  0  0  0  0  0  0  0  0  0  0
  -14.4498    6.3652   16.4277 C   0  0  2  0  0  0  0  0  0  0  0  0
  -15.2384    6.7552   15.2451 O   0  0  0  0  0  0  0  0  0  0  0  0
  -15.0633    5.0940   16.9712 C   0  0  0  0  0  0  0  0  0  0  0  0
  -14.0686    4.1985   17.4631 O   0  0  0  0  0  0  0  0  0  0  0  0
  1  2  1  6  0  0  0
  1  3  1  0  0  0  0
  1  9  1  0  0  0  0
  3  4  1  6  0  0  0
  3  5  1  0  0  0  0
  5  6  1  0  0  0  0
  6  7  1  6  0  0  0
  6  8  1  0  0  0  0
  8  9  1  0  0  0  0
  8 10  1  1  0  0  0
 10 11  1  0  0  0  0
 12 13  1  6  0  0  0
 12 14  1  0  0  0  0
 12 20  1  0  0  0  0
 14 15  1  0  0  0  0
 15 16  1  6  0  0  0
 15 17  1  0  0  0  0
 17  2  1  1  0  0  0
 17 18  1  0  0  0  0
 18 19  1  1  0  0  0
 18 20  1  0  0  0  0
 20 21  1  1  0  0  0
 22 21  1  1  0  0  0
 22 23  1  0  0  0  0
 22 30  1  0  0  0  0
 23 24  1  6  0  0  0
 23 25  1  0  0  0  0
 25 26  1  1  0  0  0
 25 27  1  0  0  0  0
 27 28  1  1  0  0  0
 27 29  1  0  0  0  0
 29 30  1  0  0  0  0
 29 31  1  1  0  0  0
 31 32  1  0  0  0  0
M  CHG  5   4   1  11   1  13   1  16   1  26   1
M  END
>  <CHROM.1>
-161.59293233,178.49031270,60.42481481,149.50391575,69.12964381,64.91745654
-51.11858784,-1.52206837,-60.42855812,92.45159660,-176.27150359,74.30557572
174.13253324,173.82527764,-95.83468702,67.38541039,-12.02375606,5.53524653
14.10747105,-0.08471249,-0.88711047,1.96575292

>  <Name>
1lc4

>  <RI>
0

>  <Rbt.Current_Directory>
/home/afrankz/demos/rdock_decoys_rna/rnas/1lc4

>  <Rbt.Executable>
rbdock ($Id: //depot/dev/client3/rdock/2013.1/src/exe/rbdock.cxx#4 $)

>  <Rbt.Library>
libRbt.so (2013.1, Build901 2013/11/27)

>  <Rbt.Parameter_File>
/export/apps/rDock/src/rDock_2013.1_src/data/scripts/dock_solv.prm

>  <Rbt.Receptor>
prm/pocket_docking_7.prm

>  <SCORE>
-39.8519

>  <SCORE.INTER>
-25.4567

>  <SCORE.INTER.CONST>
1

>  <SCORE.INTER.POLAR>
-4.30175

>  <SCORE.INTER.ROT>
6

>  <SCORE.INTER.SOLV>
21.6815

>  <SCORE.INTER.VDW>
-17.4591

>  <SCORE.INTER.norm>
-0.795522

>  <SCORE.INTRA>
-14.9934

>  <SCORE.INTRA.DIHEDRAL>
-25.7844

>  <SCORE.INTRA.DIHEDRAL.0>
44.2576

>  <SCORE.INTRA.POLAR>
0.378641

>  <SCORE.INTRA.POLAR.0>
-0.381556

>  <SCORE.INTRA.REPUL>
0

>  <SCORE.INTRA.REPUL.0>
0

>  <SCORE.INTRA.SOLV>
-2.61525

>  <SCORE.INTRA.SOLV.lig_0>
-134.592

>  <SCORE.INTRA.VDW>
-2.08092

>  <SCORE.INTRA.VDW.0>
-1.01417

>  <SCORE.INTRA.norm>
-0.468543

>  <SCORE.RESTR>
0.598183

>  <SCORE.RESTR.CAVITY>
0.598183

>  <SCORE.RESTR.norm>
0.0186932

>  <SCORE.SYSTEM>
0

>  <SCORE.SYSTEM.CONST>
0

>  <SCORE.SYSTEM.DIHEDRAL>
0

>  <SCORE.SYSTEM.SOLV>
0

>  <SCORE.SYSTEM.norm>
0

>  <SCORE.heavy>
32

>  <SCORE.norm>
-1.24537

>  <RMSD>
7.279

$$$$
1lc4
 OpenBabel02141814113D
libRbt.so/2013.1/901 2013/11/27
 32 34  0  0  0  0  0  0  0  0999 V2000
  -13.6433    1.1454   21.2892 C   0  0  2  0  0  0  0  0  0  0  0  0
  -14.6219    2.1497   21.3881 O   0  0  0  0  0  0  0  0  0  0  0  0
  -13.7081    0.5504   19.8677 C   0  0  2  0  0  0  0  0  0  0  0  0
  -13.4948    1.5994   18.8658 N   0  3  0  0  0  0  0  0  0  0  0  0
  -15.0608   -0.1683   19.6528 C   0  0  0  0  0  0  0  0  0  0  0  0
  -15.1743   -1.2703   20.7207 C   0  0  2  0  0  0  0  0  0  0  0  0
  -16.3878   -2.0097   20.5480 O   0  0  0  0  0  0  0  0  0  0  0  0
  -15.1028   -0.6276   22.1283 C   0  0  2  0  0  0  0  0  0  0  0  0
  -13.8625    0.1193   22.2824 O   0  0  0  0  0  0  0  0  0  0  0  0
  -15.1526   -1.6451   23.2654 C   0  0  0  0  0  0  0  0  0  0  0  0
  -15.3597   -0.9767   24.5769 N   0  3  0  0  0  0  0  0  0  0  0  0
  -15.0859    6.3182   21.9944 C   0  0  2  0  0  0  0  0  0  0  0  0
  -14.8428    7.7228   22.3711 N   0  3  0  0  0  0  0  0  0  0  0  0
  -15.0372    5.4345   23.2334 C   0  0  0  0  0  0  0  0  0  0  0  0
  -15.2849    3.9702   22.8542 C   0  0  2  0  0  0  0  0  0  0  0  0
  -15.3465    3.1671   24.1007 N   0  3  0  0  0  0  0  0  0  0  0  0
  -14.2313    3.4678   21.8223 C   0  0  2  0  0  0  0  0  0  0  0  0
  -14.2367    4.4001   20.5836 C   0  0  2  0  0  0  0  0  0  0  0  0
  -13.1768    4.0469   19.7281 O   0  0  0  0  0  0  0  0  0  0  0  0
  -14.0200    5.8643   20.9991 C   0  0  1  0  0  0  0  0  0  0  0  0
  -14.0650    6.6865   19.8334 O   0  0  0  0  0  0  0  0  0  0  0  0
  -12.9426    6.6965   19.0202 C   0  0  2  0  0  0  0  0  0  0  0  0
  -11.7272    7.1307   19.8572 C   0  0  2  0  0  0  0  0  0  0  0  0
  -11.5604    6.2097   20.9277 O   0  0  0  0  0  0  0  0  0  0  0  0
  -11.9666    8.5460   20.4116 C   0  0  1  0  0  0  0  0  0  0  0  0
  -10.8269    9.0138   21.2520 N   0  3  0  0  0  0  0  0  0  0  0  0
  -12.2120    9.5208   19.2341 C   0  0  2  0  0  0  0  0  0  0  0  0
  -12.4624   10.8379   19.7192 O   0  0  0  0  0  0  0  0  0  0  0  0
  -13.3891    9.0280   18.3720 C   0  0  2  0  0  0  0  0  0  0  0  0
  -13.1635    7.6376   17.9377 O   0  0  0  0  0  0  0  0  0  0  0  0
  -13.5682    9.8602   17.1218 C   0  0  0  0  0  0  0  0  0  0  0  0
  -14.1945   11.1092   17.4067 O   0  0  0  0  0  0  0  0  0  0  0  0
  1  2  1  6  0  0  0
  1  3  1  0  0  0  0
  1  9  1  0  0  0  0
  3  4  1  6  0  0  0
  3  5  1  0  0  0  0
  5  6  1  0  0  0  0
  6  7  1  1  0  0  0
  6  8  1  0  0  0  0
  8  9  1  0  0  0  0
  8 10  1  1  0  0  0
 10 11  1  0  0  0  0
 12 13  1  1  0  0  0
 12 14  1  0  0  0  0
 12 20  1  0  0  0  0
 14 15  1  0  0  0  0
 15 16  1  1  0  0  0
 15 17  1  0  0  0  0
 17  2  1  6  0  0  0
 17 18  1  0  0  0  0
 18 19  1  6  0  0  0
 18 20  1  0  0  0  0
 20 21  1  6  0  0  0
 22 21  1  1  0  0  0
 22 23  1  0  0  0  0
 22 30  1  0  0  0  0
 23 24  1  1  0  0  0
 23 25  1  0  0  0  0
 25 26  1  6  0  0  0
 25 27  1  0  0  0  0
 27 28  1  1  0  0  0
 27 29  1  0  0  0  0
 29 30  1  0  0  0  0
 29 31  1  6  0  0  0
 31 32  1  0  0  0  0
M  CHG  5   4   1  11   1  13   1  16   1  26   1
M  END
>  <CHROM.1>
-126.18936131,-135.90975290,153.46373803,58.89486667,-168.43694231,50.27709033
-56.51873164,-178.95545587,-71.11179217,160.84305129,-57.31423235,-99.11929097
-25.12715790,73.31518122,-76.87313988,56.59574674,-13.89320861,4.57862421
20.74756055,-2.68431850,1.33240973,0.83099519

>  <Name>
1lc4

>  <RI>
0

>  <Rbt.Current_Directory>
/home/afrankz/demos/rdock_decoys_rna/rnas/1lc4

>  <Rbt.Executable>
rbdock ($Id: //depot/dev/client3/rdock/2013.1/src/exe/rbdock.cxx#4 $)

>  <Rbt.Library>
libRbt.so (2013.1, Build901 2013/11/27)

>  <Rbt.Parameter_File>
/export/apps/rDock/src/rDock_2013.1_src/data/scripts/dock_solv.prm

>  <Rbt.Receptor>
prm/blind_docking_60.prm

>  <SCORE>
-32.1196

>  <SCORE.INTER>
-27.5832

>  <SCORE.INTER.CONST>
1

>  <SCORE.INTER.POLAR>
-5.36707

>  <SCORE.INTER.ROT>
6

>  <SCORE.INTER.SOLV>
22.5635

>  <SCORE.INTER.VDW>
-15.6197

>  <SCORE.INTER.norm>
-0.861976

>  <SCORE.INTRA>
-11.7956

>  <SCORE.INTRA.DIHEDRAL>
-17.2869

>  <SCORE.INTRA.DIHEDRAL.0>
44.2576

>  <SCORE.INTRA.POLAR>
-1.4832

>  <SCORE.INTRA.POLAR.0>
-0.381556

>  <SCORE.INTRA.REPUL>
0.0155555

>  <SCORE.INTRA.REPUL.0>
0

>  <SCORE.INTRA.SOLV>
2.98406

>  <SCORE.INTRA.SOLV.lig_0>
-134.592

>  <SCORE.INTRA.VDW>
0.320963

>  <SCORE.INTRA.VDW.0>
-1.01417

>  <SCORE.INTRA.norm>
-0.368611

>  <SCORE.RESTR>
7.25919

>  <SCORE.RESTR.CAVITY>
7.25919

>  <SCORE.RESTR.norm>
0.22685

>  <SCORE.SYSTEM>
0

>  <SCORE.SYSTEM.CONST>
0

>  <SCORE.SYSTEM.DIHEDRAL>
0

>  <SCORE.SYSTEM.SOLV>
0

>  <SCORE.SYSTEM.norm>
0

>  <SCORE.heavy>
32

>  <SCORE.norm>
-1.00374

>  <RMSD>
7.306

$$$$
1lc4
 OpenBabel02141814113D
libRbt.so/2013.1/901 2013/11/27
 32 34  0  0  0  0  0  0  0  0999 V2000
  -11.9444    7.1349   12.8070 C   0  0  2  0  0  0  0  0  0  0  0  0
  -12.9160    6.5562   13.6420 O   0  0  0  0  0  0  0  0  0  0  0  0
  -12.0073    6.4294   11.4369 C   0  0  2  0  0  0  0  0  0  0  0  0
  -13.3485    6.5578   10.8585 N   0  3  0  0  0  0  0  0  0  0  0  0
  -11.5957    4.9456   11.5831 C   0  0  0  0  0  0  0  0  0  0  0  0
  -10.1683    4.9156   12.1571 C   0  0  2  0  0  0  0  0  0  0  0  0
   -9.7052    3.5661   12.2731 O   0  0  0  0  0  0  0  0  0  0  0  0
  -10.1535    5.6351   13.5288 C   0  0  2  0  0  0  0  0  0  0  0  0
  -10.6283    7.0044   13.3883 O   0  0  0  0  0  0  0  0  0  0  0  0
   -8.7667    5.7088   14.1628 C   0  0  0  0  0  0  0  0  0  0  0  0
   -7.8387    6.5224   13.3342 N   0  3  0  0  0  0  0  0  0  0  0  0
  -12.6203    9.4056   16.7651 C   0  0  2  0  0  0  0  0  0  0  0  0
  -12.9095   10.2272   17.9547 N   0  3  0  0  0  0  0  0  0  0  0  0
  -13.6814    9.6461   15.6999 C   0  0  0  0  0  0  0  0  0  0  0  0
  -13.3937    8.7942   14.4586 C   0  0  2  0  0  0  0  0  0  0  0  0
  -14.3803    9.1484   13.4080 N   0  3  0  0  0  0  0  0  0  0  0  0
  -13.3537    7.2772   14.8113 C   0  0  2  0  0  0  0  0  0  0  0  0
  -12.3156    7.0365   15.9374 C   0  0  2  0  0  0  0  0  0  0  0  0
  -12.3963    5.6998   16.3696 O   0  0  0  0  0  0  0  0  0  0  0  0
  -12.6105    7.9286   17.1542 C   0  0  1  0  0  0  0  0  0  0  0  0
  -11.6137    7.6970   18.1489 O   0  0  0  0  0  0  0  0  0  0  0  0
  -11.9567    6.8763   19.2120 C   0  0  2  0  0  0  0  0  0  0  0  0
  -12.7315    7.7064   20.2497 C   0  0  2  0  0  0  0  0  0  0  0  0
  -13.8972    8.2349   19.6301 O   0  0  0  0  0  0  0  0  0  0  0  0
  -11.8392    8.8522   20.7585 C   0  0  1  0  0  0  0  0  0  0  0  0
  -12.5466    9.7070   21.7550 N   0  3  0  0  0  0  0  0  0  0  0  0
  -10.5459    8.2593   21.3692 C   0  0  2  0  0  0  0  0  0  0  0  0
   -9.6864    9.3005   21.8272 O   0  0  0  0  0  0  0  0  0  0  0  0
   -9.8243    7.3774   20.3333 C   0  0  2  0  0  0  0  0  0  0  0  0
  -10.7397    6.3510   19.8029 O   0  0  0  0  0  0  0  0  0  0  0  0
   -8.6395    6.6503   20.9296 C   0  0  0  0  0  0  0  0  0  0  0  0
   -7.5599    6.5557   20.0029 O   0  0  0  0  0  0  0  0  0  0  0  0
  1  2  1  1  0  0  0
  1  3  1  0  0  0  0
  1  9  1  0  0  0  0
  3  4  1  1  0  0  0
  3  5  1  0  0  0  0
  5  6  1  0  0  0  0
  6  7  1  1  0  0  0
  6  8  1  0  0  0  0
  8  9  1  0  0  0  0
  8 10  1  6  0  0  0
 10 11  1  0  0  0  0
 12 13  1  1  0  0  0
 12 14  1  0  0  0  0
 12 20  1  0  0  0  0
 14 15  1  0  0  0  0
 15 16  1  6  0  0  0
 15 17  1  0  0  0  0
 17  2  1  6  0  0  0
 17 18  1  0  0  0  0
 18 19  1  1  0  0  0
 18 20  1  0  0  0  0
 20 21  1  1  0  0  0
 22 21  1  6  0  0  0
 22 23  1  0  0  0  0
 22 30  1  0  0  0  0
 23 24  1  6  0  0  0
 23 25  1  0  0  0  0
 25 26  1  1  0  0  0
 25 27  1  0  0  0  0
 27 28  1  6  0  0  0
 27 29  1  0  0  0  0
 29 30  1  0  0  0  0
 29 31  1  1  0  0  0
 31 32  1  0  0  0  0
M  CHG  5   4   1  11   1  13   1  16   1  26   1
M  END
>  <CHROM.1>
-161.04365524,36.40213012,-56.25203919,170.00703732,63.76897478,18.71974377
-167.13744602,-67.82682974,-61.98450966,136.93524034,-82.01530282,64.74824334
57.56797853,66.19002678,-143.36939378,70.81129099,-11.49975831,7.31508625
16.44570965,1.62436949,0.54263901,-1.85460480

>  <Name>
1lc4

>  <RI>
0

>  <Rbt.Current_Directory>
/home/afrankz/demos/rdock_decoys_rna/rnas/1lc4

>  <Rbt.Executable>
rbdock ($Id: //depot/dev/client3/rdock/2013.1/src/exe/rbdock.cxx#4 $)

>  <Rbt.Library>
libRbt.so (2013.1, Build901 2013/11/27)

>  <Rbt.Parameter_File>
/export/apps/rDock/src/rDock_2013.1_src/data/scripts/dock_solv.prm

>  <Rbt.Receptor>
prm/blind_docking_80.prm

>  <SCORE>
-48.9334

>  <SCORE.INTER>
-43.3245

>  <SCORE.INTER.CONST>
1

>  <SCORE.INTER.POLAR>
-7.33943

>  <SCORE.INTER.ROT>
6

>  <SCORE.INTER.SOLV>
34.1204

>  <SCORE.INTER.VDW>
-23.3917

>  <SCORE.INTER.norm>
-1.35389

>  <SCORE.INTRA>
-14.292

>  <SCORE.INTRA.DIHEDRAL>
-23.7601

>  <SCORE.INTRA.DIHEDRAL.0>
44.2576

>  <SCORE.INTRA.POLAR>
-0.421136

>  <SCORE.INTRA.POLAR.0>
-0.381556

>  <SCORE.INTRA.REPUL>
0

>  <SCORE.INTRA.REPUL.0>
0

>  <SCORE.INTRA.SOLV>
4.13843

>  <SCORE.INTRA.SOLV.lig_0>
-134.592

>  <SCORE.INTRA.VDW>
-3.04933

>  <SCORE.INTRA.VDW.0>
-1.01417

>  <SCORE.INTRA.norm>
-0.446626

>  <SCORE.RESTR>
8.68317

>  <SCORE.RESTR.CAVITY>
8.68317

>  <SCORE.RESTR.norm>
0.271349

>  <SCORE.SYSTEM>
0

>  <SCORE.SYSTEM.CONST>
0

>  <SCORE.SYSTEM.DIHEDRAL>
0

>  <SCORE.SYSTEM.SOLV>
0

>  <SCORE.SYSTEM.norm>
0

>  <SCORE.heavy>
32

>  <SCORE.norm>
-1.52917

>  <RMSD>
7.330

$$$$
1lc4
 OpenBabel02141814113D
libRbt.so/2013.1/901 2013/11/27
 32 34  0  0  0  0  0  0  0  0999 V2000
  -15.8418   13.2073   18.2760 C   0  0  2  0  0  0  0  0  0  0  0  0
  -15.1412   12.5246   17.2664 O   0  0  0  0  0  0  0  0  0  0  0  0
  -17.1684   13.7184   17.6780 C   0  0  2  0  0  0  0  0  0  0  0  0
  -17.9548   12.5989   17.1506 N   0  3  0  0  0  0  0  0  0  0  0  0
  -16.8868   14.7748   16.5838 C   0  0  0  0  0  0  0  0  0  0  0  0
  -16.0962   15.9207   17.2392 C   0  0  2  0  0  0  0  0  0  0  0  0
  -15.8429   16.9603   16.2882 O   0  0  0  0  0  0  0  0  0  0  0  0
  -14.7762   15.3612   17.8257 C   0  0  2  0  0  0  0  0  0  0  0  0
  -15.0564   14.3060   18.7891 O   0  0  0  0  0  0  0  0  0  0  0  0
  -13.9378   16.4120   18.5495 C   0  0  0  0  0  0  0  0  0  0  0  0
  -13.2895   17.3401   17.5862 N   0  3  0  0  0  0  0  0  0  0  0  0
  -12.6643    9.0878   17.1520 C   0  0  2  0  0  0  0  0  0  0  0  0
  -12.1647    7.7063   17.2778 N   0  3  0  0  0  0  0  0  0  0  0  0
  -13.0461    9.6268   18.5238 C   0  0  0  0  0  0  0  0  0  0  0  0
  -13.5708   11.0621   18.4059 C   0  0  2  0  0  0  0  0  0  0  0  0
  -13.8169   11.5851   19.7729 N   0  3  0  0  0  0  0  0  0  0  0  0
  -14.8081   11.1355   17.4619 C   0  0  2  0  0  0  0  0  0  0  0  0
  -14.4402   10.5336   16.0813 C   0  0  2  0  0  0  0  0  0  0  0  0
  -15.5974   10.4486   15.2851 O   0  0  0  0  0  0  0  0  0  0  0  0
  -13.8859    9.1080   16.2354 C   0  0  1  0  0  0  0  0  0  0  0  0
  -13.5318    8.6085   14.9462 O   0  0  0  0  0  0  0  0  0  0  0  0
  -13.7957    7.2722   14.6890 C   0  0  2  0  0  0  0  0  0  0  0  0
  -12.9091    6.8073   13.5211 C   0  0  2  0  0  0  0  0  0  0  0  0
  -11.5464    6.9862   13.8859 O   0  0  0  0  0  0  0  0  0  0  0  0
  -13.2335    7.6403   12.2687 C   0  0  1  0  0  0  0  0  0  0  0  0
  -12.3870    7.2477   11.1054 N   0  3  0  0  0  0  0  0  0  0  0  0
  -14.7356    7.4848   11.9271 C   0  0  2  0  0  0  0  0  0  0  0  0
  -15.0720    8.2670   10.7836 O   0  0  0  0  0  0  0  0  0  0  0  0
  -15.6005    7.8909   13.1349 C   0  0  2  0  0  0  0  0  0  0  0  0
  -15.1967    7.1367   14.3352 O   0  0  0  0  0  0  0  0  0  0  0  0
  -17.0687    7.6082   12.9059 C   0  0  0  0  0  0  0  0  0  0  0  0
  -17.3009    6.2301   12.6222 O   0  0  0  0  0  0  0  0  0  0  0  0
  1  2  1  6  0  0  0
  1  3  1  0  0  0  0
  1  9  1  0  0  0  0
  3  4  1  6  0  0  0
  3  5  1  0  0  0  0
  5  6  1  0  0  0  0
  6  7  1  6  0  0  0
  6  8  1  0  0  0  0
  8  9  1  0  0  0  0
  8 10  1  1  0  0  0
 10 11  1  0  0  0  0
 12 13  1  1  0  0  0
 12 14  1  0  0  0  0
 12 20  1  0  0  0  0
 14 15  1  0  0  0  0
 15 16  1  1  0  0  0
 15 17  1  0  0  0  0
 17  2  1  6  0  0  0
 17 18  1  0  0  0  0
 18 19  1  6  0  0  0
 18 20  1  0  0  0  0
 20 21  1  6  0  0  0
 22 21  1  6  0  0  0
 22 23  1  0  0  0  0
 22 30  1  0  0  0  0
 23 24  1  1  0  0  0
 23 25  1  0  0  0  0
 25 26  1  6  0  0  0
 25 27  1  0  0  0  0
 27 28  1  6  0  0  0
 27 29  1  0  0  0  0
 29 30  1  0  0  0  0
 29 31  1  6  0  0  0
 31 32  1  0  0  0  0
M  CHG  5   4   1  11   1  13   1  16   1  26   1
M  END
>  <CHROM.1>
-120.32718709,-78.36213188,-53.06290068,67.61999561,-73.44080525,39.99591500
-173.29938163,179.35026112,90.86682348,96.56945389,-159.24742225,76.09695680
-74.05387543,71.94429820,57.82226383,-58.02173351,-14.63005807,10.69996744
15.76127804,-1.73092252,0.77694979,-2.47499114

>  <Name>
1lc4

>  <RI>
0

>  <Rbt.Current_Directory>
/home/afrankz/demos/rdock_decoys_rna/rnas/1lc4

>  <Rbt.Executable>
rbdock ($Id: //depot/dev/client3/rdock/2013.1/src/exe/rbdock.cxx#4 $)

>  <Rbt.Library>
libRbt.so (2013.1, Build901 2013/11/27)

>  <Rbt.Parameter_File>
/export/apps/rDock/src/rDock_2013.1_src/data/scripts/dock_solv.prm

>  <Rbt.Receptor>
prm/blind_docking_40.prm

>  <SCORE>
-28.3297

>  <SCORE.INTER>
-15.5513

>  <SCORE.INTER.CONST>
1

>  <SCORE.INTER.POLAR>
-2.29313

>  <SCORE.INTER.ROT>
6

>  <SCORE.INTER.SOLV>
28.377

>  <SCORE.INTER.VDW>
-19.7828

>  <SCORE.INTER.norm>
-0.485979

>  <SCORE.INTRA>
-18.1649

>  <SCORE.INTRA.DIHEDRAL>
-20.5194

>  <SCORE.INTRA.DIHEDRAL.0>
44.2576

>  <SCORE.INTRA.POLAR>
-1.54535

>  <SCORE.INTRA.POLAR.0>
-0.381556

>  <SCORE.INTRA.REPUL>
0

>  <SCORE.INTRA.REPUL.0>
0

>  <SCORE.INTRA.SOLV>
1.13686

>  <SCORE.INTRA.SOLV.lig_0>
-134.592

>  <SCORE.INTRA.VDW>
-3.21941

>  <SCORE.INTRA.VDW.0>
-1.01417

>  <SCORE.INTRA.norm>
-0.567652

>  <SCORE.RESTR>
5.38652

>  <SCORE.RESTR.CAVITY>
5.38652

>  <SCORE.RESTR.norm>
0.168329

>  <SCORE.SYSTEM>
0

>  <SCORE.SYSTEM.CONST>
0

>  <SCORE.SYSTEM.DIHEDRAL>
0

>  <SCORE.SYSTEM.SOLV>
0

>  <SCORE.SYSTEM.norm>
0

>  <SCORE.heavy>
32

>  <SCORE.norm>
-0.885303

>  <RMSD>
7.347

$$$$
1lc4
 OpenBabel02141814113D
libRbt.so/2013.1/901 2013/11/27
 32 34  0  0  0  0  0  0  0  0999 V2000
  -15.4968    9.6336   17.2365 C   0  0  2  0  0  0  0  0  0  0  0  0
  -14.1628    9.7215   17.6708 O   0  0  0  0  0  0  0  0  0  0  0  0
  -15.7464   10.7668   16.2203 C   0  0  2  0  0  0  0  0  0  0  0  0
  -14.8136   10.6566   15.0945 N   0  3  0  0  0  0  0  0  0  0  0  0
  -15.6288   12.1423   16.9178 C   0  0  0  0  0  0  0  0  0  0  0  0
  -16.6676   12.1764   18.0524 C   0  0  2  0  0  0  0  0  0  0  0  0
  -16.6453   13.4469   18.7118 O   0  0  0  0  0  0  0  0  0  0  0  0
  -16.3790   11.0226   19.0449 C   0  0  2  0  0  0  0  0  0  0  0  0
  -16.4058    9.7411   18.3542 O   0  0  0  0  0  0  0  0  0  0  0  0
  -17.3896   10.9336   20.1856 C   0  0  0  0  0  0  0  0  0  0  0  0
  -16.9778    9.9196   21.1916 N   0  3  0  0  0  0  0  0  0  0  0  0
  -11.5571    7.1382   19.7913 C   0  0  2  0  0  0  0  0  0  0  0  0
  -10.9735    6.2650   20.8262 N   0  3  0  0  0  0  0  0  0  0  0  0
  -11.7544    8.5411   20.3492 C   0  0  0  0  0  0  0  0  0  0  0  0
  -12.3644    9.4581   19.2833 C   0  0  2  0  0  0  0  0  0  0  0  0
  -12.4276   10.8361   19.8308 N   0  3  0  0  0  0  0  0  0  0  0  0
  -13.7324    8.9076   18.7803 C   0  0  2  0  0  0  0  0  0  0  0  0
  -13.5470    7.4571   18.2652 C   0  0  2  0  0  0  0  0  0  0  0  0
  -14.8054    6.9031   17.9656 O   0  0  0  0  0  0  0  0  0  0  0  0
  -12.9028    6.5709   19.3436 C   0  0  1  0  0  0  0  0  0  0  0  0
  -12.7225    5.2577   18.8149 O   0  0  0  0  0  0  0  0  0  0  0  0
  -13.8606    4.5674   18.4284 C   0  0  2  0  0  0  0  0  0  0  0  0
  -14.6546    4.1758   19.6864 C   0  0  2  0  0  0  0  0  0  0  0  0
  -15.0040    5.3609   20.3904 O   0  0  0  0  0  0  0  0  0  0  0  0
  -13.7876    3.2692   20.5775 C   0  0  1  0  0  0  0  0  0  0  0  0
  -14.4993    2.8732   21.8268 N   0  3  0  0  0  0  0  0  0  0  0  0
  -13.3628    2.0172   19.7718 C   0  0  2  0  0  0  0  0  0  0  0  0
  -12.5358    1.1689   20.5652 O   0  0  0  0  0  0  0  0  0  0  0  0
  -12.6307    2.4368   18.4836 C   0  0  2  0  0  0  0  0  0  0  0  0
  -13.4563    3.3766   17.7041 O   0  0  0  0  0  0  0  0  0  0  0  0
  -12.3338    1.2563   17.5858 C   0  0  0  0  0  0  0  0  0  0  0  0
  -11.5506    0.2704   18.2551 O   0  0  0  0  0  0  0  0  0  0  0  0
  1  2  1  1  0  0  0
  1  3  1  0  0  0  0
  1  9  1  0  0  0  0
  3  4  1  6  0  0  0
  3  5  1  0  0  0  0
  5  6  1  0  0  0  0
  6  7  1  1  0  0  0
  6  8  1  0  0  0  0
  8  9  1  0  0  0  0
  8 10  1  1  0  0  0
 10 11  1  0  0  0  0
 12 13  1  1  0  0  0
 12 14  1  0  0  0  0
 12 20  1  0  0  0  0
 14 15  1  0  0  0  0
 15 16  1  1  0  0  0
 15 17  1  0  0  0  0
 17  2  1  6  0  0  0
 17 18  1  0  0  0  0
 18 19  1  1  0  0  0
 18 20  1  0  0  0  0
 20 21  1  6  0  0  0
 22 21  1  1  0  0  0
 22 23  1  0  0  0  0
 22 30  1  0  0  0  0
 23 24  1  1  0  0  0
 23 25  1  0  0  0  0
 25 26  1  1  0  0  0
 25 27  1  0  0  0  0
 27 28  1  1  0  0  0
 27 29  1  0  0  0  0
 29 30  1  0  0  0  0
 29 31  1  6  0  0  0
 31 32  1  0  0  0  0
M  CHG  5   4   1  11   1  13   1  16   1  26   1
M  END
>  <CHROM.1>
170.33046171,-165.42412541,36.34777560,64.09303198,-173.24192787,179.46561171
-67.37890891,-65.55248098,-65.96669498,176.54789432,-70.44995158,174.51824825
66.65724834,175.63444665,-57.78393494,-172.98065392,-14.08581491,7.10540387
18.94226267,-2.34676678,-1.11777813,2.28660090

>  <Name>
1lc4

>  <RI>
0

>  <Rbt.Current_Directory>
/home/afrankz/demos/rdock_decoys_rna/rnas/1lc4

>  <Rbt.Executable>
rbdock ($Id: //depot/dev/client3/rdock/2013.1/src/exe/rbdock.cxx#4 $)

>  <Rbt.Library>
libRbt.so (2013.1, Build901 2013/11/27)

>  <Rbt.Parameter_File>
/export/apps/rDock/src/rDock_2013.1_src/data/scripts/dock_solv.prm

>  <Rbt.Receptor>
prm/pocket_docking_8.prm

>  <SCORE>
-49.0637

>  <SCORE.INTER>
-25.1139

>  <SCORE.INTER.CONST>
1

>  <SCORE.INTER.POLAR>
-4.89552

>  <SCORE.INTER.ROT>
6

>  <SCORE.INTER.SOLV>
18.3475

>  <SCORE.INTER.VDW>
-14.14

>  <SCORE.INTER.norm>
-0.78481

>  <SCORE.INTRA>
-23.9498

>  <SCORE.INTRA.DIHEDRAL>
-39.6615

>  <SCORE.INTRA.DIHEDRAL.0>
44.2576

>  <SCORE.INTRA.POLAR>
-0.644375

>  <SCORE.INTRA.POLAR.0>
-0.381556

>  <SCORE.INTRA.REPUL>
0

>  <SCORE.INTRA.REPUL.0>
0

>  <SCORE.INTRA.SOLV>
-3.79877

>  <SCORE.INTRA.SOLV.lig_0>
-134.592

>  <SCORE.INTRA.VDW>
-0.0288091

>  <SCORE.INTRA.VDW.0>
-1.01417

>  <SCORE.INTRA.norm>
-0.748431

>  <SCORE.RESTR>
0

>  <SCORE.RESTR.CAVITY>
0

>  <SCORE.RESTR.norm>
0

>  <SCORE.SYSTEM>
0

>  <SCORE.SYSTEM.CONST>
0

>  <SCORE.SYSTEM.DIHEDRAL>
0

>  <SCORE.SYSTEM.SOLV>
0

>  <SCORE.SYSTEM.norm>
0

>  <SCORE.heavy>
32

>  <SCORE.norm>
-1.53324

>  <RMSD>
7.352

$$$$
1lc4
 OpenBabel02141814113D
libRbt.so/2013.1/901 2013/11/27
 32 34  0  0  0  0  0  0  0  0999 V2000
  -10.8236    3.8222   19.2958 C   0  0  2  0  0  0  0  0  0  0  0  0
  -11.9753    3.5434   18.5396 O   0  0  0  0  0  0  0  0  0  0  0  0
  -11.2117    3.7969   20.7883 C   0  0  2  0  0  0  0  0  0  0  0  0
  -11.7782    2.4927   21.1458 N   0  3  0  0  0  0  0  0  0  0  0  0
  -12.1993    4.9457   21.1008 C   0  0  0  0  0  0  0  0  0  0  0  0
  -11.5037    6.2675   20.7312 C   0  0  2  0  0  0  0  0  0  0  0  0
  -12.3488    7.3803   21.0422 O   0  0  0  0  0  0  0  0  0  0  0  0
  -11.1319    6.2467   19.2276 C   0  0  2  0  0  0  0  0  0  0  0  0
  -10.2736    5.1080   18.9332 O   0  0  0  0  0  0  0  0  0  0  0  0
  -10.3851    7.4963   18.7677 C   0  0  0  0  0  0  0  0  0  0  0  0
   -9.5958    8.0908   19.8782 N   0  3  0  0  0  0  0  0  0  0  0  0
  -10.2245    0.6481   15.9878 C   0  0  2  0  0  0  0  0  0  0  0  0
   -9.9494   -0.2375   14.8416 N   0  3  0  0  0  0  0  0  0  0  0  0
  -11.5914    0.3244   16.5753 C   0  0  0  0  0  0  0  0  0  0  0  0
  -11.8909    1.2416   17.7662 C   0  0  2  0  0  0  0  0  0  0  0  0
  -13.1736    0.8128   18.3773 N   0  3  0  0  0  0  0  0  0  0  0  0
  -11.8532    2.7418   17.3475 C   0  0  2  0  0  0  0  0  0  0  0  0
  -10.4835    3.0613   16.6951 C   0  0  2  0  0  0  0  0  0  0  0  0
  -10.5091    4.3664   16.1697 O   0  0  0  0  0  0  0  0  0  0  0  0
  -10.1966    2.1041   15.5268 C   0  0  1  0  0  0  0  0  0  0  0  0
   -8.9154    2.4140   14.9800 O   0  0  0  0  0  0  0  0  0  0  0  0
   -8.7669    2.2992   13.6067 C   0  0  2  0  0  0  0  0  0  0  0  0
   -7.2661    2.2790   13.2698 C   0  0  2  0  0  0  0  0  0  0  0  0
   -6.6668    1.1722   13.9315 O   0  0  0  0  0  0  0  0  0  0  0  0
   -6.6172    3.5912   13.7439 C   0  0  1  0  0  0  0  0  0  0  0  0
   -5.1529    3.6205   13.4625 N   0  3  0  0  0  0  0  0  0  0  0  0
   -7.3273    4.7869   13.0632 C   0  0  2  0  0  0  0  0  0  0  0  0
   -6.7631    6.0200   13.5034 O   0  0  0  0  0  0  0  0  0  0  0  0
   -8.8382    4.7463   13.3584 C   0  0  2  0  0  0  0  0  0  0  0  0
   -9.4036    3.4402   12.9751 O   0  0  0  0  0  0  0  0  0  0  0  0
   -9.5985    5.8027   12.5877 C   0  0  0  0  0  0  0  0  0  0  0  0
  -10.0153    5.3242   11.3108 O   0  0  0  0  0  0  0  0  0  0  0  0
  1  2  1  6  0  0  0
  1  3  1  0  0  0  0
  1  9  1  0  0  0  0
  3  4  1  6  0  0  0
  3  5  1  0  0  0  0
  5  6  1  0  0  0  0
  6  7  1  6  0  0  0
  6  8  1  0  0  0  0
  8  9  1  0  0  0  0
  8 10  1  1  0  0  0
 10 11  1  0  0  0  0
 12 13  1  6  0  0  0
 12 14  1  0  0  0  0
 12 20  1  0  0  0  0
 14 15  1  0  0  0  0
 15 16  1  6  0  0  0
 15 17  1  0  0  0  0
 17  2  1  1  0  0  0
 17 18  1  0  0  0  0
 18 19  1  6  0  0  0
 18 20  1  0  0  0  0
 20 21  1  1  0  0  0
 22 21  1  1  0  0  0
 22 23  1  0  0  0  0
 22 30  1  0  0  0  0
 23 24  1  1  0  0  0
 23 25  1  0  0  0  0
 25 26  1  6  0  0  0
 25 27  1  0  0  0  0
 27 28  1  1  0  0  0
 27 29  1  0  0  0  0
 29 30  1  0  0  0  0
 29 31  1  6  0  0  0
 31 32  1  0  0  0  0
M  CHG  5   4   1  11   1  13   1  16   1  26   1
M  END
>  <CHROM.1>
-142.74227297,84.13405924,-82.72318392,-51.38402278,29.02360607,-108.78407663
-44.96705937,61.13995852,77.52247229,94.57845411,-164.09107546,80.67814965
-102.35689420,-63.95326778,88.99609831,-84.96616090,-9.93406336,3.75725013
16.50770300,2.55984588,0.97232597,0.45088311

>  <Name>
1lc4

>  <RI>
0

>  <Rbt.Current_Directory>
/home/afrankz/demos/rdock_decoys_rna/rnas/1lc4

>  <Rbt.Executable>
rbdock ($Id: //depot/dev/client3/rdock/2013.1/src/exe/rbdock.cxx#4 $)

>  <Rbt.Library>
libRbt.so (2013.1, Build901 2013/11/27)

>  <Rbt.Parameter_File>
/export/apps/rDock/src/rDock_2013.1_src/data/scripts/dock_solv.prm

>  <Rbt.Receptor>
prm/blind_docking_100.prm

>  <SCORE>
-36.1958

>  <SCORE.INTER>
-32.7484

>  <SCORE.INTER.CONST>
1

>  <SCORE.INTER.POLAR>
-6.01168

>  <SCORE.INTER.ROT>
6

>  <SCORE.INTER.SOLV>
28.6919

>  <SCORE.INTER.VDW>
-18.9573

>  <SCORE.INTER.norm>
-1.02339

>  <SCORE.INTRA>
-5.9448

>  <SCORE.INTRA.DIHEDRAL>
-11.5778

>  <SCORE.INTRA.DIHEDRAL.0>
44.2576

>  <SCORE.INTRA.POLAR>
-0.253162

>  <SCORE.INTRA.POLAR.0>
-0.381556

>  <SCORE.INTRA.REPUL>
0.0028916

>  <SCORE.INTRA.REPUL.0>
0

>  <SCORE.INTRA.SOLV>
2.34347

>  <SCORE.INTRA.SOLV.lig_0>
-134.592

>  <SCORE.INTRA.VDW>
-0.481357

>  <SCORE.INTRA.VDW.0>
-1.01417

>  <SCORE.INTRA.norm>
-0.185775

>  <SCORE.RESTR>
2.49732

>  <SCORE.RESTR.CAVITY>
2.49732

>  <SCORE.RESTR.norm>
0.0780413

>  <SCORE.SYSTEM>
0

>  <SCORE.SYSTEM.CONST>
0

>  <SCORE.SYSTEM.DIHEDRAL>
0

>  <SCORE.SYSTEM.SOLV>
0

>  <SCORE.SYSTEM.norm>
0

>  <SCORE.heavy>
32

>  <SCORE.norm>
-1.13112

>  <RMSD>
7.387

$$$$
1lc4
 OpenBabel02141814113D
libRbt.so/2013.1/901 2013/11/27
 32 34  0  0  0  0  0  0  0  0999 V2000
   -8.7527    5.1699   14.7920 C   0  0  2  0  0  0  0  0  0  0  0  0
   -9.9281    5.5186   14.1043 O   0  0  0  0  0  0  0  0  0  0  0  0
   -7.5481    5.5516   13.9076 C   0  0  2  0  0  0  0  0  0  0  0  0
   -7.5766    6.9845   13.5981 N   0  3  0  0  0  0  0  0  0  0  0  0
   -7.5420    4.6962   12.6189 C   0  0  0  0  0  0  0  0  0  0  0  0
   -7.4716    3.2190   13.0441 C   0  0  2  0  0  0  0  0  0  0  0  0
   -7.4137    2.3703   11.8928 O   0  0  0  0  0  0  0  0  0  0  0  0
   -8.6973    2.8828   13.9296 C   0  0  2  0  0  0  0  0  0  0  0  0
   -8.7374    3.7571   15.0933 O   0  0  0  0  0  0  0  0  0  0  0  0
   -8.6961    1.4483   14.4518 C   0  0  0  0  0  0  0  0  0  0  0  0
   -7.4929    0.7081   13.9890 N   0  3  0  0  0  0  0  0  0  0  0  0
  -13.0397    7.6100   16.0802 C   0  0  2  0  0  0  0  0  0  0  0  0
  -14.2648    7.9277   16.8365 N   0  3  0  0  0  0  0  0  0  0  0  0
  -13.4000    6.8724   14.7978 C   0  0  0  0  0  0  0  0  0  0  0  0
  -12.1337    6.5330   14.0038 C   0  0  2  0  0  0  0  0  0  0  0  0
  -12.5391    5.9242   12.7125 N   0  3  0  0  0  0  0  0  0  0  0  0
  -11.1577    5.6565   14.8445 C   0  0  2  0  0  0  0  0  0  0  0  0
  -10.8343    6.3783   16.1780 C   0  0  2  0  0  0  0  0  0  0  0  0
  -10.0885    5.5188   17.0057 O   0  0  0  0  0  0  0  0  0  0  0  0
  -12.1241    6.7354   16.9344 C   0  0  1  0  0  0  0  0  0  0  0  0
  -11.7791    7.4246   18.1355 O   0  0  0  0  0  0  0  0  0  0  0  0
  -12.3679    6.9851   19.3109 C   0  0  2  0  0  0  0  0  0  0  0  0
  -12.8742    8.2054   20.0988 C   0  0  2  0  0  0  0  0  0  0  0  0
  -13.8189    8.9036   19.2974 O   0  0  0  0  0  0  0  0  0  0  0  0
  -11.6876    9.1248   20.4369 C   0  0  1  0  0  0  0  0  0  0  0  0
  -12.1215   10.3399   21.1848 N   0  3  0  0  0  0  0  0  0  0  0  0
  -10.6403    8.3277   21.2522 C   0  0  2  0  0  0  0  0  0  0  0  0
   -9.5154    9.1483   21.5590 O   0  0  0  0  0  0  0  0  0  0  0  0
  -10.2004    7.0748   20.4722 C   0  0  2  0  0  0  0  0  0  0  0  0
  -11.3729    6.2688   20.0874 O   0  0  0  0  0  0  0  0  0  0  0  0
   -9.2965    6.1808   21.2918 C   0  0  0  0  0  0  0  0  0  0  0  0
   -8.8038    5.0851   20.5237 O   0  0  0  0  0  0  0  0  0  0  0  0
  1  2  1  6  0  0  0
  1  3  1  0  0  0  0
  1  9  1  0  0  0  0
  3  4  1  6  0  0  0
  3  5  1  0  0  0  0
  5  6  1  0  0  0  0
  6  7  1  6  0  0  0
  6  8  1  0  0  0  0
  8  9  1  0  0  0  0
  8 10  1  1  0  0  0
 10 11  1  0  0  0  0
 12 13  1  1  0  0  0
 12 14  1  0  0  0  0
 12 20  1  0  0  0  0
 14 15  1  0  0  0  0
 15 16  1  6  0  0  0
 15 17  1  0  0  0  0
 17  2  1  6  0  0  0
 17 18  1  0  0  0  0
 18 19  1  1  0  0  0
 18 20  1  0  0  0  0
 20 21  1  1  0  0  0
 22 21  1  6  0  0  0
 22 23  1  0  0  0  0
 22 30  1  0  0  0  0
 23 24  1  6  0  0  0
 23 25  1  0  0  0  0
 25 26  1  1  0  0  0
 25 27  1  0  0  0  0
 27 28  1  6  0  0  0
 27 29  1  0  0  0  0
 29 30  1  0  0  0  0
 29 31  1  1  0  0  0
 31 32  1  0  0  0  0
M  CHG  5   4   1  11   1  13   1  16   1  26   1
M  END
>  <CHROM.1>
-161.02951163,159.11403128,-161.85964496,-48.11617888,0.54659769,-157.05984163
-168.41043589,53.09454201,47.17303678,107.10373614,-134.22876998,82.27139882
-138.80211293,70.65122094,-174.99021395,-52.06848551,-10.42895952,6.07927549
16.70847740,-1.09276553,-0.61402018,1.24757756

>  <Name>
1lc4

>  <RI>
0

>  <Rbt.Current_Directory>
/home/afrankz/demos/rdock_decoys_rna/rnas/1lc4

>  <Rbt.Executable>
rbdock ($Id: //depot/dev/client3/rdock/2013.1/src/exe/rbdock.cxx#4 $)

>  <Rbt.Library>
libRbt.so (2013.1, Build901 2013/11/27)

>  <Rbt.Parameter_File>
/export/apps/rDock/src/rDock_2013.1_src/data/scripts/dock_solv.prm

>  <Rbt.Receptor>
prm/blind_docking_80.prm

>  <SCORE>
-21.0075

>  <SCORE.INTER>
-24.7488

>  <SCORE.INTER.CONST>
1

>  <SCORE.INTER.POLAR>
-4.39228

>  <SCORE.INTER.ROT>
6

>  <SCORE.INTER.SOLV>
30.9252

>  <SCORE.INTER.VDW>
-19.7667

>  <SCORE.INTER.norm>
-0.773401

>  <SCORE.INTRA>
-3.98809

>  <SCORE.INTRA.DIHEDRAL>
-12.9712

>  <SCORE.INTRA.DIHEDRAL.0>
44.2576

>  <SCORE.INTRA.POLAR>
-2.47226

>  <SCORE.INTRA.POLAR.0>
-0.381556

>  <SCORE.INTRA.REPUL>
0

>  <SCORE.INTRA.REPUL.0>
0

>  <SCORE.INTRA.SOLV>
1.04189

>  <SCORE.INTRA.SOLV.lig_0>
-134.592

>  <SCORE.INTRA.VDW>
10.3823

>  <SCORE.INTRA.VDW.0>
-1.01417

>  <SCORE.INTRA.norm>
-0.124628

>  <SCORE.RESTR>
7.72939

>  <SCORE.RESTR.CAVITY>
7.72939

>  <SCORE.RESTR.norm>
0.241544

>  <SCORE.SYSTEM>
0

>  <SCORE.SYSTEM.CONST>
0

>  <SCORE.SYSTEM.DIHEDRAL>
0

>  <SCORE.SYSTEM.SOLV>
0

>  <SCORE.SYSTEM.norm>
0

>  <SCORE.heavy>
32

>  <SCORE.norm>
-0.656485

>  <RMSD>
7.396

$$$$
1lc4
 OpenBabel02141814113D
libRbt.so/2013.1/901 2013/11/27
 32 34  0  0  0  0  0  0  0  0999 V2000
  -11.4851    2.2579   19.1574 C   0  0  2  0  0  0  0  0  0  0  0  0
  -12.3033    2.5824   18.0613 O   0  0  0  0  0  0  0  0  0  0  0  0
  -12.3925    2.0367   20.3848 C   0  0  2  0  0  0  0  0  0  0  0  0
  -13.3646    0.9728   20.1150 N   0  3  0  0  0  0  0  0  0  0  0  0
  -13.0960    3.3588   20.7716 C   0  0  0  0  0  0  0  0  0  0  0  0
  -11.9997    4.3958   21.0723 C   0  0  2  0  0  0  0  0  0  0  0  0
  -12.5847    5.6352   21.4857 O   0  0  0  0  0  0  0  0  0  0  0  0
  -11.1145    4.5834   19.8150 C   0  0  2  0  0  0  0  0  0  0  0  0
  -10.5305    3.3120   19.4117 O   0  0  0  0  0  0  0  0  0  0  0  0
   -9.9574    5.5570   20.0248 C   0  0  0  0  0  0  0  0  0  0  0  0
   -9.1918    5.2259   21.2551 N   0  3  0  0  0  0  0  0  0  0  0  0
   -9.6776    1.2568   15.0104 C   0  0  2  0  0  0  0  0  0  0  0  0
   -9.1424    0.7662   13.7271 N   0  3  0  0  0  0  0  0  0  0  0  0
  -10.6420    0.2331   15.5939 C   0  0  0  0  0  0  0  0  0  0  0  0
  -11.2085    0.7334   16.9273 C   0  0  2  0  0  0  0  0  0  0  0  0
  -12.0463   -0.3421   17.5138 N   0  3  0  0  0  0  0  0  0  0  0  0
  -11.9468    2.0942   16.7524 C   0  0  2  0  0  0  0  0  0  0  0  0
  -10.9853    3.1234   16.1042 C   0  0  2  0  0  0  0  0  0  0  0  0
  -11.6966    4.2976   15.7956 O   0  0  0  0  0  0  0  0  0  0  0  0
  -10.4079    2.5796   14.7873 C   0  0  1  0  0  0  0  0  0  0  0  0
   -9.5066    3.5443   14.2452 O   0  0  0  0  0  0  0  0  0  0  0  0
   -8.6074    4.1344   15.1196 C   0  0  2  0  0  0  0  0  0  0  0  0
   -8.3572    5.5842   14.6704 C   0  0  2  0  0  0  0  0  0  0  0  0
   -9.5956    6.2831   14.6803 O   0  0  0  0  0  0  0  0  0  0  0  0
   -7.7624    5.5853   13.2513 C   0  0  1  0  0  0  0  0  0  0  0  0
   -7.5176    6.9692   12.7523 N   0  3  0  0  0  0  0  0  0  0  0  0
   -6.4500    4.7640   13.2473 C   0  0  2  0  0  0  0  0  0  0  0  0
   -5.8879    4.7259   11.9376 O   0  0  0  0  0  0  0  0  0  0  0  0
   -6.7133    3.3379   13.7657 C   0  0  2  0  0  0  0  0  0  0  0  0
   -7.3671    3.3817   15.0860 O   0  0  0  0  0  0  0  0  0  0  0  0
   -5.4354    2.5453   13.9289 C   0  0  0  0  0  0  0  0  0  0  0  0
   -5.3426    1.4939   12.9701 O   0  0  0  0  0  0  0  0  0  0  0  0
  1  2  1  6  0  0  0
  1  3  1  0  0  0  0
  1  9  1  0  0  0  0
  3  4  1  6  0  0  0
  3  5  1  0  0  0  0
  5  6  1  0  0  0  0
  6  7  1  6  0  0  0
  6  8  1  0  0  0  0
  8  9  1  0  0  0  0
  8 10  1  1  0  0  0
 10 11  1  0  0  0  0
 12 13  1  6  0  0  0
 12 14  1  0  0  0  0
 12 20  1  0  0  0  0
 14 15  1  0  0  0  0
 15 16  1  6  0  0  0
 15 17  1  0  0  0  0
 17  2  1  1  0  0  0
 17 18  1  0  0  0  0
 18 19  1  6  0  0  0
 18 20  1  0  0  0  0
 20 21  1  1  0  0  0
 22 21  1  6  0  0  0
 22 23  1  0  0  0  0
 22 30  1  0  0  0  0
 23 24  1  6  0  0  0
 23 25  1  0  0  0  0
 25 26  1  1  0  0  0
 25 27  1  0  0  0  0
 27 28  1  6  0  0  0
 27 29  1  0  0  0  0
 29 30  1  0  0  0  0
 29 31  1  1  0  0  0
 31 32  1  0  0  0  0
M  CHG  5   4   1  11   1  13   1  16   1  26   1
M  END
>  <CHROM.1>
-143.55404334,30.46810575,173.85111803,-58.51034623,50.05209247,172.31834955
-56.66886479,-124.43406712,63.67087569,-76.95310615,-146.66204063,64.59812572
-91.52611435,177.93602994,-110.83705407,-168.00526009,-9.80885310,3.35559250
16.53279939,2.80055071,0.88686522,0.54441471

>  <Name>
1lc4

>  <RI>
0

>  <Rbt.Current_Directory>
/home/afrankz/demos/rdock_decoys_rna/rnas/1lc4

>  <Rbt.Executable>
rbdock ($Id: //depot/dev/client3/rdock/2013.1/src/exe/rbdock.cxx#4 $)

>  <Rbt.Library>
libRbt.so (2013.1, Build901 2013/11/27)

>  <Rbt.Parameter_File>
/export/apps/rDock/src/rDock_2013.1_src/data/scripts/dock_solv.prm

>  <Rbt.Receptor>
prm/blind_docking_100.prm

>  <SCORE>
-34.7148

>  <SCORE.INTER>
-30.9079

>  <SCORE.INTER.CONST>
1

>  <SCORE.INTER.POLAR>
-4.53587

>  <SCORE.INTER.ROT>
6

>  <SCORE.INTER.SOLV>
27.5597

>  <SCORE.INTER.VDW>
-22.2723

>  <SCORE.INTER.norm>
-0.965871

>  <SCORE.INTRA>
-6.58241

>  <SCORE.INTRA.DIHEDRAL>
-18.4184

>  <SCORE.INTRA.DIHEDRAL.0>
44.2576

>  <SCORE.INTRA.POLAR>
0.338432

>  <SCORE.INTRA.POLAR.0>
-0.381556

>  <SCORE.INTRA.REPUL>
0

>  <SCORE.INTRA.REPUL.0>
0

>  <SCORE.INTRA.SOLV>
3.89597

>  <SCORE.INTRA.SOLV.lig_0>
-134.592

>  <SCORE.INTRA.VDW>
-0.471889

>  <SCORE.INTRA.VDW.0>
-1.01417

>  <SCORE.INTRA.norm>
-0.2057

>  <SCORE.RESTR>
2.77546

>  <SCORE.RESTR.CAVITY>
2.77546

>  <SCORE.RESTR.norm>
0.0867332

>  <SCORE.SYSTEM>
0

>  <SCORE.SYSTEM.CONST>
0

>  <SCORE.SYSTEM.DIHEDRAL>
0

>  <SCORE.SYSTEM.SOLV>
0

>  <SCORE.SYSTEM.norm>
0

>  <SCORE.heavy>
32

>  <SCORE.norm>
-1.08484

>  <RMSD>
7.404

$$$$
1lc4
 OpenBabel02141814113D
libRbt.so/2013.1/901 2013/11/27
 32 34  0  0  0  0  0  0  0  0999 V2000
   -6.2726    5.0121   25.1967 C   0  0  2  0  0  0  0  0  0  0  0  0
   -6.6535    6.3414   24.9439 O   0  0  0  0  0  0  0  0  0  0  0  0
   -6.0482    4.8575   26.7148 C   0  0  2  0  0  0  0  0  0  0  0  0
   -7.2678    5.2086   27.4488 N   0  3  0  0  0  0  0  0  0  0  0  0
   -4.8489    5.7239   27.1663 C   0  0  0  0  0  0  0  0  0  0  0  0
   -3.6158    5.2568   26.3732 C   0  0  2  0  0  0  0  0  0  0  0  0
   -2.4545    5.9886   26.7793 O   0  0  0  0  0  0  0  0  0  0  0  0
   -3.8873    5.4285   24.8578 C   0  0  2  0  0  0  0  0  0  0  0  0
   -5.0717    4.6774   24.4665 O   0  0  0  0  0  0  0  0  0  0  0  0
   -2.7410    4.9416   23.9749 C   0  0  0  0  0  0  0  0  0  0  0  0
   -2.6860    3.4567   23.9345 N   0  3  0  0  0  0  0  0  0  0  0  0
   -8.8276    7.9235   21.6682 C   0  0  2  0  0  0  0  0  0  0  0  0
   -9.2045    8.3927   20.3223 N   0  3  0  0  0  0  0  0  0  0  0  0
   -7.6634    8.7503   22.1971 C   0  0  0  0  0  0  0  0  0  0  0  0
   -7.2595    8.2695   23.5953 C   0  0  2  0  0  0  0  0  0  0  0  0
   -6.2063    9.1758   24.1166 N   0  3  0  0  0  0  0  0  0  0  0  0
   -6.8567    6.7645   23.5807 C   0  0  2  0  0  0  0  0  0  0  0  0
   -8.0179    5.9253   22.9881 C   0  0  2  0  0  0  0  0  0  0  0  0
   -7.5947    4.5936   22.8219 O   0  0  0  0  0  0  0  0  0  0  0  0
   -8.4227    6.4523   21.6018 C   0  0  1  0  0  0  0  0  0  0  0  0
   -9.5125    5.6722   21.1115 O   0  0  0  0  0  0  0  0  0  0  0  0
  -10.7269    5.7949   21.7684 C   0  0  2  0  0  0  0  0  0  0  0  0
  -11.2618    4.3888   22.0892 C   0  0  2  0  0  0  0  0  0  0  0  0
  -10.3145    3.7189   22.9113 O   0  0  0  0  0  0  0  0  0  0  0  0
  -11.4685    3.6084   20.7793 C   0  0  1  0  0  0  0  0  0  0  0  0
  -11.9676    2.2254   21.0291 N   0  3  0  0  0  0  0  0  0  0  0  0
  -12.4511    4.3869   19.8708 C   0  0  2  0  0  0  0  0  0  0  0  0
  -12.6429    3.6993   18.6367 O   0  0  0  0  0  0  0  0  0  0  0  0
  -11.9276    5.8135   19.6206 C   0  0  2  0  0  0  0  0  0  0  0  0
  -11.6549    6.4944   20.8991 O   0  0  0  0  0  0  0  0  0  0  0  0
  -12.9270    6.6642   18.8687 C   0  0  0  0  0  0  0  0  0  0  0  0
  -14.1013    6.9028   19.6416 O   0  0  0  0  0  0  0  0  0  0  0  0
  1  2  1  1  0  0  0
  1  3  1  0  0  0  0
  1  9  1  0  0  0  0
  3  4  1  1  0  0  0
  3  5  1  0  0  0  0
  5  6  1  0  0  0  0
  6  7  1  1  0  0  0
  6  8  1  0  0  0  0
  8  9  1  0  0  0  0
  8 10  1  6  0  0  0
 10 11  1  0  0  0  0
 12 13  1  6  0  0  0
 12 14  1  0  0  0  0
 12 20  1  0  0  0  0
 14 15  1  0  0  0  0
 15 16  1  6  0  0  0
 15 17  1  0  0  0  0
 17  2  1  1  0  0  0
 17 18  1  0  0  0  0
 18 19  1  6  0  0  0
 18 20  1  0  0  0  0
 20 21  1  1  0  0  0
 22 21  1  6  0  0  0
 22 23  1  0  0  0  0
 22 30  1  0  0  0  0
 23 24  1  1  0  0  0
 23 25  1  0  0  0  0
 25 26  1  1  0  0  0
 25 27  1  0  0  0  0
 27 28  1  6  0  0  0
 27 29  1  0  0  0  0
 29 30  1  0  0  0  0
 29 31  1  1  0  0  0
 31 32  1  0  0  0  0
M  CHG  5   4   1  11   1  13   1  16   1  26   1
M  END
>  <CHROM.1>
176.80348685,-179.65373392,57.37229124,176.56133402,74.04279805,108.83519451
57.17951900,-68.30012788,175.93418349,-53.85152790,-130.44373190,68.35393563
-83.72732927,177.72784092,65.86061144,-62.11860103,-8.21928001,5.67823066
22.86567479,0.10390888,0.60834059,2.92551353

>  <Name>
1lc4

>  <RI>
0

>  <Rbt.Current_Directory>
/home/afrankz/demos/rdock_decoys_rna/rnas/1lc4

>  <Rbt.Executable>
rbdock ($Id: //depot/dev/client3/rdock/2013.1/src/exe/rbdock.cxx#4 $)

>  <Rbt.Library>
libRbt.so (2013.1, Build901 2013/11/27)

>  <Rbt.Parameter_File>
/export/apps/rDock/src/rDock_2013.1_src/data/scripts/dock_solv.prm

>  <Rbt.Receptor>
prm/pocket_docking_7.prm

>  <SCORE>
-57.9656

>  <SCORE.INTER>
-37.2911

>  <SCORE.INTER.CONST>
1

>  <SCORE.INTER.POLAR>
-6.38402

>  <SCORE.INTER.ROT>
6

>  <SCORE.INTER.SOLV>
31.9383

>  <SCORE.INTER.VDW>
-21.8268

>  <SCORE.INTER.norm>
-1.16535

>  <SCORE.INTRA>
-20.8917

>  <SCORE.INTRA.DIHEDRAL>
-31.1702

>  <SCORE.INTRA.DIHEDRAL.0>
44.2576

>  <SCORE.INTRA.POLAR>
-0.582515

>  <SCORE.INTRA.POLAR.0>
-0.381556

>  <SCORE.INTRA.REPUL>
0

>  <SCORE.INTRA.REPUL.0>
0

>  <SCORE.INTRA.SOLV>
-2.8175

>  <SCORE.INTRA.SOLV.lig_0>
-134.592

>  <SCORE.INTRA.VDW>
-1.91727

>  <SCORE.INTRA.VDW.0>
-1.01417

>  <SCORE.INTRA.norm>
-0.652865

>  <SCORE.RESTR>
0.217217

>  <SCORE.RESTR.CAVITY>
0.217217

>  <SCORE.RESTR.norm>
0.00678802

>  <SCORE.SYSTEM>
0

>  <SCORE.SYSTEM.CONST>
0

>  <SCORE.SYSTEM.DIHEDRAL>
0

>  <SCORE.SYSTEM.SOLV>
0

>  <SCORE.SYSTEM.norm>
0

>  <SCORE.heavy>
32

>  <SCORE.norm>
-1.81142

>  <RMSD>
7.415

$$$$
1lc4
 OpenBabel02141814113D
libRbt.so/2013.1/901 2013/11/27
 32 34  0  0  0  0  0  0  0  0999 V2000
  -12.8659    7.2616   12.8360 C   0  0  2  0  0  0  0  0  0  0  0  0
  -13.7861    6.3335   13.3536 O   0  0  0  0  0  0  0  0  0  0  0  0
  -12.8380    7.1052   11.3018 C   0  0  2  0  0  0  0  0  0  0  0  0
  -14.1769    7.3176   10.7433 N   0  3  0  0  0  0  0  0  0  0  0  0
  -12.2813    5.7139   10.9189 C   0  0  0  0  0  0  0  0  0  0  0  0
  -10.8664    5.6018   11.5133 C   0  0  2  0  0  0  0  0  0  0  0  0
  -10.2715    4.3504   11.1537 O   0  0  0  0  0  0  0  0  0  0  0  0
  -10.9436    5.7663   13.0517 C   0  0  2  0  0  0  0  0  0  0  0  0
  -11.5517    7.0439   13.3951 O   0  0  0  0  0  0  0  0  0  0  0  0
   -9.5804    5.7247   13.7376 C   0  0  0  0  0  0  0  0  0  0  0  0
   -9.6639    5.0519   15.0606 N   0  3  0  0  0  0  0  0  0  0  0  0
  -14.7361    8.6146   16.7966 C   0  0  2  0  0  0  0  0  0  0  0  0
  -15.2764    9.0372   18.1017 N   0  3  0  0  0  0  0  0  0  0  0  0
  -15.8786    8.2715   15.8503 C   0  0  0  0  0  0  0  0  0  0  0  0
  -15.3294    7.8269   14.4902 C   0  0  2  0  0  0  0  0  0  0  0  0
  -16.4734    7.6184   13.5681 N   0  3  0  0  0  0  0  0  0  0  0  0
  -14.3932    6.5900   14.6359 C   0  0  2  0  0  0  0  0  0  0  0  0
  -13.2612    6.9156   15.6440 C   0  0  2  0  0  0  0  0  0  0  0  0
  -12.5146    5.7507   15.9006 O   0  0  0  0  0  0  0  0  0  0  0  0
  -13.8423    7.3905   16.9857 C   0  0  1  0  0  0  0  0  0  0  0  0
  -12.7666    7.7085   17.8680 O   0  0  0  0  0  0  0  0  0  0  0  0
  -12.9696    7.4882   19.2213 C   0  0  2  0  0  0  0  0  0  0  0  0
  -11.8774    8.2268   20.0136 C   0  0  2  0  0  0  0  0  0  0  0  0
  -11.9598    9.6148   19.7155 O   0  0  0  0  0  0  0  0  0  0  0  0
  -10.4958    7.6821   19.6110 C   0  0  1  0  0  0  0  0  0  0  0  0
   -9.3920    8.3776   20.3335 N   0  3  0  0  0  0  0  0  0  0  0  0
  -10.4493    6.1583   19.8813 C   0  0  2  0  0  0  0  0  0  0  0  0
   -9.1873    5.6200   19.4936 O   0  0  0  0  0  0  0  0  0  0  0  0
  -11.5936    5.4501   19.1325 C   0  0  2  0  0  0  0  0  0  0  0  0
  -12.8902    6.0616   19.4752 O   0  0  0  0  0  0  0  0  0  0  0  0
  -11.6864    3.9830   19.4887 C   0  0  0  0  0  0  0  0  0  0  0  0
  -12.0846    3.7953   20.8450 O   0  0  0  0  0  0  0  0  0  0  0  0
  1  2  1  1  0  0  0
  1  3  1  0  0  0  0
  1  9  1  0  0  0  0
  3  4  1  1  0  0  0
  3  5  1  0  0  0  0
  5  6  1  0  0  0  0
  6  7  1  1  0  0  0
  6  8  1  0  0  0  0
  8  9  1  0  0  0  0
  8 10  1  6  0  0  0
 10 11  1  0  0  0  0
 12 13  1  1  0  0  0
 12 14  1  0  0  0  0
 12 20  1  0  0  0  0
 14 15  1  0  0  0  0
 15 16  1  6  0  0  0
 15 17  1  0  0  0  0
 17  2  1  6  0  0  0
 17 18  1  0  0  0  0
 18 19  1  1  0  0  0
 18 20  1  0  0  0  0
 20 21  1  1  0  0  0
 22 21  1  6  0  0  0
 22 23  1  0  0  0  0
 22 30  1  0  0  0  0
 23 24  1  6  0  0  0
 23 25  1  0  0  0  0
 25 26  1  1  0  0  0
 25 27  1  0  0  0  0
 27 28  1  6  0  0  0
 27 29  1  0  0  0  0
 29 30  1  0  0  0  0
 29 31  1  1  0  0  0
 31 32  1  0  0  0  0
M  CHG  5   4   1  11   1  13   1  16   1  26   1
M  END
>  <CHROM.1>
-156.04444671,67.61656496,-42.55988923,61.35537115,-144.29730619,-50.63379014
-52.68284007,-138.92721024,36.30262700,90.50165889,-165.02319827,64.39488265
-161.21732057,168.56149768,67.20729021,56.52995223,-12.41942313,6.71993734
16.09233565,1.76052955,0.52047327,-1.71947961

>  <Name>
1lc4

>  <RI>
0

>  <Rbt.Current_Directory>
/home/afrankz/demos/rdock_decoys_rna/rnas/1lc4

>  <Rbt.Executable>
rbdock ($Id: //depot/dev/client3/rdock/2013.1/src/exe/rbdock.cxx#4 $)

>  <Rbt.Library>
libRbt.so (2013.1, Build901 2013/11/27)

>  <Rbt.Parameter_File>
/export/apps/rDock/src/rDock_2013.1_src/data/scripts/dock_solv.prm

>  <Rbt.Receptor>
prm/pocket_docking_6.prm

>  <SCORE>
-56.1693

>  <SCORE.INTER>
-39.6219

>  <SCORE.INTER.CONST>
1

>  <SCORE.INTER.POLAR>
-6.38117

>  <SCORE.INTER.ROT>
6

>  <SCORE.INTER.SOLV>
21.8628

>  <SCORE.INTER.VDW>
-20.0317

>  <SCORE.INTER.norm>
-1.23819

>  <SCORE.INTRA>
-16.5474

>  <SCORE.INTRA.DIHEDRAL>
-25.2522

>  <SCORE.INTRA.DIHEDRAL.0>
44.2576

>  <SCORE.INTRA.POLAR>
-0.674001

>  <SCORE.INTRA.POLAR.0>
-0.381556

>  <SCORE.INTRA.REPUL>
0

>  <SCORE.INTRA.REPUL.0>
0

>  <SCORE.INTRA.SOLV>
1.4987

>  <SCORE.INTRA.SOLV.lig_0>
-134.592

>  <SCORE.INTRA.VDW>
-2.37902

>  <SCORE.INTRA.VDW.0>
-1.01417

>  <SCORE.INTRA.norm>
-0.517105

>  <SCORE.RESTR>
0

>  <SCORE.RESTR.CAVITY>
0

>  <SCORE.RESTR.norm>
0

>  <SCORE.SYSTEM>
0

>  <SCORE.SYSTEM.CONST>
0

>  <SCORE.SYSTEM.DIHEDRAL>
0

>  <SCORE.SYSTEM.SOLV>
0

>  <SCORE.SYSTEM.norm>
0

>  <SCORE.heavy>
32

>  <SCORE.norm>
-1.75529

>  <RMSD>
7.426

$$$$
1lc4
 OpenBabel02141814113D
libRbt.so/2013.1/901 2013/11/27
 32 34  0  0  0  0  0  0  0  0999 V2000
   -6.1779    5.7763   25.8067 C   0  0  2  0  0  0  0  0  0  0  0  0
   -6.6979    7.0026   25.3575 O   0  0  0  0  0  0  0  0  0  0  0  0
   -6.0875    5.8281   27.3455 C   0  0  2  0  0  0  0  0  0  0  0  0
   -7.4088    6.0884   27.9254 N   0  3  0  0  0  0  0  0  0  0  0  0
   -5.0591    6.8976   27.7824 C   0  0  0  0  0  0  0  0  0  0  0  0
   -3.7040    6.5183   27.1599 C   0  0  2  0  0  0  0  0  0  0  0  0
   -2.6912    7.4451   27.5657 O   0  0  0  0  0  0  0  0  0  0  0  0
   -3.8433    6.4771   25.6177 C   0  0  2  0  0  0  0  0  0  0  0  0
   -4.8778    5.5299   25.2270 O   0  0  0  0  0  0  0  0  0  0  0  0
   -2.5624    6.0561   24.9016 C   0  0  0  0  0  0  0  0  0  0  0  0
   -2.5815    6.4729   23.4749 N   0  3  0  0  0  0  0  0  0  0  0  0
   -8.6253    7.9932   21.7156 C   0  0  2  0  0  0  0  0  0  0  0  0
   -8.8908    8.2704   20.2921 N   0  3  0  0  0  0  0  0  0  0  0  0
   -7.5985    8.9811   22.2523 C   0  0  0  0  0  0  0  0  0  0  0  0
   -7.3110    8.7008   23.7315 C   0  0  2  0  0  0  0  0  0  0  0  0
   -6.3998    9.7560   24.2401 N   0  3  0  0  0  0  0  0  0  0  0  0
   -6.7856    7.2489   23.9397 C   0  0  2  0  0  0  0  0  0  0  0  0
   -7.8015    6.2418   23.3418 C   0  0  2  0  0  0  0  0  0  0  0  0
   -7.2537    4.9462   23.3813 O   0  0  0  0  0  0  0  0  0  0  0  0
   -8.0949    6.5690   21.8686 C   0  0  1  0  0  0  0  0  0  0  0  0
   -9.0563    5.6387   21.3717 O   0  0  0  0  0  0  0  0  0  0  0  0
  -10.3902    6.0107   21.4333 C   0  0  2  0  0  0  0  0  0  0  0  0
  -11.2386    4.7658   21.7442 C   0  0  2  0  0  0  0  0  0  0  0  0
  -10.8128    4.2250   22.9885 O   0  0  0  0  0  0  0  0  0  0  0  0
  -11.0514    3.7260   20.6256 C   0  0  1  0  0  0  0  0  0  0  0  0
  -11.8360    2.4843   20.8839 N   0  3  0  0  0  0  0  0  0  0  0  0
  -11.4573    4.3554   19.2705 C   0  0  2  0  0  0  0  0  0  0  0  0
  -11.2701    3.4216   18.2094 O   0  0  0  0  0  0  0  0  0  0  0  0
  -10.6430    5.6371   19.0142 C   0  0  2  0  0  0  0  0  0  0  0  0
  -10.7752    6.5677   20.1497 O   0  0  0  0  0  0  0  0  0  0  0  0
  -11.1124    6.3738   17.7793 C   0  0  0  0  0  0  0  0  0  0  0  0
  -10.8678    5.6211   16.5932 O   0  0  0  0  0  0  0  0  0  0  0  0
  1  2  1  6  0  0  0
  1  3  1  0  0  0  0
  1  9  1  0  0  0  0
  3  4  1  1  0  0  0
  3  5  1  0  0  0  0
  5  6  1  0  0  0  0
  6  7  1  6  0  0  0
  6  8  1  0  0  0  0
  8  9  1  0  0  0  0
  8 10  1  6  0  0  0
 10 11  1  0  0  0  0
 12 13  1  6  0  0  0
 12 14  1  0  0  0  0
 12 20  1  0  0  0  0
 14 15  1  0  0  0  0
 15 16  1  6  0  0  0
 15 17  1  0  0  0  0
 17  2  1  1  0  0  0
 17 18  1  0  0  0  0
 18 19  1  6  0  0  0
 18 20  1  0  0  0  0
 20 21  1  1  0  0  0
 22 21  1  6  0  0  0
 22 23  1  0  0  0  0
 22 30  1  0  0  0  0
 23 24  1  1  0  0  0
 23 25  1  0  0  0  0
 25 26  1  1  0  0  0
 25 27  1  0  0  0  0
 27 28  1  6  0  0  0
 27 29  1  0  0  0  0
 29 30  1  0  0  0  0
 29 31  1  6  0  0  0
 31 32  1  0  0  0  0
M  CHG  5   4   1  11   1  13   1  16   1  26   1
M  END
>  <CHROM.1>
175.25638158,-176.64767150,156.73620004,179.07911134,-160.32071820,68.75674699
-65.02120319,-173.77852339,-170.47761976,-28.48410320,-144.02676470,174.89856584
-160.31358995,63.79204695,-66.06075096,56.73571278,-7.85056776,6.15215120
22.87862096,0.48744818,0.70284085,2.19848246

>  <Name>
1lc4

>  <RI>
0

>  <Rbt.Current_Directory>
/home/afrankz/demos/rdock_decoys_rna/rnas/1lc4

>  <Rbt.Executable>
rbdock ($Id: //depot/dev/client3/rdock/2013.1/src/exe/rbdock.cxx#4 $)

>  <Rbt.Library>
libRbt.so (2013.1, Build901 2013/11/27)

>  <Rbt.Parameter_File>
/export/apps/rDock/src/rDock_2013.1_src/data/scripts/dock_solv.prm

>  <Rbt.Receptor>
prm/pocket_docking_8.prm

>  <SCORE>
-61.9652

>  <SCORE.INTER>
-44.3604

>  <SCORE.INTER.CONST>
1

>  <SCORE.INTER.POLAR>
-6.49175

>  <SCORE.INTER.ROT>
6

>  <SCORE.INTER.SOLV>
31.2105

>  <SCORE.INTER.VDW>
-25.9379

>  <SCORE.INTER.norm>
-1.38626

>  <SCORE.INTRA>
-17.6212

>  <SCORE.INTRA.DIHEDRAL>
-30.8983

>  <SCORE.INTRA.DIHEDRAL.0>
44.2576

>  <SCORE.INTRA.POLAR>
-0.958536

>  <SCORE.INTRA.POLAR.0>
-0.381556

>  <SCORE.INTRA.REPUL>
0

>  <SCORE.INTRA.REPUL.0>
0

>  <SCORE.INTRA.SOLV>
-1.68001

>  <SCORE.INTRA.SOLV.lig_0>
-134.592

>  <SCORE.INTRA.VDW>
1.92697

>  <SCORE.INTRA.VDW.0>
-1.01417

>  <SCORE.INTRA.norm>
-0.550662

>  <SCORE.RESTR>
0.0163497

>  <SCORE.RESTR.CAVITY>
0.0163497

>  <SCORE.RESTR.norm>
0.000510927

>  <SCORE.SYSTEM>
0

>  <SCORE.SYSTEM.CONST>
0

>  <SCORE.SYSTEM.DIHEDRAL>
0

>  <SCORE.SYSTEM.SOLV>
0

>  <SCORE.SYSTEM.norm>
0

>  <SCORE.heavy>
32

>  <SCORE.norm>
-1.93641

>  <RMSD>
7.429

$$$$
1lc4
 OpenBabel02141814113D
libRbt.so/2013.1/901 2013/11/27
 32 34  0  0  0  0  0  0  0  0999 V2000
  -12.5946    1.8463   17.8303 C   0  0  2  0  0  0  0  0  0  0  0  0
  -11.9166    1.4410   18.9932 O   0  0  0  0  0  0  0  0  0  0  0  0
  -12.6647    0.6407   16.8709 C   0  0  2  0  0  0  0  0  0  0  0  0
  -13.3456   -0.4858   17.5165 N   0  3  0  0  0  0  0  0  0  0  0  0
  -11.2430    0.2484   16.4047 C   0  0  0  0  0  0  0  0  0  0  0  0
  -10.6288    1.4757   15.7088 C   0  0  2  0  0  0  0  0  0  0  0  0
   -9.3243    1.1648   15.2079 O   0  0  0  0  0  0  0  0  0  0  0  0
  -10.5804    2.6588   16.7075 C   0  0  2  0  0  0  0  0  0  0  0  0
  -11.9159    2.9577   17.2047 O   0  0  0  0  0  0  0  0  0  0  0  0
  -10.0345    3.9479   16.0984 C   0  0  0  0  0  0  0  0  0  0  0  0
   -8.7365    3.7119   15.4134 N   0  3  0  0  0  0  0  0  0  0  0  0
  -13.8396    4.2289   21.5407 C   0  0  2  0  0  0  0  0  0  0  0  0
  -14.2800    4.9789   22.7313 N   0  3  0  0  0  0  0  0  0  0  0  0
  -14.2518    2.7686   21.6675 C   0  0  0  0  0  0  0  0  0  0  0  0
  -13.7961    1.9769   20.4367 C   0  0  2  0  0  0  0  0  0  0  0  0
  -14.3208    0.5932   20.5487 N   0  3  0  0  0  0  0  0  0  0  0  0
  -12.2515    2.0610   20.2510 C   0  0  2  0  0  0  0  0  0  0  0  0
  -11.8205    3.5486   20.1802 C   0  0  2  0  0  0  0  0  0  0  0  0
  -10.4156    3.6286   20.1785 O   0  0  0  0  0  0  0  0  0  0  0  0
  -12.3206    4.3230   21.4104 C   0  0  1  0  0  0  0  0  0  0  0  0
  -11.9295    5.6898   21.2860 O   0  0  0  0  0  0  0  0  0  0  0  0
  -10.8965    5.9768   20.4075 C   0  0  2  0  0  0  0  0  0  0  0  0
   -9.7823    6.7097   21.1741 C   0  0  2  0  0  0  0  0  0  0  0  0
   -9.3249    5.8684   22.2253 O   0  0  0  0  0  0  0  0  0  0  0  0
  -10.3374    8.0228   21.7531 C   0  0  1  0  0  0  0  0  0  0  0  0
   -9.3045    8.7691   22.5279 N   0  3  0  0  0  0  0  0  0  0  0  0
  -10.8905    8.8956   20.6001 C   0  0  2  0  0  0  0  0  0  0  0  0
  -11.4357   10.1104   21.1098 O   0  0  0  0  0  0  0  0  0  0  0  0
  -11.9545    8.1154   19.8058 C   0  0  2  0  0  0  0  0  0  0  0  0
  -11.4118    6.8238   19.3477 O   0  0  0  0  0  0  0  0  0  0  0  0
  -12.4120    8.8665   18.5751 C   0  0  0  0  0  0  0  0  0  0  0  0
  -12.5366   10.2643   18.8281 O   0  0  0  0  0  0  0  0  0  0  0  0
  1  2  1  1  0  0  0
  1  3  1  0  0  0  0
  1  9  1  0  0  0  0
  3  4  1  1  0  0  0
  3  5  1  0  0  0  0
  5  6  1  0  0  0  0
  6  7  1  1  0  0  0
  6  8  1  0  0  0  0
  8  9  1  0  0  0  0
  8 10  1  6  0  0  0
 10 11  1  0  0  0  0
 12 13  1  1  0  0  0
 12 14  1  0  0  0  0
 12 20  1  0  0  0  0
 14 15  1  0  0  0  0
 15 16  1  1  0  0  0
 15 17  1  0  0  0  0
 17  2  1  6  0  0  0
 17 18  1  0  0  0  0
 18 19  1  1  0  0  0
 18 20  1  0  0  0  0
 20 21  1  6  0  0  0
 22 21  1  1  0  0  0
 22 23  1  0  0  0  0
 22 30  1  0  0  0  0
 23 24  1  1  0  0  0
 23 25  1  0  0  0  0
 25 26  1  6  0  0  0
 25 27  1  0  0  0  0
 27 28  1  1  0  0  0
 27 29  1  0  0  0  0
 29 30  1  0  0  0  0
 29 31  1  6  0  0  0
 31 32  1  0  0  0  0
M  CHG  5   4   1  11   1  13   1  16   1  26   1
M  END
>  <CHROM.1>
-149.68416955,51.68595708,172.40941375,66.29713073,-51.21446486,-81.25173389
43.69252653,-150.92511569,65.41063708,-141.29830542,-123.43693004,-74.20550786
46.99321492,-173.53817757,-39.23590952,174.16041104,-11.62022512,4.45669566
19.39478318,1.68146498,-0.93317135,-2.57650129

>  <Name>
1lc4

>  <RI>
0

>  <Rbt.Current_Directory>
/home/afrankz/demos/rdock_decoys_rna/rnas/1lc4

>  <Rbt.Executable>
rbdock ($Id: //depot/dev/client3/rdock/2013.1/src/exe/rbdock.cxx#4 $)

>  <Rbt.Library>
libRbt.so (2013.1, Build901 2013/11/27)

>  <Rbt.Parameter_File>
/export/apps/rDock/src/rDock_2013.1_src/data/scripts/dock_solv.prm

>  <Rbt.Receptor>
prm/blind_docking_100.prm

>  <SCORE>
-44.1503

>  <SCORE.INTER>
-39.1534

>  <SCORE.INTER.CONST>
1

>  <SCORE.INTER.POLAR>
-6.43573

>  <SCORE.INTER.ROT>
6

>  <SCORE.INTER.SOLV>
25.9045

>  <SCORE.INTER.VDW>
-20.8846

>  <SCORE.INTER.norm>
-1.22354

>  <SCORE.INTRA>
-8.07049

>  <SCORE.INTRA.DIHEDRAL>
-20.6452

>  <SCORE.INTRA.DIHEDRAL.0>
44.2576

>  <SCORE.INTRA.POLAR>
-1.33453

>  <SCORE.INTRA.POLAR.0>
-0.381556

>  <SCORE.INTRA.REPUL>
0

>  <SCORE.INTRA.REPUL.0>
0

>  <SCORE.INTRA.SOLV>
2.21752

>  <SCORE.INTRA.SOLV.lig_0>
-134.592

>  <SCORE.INTRA.VDW>
5.68077

>  <SCORE.INTRA.VDW.0>
-1.01417

>  <SCORE.INTRA.norm>
-0.252203

>  <SCORE.RESTR>
3.07359

>  <SCORE.RESTR.CAVITY>
3.07359

>  <SCORE.RESTR.norm>
0.0960496

>  <SCORE.SYSTEM>
0

>  <SCORE.SYSTEM.CONST>
0

>  <SCORE.SYSTEM.DIHEDRAL>
0

>  <SCORE.SYSTEM.SOLV>
0

>  <SCORE.SYSTEM.norm>
0

>  <SCORE.heavy>
32

>  <SCORE.norm>
-1.3797

>  <RMSD>
7.457

$$$$
1lc4
 OpenBabel02141814113D
libRbt.so/2013.1/901 2013/11/27
 32 34  0  0  0  0  0  0  0  0999 V2000
  -11.1037    1.1350   16.4406 C   0  0  2  0  0  0  0  0  0  0  0  0
  -11.8020    2.1804   17.0695 O   0  0  0  0  0  0  0  0  0  0  0  0
   -9.9497    1.7517   15.6240 C   0  0  2  0  0  0  0  0  0  0  0  0
   -9.0660    2.5299   16.4976 N   0  3  0  0  0  0  0  0  0  0  0  0
  -10.5152    2.6201   14.4758 C   0  0  0  0  0  0  0  0  0  0  0  0
  -11.3924    1.7113   13.5969 C   0  0  2  0  0  0  0  0  0  0  0  0
  -11.9110    2.4446   12.4822 O   0  0  0  0  0  0  0  0  0  0  0  0
  -12.5337    1.1147   14.4577 C   0  0  2  0  0  0  0  0  0  0  0  0
  -11.9849    0.3744   15.5850 O   0  0  0  0  0  0  0  0  0  0  0  0
  -13.4352    0.1509   13.6901 C   0  0  0  0  0  0  0  0  0  0  0  0
  -14.1780   -0.7440   14.6159 N   0  3  0  0  0  0  0  0  0  0  0  0
  -12.1618    3.9494   20.9037 C   0  0  2  0  0  0  0  0  0  0  0  0
  -11.8524    4.4994   22.2362 N   0  3  0  0  0  0  0  0  0  0  0  0
  -11.7729    2.4783   20.8481 C   0  0  0  0  0  0  0  0  0  0  0  0
  -12.0864    1.8956   19.4656 C   0  0  2  0  0  0  0  0  0  0  0  0
  -11.8032    0.4390   19.4956 N   0  3  0  0  0  0  0  0  0  0  0  0
  -11.3335    2.6694   18.3423 C   0  0  2  0  0  0  0  0  0  0  0  0
  -11.6815    4.1775   18.4322 C   0  0  2  0  0  0  0  0  0  0  0  0
  -10.8787    4.8972   17.5280 O   0  0  0  0  0  0  0  0  0  0  0  0
  -11.3883    4.7245   19.8388 C   0  0  1  0  0  0  0  0  0  0  0  0
  -11.7533    6.1034   19.8832 O   0  0  0  0  0  0  0  0  0  0  0  0
  -10.9042    7.0050   19.2609 C   0  0  2  0  0  0  0  0  0  0  0  0
  -10.8050    8.2723   20.1272 C   0  0  2  0  0  0  0  0  0  0  0  0
  -10.2990    7.9102   21.4058 O   0  0  0  0  0  0  0  0  0  0  0  0
  -12.2005    8.9042   20.2719 C   0  0  1  0  0  0  0  0  0  0  0  0
  -12.1707   10.1290   21.1223 N   0  3  0  0  0  0  0  0  0  0  0  0
  -12.7616    9.2300   18.8661 C   0  0  2  0  0  0  0  0  0  0  0  0
  -14.0669    9.7945   18.9672 O   0  0  0  0  0  0  0  0  0  0  0  0
  -12.7866    7.9596   17.9959 C   0  0  2  0  0  0  0  0  0  0  0  0
  -11.4525    7.3341   17.9582 O   0  0  0  0  0  0  0  0  0  0  0  0
  -13.1789    8.2558   16.5654 C   0  0  0  0  0  0  0  0  0  0  0  0
  -13.3369    7.0598   15.8051 O   0  0  0  0  0  0  0  0  0  0  0  0
  1  2  1  6  0  0  0
  1  3  1  0  0  0  0
  1  9  1  0  0  0  0
  3  4  1  1  0  0  0
  3  5  1  0  0  0  0
  5  6  1  0  0  0  0
  6  7  1  6  0  0  0
  6  8  1  0  0  0  0
  8  9  1  0  0  0  0
  8 10  1  6  0  0  0
 10 11  1  0  0  0  0
 12 13  1  1  0  0  0
 12 14  1  0  0  0  0
 12 20  1  0  0  0  0
 14 15  1  0  0  0  0
 15 16  1  1  0  0  0
 15 17  1  0  0  0  0
 17  2  1  6  0  0  0
 17 18  1  0  0  0  0
 18 19  1  6  0  0  0
 18 20  1  0  0  0  0
 20 21  1  6  0  0  0
 22 21  1  1  0  0  0
 22 23  1  0  0  0  0
 22 30  1  0  0  0  0
 23 24  1  1  0  0  0
 23 25  1  0  0  0  0
 25 26  1  1  0  0  0
 25 27  1  0  0  0  0
 27 28  1  1  0  0  0
 27 29  1  0  0  0  0
 29 30  1  0  0  0  0
 29 31  1  6  0  0  0
 31 32  1  0  0  0  0
M  CHG  5   4   1  11   1  13   1  16   1  26   1
M  END
>  <CHROM.1>
-85.68927201,-92.90737371,-69.05918331,66.10672432,159.69965480,-59.28872218
-47.21973763,4.46098572,161.60567309,162.59421963,-140.50831035,-66.44490543
173.57821770,-54.31401467,-173.80011702,68.26565003,-11.84421005,4.48133063
17.81624201,-1.50976332,-1.36611767,0.64557018

>  <Name>
1lc4

>  <RI>
0

>  <Rbt.Current_Directory>
/home/afrankz/demos/rdock_decoys_rna/rnas/1lc4

>  <Rbt.Executable>
rbdock ($Id: //depot/dev/client3/rdock/2013.1/src/exe/rbdock.cxx#4 $)

>  <Rbt.Library>
libRbt.so (2013.1, Build901 2013/11/27)

>  <Rbt.Parameter_File>
/export/apps/rDock/src/rDock_2013.1_src/data/scripts/dock_solv.prm

>  <Rbt.Receptor>
prm/pocket_docking_8.prm

>  <SCORE>
-54.4638

>  <SCORE.INTER>
-36.7825

>  <SCORE.INTER.CONST>
1

>  <SCORE.INTER.POLAR>
-6.19851

>  <SCORE.INTER.ROT>
6

>  <SCORE.INTER.SOLV>
30.907

>  <SCORE.INTER.VDW>
-21.7623

>  <SCORE.INTER.norm>
-1.14945

>  <SCORE.INTRA>
-17.6812

>  <SCORE.INTRA.DIHEDRAL>
-22.4368

>  <SCORE.INTRA.DIHEDRAL.0>
44.2576

>  <SCORE.INTRA.POLAR>
-1.62382

>  <SCORE.INTRA.POLAR.0>
-0.381556

>  <SCORE.INTRA.REPUL>
0

>  <SCORE.INTRA.REPUL.0>
0

>  <SCORE.INTRA.SOLV>
-0.381929

>  <SCORE.INTRA.SOLV.lig_0>
-134.592

>  <SCORE.INTRA.VDW>
-0.750869

>  <SCORE.INTRA.VDW.0>
-1.01417

>  <SCORE.INTRA.norm>
-0.552538

>  <SCORE.RESTR>
0

>  <SCORE.RESTR.CAVITY>
0

>  <SCORE.RESTR.norm>
0

>  <SCORE.SYSTEM>
0

>  <SCORE.SYSTEM.CONST>
0

>  <SCORE.SYSTEM.DIHEDRAL>
0

>  <SCORE.SYSTEM.SOLV>
0

>  <SCORE.SYSTEM.norm>
0

>  <SCORE.heavy>
32

>  <SCORE.norm>
-1.70199

>  <RMSD>
7.457

$$$$
1lc4
 OpenBabel02141814113D
libRbt.so/2013.1/901 2013/11/27
 32 34  0  0  0  0  0  0  0  0999 V2000
  -13.2788    1.6971   18.3707 C   0  0  2  0  0  0  0  0  0  0  0  0
  -12.7831    1.1826   19.5814 O   0  0  0  0  0  0  0  0  0  0  0  0
  -13.4578    0.5223   17.3875 C   0  0  2  0  0  0  0  0  0  0  0  0
  -14.3683   -0.4796   17.9506 N   0  3  0  0  0  0  0  0  0  0  0  0
  -12.0829   -0.0962   17.0415 C   0  0  0  0  0  0  0  0  0  0  0  0
  -11.2171    1.0162   16.4244 C   0  0  2  0  0  0  0  0  0  0  0  0
   -9.9410    0.4974   16.0349 O   0  0  0  0  0  0  0  0  0  0  0  0
  -11.0666    2.1722   17.4444 C   0  0  2  0  0  0  0  0  0  0  0  0
  -12.3748    2.6842   17.8272 O   0  0  0  0  0  0  0  0  0  0  0  0
  -10.2656    3.3564   16.9087 C   0  0  0  0  0  0  0  0  0  0  0  0
  -10.0697    4.3919   17.9571 N   0  3  0  0  0  0  0  0  0  0  0  0
  -13.8752    4.5606   21.8957 C   0  0  2  0  0  0  0  0  0  0  0  0
  -14.1002    5.4820   23.0245 N   0  3  0  0  0  0  0  0  0  0  0  0
  -14.6805    3.2848   22.1009 C   0  0  0  0  0  0  0  0  0  0  0  0
  -14.4521    2.3164   20.9350 C   0  0  2  0  0  0  0  0  0  0  0  0
  -15.3438    1.1442   21.1175 N   0  3  0  0  0  0  0  0  0  0  0  0
  -12.9438    1.9546   20.7884 C   0  0  2  0  0  0  0  0  0  0  0  0
  -12.1133    3.2551   20.6378 C   0  0  2  0  0  0  0  0  0  0  0  0
  -10.7422    2.9406   20.6711 O   0  0  0  0  0  0  0  0  0  0  0  0
  -12.3893    4.2192   21.8031 C   0  0  1  0  0  0  0  0  0  0  0  0
  -11.6303    5.4115   21.6054 O   0  0  0  0  0  0  0  0  0  0  0  0
  -11.3894    5.8008   20.2970 C   0  0  2  0  0  0  0  0  0  0  0  0
  -10.0222    6.5027   20.2320 C   0  0  2  0  0  0  0  0  0  0  0  0
   -9.0229    5.5930   20.6746 O   0  0  0  0  0  0  0  0  0  0  0  0
  -10.0415    7.7465   21.1376 C   0  0  1  0  0  0  0  0  0  0  0  0
   -8.7311    8.4587   21.1318 N   0  3  0  0  0  0  0  0  0  0  0  0
  -11.1785    8.6929   20.6809 C   0  0  2  0  0  0  0  0  0  0  0  0
  -11.2372    9.8448   21.5190 O   0  0  0  0  0  0  0  0  0  0  0  0
  -12.5262    7.9478   20.6888 C   0  0  2  0  0  0  0  0  0  0  0  0
  -12.4386    6.7151   19.8854 O   0  0  0  0  0  0  0  0  0  0  0  0
  -13.6428    8.7822   20.1015 C   0  0  0  0  0  0  0  0  0  0  0  0
  -13.8511    9.9805   20.8459 O   0  0  0  0  0  0  0  0  0  0  0  0
  1  2  1  1  0  0  0
  1  3  1  0  0  0  0
  1  9  1  0  0  0  0
  3  4  1  1  0  0  0
  3  5  1  0  0  0  0
  5  6  1  0  0  0  0
  6  7  1  1  0  0  0
  6  8  1  0  0  0  0
  8  9  1  0  0  0  0
  8 10  1  6  0  0  0
 10 11  1  0  0  0  0
 12 13  1  1  0  0  0
 12 14  1  0  0  0  0
 12 20  1  0  0  0  0
 14 15  1  0  0  0  0
 15 16  1  1  0  0  0
 15 17  1  0  0  0  0
 17  2  1  6  0  0  0
 17 18  1  0  0  0  0
 18 19  1  1  0  0  0
 18 20  1  0  0  0  0
 20 21  1  6  0  0  0
 22 21  1  1  0  0  0
 22 23  1  0  0  0  0
 22 30  1  0  0  0  0
 23 24  1  1  0  0  0
 23 25  1  0  0  0  0
 25 26  1  6  0  0  0
 25 27  1  0  0  0  0
 27 28  1  1  0  0  0
 27 29  1  0  0  0  0
 29 30  1  0  0  0  0
 29 31  1  6  0  0  0
 31 32  1  0  0  0  0
M  CHG  5   4   1  11   1  13   1  16   1  26   1
M  END
>  <CHROM.1>
-159.36784115,53.30490122,-59.36769723,-174.75363673,-175.94693188,152.45365344
-177.45467634,74.07555772,-59.87474654,-90.57292326,-147.79825217,73.76353476
33.43144723,-173.82231088,-61.16982961,-66.62241730,-12.08264085,4.32924172
19.85224913,1.71818098,-0.60436367,-2.66321435

>  <Name>
1lc4

>  <RI>
0

>  <Rbt.Current_Directory>
/home/afrankz/demos/rdock_decoys_rna/rnas/1lc4

>  <Rbt.Executable>
rbdock ($Id: //depot/dev/client3/rdock/2013.1/src/exe/rbdock.cxx#4 $)

>  <Rbt.Library>
libRbt.so (2013.1, Build901 2013/11/27)

>  <Rbt.Parameter_File>
/export/apps/rDock/src/rDock_2013.1_src/data/scripts/dock_solv.prm

>  <Rbt.Receptor>
prm/blind_docking_100.prm

>  <SCORE>
-42.1686

>  <SCORE.INTER>
-28.9894

>  <SCORE.INTER.CONST>
1

>  <SCORE.INTER.POLAR>
-3.74714

>  <SCORE.INTER.ROT>
6

>  <SCORE.INTER.SOLV>
23.8798

>  <SCORE.INTER.VDW>
-22.3957

>  <SCORE.INTER.norm>
-0.90592

>  <SCORE.INTRA>
-16.0639

>  <SCORE.INTRA.DIHEDRAL>
-29.2941

>  <SCORE.INTRA.DIHEDRAL.0>
44.2576

>  <SCORE.INTRA.POLAR>
-1.1805

>  <SCORE.INTRA.POLAR.0>
-0.381556

>  <SCORE.INTRA.REPUL>
0

>  <SCORE.INTRA.REPUL.0>
0

>  <SCORE.INTRA.SOLV>
6.88444

>  <SCORE.INTRA.SOLV.lig_0>
-134.592

>  <SCORE.INTRA.VDW>
-0.845345

>  <SCORE.INTRA.VDW.0>
-1.01417

>  <SCORE.INTRA.norm>
-0.501996

>  <SCORE.RESTR>
2.88468

>  <SCORE.RESTR.CAVITY>
2.88468

>  <SCORE.RESTR.norm>
0.0901462

>  <SCORE.SYSTEM>
0

>  <SCORE.SYSTEM.CONST>
0

>  <SCORE.SYSTEM.DIHEDRAL>
0

>  <SCORE.SYSTEM.SOLV>
0

>  <SCORE.SYSTEM.norm>
0

>  <SCORE.heavy>
32

>  <SCORE.norm>
-1.31777

>  <RMSD>
7.469

$$$$
1lc4
 OpenBabel02141814113D
libRbt.so/2013.1/901 2013/11/27
 32 34  0  0  0  0  0  0  0  0999 V2000
  -11.2641    1.0267   16.6792 C   0  0  2  0  0  0  0  0  0  0  0  0
  -11.7574    2.2488   17.1685 O   0  0  0  0  0  0  0  0  0  0  0  0
  -10.1256    1.3325   15.6846 C   0  0  2  0  0  0  0  0  0  0  0  0
   -9.0681    2.1063   16.3422 N   0  3  0  0  0  0  0  0  0  0  0  0
  -10.6841    2.0770   14.4491 C   0  0  0  0  0  0  0  0  0  0  0  0
  -11.7525    1.1738   13.8083 C   0  0  2  0  0  0  0  0  0  0  0  0
  -12.2788    1.7851   12.6256 O   0  0  0  0  0  0  0  0  0  0  0  0
  -12.8716    0.8931   14.8419 C   0  0  2  0  0  0  0  0  0  0  0  0
  -12.3151    0.2727   16.0358 O   0  0  0  0  0  0  0  0  0  0  0  0
  -13.9602   -0.0423   14.3217 C   0  0  0  0  0  0  0  0  0  0  0  0
  -14.7600    0.6063   13.2496 N   0  3  0  0  0  0  0  0  0  0  0  0
  -12.1558    3.9923   21.0105 C   0  0  2  0  0  0  0  0  0  0  0  0
  -11.8605    4.5297   22.3514 N   0  3  0  0  0  0  0  0  0  0  0  0
  -11.7788    2.5184   20.9493 C   0  0  0  0  0  0  0  0  0  0  0  0
  -12.0779    1.9486   19.5582 C   0  0  2  0  0  0  0  0  0  0  0  0
  -11.8076    0.4895   19.5812 N   0  3  0  0  0  0  0  0  0  0  0  0
  -11.3027    2.7242   18.4514 C   0  0  2  0  0  0  0  0  0  0  0  0
  -11.6389    4.2346   18.5479 C   0  0  2  0  0  0  0  0  0  0  0  0
  -10.8173    4.9539   17.6604 O   0  0  0  0  0  0  0  0  0  0  0  0
  -11.3608    4.7685   19.9624 C   0  0  1  0  0  0  0  0  0  0  0  0
  -11.7146    6.1502   20.0122 O   0  0  0  0  0  0  0  0  0  0  0  0
  -10.9596    7.0265   19.2485 C   0  0  2  0  0  0  0  0  0  0  0  0
  -10.8545    8.3690   19.9922 C   0  0  2  0  0  0  0  0  0  0  0  0
  -10.2352    8.1431   21.2521 O   0  0  0  0  0  0  0  0  0  0  0  0
  -12.2632    8.9540   20.1943 C   0  0  1  0  0  0  0  0  0  0  0  0
  -12.2264   10.2499   20.9314 N   0  3  0  0  0  0  0  0  0  0  0  0
  -12.9455    9.1301   18.8156 C   0  0  2  0  0  0  0  0  0  0  0  0
  -14.2645    9.6479   18.9730 O   0  0  0  0  0  0  0  0  0  0  0  0
  -12.9768    7.7873   18.0623 C   0  0  2  0  0  0  0  0  0  0  0  0
  -11.6213    7.2155   17.9708 O   0  0  0  0  0  0  0  0  0  0  0  0
  -13.4914    7.9385   16.6480 C   0  0  0  0  0  0  0  0  0  0  0  0
  -12.6663    8.8107   15.8787 O   0  0  0  0  0  0  0  0  0  0  0  0
  1  2  1  6  0  0  0
  1  3  1  0  0  0  0
  1  9  1  0  0  0  0
  3  4  1  1  0  0  0
  3  5  1  0  0  0  0
  5  6  1  0  0  0  0
  6  7  1  6  0  0  0
  6  8  1  0  0  0  0
  8  9  1  0  0  0  0
  8 10  1  6  0  0  0
 10 11  1  0  0  0  0
 12 13  1  1  0  0  0
 12 14  1  0  0  0  0
 12 20  1  0  0  0  0
 14 15  1  0  0  0  0
 15 16  1  1  0  0  0
 15 17  1  0  0  0  0
 17  2  1  6  0  0  0
 17 18  1  0  0  0  0
 18 19  1  6  0  0  0
 18 20  1  0  0  0  0
 20 21  1  6  0  0  0
 22 21  1  1  0  0  0
 22 23  1  0  0  0  0
 22 30  1  0  0  0  0
 23 24  1  1  0  0  0
 23 25  1  0  0  0  0
 25 26  1  6  0  0  0
 25 27  1  0  0  0  0
 27 28  1  1  0  0  0
 27 29  1  0  0  0  0
 29 30  1  0  0  0  0
 29 31  1  6  0  0  0
 31 32  1  0  0  0  0
M  CHG  5   4   1  11   1  13   1  16   1  26   1
M  END
>  <CHROM.1>
-98.62207898,-78.75817760,40.80121923,-52.59141173,-68.30452261,57.79934164
-45.45222361,3.98105293,-57.77160209,171.71151097,-145.94142610,-65.81866712
163.98578126,-63.10429620,60.78166188,-179.55125187,-11.94179653,4.50405890
17.84641092,-1.59599211,-1.27546473,0.54372540

>  <Name>
1lc4

>  <RI>
0

>  <Rbt.Current_Directory>
/home/afrankz/demos/rdock_decoys_rna/rnas/1lc4

>  <Rbt.Executable>
rbdock ($Id: //depot/dev/client3/rdock/2013.1/src/exe/rbdock.cxx#4 $)

>  <Rbt.Library>
libRbt.so (2013.1, Build901 2013/11/27)

>  <Rbt.Parameter_File>
/export/apps/rDock/src/rDock_2013.1_src/data/scripts/dock_solv.prm

>  <Rbt.Receptor>
prm/pocket_docking_8.prm

>  <SCORE>
-50.871

>  <SCORE.INTER>
-37.6681

>  <SCORE.INTER.CONST>
1

>  <SCORE.INTER.POLAR>
-6.05472

>  <SCORE.INTER.ROT>
6

>  <SCORE.INTER.SOLV>
30.4022

>  <SCORE.INTER.VDW>
-22.6637

>  <SCORE.INTER.norm>
-1.17713

>  <SCORE.INTRA>
-13.2029

>  <SCORE.INTRA.DIHEDRAL>
-26.5133

>  <SCORE.INTRA.DIHEDRAL.0>
44.2576

>  <SCORE.INTRA.POLAR>
-0.0669985

>  <SCORE.INTRA.POLAR.0>
-0.381556

>  <SCORE.INTRA.REPUL>
0

>  <SCORE.INTRA.REPUL.0>
0

>  <SCORE.INTRA.SOLV>
0.487246

>  <SCORE.INTRA.SOLV.lig_0>
-134.592

>  <SCORE.INTRA.VDW>
0.0379467

>  <SCORE.INTRA.VDW.0>
-1.01417

>  <SCORE.INTRA.norm>
-0.41259

>  <SCORE.RESTR>
0

>  <SCORE.RESTR.CAVITY>
0

>  <SCORE.RESTR.norm>
0

>  <SCORE.SYSTEM>
0

>  <SCORE.SYSTEM.CONST>
0

>  <SCORE.SYSTEM.DIHEDRAL>
0

>  <SCORE.SYSTEM.SOLV>
0

>  <SCORE.SYSTEM.norm>
0

>  <SCORE.heavy>
32

>  <SCORE.norm>
-1.58972

>  <RMSD>
7.472

$$$$
1lc4
 OpenBabel02141814113D
libRbt.so/2013.1/901 2013/11/27
 32 34  0  0  0  0  0  0  0  0999 V2000
  -15.0456   10.9889   17.2296 C   0  0  2  0  0  0  0  0  0  0  0  0
  -15.6326   10.1360   18.1805 O   0  0  0  0  0  0  0  0  0  0  0  0
  -16.1630   11.5263   16.3124 C   0  0  2  0  0  0  0  0  0  0  0  0
  -17.1768   12.2311   17.1031 N   0  3  0  0  0  0  0  0  0  0  0  0
  -16.7869   10.3679   15.4991 C   0  0  0  0  0  0  0  0  0  0  0  0
  -15.6591    9.7194   14.6773 C   0  0  2  0  0  0  0  0  0  0  0  0
  -16.1794    8.6651   13.8605 O   0  0  0  0  0  0  0  0  0  0  0  0
  -14.5618    9.1972   15.6379 C   0  0  2  0  0  0  0  0  0  0  0  0
  -14.0474   10.2842   16.4589 O   0  0  0  0  0  0  0  0  0  0  0  0
  -13.3655    8.5801   14.9178 C   0  0  0  0  0  0  0  0  0  0  0  0
  -13.7725    7.3976   14.1141 N   0  3  0  0  0  0  0  0  0  0  0  0
  -12.0392    9.3296   20.2776 C   0  0  2  0  0  0  0  0  0  0  0  0
  -11.0728    8.8739   21.2935 N   0  3  0  0  0  0  0  0  0  0  0  0
  -12.9889   10.3512   20.8883 C   0  0  0  0  0  0  0  0  0  0  0  0
  -14.0016   10.8302   19.8423 C   0  0  2  0  0  0  0  0  0  0  0  0
  -14.8260   11.9063   20.4463 N   0  3  0  0  0  0  0  0  0  0  0  0
  -14.8267    9.6398   19.2682 C   0  0  2  0  0  0  0  0  0  0  0  0
  -13.8606    8.5699   18.6977 C   0  0  2  0  0  0  0  0  0  0  0  0
  -14.5938    7.4264   18.3304 O   0  0  0  0  0  0  0  0  0  0  0  0
  -12.8368    8.1347   19.7587 C   0  0  1  0  0  0  0  0  0  0  0  0
  -11.9515    7.1764   19.1804 O   0  0  0  0  0  0  0  0  0  0  0  0
  -11.0855    6.5145   20.0367 C   0  0  2  0  0  0  0  0  0  0  0  0
  -10.3851    5.3866   19.2599 C   0  0  2  0  0  0  0  0  0  0  0  0
   -9.6709    5.9598   18.1720 O   0  0  0  0  0  0  0  0  0  0  0  0
  -11.4386    4.3953   18.7354 C   0  0  1  0  0  0  0  0  0  0  0  0
  -10.8184    3.2874   17.9531 N   0  3  0  0  0  0  0  0  0  0  0  0
  -12.2492    3.8331   19.9286 C   0  0  2  0  0  0  0  0  0  0  0  0
  -13.2518    2.9289   19.4703 O   0  0  0  0  0  0  0  0  0  0  0  0
  -12.8837    4.9847   20.7304 C   0  0  2  0  0  0  0  0  0  0  0  0
  -11.8548    5.9595   21.1350 O   0  0  0  0  0  0  0  0  0  0  0  0
  -13.5553    4.4971   21.9950 C   0  0  0  0  0  0  0  0  0  0  0  0
  -14.1840    5.5642   22.7016 O   0  0  0  0  0  0  0  0  0  0  0  0
  1  2  1  1  0  0  0
  1  3  1  0  0  0  0
  1  9  1  0  0  0  0
  3  4  1  1  0  0  0
  3  5  1  0  0  0  0
  5  6  1  0  0  0  0
  6  7  1  1  0  0  0
  6  8  1  0  0  0  0
  8  9  1  0  0  0  0
  8 10  1  6  0  0  0
 10 11  1  0  0  0  0
 12 13  1  1  0  0  0
 12 14  1  0  0  0  0
 12 20  1  0  0  0  0
 14 15  1  0  0  0  0
 15 16  1  1  0  0  0
 15 17  1  0  0  0  0
 17  2  1  6  0  0  0
 17 18  1  0  0  0  0
 18 19  1  1  0  0  0
 18 20  1  0  0  0  0
 20 21  1  6  0  0  0
 22 21  1  6  0  0  0
 22 23  1  0  0  0  0
 22 30  1  0  0  0  0
 23 24  1  6  0  0  0
 23 25  1  0  0  0  0
 25 26  1  1  0  0  0
 25 27  1  0  0  0  0
 27 28  1  6  0  0  0
 27 29  1  0  0  0  0
 29 30  1  0  0  0  0
 29 31  1  1  0  0  0
 31 32  1  0  0  0  0
M  CHG  5   4   1  11   1  13   1  16   1  26   1
M  END
>  <CHROM.1>
-171.87933015,45.08689255,-60.57873869,67.90523986,-61.68529722,160.72469104
-30.71280048,-60.56906387,62.82928957,67.67126566,171.29159690,-56.01801634
68.24999112,179.10963499,-177.70276012,-176.07637588,-13.53522805,7.92740559
18.49433073,3.02559249,1.05489964,-2.03236650

>  <Name>
1lc4

>  <RI>
0

>  <Rbt.Current_Directory>
/home/afrankz/demos/rdock_decoys_rna/rnas/1lc4

>  <Rbt.Executable>
rbdock ($Id: //depot/dev/client3/rdock/2013.1/src/exe/rbdock.cxx#4 $)

>  <Rbt.Library>
libRbt.so (2013.1, Build901 2013/11/27)

>  <Rbt.Parameter_File>
/export/apps/rDock/src/rDock_2013.1_src/data/scripts/dock_solv.prm

>  <Rbt.Receptor>
prm/pocket_docking_4.prm

>  <SCORE>
-53.6207

>  <SCORE.INTER>
-30.6488

>  <SCORE.INTER.CONST>
1

>  <SCORE.INTER.POLAR>
-4.46797

>  <SCORE.INTER.ROT>
6

>  <SCORE.INTER.SOLV>
17.586

>  <SCORE.INTER.VDW>
-19.0013

>  <SCORE.INTER.norm>
-0.957774

>  <SCORE.INTRA>
-23.2539

>  <SCORE.INTRA.DIHEDRAL>
-38.8523

>  <SCORE.INTRA.DIHEDRAL.0>
44.2576

>  <SCORE.INTRA.POLAR>
-1.11175

>  <SCORE.INTRA.POLAR.0>
-0.381556

>  <SCORE.INTRA.REPUL>
0

>  <SCORE.INTRA.REPUL.0>
0

>  <SCORE.INTRA.SOLV>
0.18297

>  <SCORE.INTRA.SOLV.lig_0>
-134.592

>  <SCORE.INTRA.VDW>
-0.13922

>  <SCORE.INTRA.VDW.0>
-1.01417

>  <SCORE.INTRA.norm>
-0.726683

>  <SCORE.RESTR>
0.281962

>  <SCORE.RESTR.CAVITY>
0.281962

>  <SCORE.RESTR.norm>
0.00881132

>  <SCORE.SYSTEM>
0

>  <SCORE.SYSTEM.CONST>
0

>  <SCORE.SYSTEM.DIHEDRAL>
0

>  <SCORE.SYSTEM.SOLV>
0

>  <SCORE.SYSTEM.norm>
0

>  <SCORE.heavy>
32

>  <SCORE.norm>
-1.67565

>  <RMSD>
7.478

$$$$
1lc4
 OpenBabel02141814113D
libRbt.so/2013.1/901 2013/11/27
 32 34  0  0  0  0  0  0  0  0999 V2000
  -13.3864    7.8995   18.6642 C   0  0  2  0  0  0  0  0  0  0  0  0
  -12.0256    7.7435   18.9805 O   0  0  0  0  0  0  0  0  0  0  0  0
  -13.4871    8.7647   17.3913 C   0  0  2  0  0  0  0  0  0  0  0  0
  -12.7548    8.1354   16.2879 N   0  3  0  0  0  0  0  0  0  0  0  0
  -12.9626   10.1919   17.6751 C   0  0  0  0  0  0  0  0  0  0  0  0
  -13.8140   10.7800   18.8139 C   0  0  2  0  0  0  0  0  0  0  0  0
  -13.4109   12.1244   19.0955 O   0  0  0  0  0  0  0  0  0  0  0  0
  -13.6834    9.8795   20.0675 C   0  0  2  0  0  0  0  0  0  0  0  0
  -14.0975    8.5180   19.7592 O   0  0  0  0  0  0  0  0  0  0  0  0
  -14.5359   10.3470   21.2446 C   0  0  0  0  0  0  0  0  0  0  0  0
  -13.8801   10.0349   22.5415 N   0  3  0  0  0  0  0  0  0  0  0  0
   -9.7303    4.8964   21.1219 C   0  0  2  0  0  0  0  0  0  0  0  0
   -9.2267    4.0001   22.1787 N   0  3  0  0  0  0  0  0  0  0  0  0
   -9.6669    6.3420   21.5958 C   0  0  0  0  0  0  0  0  0  0  0  0
  -10.1916    7.2840   20.5065 C   0  0  2  0  0  0  0  0  0  0  0  0
  -10.0008    8.6827   20.9645 N   0  3  0  0  0  0  0  0  0  0  0  0
  -11.6589    6.9346   20.1162 C   0  0  2  0  0  0  0  0  0  0  0  0
  -11.7388    5.4464   19.6886 C   0  0  2  0  0  0  0  0  0  0  0  0
  -13.0855    5.0873   19.4952 O   0  0  0  0  0  0  0  0  0  0  0  0
  -11.1747    4.5300   20.7865 C   0  0  1  0  0  0  0  0  0  0  0  0
  -11.2388    3.1772   20.3366 O   0  0  0  0  0  0  0  0  0  0  0  0
  -11.6002    2.2154   21.2670 C   0  0  2  0  0  0  0  0  0  0  0  0
  -12.3179    1.0659   20.5392 C   0  0  2  0  0  0  0  0  0  0  0  0
  -11.4318    0.5171   19.5718 O   0  0  0  0  0  0  0  0  0  0  0  0
  -13.5824    1.6070   19.8493 C   0  0  1  0  0  0  0  0  0  0  0  0
  -14.3110    0.5383   19.1069 N   0  3  0  0  0  0  0  0  0  0  0  0
  -14.5030    2.2591   20.9096 C   0  0  2  0  0  0  0  0  0  0  0  0
  -15.6735    2.7930   20.2950 O   0  0  0  0  0  0  0  0  0  0  0  0
  -13.7409    3.3594   21.6712 C   0  0  2  0  0  0  0  0  0  0  0  0
  -12.4909    2.8227   22.2385 O   0  0  0  0  0  0  0  0  0  0  0  0
  -14.5468    3.9191   22.8224 C   0  0  0  0  0  0  0  0  0  0  0  0
  -13.8648    4.9910   23.4697 O   0  0  0  0  0  0  0  0  0  0  0  0
  1  2  1  1  0  0  0
  1  3  1  0  0  0  0
  1  9  1  0  0  0  0
  3  4  1  6  0  0  0
  3  5  1  0  0  0  0
  5  6  1  0  0  0  0
  6  7  1  1  0  0  0
  6  8  1  0  0  0  0
  8  9  1  0  0  0  0
  8 10  1  1  0  0  0
 10 11  1  0  0  0  0
 12 13  1  1  0  0  0
 12 14  1  0  0  0  0
 12 20  1  0  0  0  0
 14 15  1  0  0  0  0
 15 16  1  1  0  0  0
 15 17  1  0  0  0  0
 17  2  1  6  0  0  0
 17 18  1  0  0  0  0
 18 19  1  1  0  0  0
 18 20  1  0  0  0  0
 20 21  1  6  0  0  0
 22 21  1  6  0  0  0
 22 23  1  0  0  0  0
 22 30  1  0  0  0  0
 23 24  1  6  0  0  0
 23 25  1  0  0  0  0
 25 26  1  1  0  0  0
 25 27  1  0  0  0  0
 27 28  1  6  0  0  0
 27 29  1  0  0  0  0
 29 30  1  0  0  0  0
 29 31  1  1  0  0  0
 31 32  1  0  0  0  0
M  CHG  5   4   1  11   1  13   1  16   1  26   1
M  END
>  <CHROM.1>
-178.15271928,-162.43939607,-55.06070067,72.22438258,-147.50077161,-53.82173787
167.17654762,-67.64400081,177.75646167,97.58452608,150.27619387,169.41260725
141.28122635,178.88105924,-176.49034159,-53.40303069,-12.62884626,5.83196065
20.29067768,1.62958418,-0.47785322,-0.14828746

>  <Name>
1lc4

>  <RI>
0

>  <Rbt.Current_Directory>
/home/afrankz/demos/rdock_decoys_rna/rnas/1lc4

>  <Rbt.Executable>
rbdock ($Id: //depot/dev/client3/rdock/2013.1/src/exe/rbdock.cxx#4 $)

>  <Rbt.Library>
libRbt.so (2013.1, Build901 2013/11/27)

>  <Rbt.Parameter_File>
/export/apps/rDock/src/rDock_2013.1_src/data/scripts/dock_solv.prm

>  <Rbt.Receptor>
prm/blind_docking_60.prm

>  <SCORE>
-10.6467

>  <SCORE.INTER>
2.07064

>  <SCORE.INTER.CONST>
1

>  <SCORE.INTER.POLAR>
-3.38659

>  <SCORE.INTER.ROT>
6

>  <SCORE.INTER.SOLV>
36.6016

>  <SCORE.INTER.VDW>
-7.13146

>  <SCORE.INTER.norm>
0.0647075

>  <SCORE.INTRA>
-16.057

>  <SCORE.INTRA.DIHEDRAL>
-26.3892

>  <SCORE.INTRA.DIHEDRAL.0>
44.2576

>  <SCORE.INTRA.POLAR>
0.327394

>  <SCORE.INTRA.POLAR.0>
-0.381556

>  <SCORE.INTRA.REPUL>
0

>  <SCORE.INTRA.REPUL.0>
0

>  <SCORE.INTRA.SOLV>
-3.38953

>  <SCORE.INTRA.SOLV.lig_0>
-134.592

>  <SCORE.INTRA.VDW>
-2.28077

>  <SCORE.INTRA.VDW.0>
-1.01417

>  <SCORE.INTRA.norm>
-0.50178

>  <SCORE.RESTR>
3.3396

>  <SCORE.RESTR.CAVITY>
3.3396

>  <SCORE.RESTR.norm>
0.104362

>  <SCORE.SYSTEM>
0

>  <SCORE.SYSTEM.CONST>
0

>  <SCORE.SYSTEM.DIHEDRAL>
0

>  <SCORE.SYSTEM.SOLV>
0

>  <SCORE.SYSTEM.norm>
0

>  <SCORE.heavy>
32

>  <SCORE.norm>
-0.332711

>  <RMSD>
7.490

$$$$
1lc4
 OpenBabel02141814113D
libRbt.so/2013.1/901 2013/11/27
 32 34  0  0  0  0  0  0  0  0999 V2000
  -10.7496    3.9411   19.3219 C   0  0  2  0  0  0  0  0  0  0  0  0
  -11.9230    3.5629   18.6466 O   0  0  0  0  0  0  0  0  0  0  0  0
  -11.0593    3.9893   20.8321 C   0  0  2  0  0  0  0  0  0  0  0  0
  -11.5410    2.6845   21.2956 N   0  3  0  0  0  0  0  0  0  0  0  0
  -12.0858    5.1077   21.1292 C   0  0  0  0  0  0  0  0  0  0  0  0
  -11.4768    6.4354   20.6455 C   0  0  2  0  0  0  0  0  0  0  0  0
  -12.3594    7.5245   20.9357 O   0  0  0  0  0  0  0  0  0  0  0  0
  -11.1816    6.3397   19.1279 C   0  0  2  0  0  0  0  0  0  0  0  0
  -10.2836    5.2265   18.8552 O   0  0  0  0  0  0  0  0  0  0  0  0
  -10.5225    7.5923   18.5557 C   0  0  0  0  0  0  0  0  0  0  0  0
   -9.6667    8.2615   19.5703 N   0  3  0  0  0  0  0  0  0  0  0  0
  -10.1458    0.8240   15.9447 C   0  0  2  0  0  0  0  0  0  0  0  0
   -9.8786   -0.0184   14.7646 N   0  3  0  0  0  0  0  0  0  0  0  0
  -11.4665    0.4162   16.5832 C   0  0  0  0  0  0  0  0  0  0  0  0
  -11.7576    1.2878   17.8099 C   0  0  2  0  0  0  0  0  0  0  0  0
  -12.9880    0.7787   18.4654 N   0  3  0  0  0  0  0  0  0  0  0  0
  -11.8148    2.7975   17.4295 C   0  0  2  0  0  0  0  0  0  0  0  0
  -10.4940    3.2029   16.7261 C   0  0  2  0  0  0  0  0  0  0  0  0
  -10.6093    4.5172   16.2368 O   0  0  0  0  0  0  0  0  0  0  0  0
  -10.2125    2.2901   15.5215 C   0  0  1  0  0  0  0  0  0  0  0  0
   -8.9747    2.6789   14.9270 O   0  0  0  0  0  0  0  0  0  0  0  0
   -8.8887    2.6212   13.5448 C   0  0  2  0  0  0  0  0  0  0  0  0
   -7.5078    2.0657   13.1563 C   0  0  2  0  0  0  0  0  0  0  0  0
   -7.3650    0.7682   13.7203 O   0  0  0  0  0  0  0  0  0  0  0  0
   -6.4100    2.9992   13.6959 C   0  0  1  0  0  0  0  0  0  0  0  0
   -5.0441    2.4989   13.3673 N   0  3  0  0  0  0  0  0  0  0  0  0
   -6.6223    4.4216   13.1227 C   0  0  2  0  0  0  0  0  0  0  0  0
   -5.6329    5.3163   13.6260 O   0  0  0  0  0  0  0  0  0  0  0  0
   -8.0356    4.9280   13.4658 C   0  0  2  0  0  0  0  0  0  0  0  0
   -9.0532    3.9620   13.0143 O   0  0  0  0  0  0  0  0  0  0  0  0
   -8.3473    6.2474   12.7952 C   0  0  0  0  0  0  0  0  0  0  0  0
   -8.1734    6.1730   11.3818 O   0  0  0  0  0  0  0  0  0  0  0  0
  1  2  1  6  0  0  0
  1  3  1  0  0  0  0
  1  9  1  0  0  0  0
  3  4  1  6  0  0  0
  3  5  1  0  0  0  0
  5  6  1  0  0  0  0
  6  7  1  6  0  0  0
  6  8  1  0  0  0  0
  8  9  1  0  0  0  0
  8 10  1  1  0  0  0
 10 11  1  0  0  0  0
 12 13  1  6  0  0  0
 12 14  1  0  0  0  0
 12 20  1  0  0  0  0
 14 15  1  0  0  0  0
 15 16  1  6  0  0  0
 15 17  1  0  0  0  0
 17  2  1  1  0  0  0
 17 18  1  0  0  0  0
 18 19  1  6  0  0  0
 18 20  1  0  0  0  0
 20 21  1  1  0  0  0
 22 21  1  1  0  0  0
 22 23  1  0  0  0  0
 22 30  1  0  0  0  0
 23 24  1  1  0  0  0
 23 25  1  0  0  0  0
 25 26  1  6  0  0  0
 25 27  1  0  0  0  0
 27 28  1  1  0  0  0
 27 29  1  0  0  0  0
 29 30  1  0  0  0  0
 29 31  1  6  0  0  0
 31 32  1  0  0  0  0
M  CHG  5   4   1  11   1  13   1  16   1  26   1
M  END
>  <CHROM.1>
-148.33464428,87.35796345,-161.75587873,56.74196091,31.19674852,22.32859707
-42.39866739,80.68545236,-59.71739230,95.38142026,-139.27390666,161.78391614
-54.44788453,177.61871870,55.38566727,-60.75082215,-9.73431538,3.80683341
16.49463251,2.62171056,0.93687643,0.38531562

>  <Name>
1lc4

>  <RI>
0

>  <Rbt.Current_Directory>
/home/afrankz/demos/rdock_decoys_rna/rnas/1lc4

>  <Rbt.Executable>
rbdock ($Id: //depot/dev/client3/rdock/2013.1/src/exe/rbdock.cxx#4 $)

>  <Rbt.Library>
libRbt.so (2013.1, Build901 2013/11/27)

>  <Rbt.Parameter_File>
/export/apps/rDock/src/rDock_2013.1_src/data/scripts/dock_solv.prm

>  <Rbt.Receptor>
prm/blind_docking_100.prm

>  <SCORE>
-45.047

>  <SCORE.INTER>
-37.3689

>  <SCORE.INTER.CONST>
1

>  <SCORE.INTER.POLAR>
-6.74351

>  <SCORE.INTER.ROT>
6

>  <SCORE.INTER.SOLV>
32.4547

>  <SCORE.INTER.VDW>
-20.8525

>  <SCORE.INTER.norm>
-1.16778

>  <SCORE.INTRA>
-11.0447

>  <SCORE.INTRA.DIHEDRAL>
-17.9185

>  <SCORE.INTRA.DIHEDRAL.0>
44.2576

>  <SCORE.INTRA.POLAR>
-0.826623

>  <SCORE.INTRA.POLAR.0>
-0.381556

>  <SCORE.INTRA.REPUL>
0

>  <SCORE.INTRA.REPUL.0>
0

>  <SCORE.INTRA.SOLV>
3.17235

>  <SCORE.INTRA.SOLV.lig_0>
-134.592

>  <SCORE.INTRA.VDW>
-0.86107

>  <SCORE.INTRA.VDW.0>
-1.01417

>  <SCORE.INTRA.norm>
-0.345146

>  <SCORE.RESTR>
3.36659

>  <SCORE.RESTR.CAVITY>
3.36659

>  <SCORE.RESTR.norm>
0.105206

>  <SCORE.SYSTEM>
0

>  <SCORE.SYSTEM.CONST>
0

>  <SCORE.SYSTEM.DIHEDRAL>
0

>  <SCORE.SYSTEM.SOLV>
0

>  <SCORE.SYSTEM.norm>
0

>  <SCORE.heavy>
32

>  <SCORE.norm>
-1.40772

>  <RMSD>
7.518

$$$$
1lc4
 OpenBabel02141814113D
libRbt.so/2013.1/901 2013/11/27
 32 34  0  0  0  0  0  0  0  0999 V2000
  -14.5420   10.2919   18.9163 C   0  0  2  0  0  0  0  0  0  0  0  0
  -13.8085   10.6777   17.7809 O   0  0  0  0  0  0  0  0  0  0  0  0
  -16.0425   10.3744   18.5690 C   0  0  2  0  0  0  0  0  0  0  0  0
  -16.3485    9.5139   17.4221 N   0  3  0  0  0  0  0  0  0  0  0  0
  -16.4455   11.8426   18.2960 C   0  0  0  0  0  0  0  0  0  0  0  0
  -16.1243   12.6541   19.5634 C   0  0  2  0  0  0  0  0  0  0  0  0
  -16.5195   14.0197   19.3952 O   0  0  0  0  0  0  0  0  0  0  0  0
  -14.6108   12.5407   19.8733 C   0  0  2  0  0  0  0  0  0  0  0  0
  -14.2305   11.1450   20.0397 O   0  0  0  0  0  0  0  0  0  0  0  0
  -14.1941   13.2696   21.1483 C   0  0  0  0  0  0  0  0  0  0  0  0
  -14.3593   14.7400   21.0060 N   0  3  0  0  0  0  0  0  0  0  0  0
  -12.9572    6.8485   16.1768 C   0  0  2  0  0  0  0  0  0  0  0  0
  -12.2898    5.7204   15.5016 N   0  3  0  0  0  0  0  0  0  0  0  0
  -13.1788    7.9852   15.1882 C   0  0  0  0  0  0  0  0  0  0  0  0
  -13.8691    9.1663   15.8794 C   0  0  2  0  0  0  0  0  0  0  0  0
  -14.1705   10.1977   14.8557 N   0  3  0  0  0  0  0  0  0  0  0  0
  -13.0272    9.6876   17.0823 C   0  0  2  0  0  0  0  0  0  0  0  0
  -12.7495    8.5191   18.0627 C   0  0  2  0  0  0  0  0  0  0  0  0
  -11.8547    8.9486   19.0602 O   0  0  0  0  0  0  0  0  0  0  0  0
  -12.0885    7.3379   17.3339 C   0  0  1  0  0  0  0  0  0  0  0  0
  -11.8822    6.2772   18.2662 O   0  0  0  0  0  0  0  0  0  0  0  0
  -10.6404    5.6614   18.2622 C   0  0  2  0  0  0  0  0  0  0  0  0
  -10.8105    4.1988   18.7074 C   0  0  2  0  0  0  0  0  0  0  0  0
  -11.6938    3.5482   17.8026 O   0  0  0  0  0  0  0  0  0  0  0  0
  -11.3926    4.1613   20.1313 C   0  0  1  0  0  0  0  0  0  0  0  0
  -11.6003    2.7643   20.6103 N   0  3  0  0  0  0  0  0  0  0  0  0
  -10.4502    4.9314   21.0884 C   0  0  2  0  0  0  0  0  0  0  0  0
  -10.9774    4.9354   22.4131 O   0  0  0  0  0  0  0  0  0  0  0  0
  -10.2410    6.3714   20.5841 C   0  0  2  0  0  0  0  0  0  0  0  0
   -9.7715    6.3655   19.1870 O   0  0  0  0  0  0  0  0  0  0  0  0
   -9.2056    7.1159   21.3975 C   0  0  0  0  0  0  0  0  0  0  0  0
   -7.8869    6.8883   20.9050 O   0  0  0  0  0  0  0  0  0  0  0  0
  1  2  1  6  0  0  0
  1  3  1  0  0  0  0
  1  9  1  0  0  0  0
  3  4  1  6  0  0  0
  3  5  1  0  0  0  0
  5  6  1  0  0  0  0
  6  7  1  6  0  0  0
  6  8  1  0  0  0  0
  8  9  1  0  0  0  0
  8 10  1  1  0  0  0
 10 11  1  0  0  0  0
 12 13  1  6  0  0  0
 12 14  1  0  0  0  0
 12 20  1  0  0  0  0
 14 15  1  0  0  0  0
 15 16  1  6  0  0  0
 15 17  1  0  0  0  0
 17  2  1  1  0  0  0
 17 18  1  0  0  0  0
 18 19  1  1  0  0  0
 18 20  1  0  0  0  0
 20 21  1  1  0  0  0
 22 21  1  1  0  0  0
 22 23  1  0  0  0  0
 22 30  1  0  0  0  0
 23 24  1  6  0  0  0
 23 25  1  0  0  0  0
 25 26  1  1  0  0  0
 25 27  1  0  0  0  0
 27 28  1  1  0  0  0
 27 29  1  0  0  0  0
 29 30  1  0  0  0  0
 29 31  1  1  0  0  0
 31 32  1  0  0  0  0
M  CHG  5   4   1  11   1  13   1  16   1  26   1
M  END
>  <CHROM.1>
-111.44109480,96.81946065,44.82416948,65.89707974,-66.23162765,-90.01453741
-61.92966889,118.28468300,-66.00199505,104.52583457,-150.44571102,162.41036510
111.24818270,-71.00875989,86.69936473,80.96788089,-12.80396342,8.39351840
18.77381289,-2.62040363,0.91700037,-2.27980180

>  <Name>
1lc4

>  <RI>
0

>  <Rbt.Current_Directory>
/home/afrankz/demos/rdock_decoys_rna/rnas/1lc4

>  <Rbt.Executable>
rbdock ($Id: //depot/dev/client3/rdock/2013.1/src/exe/rbdock.cxx#4 $)

>  <Rbt.Library>
libRbt.so (2013.1, Build901 2013/11/27)

>  <Rbt.Parameter_File>
/export/apps/rDock/src/rDock_2013.1_src/data/scripts/dock_solv.prm

>  <Rbt.Receptor>
prm/pocket_docking_7.prm

>  <SCORE>
-41.4441

>  <SCORE.INTER>
-34.9254

>  <SCORE.INTER.CONST>
1

>  <SCORE.INTER.POLAR>
-5.55176

>  <SCORE.INTER.ROT>
6

>  <SCORE.INTER.SOLV>
19.0604

>  <SCORE.INTER.VDW>
-18.7312

>  <SCORE.INTER.norm>
-1.09142

>  <SCORE.INTRA>
-6.51876

>  <SCORE.INTRA.DIHEDRAL>
-6.97853

>  <SCORE.INTRA.DIHEDRAL.0>
44.2576

>  <SCORE.INTRA.POLAR>
-1.57076

>  <SCORE.INTRA.POLAR.0>
-0.381556

>  <SCORE.INTRA.REPUL>
0

>  <SCORE.INTRA.REPUL.0>
0

>  <SCORE.INTRA.SOLV>
4.04362

>  <SCORE.INTRA.SOLV.lig_0>
-134.592

>  <SCORE.INTRA.VDW>
0.289277

>  <SCORE.INTRA.VDW.0>
-1.01417

>  <SCORE.INTRA.norm>
-0.203711

>  <SCORE.RESTR>
0

>  <SCORE.RESTR.CAVITY>
0

>  <SCORE.RESTR.norm>
0

>  <SCORE.SYSTEM>
0

>  <SCORE.SYSTEM.CONST>
0

>  <SCORE.SYSTEM.DIHEDRAL>
0

>  <SCORE.SYSTEM.SOLV>
0

>  <SCORE.SYSTEM.norm>
0

>  <SCORE.heavy>
32

>  <SCORE.norm>
-1.29513

>  <RMSD>
7.550

$$$$
1lc4
 OpenBabel02141814113D
libRbt.so/2013.1/901 2013/11/27
 32 34  0  0  0  0  0  0  0  0999 V2000
  -16.6746   13.4753   17.6704 C   0  0  2  0  0  0  0  0  0  0  0  0
  -15.9002   12.7826   16.7235 O   0  0  0  0  0  0  0  0  0  0  0  0
  -17.6153   14.4340   16.9122 C   0  0  2  0  0  0  0  0  0  0  0  0
  -18.4629   13.6850   15.9794 N   0  3  0  0  0  0  0  0  0  0  0  0
  -16.7913   15.5187   16.1792 C   0  0  0  0  0  0  0  0  0  0  0  0
  -15.9699   16.2718   17.2402 C   0  0  2  0  0  0  0  0  0  0  0  0
  -15.2169   17.3267   16.6323 O   0  0  0  0  0  0  0  0  0  0  0  0
  -15.0436   15.2710   17.9750 C   0  0  2  0  0  0  0  0  0  0  0  0
  -15.8288   14.2072   18.5847 O   0  0  0  0  0  0  0  0  0  0  0  0
  -14.2198   15.9100   19.0903 C   0  0  0  0  0  0  0  0  0  0  0  0
  -13.7332   14.8875   20.0533 N   0  3  0  0  0  0  0  0  0  0  0  0
  -13.4047    9.3574   16.7032 C   0  0  2  0  0  0  0  0  0  0  0  0
  -12.8928    7.9861   16.8802 N   0  3  0  0  0  0  0  0  0  0  0  0
  -13.7525    9.9588   18.0581 C   0  0  0  0  0  0  0  0  0  0  0  0
  -14.2897   11.3841   17.8870 C   0  0  2  0  0  0  0  0  0  0  0  0
  -14.5018   11.9699   19.2340 N   0  3  0  0  0  0  0  0  0  0  0  0
  -15.5527   11.4061   16.9751 C   0  0  2  0  0  0  0  0  0  0  0  0
  -15.2187   10.7414   15.6148 C   0  0  2  0  0  0  0  0  0  0  0  0
  -16.3966   10.6126   14.8558 O   0  0  0  0  0  0  0  0  0  0  0  0
  -14.6510    9.3276   15.8207 C   0  0  1  0  0  0  0  0  0  0  0  0
  -14.3290    8.7695   14.5473 O   0  0  0  0  0  0  0  0  0  0  0  0
  -14.3441    7.3878   14.4379 C   0  0  2  0  0  0  0  0  0  0  0  0
  -13.2794    6.9595   13.4135 C   0  0  2  0  0  0  0  0  0  0  0  0
  -12.0084    7.4112   13.8634 O   0  0  0  0  0  0  0  0  0  0  0  0
  -13.6062    7.5820   12.0447 C   0  0  1  0  0  0  0  0  0  0  0  0
  -12.5931    7.2180   11.0126 N   0  3  0  0  0  0  0  0  0  0  0  0
  -15.0202    7.1315   11.6035 C   0  0  2  0  0  0  0  0  0  0  0  0
  -15.3615    7.7140   10.3478 O   0  0  0  0  0  0  0  0  0  0  0  0
  -16.0580    7.5103   12.6765 C   0  0  2  0  0  0  0  0  0  0  0  0
  -15.6609    6.9732   13.9904 O   0  0  0  0  0  0  0  0  0  0  0  0
  -17.4295    6.9534   12.3652 C   0  0  0  0  0  0  0  0  0  0  0  0
  -18.4395    7.5662   13.1638 O   0  0  0  0  0  0  0  0  0  0  0  0
  1  2  1  6  0  0  0
  1  3  1  0  0  0  0
  1  9  1  0  0  0  0
  3  4  1  6  0  0  0
  3  5  1  0  0  0  0
  5  6  1  0  0  0  0
  6  7  1  6  0  0  0
  6  8  1  0  0  0  0
  8  9  1  0  0  0  0
  8 10  1  1  0  0  0
 10 11  1  0  0  0  0
 12 13  1  1  0  0  0
 12 14  1  0  0  0  0
 12 20  1  0  0  0  0
 14 15  1  0  0  0  0
 15 16  1  1  0  0  0
 15 17  1  0  0  0  0
 17  2  1  6  0  0  0
 17 18  1  0  0  0  0
 18 19  1  6  0  0  0
 18 20  1  0  0  0  0
 20 21  1  6  0  0  0
 22 21  1  6  0  0  0
 22 23  1  0  0  0  0
 22 30  1  0  0  0  0
 23 24  1  1  0  0  0
 23 25  1  0  0  0  0
 25 26  1  6  0  0  0
 25 27  1  0  0  0  0
 27 28  1  6  0  0  0
 27 29  1  0  0  0  0
 29 30  1  0  0  0  0
 29 31  1  6  0  0  0
 31 32  1  0  0  0  0
M  CHG  5   4   1  11   1  13   1  16   1  26   1
M  END
>  <CHROM.1>
-144.35670604,-83.65404585,72.79795206,63.13839905,159.96348600,-66.80027069
-172.35102317,61.33133831,178.51029311,84.42155411,-147.73422765,179.84989572
173.11743691,78.12967493,-165.67568290,-60.30927177,-15.12559022,10.79105418
15.56152086,1.69081208,-0.65230055,0.67950963

>  <Name>
1lc4

>  <RI>
0

>  <Rbt.Current_Directory>
/home/afrankz/demos/rdock_decoys_rna/rnas/1lc4

>  <Rbt.Executable>
rbdock ($Id: //depot/dev/client3/rdock/2013.1/src/exe/rbdock.cxx#4 $)

>  <Rbt.Library>
libRbt.so (2013.1, Build901 2013/11/27)

>  <Rbt.Parameter_File>
/export/apps/rDock/src/rDock_2013.1_src/data/scripts/dock_solv.prm

>  <Rbt.Receptor>
prm/blind_docking_40.prm

>  <SCORE>
-28.8868

>  <SCORE.INTER>
-14.1277

>  <SCORE.INTER.CONST>
1

>  <SCORE.INTER.POLAR>
-2.27777

>  <SCORE.INTER.ROT>
6

>  <SCORE.INTER.SOLV>
28.6538

>  <SCORE.INTER.VDW>
-18.9771

>  <SCORE.INTER.norm>
-0.441489

>  <SCORE.INTRA>
-19.3014

>  <SCORE.INTRA.DIHEDRAL>
-26.1557

>  <SCORE.INTRA.DIHEDRAL.0>
44.2576

>  <SCORE.INTRA.POLAR>
-1.83449

>  <SCORE.INTRA.POLAR.0>
-0.381556

>  <SCORE.INTRA.REPUL>
0

>  <SCORE.INTRA.REPUL.0>
0

>  <SCORE.INTRA.SOLV>
6.88005

>  <SCORE.INTRA.SOLV.lig_0>
-134.592

>  <SCORE.INTRA.VDW>
-3.42627

>  <SCORE.INTRA.VDW.0>
-1.01417

>  <SCORE.INTRA.norm>
-0.603169

>  <SCORE.RESTR>
4.54227

>  <SCORE.RESTR.CAVITY>
4.54227

>  <SCORE.RESTR.norm>
0.141946

>  <SCORE.SYSTEM>
0

>  <SCORE.SYSTEM.CONST>
0

>  <SCORE.SYSTEM.DIHEDRAL>
0

>  <SCORE.SYSTEM.SOLV>
0

>  <SCORE.SYSTEM.norm>
0

>  <SCORE.heavy>
32

>  <SCORE.norm>
-0.902712

>  <RMSD>
7.585

$$$$
1lc4
 OpenBabel02141814113D
libRbt.so/2013.1/901 2013/11/27
 32 34  0  0  0  0  0  0  0  0999 V2000
  -13.5160    7.9113   14.1878 C   0  0  2  0  0  0  0  0  0  0  0  0
  -14.0017    6.8336   14.9484 O   0  0  0  0  0  0  0  0  0  0  0  0
  -14.5683    8.2532   13.1132 C   0  0  2  0  0  0  0  0  0  0  0  0
  -15.8509    8.5832   13.7424 N   0  3  0  0  0  0  0  0  0  0  0  0
  -14.7140    7.0779   12.1183 C   0  0  0  0  0  0  0  0  0  0  0  0
  -13.3333    6.8342   11.4843 C   0  0  2  0  0  0  0  0  0  0  0  0
  -13.4081    5.7854   10.5129 O   0  0  0  0  0  0  0  0  0  0  0  0
  -12.3114    6.4969   12.5985 C   0  0  2  0  0  0  0  0  0  0  0  0
  -12.2516    7.5752   13.5751 O   0  0  0  0  0  0  0  0  0  0  0  0
  -10.8909    6.2889   12.0792 C   0  0  0  0  0  0  0  0  0  0  0  0
  -10.8502    5.2367   11.0299 N   0  3  0  0  0  0  0  0  0  0  0  0
  -14.1522    6.4165   19.1630 C   0  0  2  0  0  0  0  0  0  0  0  0
  -13.7722    6.2161   20.5735 N   0  3  0  0  0  0  0  0  0  0  0  0
  -13.8019    5.1766   18.3516 C   0  0  0  0  0  0  0  0  0  0  0  0
  -14.1891    5.3740   16.8818 C   0  0  2  0  0  0  0  0  0  0  0  0
  -13.9403    4.1032   16.1567 N   0  3  0  0  0  0  0  0  0  0  0  0
  -13.4669    6.6109   16.2686 C   0  0  2  0  0  0  0  0  0  0  0  0
  -13.7739    7.8654   17.1263 C   0  0  2  0  0  0  0  0  0  0  0  0
  -12.9937    8.9447   16.6719 O   0  0  0  0  0  0  0  0  0  0  0  0
  -13.4069    7.6249   18.5997 C   0  0  1  0  0  0  0  0  0  0  0  0
  -13.7361    8.7910   19.3538 O   0  0  0  0  0  0  0  0  0  0  0  0
  -12.9420    9.9118   19.1681 C   0  0  2  0  0  0  0  0  0  0  0  0
  -12.8707   10.6940   20.4908 C   0  0  2  0  0  0  0  0  0  0  0  0
  -12.3150    9.8479   21.4895 O   0  0  0  0  0  0  0  0  0  0  0  0
  -14.2863   11.1356   20.9015 C   0  0  1  0  0  0  0  0  0  0  0  0
  -14.2828   11.8827   22.1922 N   0  3  0  0  0  0  0  0  0  0  0  0
  -14.8989   12.0001   19.7727 C   0  0  2  0  0  0  0  0  0  0  0  0
  -16.2229   12.4038   20.1147 O   0  0  0  0  0  0  0  0  0  0  0  0
  -14.8962   11.2205   18.4446 C   0  0  2  0  0  0  0  0  0  0  0  0
  -13.5392   10.7362   18.1338 O   0  0  0  0  0  0  0  0  0  0  0  0
  -15.3398   12.0771   17.2795 C   0  0  0  0  0  0  0  0  0  0  0  0
  -16.7059   12.4664   17.4031 O   0  0  0  0  0  0  0  0  0  0  0  0
  1  2  1  6  0  0  0
  1  3  1  0  0  0  0
  1  9  1  0  0  0  0
  3  4  1  1  0  0  0
  3  5  1  0  0  0  0
  5  6  1  0  0  0  0
  6  7  1  6  0  0  0
  6  8  1  0  0  0  0
  8  9  1  0  0  0  0
  8 10  1  6  0  0  0
 10 11  1  0  0  0  0
 12 13  1  1  0  0  0
 12 14  1  0  0  0  0
 12 20  1  0  0  0  0
 14 15  1  0  0  0  0
 15 16  1  6  0  0  0
 15 17  1  0  0  0  0
 17  2  1  6  0  0  0
 17 18  1  0  0  0  0
 18 19  1  6  0  0  0
 18 20  1  0  0  0  0
 20 21  1  1  0  0  0
 22 21  1  1  0  0  0
 22 23  1  0  0  0  0
 22 30  1  0  0  0  0
 23 24  1  1  0  0  0
 23 25  1  0  0  0  0
 25 26  1  1  0  0  0
 25 27  1  0  0  0  0
 27 28  1  1  0  0  0
 27 29  1  0  0  0  0
 29 30  1  0  0  0  0
 29 31  1  6  0  0  0
 31 32  1  0  0  0  0
M  CHG  5   4   1  11   1  13   1  16   1  26   1
M  END
>  <CHROM.1>
-158.73316582,179.37075863,173.00226482,-45.67114747,-55.84445638,157.12305693
-177.44598126,57.37296857,-58.03545844,166.54751298,-147.71172856,170.96747566
176.25924479,69.88176006,-65.73512919,-60.22176124,-13.79874566,8.39269101
16.69828902,1.12698011,1.19839557,-1.69237663

>  <Name>
1lc4

>  <RI>
0

>  <Rbt.Current_Directory>
/home/afrankz/demos/rdock_decoys_rna/rnas/1lc4

>  <Rbt.Executable>
rbdock ($Id: //depot/dev/client3/rdock/2013.1/src/exe/rbdock.cxx#4 $)

>  <Rbt.Library>
libRbt.so (2013.1, Build901 2013/11/27)

>  <Rbt.Parameter_File>
/export/apps/rDock/src/rDock_2013.1_src/data/scripts/dock_solv.prm

>  <Rbt.Receptor>
prm/pocket_docking_4.prm

>  <SCORE>
-48.296

>  <SCORE.INTER>
-28.9295

>  <SCORE.INTER.CONST>
1

>  <SCORE.INTER.POLAR>
-4.48936

>  <SCORE.INTER.ROT>
6

>  <SCORE.INTER.SOLV>
15.2258

>  <SCORE.INTER.VDW>
-16.9971

>  <SCORE.INTER.norm>
-0.904046

>  <SCORE.INTRA>
-19.3974

>  <SCORE.INTRA.DIHEDRAL>
-33.8848

>  <SCORE.INTRA.DIHEDRAL.0>
44.2576

>  <SCORE.INTRA.POLAR>
-0.41807

>  <SCORE.INTRA.POLAR.0>
-0.381556

>  <SCORE.INTRA.REPUL>
0

>  <SCORE.INTRA.REPUL.0>
0

>  <SCORE.INTRA.SOLV>
-1.83631

>  <SCORE.INTRA.SOLV.lig_0>
-134.592

>  <SCORE.INTRA.VDW>
-0.115365

>  <SCORE.INTRA.VDW.0>
-1.01417

>  <SCORE.INTRA.norm>
-0.606167

>  <SCORE.RESTR>
0.030785

>  <SCORE.RESTR.CAVITY>
0.030785

>  <SCORE.RESTR.norm>
0.000962031

>  <SCORE.SYSTEM>
0

>  <SCORE.SYSTEM.CONST>
0

>  <SCORE.SYSTEM.DIHEDRAL>
0

>  <SCORE.SYSTEM.SOLV>
0

>  <SCORE.SYSTEM.norm>
0

>  <SCORE.heavy>
32

>  <SCORE.norm>
-1.50925

>  <RMSD>
7.612

$$$$
1lc4
 OpenBabel02141814113D
libRbt.so/2013.1/901 2013/11/27
 32 34  0  0  0  0  0  0  0  0999 V2000
  -15.3697    6.1427   13.0740 C   0  0  2  0  0  0  0  0  0  0  0  0
  -15.1660    5.7209   14.3993 O   0  0  0  0  0  0  0  0  0  0  0  0
  -15.6544    4.8959   12.2119 C   0  0  2  0  0  0  0  0  0  0  0  0
  -16.8245    4.1771   12.7257 N   0  3  0  0  0  0  0  0  0  0  0  0
  -14.4063    3.9832   12.1678 C   0  0  0  0  0  0  0  0  0  0  0  0
  -13.2487    4.8101   11.5814 C   0  0  2  0  0  0  0  0  0  0  0  0
  -12.0692    4.0069   11.4674 O   0  0  0  0  0  0  0  0  0  0  0  0
  -13.0006    6.0494   12.4769 C   0  0  2  0  0  0  0  0  0  0  0  0
  -14.2117    6.8512   12.5799 O   0  0  0  0  0  0  0  0  0  0  0  0
  -11.9019    6.9701   11.9517 C   0  0  0  0  0  0  0  0  0  0  0  0
  -10.6180    6.2383   11.7905 N   0  3  0  0  0  0  0  0  0  0  0  0
  -14.2492    9.1535   16.7095 C   0  0  2  0  0  0  0  0  0  0  0  0
  -14.2768   10.2049   17.7428 N   0  3  0  0  0  0  0  0  0  0  0  0
  -15.5487    9.1735   15.9162 C   0  0  0  0  0  0  0  0  0  0  0  0
  -15.5338    8.0818   14.8405 C   0  0  2  0  0  0  0  0  0  0  0  0
  -16.7630    8.2158   14.0196 N   0  3  0  0  0  0  0  0  0  0  0  0
  -15.3376    6.6704   15.4706 C   0  0  2  0  0  0  0  0  0  0  0  0
  -14.0455    6.6629   16.3273 C   0  0  2  0  0  0  0  0  0  0  0  0
  -13.9552    5.4450   17.0264 O   0  0  0  0  0  0  0  0  0  0  0  0
  -14.0752    7.7890   17.3735 C   0  0  1  0  0  0  0  0  0  0  0  0
  -12.8556    7.7633   18.1142 O   0  0  0  0  0  0  0  0  0  0  0  0
  -12.9478    7.5549   19.4814 C   0  0  2  0  0  0  0  0  0  0  0  0
  -11.7723    8.2669   20.1723 C   0  0  2  0  0  0  0  0  0  0  0  0
  -11.8426    9.6552   19.8727 O   0  0  0  0  0  0  0  0  0  0  0  0
  -10.4454    7.6827   19.6568 C   0  0  1  0  0  0  0  0  0  0  0  0
   -9.2654    8.3510   20.2775 N   0  3  0  0  0  0  0  0  0  0  0  0
  -10.4169    6.1595   19.9327 C   0  0  2  0  0  0  0  0  0  0  0  0
   -9.2077    5.5850   19.4422 O   0  0  0  0  0  0  0  0  0  0  0  0
  -11.6398    5.4795   19.2894 C   0  0  2  0  0  0  0  0  0  0  0  0
  -12.8854    6.1277   19.7375 O   0  0  0  0  0  0  0  0  0  0  0  0
  -11.7411    4.0171   19.6623 C   0  0  0  0  0  0  0  0  0  0  0  0
  -12.5161    3.2853   18.7151 O   0  0  0  0  0  0  0  0  0  0  0  0
  1  2  1  1  0  0  0
  1  3  1  0  0  0  0
  1  9  1  0  0  0  0
  3  4  1  1  0  0  0
  3  5  1  0  0  0  0
  5  6  1  0  0  0  0
  6  7  1  1  0  0  0
  6  8  1  0  0  0  0
  8  9  1  0  0  0  0
  8 10  1  6  0  0  0
 10 11  1  0  0  0  0
 12 13  1  1  0  0  0
 12 14  1  0  0  0  0
 12 20  1  0  0  0  0
 14 15  1  0  0  0  0
 15 16  1  1  0  0  0
 15 17  1  0  0  0  0
 17  2  1  6  0  0  0
 17 18  1  0  0  0  0
 18 19  1  1  0  0  0
 18 20  1  0  0  0  0
 20 21  1  6  0  0  0
 22 21  1  6  0  0  0
 22 23  1  0  0  0  0
 22 30  1  0  0  0  0
 23 24  1  6  0  0  0
 23 25  1  0  0  0  0
 25 26  1  1  0  0  0
 25 27  1  0  0  0  0
 27 28  1  6  0  0  0
 27 29  1  0  0  0  0
 29 30  1  0  0  0  0
 29 31  1  1  0  0  0
 31 32  1  0  0  0  0
M  CHG  5   4   1  11   1  13   1  16   1  26   1
M  END
>  <CHROM.1>
-158.81783789,-8.10046871,-163.24364651,56.06686004,-57.23365824,143.64710319
32.89524425,-19.85608234,-54.83059239,118.59705245,-150.19133703,-69.83557776
82.11003738,179.10070929,-157.71280907,-33.04150319,-13.21874925,6.58589241
16.13703279,2.08479411,0.67669197,-2.12841290

>  <Name>
1lc4

>  <RI>
0

>  <Rbt.Current_Directory>
/home/afrankz/demos/rdock_decoys_rna/rnas/1lc4

>  <Rbt.Executable>
rbdock ($Id: //depot/dev/client3/rdock/2013.1/src/exe/rbdock.cxx#4 $)

>  <Rbt.Library>
libRbt.so (2013.1, Build901 2013/11/27)

>  <Rbt.Parameter_File>
/export/apps/rDock/src/rDock_2013.1_src/data/scripts/dock_solv.prm

>  <Rbt.Receptor>
prm/pocket_docking_3.prm

>  <SCORE>
-49.1052

>  <SCORE.INTER>
-41.3467

>  <SCORE.INTER.CONST>
1

>  <SCORE.INTER.POLAR>
-7.85987

>  <SCORE.INTER.ROT>
6

>  <SCORE.INTER.SOLV>
20.5656

>  <SCORE.INTER.VDW>
-15.8201

>  <SCORE.INTER.norm>
-1.29208

>  <SCORE.INTRA>
-7.81855

>  <SCORE.INTRA.DIHEDRAL>
-10.9131

>  <SCORE.INTRA.DIHEDRAL.0>
44.2576

>  <SCORE.INTRA.POLAR>
-1.88095

>  <SCORE.INTRA.POLAR.0>
-0.381556

>  <SCORE.INTRA.REPUL>
0

>  <SCORE.INTRA.REPUL.0>
0

>  <SCORE.INTRA.SOLV>
1.37162

>  <SCORE.INTRA.SOLV.lig_0>
-134.592

>  <SCORE.INTRA.VDW>
3.34744

>  <SCORE.INTRA.VDW.0>
-1.01417

>  <SCORE.INTRA.norm>
-0.24433

>  <SCORE.RESTR>
0.0600598

>  <SCORE.RESTR.CAVITY>
0.0600598

>  <SCORE.RESTR.norm>
0.00187687

>  <SCORE.SYSTEM>
0

>  <SCORE.SYSTEM.CONST>
0

>  <SCORE.SYSTEM.DIHEDRAL>
0

>  <SCORE.SYSTEM.SOLV>
0

>  <SCORE.SYSTEM.norm>
0

>  <SCORE.heavy>
32

>  <SCORE.norm>
-1.53454

>  <RMSD>
7.659

$$$$
1lc4
 OpenBabel02141814113D
libRbt.so/2013.1/901 2013/11/27
 32 34  0  0  0  0  0  0  0  0999 V2000
  -11.6291    4.8850   19.7847 C   0  0  2  0  0  0  0  0  0  0  0  0
  -11.1788    3.5659   19.6021 O   0  0  0  0  0  0  0  0  0  0  0  0
  -10.8703    5.4895   20.9837 C   0  0  2  0  0  0  0  0  0  0  0  0
   -9.4244    5.4509   20.7440 N   0  3  0  0  0  0  0  0  0  0  0  0
  -11.2467    4.7407   22.2838 C   0  0  0  0  0  0  0  0  0  0  0  0
  -12.7688    4.8704   22.4685 C   0  0  2  0  0  0  0  0  0  0  0  0
  -13.1798    4.2373   23.6849 O   0  0  0  0  0  0  0  0  0  0  0  0
  -13.4871    4.2531   21.2427 C   0  0  2  0  0  0  0  0  0  0  0  0
  -13.0546    4.9102   20.0175 O   0  0  0  0  0  0  0  0  0  0  0  0
  -15.0075    4.3785   21.3011 C   0  0  0  0  0  0  0  0  0  0  0  0
  -15.6648    3.3623   20.4379 N   0  3  0  0  0  0  0  0  0  0  0  0
  -10.3410    0.8706   16.4408 C   0  0  2  0  0  0  0  0  0  0  0  0
  -10.4084    0.1224   15.1722 N   0  3  0  0  0  0  0  0  0  0  0  0
  -11.5997    0.6163   17.2590 C   0  0  0  0  0  0  0  0  0  0  0  0
  -11.5434    1.3922   18.5796 C   0  0  2  0  0  0  0  0  0  0  0  0
  -12.7293    1.0222   19.3916 N   0  3  0  0  0  0  0  0  0  0  0  0
  -11.3929    2.9226   18.3297 C   0  0  2  0  0  0  0  0  0  0  0  0
  -10.1445    3.1812   17.4474 C   0  0  2  0  0  0  0  0  0  0  0  0
  -10.1013    4.5403   17.0855 O   0  0  0  0  0  0  0  0  0  0  0  0
  -10.2140    2.3641   16.1470 C   0  0  1  0  0  0  0  0  0  0  0  0
   -9.0325    2.6085   15.3846 O   0  0  0  0  0  0  0  0  0  0  0  0
   -9.1361    2.5132   14.0057 C   0  0  2  0  0  0  0  0  0  0  0  0
   -7.8195    1.9468   13.4471 C   0  0  2  0  0  0  0  0  0  0  0  0
   -7.5965    0.6651   14.0212 O   0  0  0  0  0  0  0  0  0  0  0  0
   -6.6614    2.8942   13.8062 C   0  0  1  0  0  0  0  0  0  0  0  0
   -5.3515    2.3847   13.3076 N   0  3  0  0  0  0  0  0  0  0  0  0
   -6.9548    4.3007   13.2292 C   0  0  2  0  0  0  0  0  0  0  0  0
   -5.9089    5.2084   13.5682 O   0  0  0  0  0  0  0  0  0  0  0  0
   -8.3096    4.8167   13.7486 C   0  0  2  0  0  0  0  0  0  0  0  0
   -9.3761    3.8391   13.4667 O   0  0  0  0  0  0  0  0  0  0  0  0
   -8.7145    6.1175   13.0915 C   0  0  0  0  0  0  0  0  0  0  0  0
  -10.0179    6.5288   13.4982 O   0  0  0  0  0  0  0  0  0  0  0  0
  1  2  1  1  0  0  0
  1  3  1  0  0  0  0
  1  9  1  0  0  0  0
  3  4  1  6  0  0  0
  3  5  1  0  0  0  0
  5  6  1  0  0  0  0
  6  7  1  1  0  0  0
  6  8  1  0  0  0  0
  8  9  1  0  0  0  0
  8 10  1  1  0  0  0
 10 11  1  0  0  0  0
 12 13  1  6  0  0  0
 12 14  1  0  0  0  0
 12 20  1  0  0  0  0
 14 15  1  0  0  0  0
 15 16  1  6  0  0  0
 15 17  1  0  0  0  0
 17  2  1  1  0  0  0
 17 18  1  0  0  0  0
 18 19  1  6  0  0  0
 18 20  1  0  0  0  0
 20 21  1  6  0  0  0
 22 21  1  1  0  0  0
 22 23  1  0  0  0  0
 22 30  1  0  0  0  0
 23 24  1  1  0  0  0
 23 25  1  0  0  0  0
 25 26  1  6  0  0  0
 25 27  1  0  0  0  0
 27 28  1  1  0  0  0
 27 29  1  0  0  0  0
 29 30  1  0  0  0  0
 29 31  1  6  0  0  0
 31 32  1  0  0  0  0
M  CHG  5   4   1  11   1  13   1  16   1  26   1
M  END
>  <CHROM.1>
-160.46508159,-149.92480836,-173.97147313,179.26647985,-157.99722756,-58.76667933
65.69115998,-179.26738330,67.74336362,87.44185742,-145.29535552,160.67227122
-174.74137968,67.25857448,175.22200130,-57.81279966,-10.33210808,3.46368056
17.26706980,-2.67210875,-0.87677702,-2.65661184

>  <Name>
1lc4

>  <RI>
0

>  <Rbt.Current_Directory>
/home/afrankz/demos/rdock_decoys_rna/rnas/1lc4

>  <Rbt.Executable>
rbdock ($Id: //depot/dev/client3/rdock/2013.1/src/exe/rbdock.cxx#4 $)

>  <Rbt.Library>
libRbt.so (2013.1, Build901 2013/11/27)

>  <Rbt.Parameter_File>
/export/apps/rDock/src/rDock_2013.1_src/data/scripts/dock_solv.prm

>  <Rbt.Receptor>
prm/blind_docking_100.prm

>  <SCORE>
-48.3113

>  <SCORE.INTER>
-32.0055

>  <SCORE.INTER.CONST>
1

>  <SCORE.INTER.POLAR>
-4.55847

>  <SCORE.INTER.ROT>
6

>  <SCORE.INTER.SOLV>
24.3096

>  <SCORE.INTER.VDW>
-21.8453

>  <SCORE.INTER.norm>
-1.00017

>  <SCORE.INTRA>
-20.0855

>  <SCORE.INTRA.DIHEDRAL>
-27.0656

>  <SCORE.INTRA.DIHEDRAL.0>
44.2576

>  <SCORE.INTRA.POLAR>
-0.809577

>  <SCORE.INTRA.POLAR.0>
-0.381556

>  <SCORE.INTRA.REPUL>
0

>  <SCORE.INTRA.REPUL.0>
0

>  <SCORE.INTRA.SOLV>
0.874584

>  <SCORE.INTRA.SOLV.lig_0>
-134.592

>  <SCORE.INTRA.VDW>
-4.23742

>  <SCORE.INTRA.VDW.0>
-1.01417

>  <SCORE.INTRA.norm>
-0.627671

>  <SCORE.RESTR>
3.77976

>  <SCORE.RESTR.CAVITY>
3.77976

>  <SCORE.RESTR.norm>
0.118118

>  <SCORE.SYSTEM>
0

>  <SCORE.SYSTEM.CONST>
0

>  <SCORE.SYSTEM.DIHEDRAL>
0

>  <SCORE.SYSTEM.SOLV>
0

>  <SCORE.SYSTEM.norm>
0

>  <SCORE.heavy>
32

>  <SCORE.norm>
-1.50973

>  <RMSD>
7.677

$$$$
1lc4
 OpenBabel02141814113D
libRbt.so/2013.1/901 2013/11/27
 32 34  0  0  0  0  0  0  0  0999 V2000
  -12.9824    2.2783   16.6528 C   0  0  2  0  0  0  0  0  0  0  0  0
  -11.6416    2.1539   17.0564 O   0  0  0  0  0  0  0  0  0  0  0  0
  -13.2984    1.1272   15.6761 C   0  0  2  0  0  0  0  0  0  0  0  0
  -13.0560   -0.1680   16.3191 N   0  3  0  0  0  0  0  0  0  0  0  0
  -12.4621    1.2809   14.3840 C   0  0  0  0  0  0  0  0  0  0  0  0
  -12.8130    2.6453   13.7650 C   0  0  2  0  0  0  0  0  0  0  0  0
  -12.1061    2.8317   12.5343 O   0  0  0  0  0  0  0  0  0  0  0  0
  -12.4813    3.7677   14.7797 C   0  0  2  0  0  0  0  0  0  0  0  0
  -13.2094    3.5587   16.0232 O   0  0  0  0  0  0  0  0  0  0  0  0
  -12.8438    5.1648   14.2823 C   0  0  0  0  0  0  0  0  0  0  0  0
  -14.2930    5.2645   13.9669 N   0  3  0  0  0  0  0  0  0  0  0  0
  -12.2445    3.8812   20.8790 C   0  0  2  0  0  0  0  0  0  0  0  0
  -12.0178    4.4340   22.2269 N   0  3  0  0  0  0  0  0  0  0  0  0
  -11.7950    2.4271   20.8338 C   0  0  0  0  0  0  0  0  0  0  0  0
  -12.0223    1.8417   19.4357 C   0  0  2  0  0  0  0  0  0  0  0  0
  -11.6828    0.3974   19.4713 N   0  3  0  0  0  0  0  0  0  0  0  0
  -11.2510    2.6524   18.3516 C   0  0  2  0  0  0  0  0  0  0  0  0
  -11.6626    4.1449   18.4331 C   0  0  2  0  0  0  0  0  0  0  0  0
  -10.8492    4.9019   17.5698 O   0  0  0  0  0  0  0  0  0  0  0  0
  -11.4553    4.6935   19.8542 C   0  0  1  0  0  0  0  0  0  0  0  0
  -11.8768    6.0566   19.8889 O   0  0  0  0  0  0  0  0  0  0  0  0
  -11.1062    6.9769   19.1957 C   0  0  2  0  0  0  0  0  0  0  0  0
  -10.1370    7.6540   20.1798 C   0  0  2  0  0  0  0  0  0  0  0  0
   -9.3136    6.6543   20.7668 O   0  0  0  0  0  0  0  0  0  0  0  0
  -10.9411    8.3826   21.2708 C   0  0  1  0  0  0  0  0  0  0  0  0
  -10.0516    9.0425   22.2695 N   0  3  0  0  0  0  0  0  0  0  0  0
  -11.8793    9.4198   20.6067 C   0  0  2  0  0  0  0  0  0  0  0  0
  -12.6570   10.0942   21.5931 O   0  0  0  0  0  0  0  0  0  0  0  0
  -12.7918    8.7287   19.5765 C   0  0  2  0  0  0  0  0  0  0  0  0
  -11.9876    7.9667   18.6044 O   0  0  0  0  0  0  0  0  0  0  0  0
  -13.6172    9.7217   18.7888 C   0  0  0  0  0  0  0  0  0  0  0  0
  -14.5574   10.4000   19.6190 O   0  0  0  0  0  0  0  0  0  0  0  0
  1  2  1  6  0  0  0
  1  3  1  0  0  0  0
  1  9  1  0  0  0  0
  3  4  1  1  0  0  0
  3  5  1  0  0  0  0
  5  6  1  0  0  0  0
  6  7  1  6  0  0  0
  6  8  1  0  0  0  0
  8  9  1  0  0  0  0
  8 10  1  6  0  0  0
 10 11  1  0  0  0  0
 12 13  1  1  0  0  0
 12 14  1  0  0  0  0
 12 20  1  0  0  0  0
 14 15  1  0  0  0  0
 15 16  1  1  0  0  0
 15 17  1  0  0  0  0
 17  2  1  6  0  0  0
 17 18  1  0  0  0  0
 18 19  1  6  0  0  0
 18 20  1  0  0  0  0
 20 21  1  6  0  0  0
 22 21  1  1  0  0  0
 22 23  1  0  0  0  0
 22 30  1  0  0  0  0
 23 24  1  1  0  0  0
 23 25  1  0  0  0  0
 25 26  1  1  0  0  0
 25 27  1  0  0  0  0
 27 28  1  1  0  0  0
 27 29  1  0  0  0  0
 29 30  1  0  0  0  0
 29 31  1  6  0  0  0
 31 32  1  0  0  0  0
M  CHG  5   4   1  11   1  13   1  16   1  26   1
M  END
>  <CHROM.1>
-151.68149490,62.97737529,-155.04280840,-61.06985774,58.74069476,-60.07129648
68.49769229,118.90984457,-55.79657378,168.87946781,-96.97709805,62.30898688
-55.97139197,59.59787951,-65.91709126,178.95895646,-12.09421280,5.03694349
18.29061051,-1.87278112,-1.24225183,0.38903595

>  <Name>
1lc4

>  <RI>
0

>  <Rbt.Current_Directory>
/home/afrankz/demos/rdock_decoys_rna/rnas/1lc4

>  <Rbt.Executable>
rbdock ($Id: //depot/dev/client3/rdock/2013.1/src/exe/rbdock.cxx#4 $)

>  <Rbt.Library>
libRbt.so (2013.1, Build901 2013/11/27)

>  <Rbt.Parameter_File>
/export/apps/rDock/src/rDock_2013.1_src/data/scripts/dock_solv.prm

>  <Rbt.Receptor>
prm/pocket_docking_8.prm

>  <SCORE>
-46.5741

>  <SCORE.INTER>
-32.399

>  <SCORE.INTER.CONST>
1

>  <SCORE.INTER.POLAR>
-6.02029

>  <SCORE.INTER.ROT>
6

>  <SCORE.INTER.SOLV>
27.1955

>  <SCORE.INTER.VDW>
-18.1969

>  <SCORE.INTER.norm>
-1.01247

>  <SCORE.INTRA>
-14.175

>  <SCORE.INTRA.DIHEDRAL>
-30.0217

>  <SCORE.INTRA.DIHEDRAL.0>
44.2576

>  <SCORE.INTRA.POLAR>
0.324626

>  <SCORE.INTRA.POLAR.0>
-0.381556

>  <SCORE.INTRA.REPUL>
0

>  <SCORE.INTRA.REPUL.0>
0

>  <SCORE.INTRA.SOLV>
1.42273

>  <SCORE.INTRA.SOLV.lig_0>
-134.592

>  <SCORE.INTRA.VDW>
-0.979311

>  <SCORE.INTRA.VDW.0>
-1.01417

>  <SCORE.INTRA.norm>
-0.44297

>  <SCORE.RESTR>
0

>  <SCORE.RESTR.CAVITY>
0

>  <SCORE.RESTR.norm>
0

>  <SCORE.SYSTEM>
0

>  <SCORE.SYSTEM.CONST>
0

>  <SCORE.SYSTEM.DIHEDRAL>
0

>  <SCORE.SYSTEM.SOLV>
0

>  <SCORE.SYSTEM.norm>
0

>  <SCORE.heavy>
32

>  <SCORE.norm>
-1.45544

>  <RMSD>
7.693

$$$$
1lc4
 OpenBabel02141814113D
libRbt.so/2013.1/901 2013/11/27
 32 34  0  0  0  0  0  0  0  0999 V2000
  -13.5115    1.4245   18.5466 C   0  0  2  0  0  0  0  0  0  0  0  0
  -13.0137    0.9663   19.7788 O   0  0  0  0  0  0  0  0  0  0  0  0
  -13.8058    0.1962   17.6613 C   0  0  2  0  0  0  0  0  0  0  0  0
  -14.7659   -0.6917   18.3242 N   0  3  0  0  0  0  0  0  0  0  0  0
  -12.4904   -0.5451   17.3256 C   0  0  0  0  0  0  0  0  0  0  0  0
  -11.5688    0.4520   16.6017 C   0  0  2  0  0  0  0  0  0  0  0  0
  -10.3463   -0.1863   16.2178 O   0  0  0  0  0  0  0  0  0  0  0  0
  -11.3030    1.6664   17.5258 C   0  0  2  0  0  0  0  0  0  0  0  0
  -12.5583    2.2998   17.9044 O   0  0  0  0  0  0  0  0  0  0  0  0
  -10.4383    2.7458   16.8793 C   0  0  0  0  0  0  0  0  0  0  0  0
  -11.1211    3.3513   15.7060 N   0  3  0  0  0  0  0  0  0  0  0  0
  -13.8771    4.5241   21.9134 C   0  0  2  0  0  0  0  0  0  0  0  0
  -14.0772    5.5036   22.9972 N   0  3  0  0  0  0  0  0  0  0  0  0
  -14.8371    3.3553   22.0886 C   0  0  0  0  0  0  0  0  0  0  0  0
  -14.6363    2.3277   20.9694 C   0  0  2  0  0  0  0  0  0  0  0  0
  -15.6683    1.2707   21.1127 N   0  3  0  0  0  0  0  0  0  0  0  0
  -13.1731    1.7928   20.9493 C   0  0  2  0  0  0  0  0  0  0  0  0
  -12.1894    2.9852   20.8299 C   0  0  2  0  0  0  0  0  0  0  0  0
  -10.8699    2.5191   20.9773 O   0  0  0  0  0  0  0  0  0  0  0  0
  -12.4377    4.0141   21.9449 C   0  0  1  0  0  0  0  0  0  0  0  0
  -11.5339    5.1054   21.7757 O   0  0  0  0  0  0  0  0  0  0  0  0
  -11.2031    5.4600   20.4771 C   0  0  2  0  0  0  0  0  0  0  0  0
   -9.8933    6.2663   20.5013 C   0  0  2  0  0  0  0  0  0  0  0  0
   -8.8729    5.4583   21.0739 O   0  0  0  0  0  0  0  0  0  0  0  0
  -10.0914    7.5399   21.3418 C   0  0  1  0  0  0  0  0  0  0  0  0
   -8.8444    8.3542   21.4193 N   0  3  0  0  0  0  0  0  0  0  0  0
  -11.2500    8.3728   20.7411 C   0  0  2  0  0  0  0  0  0  0  0  0
  -11.4740    9.5489   21.5152 O   0  0  0  0  0  0  0  0  0  0  0  0
  -12.5318    7.5227   20.6638 C   0  0  2  0  0  0  0  0  0  0  0  0
  -12.2763    6.2698   19.9307 O   0  0  0  0  0  0  0  0  0  0  0  0
  -13.6496    8.2405   19.9404 C   0  0  0  0  0  0  0  0  0  0  0  0
  -14.0271    9.4394   20.6138 O   0  0  0  0  0  0  0  0  0  0  0  0
  1  2  1  1  0  0  0
  1  3  1  0  0  0  0
  1  9  1  0  0  0  0
  3  4  1  1  0  0  0
  3  5  1  0  0  0  0
  5  6  1  0  0  0  0
  6  7  1  1  0  0  0
  6  8  1  0  0  0  0
  8  9  1  0  0  0  0
  8 10  1  6  0  0  0
 10 11  1  0  0  0  0
 12 13  1  1  0  0  0
 12 14  1  0  0  0  0
 12 20  1  0  0  0  0
 14 15  1  0  0  0  0
 15 16  1  1  0  0  0
 15 17  1  0  0  0  0
 17  2  1  6  0  0  0
 17 18  1  0  0  0  0
 18 19  1  1  0  0  0
 18 20  1  0  0  0  0
 20 21  1  6  0  0  0
 22 21  1  1  0  0  0
 22 23  1  0  0  0  0
 22 30  1  0  0  0  0
 23 24  1  1  0  0  0
 23 25  1  0  0  0  0
 25 26  1  6  0  0  0
 25 27  1  0  0  0  0
 27 28  1  1  0  0  0
 27 29  1  0  0  0  0
 29 30  1  0  0  0  0
 29 31  1  6  0  0  0
 31 32  1  0  0  0  0
M  CHG  5   4   1  11   1  13   1  16   1  26   1
M  END
>  <CHROM.1>
-154.57419693,45.31184625,172.76746595,56.25109758,63.99701799,-69.86816331
65.76609691,-42.79286608,179.72458974,-87.59821595,-159.96218466,-57.95517105
-19.37471716,74.96888670,-61.82061885,-178.19462504,-12.24864381,4.01514915
19.88469709,1.75252127,-0.62285034,-2.61275379

>  <Name>
1lc4

>  <RI>
0

>  <Rbt.Current_Directory>
/home/afrankz/demos/rdock_decoys_rna/rnas/1lc4

>  <Rbt.Executable>
rbdock ($Id: //depot/dev/client3/rdock/2013.1/src/exe/rbdock.cxx#4 $)

>  <Rbt.Library>
libRbt.so (2013.1, Build901 2013/11/27)

>  <Rbt.Parameter_File>
/export/apps/rDock/src/rDock_2013.1_src/data/scripts/dock_solv.prm

>  <Rbt.Receptor>
prm/blind_docking_100.prm

>  <SCORE>
-42.7079

>  <SCORE.INTER>
-31.9422

>  <SCORE.INTER.CONST>
1

>  <SCORE.INTER.POLAR>
-4.52724

>  <SCORE.INTER.ROT>
6

>  <SCORE.INTER.SOLV>
19.6448

>  <SCORE.INTER.VDW>
-20.3523

>  <SCORE.INTER.norm>
-0.998195

>  <SCORE.INTRA>
-13.8406

>  <SCORE.INTRA.DIHEDRAL>
-30.3658

>  <SCORE.INTRA.DIHEDRAL.0>
44.2576

>  <SCORE.INTRA.POLAR>
0.345711

>  <SCORE.INTRA.POLAR.0>
-0.381556

>  <SCORE.INTRA.REPUL>
0

>  <SCORE.INTRA.REPUL.0>
0

>  <SCORE.INTRA.SOLV>
2.10552

>  <SCORE.INTRA.SOLV.lig_0>
-134.592

>  <SCORE.INTRA.VDW>
-0.885935

>  <SCORE.INTRA.VDW.0>
-1.01417

>  <SCORE.INTRA.norm>
-0.43252

>  <SCORE.RESTR>
3.07497

>  <SCORE.RESTR.CAVITY>
3.07497

>  <SCORE.RESTR.norm>
0.0960927

>  <SCORE.SYSTEM>
0

>  <SCORE.SYSTEM.CONST>
0

>  <SCORE.SYSTEM.DIHEDRAL>
0

>  <SCORE.SYSTEM.SOLV>
0

>  <SCORE.SYSTEM.norm>
0

>  <SCORE.heavy>
32

>  <SCORE.norm>
-1.33462

>  <RMSD>
7.702

$$$$
1lc4
 OpenBabel02141814113D
libRbt.so/2013.1/901 2013/11/27
 32 34  0  0  0  0  0  0  0  0999 V2000
  -13.3359    5.3985   14.1968 C   0  0  2  0  0  0  0  0  0  0  0  0
  -13.0896    6.7806   14.2702 O   0  0  0  0  0  0  0  0  0  0  0  0
  -12.0407    4.7044   13.7283 C   0  0  2  0  0  0  0  0  0  0  0  0
  -10.9413    4.9990   14.6526 N   0  3  0  0  0  0  0  0  0  0  0  0
  -11.6960    5.1398   12.2846 C   0  0  0  0  0  0  0  0  0  0  0  0
  -12.8863    4.7554   11.3885 C   0  0  2  0  0  0  0  0  0  0  0  0
  -12.6116    5.0885   10.0236 O   0  0  0  0  0  0  0  0  0  0  0  0
  -14.1616    5.4729   11.8967 C   0  0  2  0  0  0  0  0  0  0  0  0
  -14.4220    5.1211   13.2855 O   0  0  0  0  0  0  0  0  0  0  0  0
  -15.4174    5.1159   11.1053 C   0  0  0  0  0  0  0  0  0  0  0  0
  -16.1406    3.9765   11.7285 N   0  3  0  0  0  0  0  0  0  0  0  0
  -14.6968   10.4413   15.6758 C   0  0  2  0  0  0  0  0  0  0  0  0
  -15.5599   11.4428   16.3285 N   0  3  0  0  0  0  0  0  0  0  0  0
  -15.4838    9.7002   14.6035 C   0  0  0  0  0  0  0  0  0  0  0  0
  -14.5979    8.6529   13.9197 C   0  0  2  0  0  0  0  0  0  0  0  0
  -15.3678    8.0416   12.8079 N   0  3  0  0  0  0  0  0  0  0  0  0
  -14.0393    7.6260   14.9497 C   0  0  2  0  0  0  0  0  0  0  0  0
  -13.2868    8.3814   16.0753 C   0  0  2  0  0  0  0  0  0  0  0  0
  -12.9259    7.4730   17.0875 O   0  0  0  0  0  0  0  0  0  0  0  0
  -14.1895    9.4469   16.7183 C   0  0  1  0  0  0  0  0  0  0  0  0
  -13.4464   10.1361   17.7231 O   0  0  0  0  0  0  0  0  0  0  0  0
  -14.1307   10.5238   18.8645 C   0  0  2  0  0  0  0  0  0  0  0  0
  -13.1271   10.6603   20.0223 C   0  0  2  0  0  0  0  0  0  0  0  0
  -12.1542   11.6349   19.6677 O   0  0  0  0  0  0  0  0  0  0  0  0
  -12.4470    9.3031   20.2731 C   0  0  1  0  0  0  0  0  0  0  0  0
  -11.4444    9.3789   21.3745 N   0  3  0  0  0  0  0  0  0  0  0  0
  -13.5280    8.2416   20.5920 C   0  0  2  0  0  0  0  0  0  0  0  0
  -12.9285    6.9656   20.8046 O   0  0  0  0  0  0  0  0  0  0  0  0
  -14.5588    8.1724   19.4499 C   0  0  2  0  0  0  0  0  0  0  0  0
  -15.1189    9.5087   19.1792 O   0  0  0  0  0  0  0  0  0  0  0  0
  -15.7205    7.2633   19.7843 C   0  0  0  0  0  0  0  0  0  0  0  0
  -16.4058    7.6957   20.9576 O   0  0  0  0  0  0  0  0  0  0  0  0
  1  2  1  6  0  0  0
  1  3  1  0  0  0  0
  1  9  1  0  0  0  0
  3  4  1  1  0  0  0
  3  5  1  0  0  0  0
  5  6  1  0  0  0  0
  6  7  1  6  0  0  0
  6  8  1  0  0  0  0
  8  9  1  0  0  0  0
  8 10  1  6  0  0  0
 10 11  1  0  0  0  0
 12 13  1  1  0  0  0
 12 14  1  0  0  0  0
 12 20  1  0  0  0  0
 14 15  1  0  0  0  0
 15 16  1  6  0  0  0
 15 17  1  0  0  0  0
 17  2  1  6  0  0  0
 17 18  1  0  0  0  0
 18 19  1  1  0  0  0
 18 20  1  0  0  0  0
 20 21  1  1  0  0  0
 22 21  1  6  0  0  0
 22 23  1  0  0  0  0
 22 30  1  0  0  0  0
 23 24  1  6  0  0  0
 23 25  1  0  0  0  0
 25 26  1  1  0  0  0
 25 27  1  0  0  0  0
 27 28  1  6  0  0  0
 27 29  1  0  0  0  0
 29 30  1  0  0  0  0
 29 31  1  1  0  0  0
 31 32  1  0  0  0  0
M  CHG  5   4   1  11   1  13   1  16   1  26   1
M  END
>  <CHROM.1>
-166.90962941,-118.74803431,-51.31744412,-173.26210439,92.59242072,22.30234201
-40.78661479,-103.44033519,176.71190566,94.16210821,155.33775650,65.64907020
-83.78593628,73.39042420,59.16432261,-60.86367928,-13.80723330,7.71979766
16.13660683,-1.58777051,-0.92806467,1.07195184

>  <Name>
1lc4

>  <RI>
0

>  <Rbt.Current_Directory>
/home/afrankz/demos/rdock_decoys_rna/rnas/1lc4

>  <Rbt.Executable>
rbdock ($Id: //depot/dev/client3/rdock/2013.1/src/exe/rbdock.cxx#4 $)

>  <Rbt.Library>
libRbt.so (2013.1, Build901 2013/11/27)

>  <Rbt.Parameter_File>
/export/apps/rDock/src/rDock_2013.1_src/data/scripts/dock_solv.prm

>  <Rbt.Receptor>
prm/pocket_docking_7.prm

>  <SCORE>
-44.8177

>  <SCORE.INTER>
-35.1525

>  <SCORE.INTER.CONST>
1

>  <SCORE.INTER.POLAR>
-5.93228

>  <SCORE.INTER.ROT>
6

>  <SCORE.INTER.SOLV>
23.3575

>  <SCORE.INTER.VDW>
-19.0466

>  <SCORE.INTER.norm>
-1.09852

>  <SCORE.INTRA>
-9.66516

>  <SCORE.INTRA.DIHEDRAL>
-17.249

>  <SCORE.INTRA.DIHEDRAL.0>
44.2576

>  <SCORE.INTRA.POLAR>
-0.0804441

>  <SCORE.INTRA.POLAR.0>
-0.381556

>  <SCORE.INTRA.REPUL>
0

>  <SCORE.INTRA.REPUL.0>
0

>  <SCORE.INTRA.SOLV>
1.79583

>  <SCORE.INTRA.SOLV.lig_0>
-134.592

>  <SCORE.INTRA.VDW>
-1.66505

>  <SCORE.INTRA.VDW.0>
-1.01417

>  <SCORE.INTRA.norm>
-0.302036

>  <SCORE.RESTR>
0

>  <SCORE.RESTR.CAVITY>
0

>  <SCORE.RESTR.norm>
0

>  <SCORE.SYSTEM>
0

>  <SCORE.SYSTEM.CONST>
0

>  <SCORE.SYSTEM.DIHEDRAL>
0

>  <SCORE.SYSTEM.SOLV>
0

>  <SCORE.SYSTEM.norm>
0

>  <SCORE.heavy>
32

>  <SCORE.norm>
-1.40055

>  <RMSD>
7.717

$$$$
1lc4
 OpenBabel02141814113D
libRbt.so/2013.1/901 2013/11/27
 32 34  0  0  0  0  0  0  0  0999 V2000
  -16.1013   14.6443   18.2874 C   0  0  2  0  0  0  0  0  0  0  0  0
  -15.1992   13.7329   17.7116 O   0  0  0  0  0  0  0  0  0  0  0  0
  -17.3990   14.6265   17.4539 C   0  0  2  0  0  0  0  0  0  0  0  0
  -17.9627   13.2736   17.4170 N   0  3  0  0  0  0  0  0  0  0  0  0
  -17.1236   15.1620   16.0291 C   0  0  0  0  0  0  0  0  0  0  0  0
  -16.5750   16.5926   16.1703 C   0  0  2  0  0  0  0  0  0  0  0  0
  -16.3430   17.1679   14.8801 O   0  0  0  0  0  0  0  0  0  0  0  0
  -15.2761   16.5613   17.0138 C   0  0  2  0  0  0  0  0  0  0  0  0
  -15.5341   15.9726   18.3203 O   0  0  0  0  0  0  0  0  0  0  0  0
  -14.6766   17.9435   17.2602 C   0  0  0  0  0  0  0  0  0  0  0  0
  -13.4717   17.8609   18.1269 N   0  3  0  0  0  0  0  0  0  0  0  0
  -12.9336   10.3083   18.7602 C   0  0  2  0  0  0  0  0  0  0  0  0
  -12.5049    9.0332   19.3635 N   0  3  0  0  0  0  0  0  0  0  0  0
  -13.1867   11.3384   19.8526 C   0  0  0  0  0  0  0  0  0  0  0  0
  -13.6369   12.6683   19.2378 C   0  0  2  0  0  0  0  0  0  0  0  0
  -13.7560   13.6710   20.3255 N   0  3  0  0  0  0  0  0  0  0  0  0
  -14.9316   12.4891   18.3900 C   0  0  2  0  0  0  0  0  0  0  0  0
  -14.6966   11.3986   17.3132 C   0  0  2  0  0  0  0  0  0  0  0  0
  -15.9101   11.1201   16.6575 O   0  0  0  0  0  0  0  0  0  0  0  0
  -14.2139   10.0886   17.9567 C   0  0  1  0  0  0  0  0  0  0  0  0
  -13.9804    9.1275   16.9278 O   0  0  0  0  0  0  0  0  0  0  0  0
  -12.8765    9.3255   16.1131 C   0  0  2  0  0  0  0  0  0  0  0  0
  -13.3610    9.7356   14.7120 C   0  0  2  0  0  0  0  0  0  0  0  0
  -14.1191   10.9333   14.8259 O   0  0  0  0  0  0  0  0  0  0  0  0
  -14.2334    8.6133   14.1229 C   0  0  1  0  0  0  0  0  0  0  0  0
  -14.7514    8.9643   12.7692 N   0  3  0  0  0  0  0  0  0  0  0  0
  -13.4112    7.3025   14.0691 C   0  0  2  0  0  0  0  0  0  0  0  0
  -14.2030    6.2365   13.5501 O   0  0  0  0  0  0  0  0  0  0  0  0
  -12.8797    6.9501   15.4709 C   0  0  2  0  0  0  0  0  0  0  0  0
  -12.1282    8.0843   16.0377 O   0  0  0  0  0  0  0  0  0  0  0  0
  -11.9408    5.7645   15.4435 C   0  0  0  0  0  0  0  0  0  0  0  0
  -10.6350    6.1378   15.0087 O   0  0  0  0  0  0  0  0  0  0  0  0
  1  2  1  6  0  0  0
  1  3  1  0  0  0  0
  1  9  1  0  0  0  0
  3  4  1  6  0  0  0
  3  5  1  0  0  0  0
  5  6  1  0  0  0  0
  6  7  1  6  0  0  0
  6  8  1  0  0  0  0
  8  9  1  0  0  0  0
  8 10  1  1  0  0  0
 10 11  1  0  0  0  0
 12 13  1  1  0  0  0
 12 14  1  0  0  0  0
 12 20  1  0  0  0  0
 14 15  1  0  0  0  0
 15 16  1  1  0  0  0
 15 17  1  0  0  0  0
 17  2  1  6  0  0  0
 17 18  1  0  0  0  0
 18 19  1  1  0  0  0
 18 20  1  0  0  0  0
 20 21  1  6  0  0  0
 22 21  1  1  0  0  0
 22 23  1  0  0  0  0
 22 30  1  0  0  0  0
 23 24  1  1  0  0  0
 23 25  1  0  0  0  0
 25 26  1  6  0  0  0
 25 27  1  0  0  0  0
 27 28  1  1  0  0  0
 27 29  1  0  0  0  0
 29 30  1  0  0  0  0
 29 31  1  6  0  0  0
 31 32  1  0  0  0  0
M  CHG  5   4   1  11   1  13   1  16   1  26   1
M  END
>  <CHROM.1>
-107.46043286,-95.85975790,-174.31108421,-25.16837615,177.27608289,39.19025536
-173.29920413,-75.97333260,169.21691722,-50.31421397,-109.28644341,61.51568266
106.91950579,-56.72712631,79.25350669,89.42004295,-14.36551006,11.64004931
16.71821902,-2.14441554,0.99558836,-2.38757131

>  <Name>
1lc4

>  <RI>
0

>  <Rbt.Current_Directory>
/home/afrankz/demos/rdock_decoys_rna/rnas/1lc4

>  <Rbt.Executable>
rbdock ($Id: //depot/dev/client3/rdock/2013.1/src/exe/rbdock.cxx#4 $)

>  <Rbt.Library>
libRbt.so (2013.1, Build901 2013/11/27)

>  <Rbt.Parameter_File>
/export/apps/rDock/src/rDock_2013.1_src/data/scripts/dock_solv.prm

>  <Rbt.Receptor>
prm/blind_docking_40.prm

>  <SCORE>
-35.4328

>  <SCORE.INTER>
-34.1637

>  <SCORE.INTER.CONST>
1

>  <SCORE.INTER.POLAR>
-5.12147

>  <SCORE.INTER.ROT>
6

>  <SCORE.INTER.SOLV>
28.9734

>  <SCORE.INTER.VDW>
-22.9621

>  <SCORE.INTER.norm>
-1.06762

>  <SCORE.INTRA>
-9.80067

>  <SCORE.INTRA.DIHEDRAL>
-11.1357

>  <SCORE.INTRA.DIHEDRAL.0>
44.2576

>  <SCORE.INTRA.POLAR>
-1.12133

>  <SCORE.INTRA.POLAR.0>
-0.381556

>  <SCORE.INTRA.REPUL>
0

>  <SCORE.INTRA.REPUL.0>
0

>  <SCORE.INTRA.SOLV>
-0.0690127

>  <SCORE.INTRA.SOLV.lig_0>
-134.592

>  <SCORE.INTRA.VDW>
-0.3858

>  <SCORE.INTRA.VDW.0>
-1.01417

>  <SCORE.INTRA.norm>
-0.306271

>  <SCORE.RESTR>
8.53156

>  <SCORE.RESTR.CAVITY>
8.53156

>  <SCORE.RESTR.norm>
0.266611

>  <SCORE.SYSTEM>
0

>  <SCORE.SYSTEM.CONST>
0

>  <SCORE.SYSTEM.DIHEDRAL>
0

>  <SCORE.SYSTEM.SOLV>
0

>  <SCORE.SYSTEM.norm>
0

>  <SCORE.heavy>
32

>  <SCORE.norm>
-1.10728

>  <RMSD>
7.731

$$$$
1lc4
 OpenBabel02141814113D
libRbt.so/2013.1/901 2013/11/27
 32 34  0  0  0  0  0  0  0  0999 V2000
  -13.9124    6.4598   13.0897 C   0  0  2  0  0  0  0  0  0  0  0  0
  -14.3530    7.7020   13.5785 O   0  0  0  0  0  0  0  0  0  0  0  0
  -14.6724    6.1621   11.7810 C   0  0  2  0  0  0  0  0  0  0  0  0
  -14.4408    7.2294   10.8029 N   0  3  0  0  0  0  0  0  0  0  0  0
  -16.1808    5.9804   12.0712 C   0  0  0  0  0  0  0  0  0  0  0  0
  -16.3233    4.8197   13.0714 C   0  0  2  0  0  0  0  0  0  0  0  0
  -17.7047    4.5655   13.3476 O   0  0  0  0  0  0  0  0  0  0  0  0
  -15.5446    5.1618   14.3660 C   0  0  2  0  0  0  0  0  0  0  0  0
  -14.1436    5.4171   14.0626 O   0  0  0  0  0  0  0  0  0  0  0  0
  -15.5772    4.0471   15.4087 C   0  0  0  0  0  0  0  0  0  0  0  0
  -14.7459    2.8897   14.9853 N   0  3  0  0  0  0  0  0  0  0  0  0
  -14.8820    9.4615   17.3974 C   0  0  2  0  0  0  0  0  0  0  0  0
  -15.2935    9.7036   18.7923 N   0  3  0  0  0  0  0  0  0  0  0  0
  -16.1124    9.3413   16.5085 C   0  0  0  0  0  0  0  0  0  0  0  0
  -15.6976    9.0857   15.0552 C   0  0  2  0  0  0  0  0  0  0  0  0
  -16.9181    9.0944   14.2109 N   0  3  0  0  0  0  0  0  0  0  0  0
  -14.8446    7.7879   14.9311 C   0  0  2  0  0  0  0  0  0  0  0  0
  -13.6213    7.8817   15.8790 C   0  0  2  0  0  0  0  0  0  0  0  0
  -12.9436    6.6486   15.8909 O   0  0  0  0  0  0  0  0  0  0  0  0
  -14.0670    8.1720   17.3214 C   0  0  1  0  0  0  0  0  0  0  0  0
  -12.9096    8.2816   18.1491 O   0  0  0  0  0  0  0  0  0  0  0  0
  -13.0140    7.8173   19.4509 C   0  0  2  0  0  0  0  0  0  0  0  0
  -11.8312    8.3635   20.2689 C   0  0  2  0  0  0  0  0  0  0  0  0
  -11.8766    9.7845   20.2400 O   0  0  0  0  0  0  0  0  0  0  0  0
  -10.5109    7.8654   19.6553 C   0  0  1  0  0  0  0  0  0  0  0  0
   -9.3241    8.3820   20.3960 N   0  3  0  0  0  0  0  0  0  0  0  0
  -10.5096    6.3173   19.6349 C   0  0  2  0  0  0  0  0  0  0  0  0
   -9.3069    5.8260   19.0475 O   0  0  0  0  0  0  0  0  0  0  0  0
  -11.7394    5.7943   18.8696 C   0  0  2  0  0  0  0  0  0  0  0  0
  -12.9769    6.3667   19.4295 O   0  0  0  0  0  0  0  0  0  0  0  0
  -11.8674    4.2896   18.9558 C   0  0  0  0  0  0  0  0  0  0  0  0
  -11.9286    3.8436   20.3088 O   0  0  0  0  0  0  0  0  0  0  0  0
  1  2  1  1  0  0  0
  1  3  1  0  0  0  0
  1  9  1  0  0  0  0
  3  4  1  6  0  0  0
  3  5  1  0  0  0  0
  5  6  1  0  0  0  0
  6  7  1  1  0  0  0
  6  8  1  0  0  0  0
  8  9  1  0  0  0  0
  8 10  1  1  0  0  0
 10 11  1  0  0  0  0
 12 13  1  1  0  0  0
 12 14  1  0  0  0  0
 12 20  1  0  0  0  0
 14 15  1  0  0  0  0
 15 16  1  6  0  0  0
 15 17  1  0  0  0  0
 17  2  1  6  0  0  0
 17 18  1  0  0  0  0
 18 19  1  1  0  0  0
 18 20  1  0  0  0  0
 20 21  1  1  0  0  0
 22 21  1  6  0  0  0
 22 23  1  0  0  0  0
 22 30  1  0  0  0  0
 23 24  1  6  0  0  0
 23 25  1  0  0  0  0
 25 26  1  1  0  0  0
 25 27  1  0  0  0  0
 27 28  1  6  0  0  0
 27 29  1  0  0  0  0
 29 30  1  0  0  0  0
 29 31  1  1  0  0  0
 31 32  1  0  0  0  0
M  CHG  5   4   1  11   1  13   1  16   1  26   1
M  END
>  <CHROM.1>
126.00915017,-160.75136470,40.38663212,-61.41737212,71.35747376,-59.96477713
65.88266627,37.36230893,66.53371779,92.78754762,-164.66988534,64.86150450
-166.66133029,176.50094841,56.89945688,-59.00721567,-13.72370604,6.87856163
16.48615589,-2.63620765,-0.89834634,0.45657618

>  <Name>
1lc4

>  <RI>
0

>  <Rbt.Current_Directory>
/home/afrankz/demos/rdock_decoys_rna/rnas/1lc4

>  <Rbt.Executable>
rbdock ($Id: //depot/dev/client3/rdock/2013.1/src/exe/rbdock.cxx#4 $)

>  <Rbt.Library>
libRbt.so (2013.1, Build901 2013/11/27)

>  <Rbt.Parameter_File>
/export/apps/rDock/src/rDock_2013.1_src/data/scripts/dock_solv.prm

>  <Rbt.Receptor>
prm/pocket_docking_4.prm

>  <SCORE>
-45.2896

>  <SCORE.INTER>
-31.9716

>  <SCORE.INTER.CONST>
1

>  <SCORE.INTER.POLAR>
-5.55174

>  <SCORE.INTER.ROT>
6

>  <SCORE.INTER.SOLV>
23.4276

>  <SCORE.INTER.VDW>
-18.2178

>  <SCORE.INTER.norm>
-0.999111

>  <SCORE.INTRA>
-13.3283

>  <SCORE.INTRA.DIHEDRAL>
-26.8822

>  <SCORE.INTRA.DIHEDRAL.0>
44.2576

>  <SCORE.INTRA.POLAR>
0.380016

>  <SCORE.INTRA.POLAR.0>
-0.381556

>  <SCORE.INTRA.REPUL>
0

>  <SCORE.INTRA.REPUL.0>
0

>  <SCORE.INTRA.SOLV>
-0.779785

>  <SCORE.INTRA.SOLV.lig_0>
-134.592

>  <SCORE.INTRA.VDW>
-0.789373

>  <SCORE.INTRA.VDW.0>
-1.01417

>  <SCORE.INTRA.norm>
-0.41651

>  <SCORE.RESTR>
0.0102529

>  <SCORE.RESTR.CAVITY>
0.0102529

>  <SCORE.RESTR.norm>
0.000320403

>  <SCORE.SYSTEM>
0

>  <SCORE.SYSTEM.CONST>
0

>  <SCORE.SYSTEM.DIHEDRAL>
0

>  <SCORE.SYSTEM.SOLV>
0

>  <SCORE.SYSTEM.norm>
0

>  <SCORE.heavy>
32

>  <SCORE.norm>
-1.4153

>  <RMSD>
7.761

$$$$
1lc4
 OpenBabel02141814113D
libRbt.so/2013.1/901 2013/11/27
 32 34  0  0  0  0  0  0  0  0999 V2000
   -6.8780    4.6259   13.8329 C   0  0  2  0  0  0  0  0  0  0  0  0
   -7.7303    5.1785   12.8612 O   0  0  0  0  0  0  0  0  0  0  0  0
   -5.5535    4.2375   13.1446 C   0  0  2  0  0  0  0  0  0  0  0  0
   -4.9449    5.4112   12.5109 N   0  3  0  0  0  0  0  0  0  0  0  0
   -5.7988    3.1061   12.1187 C   0  0  0  0  0  0  0  0  0  0  0  0
   -6.3983    1.9117   12.8814 C   0  0  2  0  0  0  0  0  0  0  0  0
   -6.6060    0.8069   11.9951 O   0  0  0  0  0  0  0  0  0  0  0  0
   -7.7226    2.3483   13.5558 C   0  0  2  0  0  0  0  0  0  0  0  0
   -7.4891    3.4722   14.4516 O   0  0  0  0  0  0  0  0  0  0  0  0
   -8.3749    1.2462   14.3869 C   0  0  0  0  0  0  0  0  0  0  0  0
   -8.6938    0.0591   13.5511 N   0  3  0  0  0  0  0  0  0  0  0  0
  -11.8071    6.3329   12.7809 C   0  0  2  0  0  0  0  0  0  0  0  0
  -13.2784    6.3156   12.8744 N   0  3  0  0  0  0  0  0  0  0  0  0
  -11.3438    5.3358   11.7276 C   0  0  0  0  0  0  0  0  0  0  0  0
   -9.8147    5.3418   11.6234 C   0  0  2  0  0  0  0  0  0  0  0  0
   -9.4173    4.4472   10.5079 N   0  3  0  0  0  0  0  0  0  0  0  0
   -9.1539    4.9906   12.9899 C   0  0  2  0  0  0  0  0  0  0  0  0
   -9.6683    5.9678   14.0782 C   0  0  2  0  0  0  0  0  0  0  0  0
   -9.2022    5.5509   15.3387 O   0  0  0  0  0  0  0  0  0  0  0  0
  -11.2046    5.9646   14.1353 C   0  0  1  0  0  0  0  0  0  0  0  0
  -11.6317    6.8996   15.1253 O   0  0  0  0  0  0  0  0  0  0  0  0
  -12.5427    6.4524   16.0694 C   0  0  2  0  0  0  0  0  0  0  0  0
  -13.1736    7.6702   16.7660 C   0  0  2  0  0  0  0  0  0  0  0  0
  -13.8225    8.4691   15.7848 O   0  0  0  0  0  0  0  0  0  0  0  0
  -12.0733    8.4861   17.4670 C   0  0  1  0  0  0  0  0  0  0  0  0
  -12.6241    9.6952   18.1442 N   0  3  0  0  0  0  0  0  0  0  0  0
  -11.3353    7.5806   18.4831 C   0  0  2  0  0  0  0  0  0  0  0  0
  -10.2915    8.3037   19.1313 O   0  0  0  0  0  0  0  0  0  0  0  0
  -10.7722    6.3347   17.7743 C   0  0  2  0  0  0  0  0  0  0  0  0
  -11.8397    5.6329   17.0392 O   0  0  0  0  0  0  0  0  0  0  0  0
  -10.1787    5.3428   18.7499 C   0  0  0  0  0  0  0  0  0  0  0  0
  -11.1623    4.8384   19.6507 O   0  0  0  0  0  0  0  0  0  0  0  0
  1  2  1  6  0  0  0
  1  3  1  0  0  0  0
  1  9  1  0  0  0  0
  3  4  1  6  0  0  0
  3  5  1  0  0  0  0
  5  6  1  0  0  0  0
  6  7  1  6  0  0  0
  6  8  1  0  0  0  0
  8  9  1  0  0  0  0
  8 10  1  1  0  0  0
 10 11  1  0  0  0  0
 12 13  1  1  0  0  0
 12 14  1  0  0  0  0
 12 20  1  0  0  0  0
 14 15  1  0  0  0  0
 15 16  1  6  0  0  0
 15 17  1  0  0  0  0
 17  2  1  6  0  0  0
 17 18  1  0  0  0  0
 18 19  1  1  0  0  0
 18 20  1  0  0  0  0
 20 21  1  1  0  0  0
 22 21  1  6  0  0  0
 22 23  1  0  0  0  0
 22 30  1  0  0  0  0
 23 24  1  6  0  0  0
 23 25  1  0  0  0  0
 25 26  1  1  0  0  0
 25 27  1  0  0  0  0
 27 28  1  6  0  0  0
 27 29  1  0  0  0  0
 29 30  1  0  0  0  0
 29 31  1  1  0  0  0
 31 32  1  0  0  0  0
M  CHG  5   4   1  11   1  13   1  16   1  26   1
M  END
>  <CHROM.1>
147.91899403,-164.61812782,77.90335228,153.10214910,-59.72839918,-144.76564567
75.06716870,93.62145999,51.11302088,108.63900732,-163.73723216,-55.95514265
-74.66720510,166.94754126,62.62022066,63.82218483,-9.77609790,5.25654333
14.74968500,-0.68311297,-0.69232873,1.45519894

>  <Name>
1lc4

>  <RI>
0

>  <Rbt.Current_Directory>
/home/afrankz/demos/rdock_decoys_rna/rnas/1lc4

>  <Rbt.Executable>
rbdock ($Id: //depot/dev/client3/rdock/2013.1/src/exe/rbdock.cxx#4 $)

>  <Rbt.Library>
libRbt.so (2013.1, Build901 2013/11/27)

>  <Rbt.Parameter_File>
/export/apps/rDock/src/rDock_2013.1_src/data/scripts/dock_solv.prm

>  <Rbt.Receptor>
prm/blind_docking_80.prm

>  <SCORE>
-12.8715

>  <SCORE.INTER>
-15.7226

>  <SCORE.INTER.CONST>
1

>  <SCORE.INTER.POLAR>
-4.10038

>  <SCORE.INTER.ROT>
6

>  <SCORE.INTER.SOLV>
21.4007

>  <SCORE.INTER.VDW>
-11.5474

>  <SCORE.INTER.norm>
-0.491331

>  <SCORE.INTRA>
-9.24444

>  <SCORE.INTRA.DIHEDRAL>
-20.7344

>  <SCORE.INTRA.DIHEDRAL.0>
44.2576

>  <SCORE.INTRA.POLAR>
0.045793

>  <SCORE.INTRA.POLAR.0>
-0.381556

>  <SCORE.INTRA.REPUL>
0

>  <SCORE.INTRA.REPUL.0>
0

>  <SCORE.INTRA.SOLV>
-0.728047

>  <SCORE.INTRA.SOLV.lig_0>
-134.592

>  <SCORE.INTRA.VDW>
1.33107

>  <SCORE.INTRA.VDW.0>
-1.01417

>  <SCORE.INTRA.norm>
-0.288889

>  <SCORE.RESTR>
12.0955

>  <SCORE.RESTR.CAVITY>
12.0955

>  <SCORE.RESTR.norm>
0.377986

>  <SCORE.SYSTEM>
0

>  <SCORE.SYSTEM.CONST>
0

>  <SCORE.SYSTEM.DIHEDRAL>
0

>  <SCORE.SYSTEM.SOLV>
0

>  <SCORE.SYSTEM.norm>
0

>  <SCORE.heavy>
32

>  <SCORE.norm>
-0.402234

>  <RMSD>
7.782

$$$$
1lc4
 OpenBabel02141814113D
libRbt.so/2013.1/901 2013/11/27
 32 34  0  0  0  0  0  0  0  0999 V2000
  -13.0639    9.4519   19.5917 C   0  0  2  0  0  0  0  0  0  0  0  0
  -14.1427    8.6575   20.0173 O   0  0  0  0  0  0  0  0  0  0  0  0
  -13.3100   10.8952   20.0767 C   0  0  2  0  0  0  0  0  0  0  0  0
  -13.4482   10.9260   21.5361 N   0  3  0  0  0  0  0  0  0  0  0  0
  -14.5582   11.4853   19.3794 C   0  0  0  0  0  0  0  0  0  0  0  0
  -14.3028   11.4463   17.8625 C   0  0  2  0  0  0  0  0  0  0  0  0
  -15.4048   12.0253   17.1556 O   0  0  0  0  0  0  0  0  0  0  0  0
  -14.0599    9.9811   17.4224 C   0  0  2  0  0  0  0  0  0  0  0  0
  -12.9366    9.4117   18.1532 O   0  0  0  0  0  0  0  0  0  0  0  0
  -13.7420    9.8364   15.9362 C   0  0  0  0  0  0  0  0  0  0  0  0
  -13.1552    8.5035   15.6386 N   0  3  0  0  0  0  0  0  0  0  0  0
  -14.1591    4.7247   21.5962 C   0  0  2  0  0  0  0  0  0  0  0  0
  -14.0595    3.2597   21.7299 N   0  3  0  0  0  0  0  0  0  0  0  0
  -15.2525    5.0799   20.5979 C   0  0  0  0  0  0  0  0  0  0  0  0
  -15.3635    6.6012   20.4471 C   0  0  2  0  0  0  0  0  0  0  0  0
  -16.5147    6.9016   19.5600 N   0  3  0  0  0  0  0  0  0  0  0  0
  -14.0147    7.2220   19.9752 C   0  0  2  0  0  0  0  0  0  0  0  0
  -12.8870    6.8139   20.9578 C   0  0  2  0  0  0  0  0  0  0  0  0
  -11.6457    7.2343   20.4453 O   0  0  0  0  0  0  0  0  0  0  0  0
  -12.8229    5.2858   21.1139 C   0  0  1  0  0  0  0  0  0  0  0  0
  -11.7954    4.9600   22.0492 O   0  0  0  0  0  0  0  0  0  0  0  0
  -10.9736    3.8871   21.7409 C   0  0  2  0  0  0  0  0  0  0  0  0
   -9.6203    4.0799   22.4464 C   0  0  2  0  0  0  0  0  0  0  0  0
   -9.8451    4.1504   23.8488 O   0  0  0  0  0  0  0  0  0  0  0  0
   -8.9654    5.3813   21.9512 C   0  0  1  0  0  0  0  0  0  0  0  0
   -7.6556    5.6332   22.6183 N   0  3  0  0  0  0  0  0  0  0  0  0
   -8.7903    5.3119   20.4145 C   0  0  2  0  0  0  0  0  0  0  0  0
   -8.2078    6.5167   19.9227 O   0  0  0  0  0  0  0  0  0  0  0  0
  -10.1476    5.0499   19.7357 C   0  0  2  0  0  0  0  0  0  0  0  0
  -10.7841    3.8474   20.3027 O   0  0  0  0  0  0  0  0  0  0  0  0
  -10.0059    4.8178   18.2478 C   0  0  0  0  0  0  0  0  0  0  0  0
   -9.9731    6.0463   17.5247 O   0  0  0  0  0  0  0  0  0  0  0  0
  1  2  1  6  0  0  0
  1  3  1  0  0  0  0
  1  9  1  0  0  0  0
  3  4  1  1  0  0  0
  3  5  1  0  0  0  0
  5  6  1  0  0  0  0
  6  7  1  6  0  0  0
  6  8  1  0  0  0  0
  8  9  1  0  0  0  0
  8 10  1  6  0  0  0
 10 11  1  0  0  0  0
 12 13  1  6  0  0  0
 12 14  1  0  0  0  0
 12 20  1  0  0  0  0
 14 15  1  0  0  0  0
 15 16  1  6  0  0  0
 15 17  1  0  0  0  0
 17  2  1  1  0  0  0
 17 18  1  0  0  0  0
 18 19  1  6  0  0  0
 18 20  1  0  0  0  0
 20 21  1  1  0  0  0
 22 21  1  6  0  0  0
 22 23  1  0  0  0  0
 22 30  1  0  0  0  0
 23 24  1  1  0  0  0
 23 25  1  0  0  0  0
 25 26  1  1  0  0  0
 25 27  1  0  0  0  0
 27 28  1  6  0  0  0
 27 29  1  0  0  0  0
 29 30  1  0  0  0  0
 29 31  1  6  0  0  0
 31 32  1  0  0  0  0
M  CHG  5   4   1  11   1  13   1  16   1  26   1
M  END
>  <CHROM.1>
-165.39054195,-177.89816089,-172.11405077,62.85147433,164.21285817,-175.93677325
65.11738931,-64.31021697,178.45470690,100.28199388,154.20738873,-68.92920200
-73.03861540,-57.01906365,-84.50524057,-177.48485599,-12.34132673,7.05060062
19.99310612,-2.15716324,-0.14724090,2.50079078

>  <Name>
1lc4

>  <RI>
0

>  <Rbt.Current_Directory>
/home/afrankz/demos/rdock_decoys_rna/rnas/1lc4

>  <Rbt.Executable>
rbdock ($Id: //depot/dev/client3/rdock/2013.1/src/exe/rbdock.cxx#4 $)

>  <Rbt.Library>
libRbt.so (2013.1, Build901 2013/11/27)

>  <Rbt.Parameter_File>
/export/apps/rDock/src/rDock_2013.1_src/data/scripts/dock_solv.prm

>  <Rbt.Receptor>
prm/blind_docking_60.prm

>  <SCORE>
-35.4014

>  <SCORE.INTER>
-24.2862

>  <SCORE.INTER.CONST>
1

>  <SCORE.INTER.POLAR>
-3.85449

>  <SCORE.INTER.ROT>
6

>  <SCORE.INTER.SOLV>
26.6769

>  <SCORE.INTER.VDW>
-19.8348

>  <SCORE.INTER.norm>
-0.758943

>  <SCORE.INTRA>
-18.2844

>  <SCORE.INTRA.DIHEDRAL>
-30.938

>  <SCORE.INTRA.DIHEDRAL.0>
44.2576

>  <SCORE.INTRA.POLAR>
0.342404

>  <SCORE.INTRA.POLAR.0>
-0.381556

>  <SCORE.INTRA.REPUL>
0

>  <SCORE.INTRA.REPUL.0>
0

>  <SCORE.INTRA.SOLV>
-3.62352

>  <SCORE.INTRA.SOLV.lig_0>
-134.592

>  <SCORE.INTRA.VDW>
-2.16778

>  <SCORE.INTRA.VDW.0>
-1.01417

>  <SCORE.INTRA.norm>
-0.571386

>  <SCORE.RESTR>
7.16917

>  <SCORE.RESTR.CAVITY>
7.16917

>  <SCORE.RESTR.norm>
0.224037

>  <SCORE.SYSTEM>
0

>  <SCORE.SYSTEM.CONST>
0

>  <SCORE.SYSTEM.DIHEDRAL>
0

>  <SCORE.SYSTEM.SOLV>
0

>  <SCORE.SYSTEM.norm>
0

>  <SCORE.heavy>
32

>  <SCORE.norm>
-1.10629

>  <RMSD>
7.834

$$$$
1lc4
 OpenBabel02141814113D
libRbt.so/2013.1/901 2013/11/27
 32 34  0  0  0  0  0  0  0  0999 V2000
  -16.7791   10.5835   15.5885 C   0  0  2  0  0  0  0  0  0  0  0  0
  -16.6974    9.2088   15.8702 O   0  0  0  0  0  0  0  0  0  0  0  0
  -15.4735   11.2501   16.0682 C   0  0  2  0  0  0  0  0  0  0  0  0
  -14.3164   10.6406   15.4055 N   0  3  0  0  0  0  0  0  0  0  0  0
  -15.3594   11.1499   17.6075 C   0  0  0  0  0  0  0  0  0  0  0  0
  -16.5918   11.8476   18.2095 C   0  0  2  0  0  0  0  0  0  0  0  0
  -16.5247   11.8333   19.6394 O   0  0  0  0  0  0  0  0  0  0  0  0
  -17.8758   11.1470   17.6997 C   0  0  2  0  0  0  0  0  0  0  0  0
  -17.9237   11.1721   16.2447 O   0  0  0  0  0  0  0  0  0  0  0  0
  -19.1636   11.7985   18.1977 C   0  0  0  0  0  0  0  0  0  0  0  0
  -19.3117   13.1769   17.6610 N   0  3  0  0  0  0  0  0  0  0  0  0
  -16.5966    5.4780   13.8624 C   0  0  2  0  0  0  0  0  0  0  0  0
  -16.8282    4.3954   12.8887 N   0  3  0  0  0  0  0  0  0  0  0  0
  -17.9161    5.8914   14.5000 C   0  0  0  0  0  0  0  0  0  0  0  0
  -17.6890    7.0197   15.5123 C   0  0  2  0  0  0  0  0  0  0  0  0
  -18.9771    7.3066   16.1913 N   0  3  0  0  0  0  0  0  0  0  0  0
  -17.0330    8.2610   14.8369 C   0  0  2  0  0  0  0  0  0  0  0  0
  -15.7180    7.8326   14.1361 C   0  0  2  0  0  0  0  0  0  0  0  0
  -15.2124    8.9132   13.3901 O   0  0  0  0  0  0  0  0  0  0  0  0
  -15.9721    6.6781   13.1533 C   0  0  1  0  0  0  0  0  0  0  0  0
  -14.7322    6.2970   12.5583 O   0  0  0  0  0  0  0  0  0  0  0  0
  -13.9296    5.4196   13.2705 C   0  0  2  0  0  0  0  0  0  0  0  0
  -12.4577    5.8188   13.0696 C   0  0  2  0  0  0  0  0  0  0  0  0
  -12.2802    7.1500   13.5372 O   0  0  0  0  0  0  0  0  0  0  0  0
  -12.1034    5.7333   11.5747 C   0  0  1  0  0  0  0  0  0  0  0  0
  -10.6897    6.1310   11.3149 N   0  3  0  0  0  0  0  0  0  0  0  0
  -12.3665    4.2937   11.0693 C   0  0  2  0  0  0  0  0  0  0  0  0
  -12.0706    4.1901    9.6784 O   0  0  0  0  0  0  0  0  0  0  0  0
  -13.8278    3.8924   11.3437 C   0  0  2  0  0  0  0  0  0  0  0  0
  -14.1539    4.0762   12.7694 O   0  0  0  0  0  0  0  0  0  0  0  0
  -14.0927    2.4408   11.0111 C   0  0  0  0  0  0  0  0  0  0  0  0
  -15.4681    2.1050   11.1809 O   0  0  0  0  0  0  0  0  0  0  0  0
  1  2  1  1  0  0  0
  1  3  1  0  0  0  0
  1  9  1  0  0  0  0
  3  4  1  6  0  0  0
  3  5  1  0  0  0  0
  5  6  1  0  0  0  0
  6  7  1  1  0  0  0
  6  8  1  0  0  0  0
  8  9  1  0  0  0  0
  8 10  1  1  0  0  0
 10 11  1  0  0  0  0
 12 13  1  6  0  0  0
 12 14  1  0  0  0  0
 12 20  1  0  0  0  0
 14 15  1  0  0  0  0
 15 16  1  6  0  0  0
 15 17  1  0  0  0  0
 17  2  1  1  0  0  0
 17 18  1  0  0  0  0
 18 19  1  6  0  0  0
 18 20  1  0  0  0  0
 20 21  1  1  0  0  0
 22 21  1  6  0  0  0
 22 23  1  0  0  0  0
 22 30  1  0  0  0  0
 23 24  1  6  0  0  0
 23 25  1  0  0  0  0
 25 26  1  1  0  0  0
 25 27  1  0  0  0  0
 27 28  1  6  0  0  0
 27 29  1  0  0  0  0
 29 30  1  0  0  0  0
 29 31  1  1  0  0  0
 31 32  1  0  0  0  0
M  CHG  5   4   1  11   1  13   1  16   1  26   1
M  END
>  <CHROM.1>
-131.72877352,-146.22287206,38.37813971,176.59251227,64.92086589,173.89344117
-51.57832807,20.91634077,-60.15190835,-38.51853717,-142.63263516,-62.76456368
179.68877689,-63.32586469,-175.95652005,62.59229722,-15.50054588,7.60717426
14.32523361,-2.01556999,-0.34252306,-2.59834326

>  <Name>
1lc4

>  <RI>
0

>  <Rbt.Current_Directory>
/home/afrankz/demos/rdock_decoys_rna/rnas/1lc4

>  <Rbt.Executable>
rbdock ($Id: //depot/dev/client3/rdock/2013.1/src/exe/rbdock.cxx#4 $)

>  <Rbt.Library>
libRbt.so (2013.1, Build901 2013/11/27)

>  <Rbt.Parameter_File>
/export/apps/rDock/src/rDock_2013.1_src/data/scripts/dock_solv.prm

>  <Rbt.Receptor>
prm/pocket_docking_6.prm

>  <SCORE>
-51.9634

>  <SCORE.INTER>
-36.803

>  <SCORE.INTER.CONST>
1

>  <SCORE.INTER.POLAR>
-6.70498

>  <SCORE.INTER.ROT>
6

>  <SCORE.INTER.SOLV>
17.6355

>  <SCORE.INTER.VDW>
-15.6639

>  <SCORE.INTER.norm>
-1.15009

>  <SCORE.INTRA>
-15.1604

>  <SCORE.INTRA.DIHEDRAL>
-22.1167

>  <SCORE.INTRA.DIHEDRAL.0>
44.2576

>  <SCORE.INTRA.POLAR>
-1.27244

>  <SCORE.INTRA.POLAR.0>
-0.381556

>  <SCORE.INTRA.REPUL>
0

>  <SCORE.INTRA.REPUL.0>
0

>  <SCORE.INTRA.SOLV>
3.95725

>  <SCORE.INTRA.SOLV.lig_0>
-134.592

>  <SCORE.INTRA.VDW>
-1.75434

>  <SCORE.INTRA.VDW.0>
-1.01417

>  <SCORE.INTRA.norm>
-0.473762

>  <SCORE.RESTR>
0

>  <SCORE.RESTR.CAVITY>
0

>  <SCORE.RESTR.norm>
0

>  <SCORE.SYSTEM>
0

>  <SCORE.SYSTEM.CONST>
0

>  <SCORE.SYSTEM.DIHEDRAL>
0

>  <SCORE.SYSTEM.SOLV>
0

>  <SCORE.SYSTEM.norm>
0

>  <SCORE.heavy>
32

>  <SCORE.norm>
-1.62386

>  <RMSD>
7.861

$$$$
1lc4
 OpenBabel02141814113D
libRbt.so/2013.1/901 2013/11/27
 32 34  0  0  0  0  0  0  0  0999 V2000
  -16.4205   14.4896   17.7287 C   0  0  2  0  0  0  0  0  0  0  0  0
  -15.7942   13.6016   16.8370 O   0  0  0  0  0  0  0  0  0  0  0  0
  -17.3448   15.4165   16.9131 C   0  0  2  0  0  0  0  0  0  0  0  0
  -18.3317   14.6269   16.1700 N   0  3  0  0  0  0  0  0  0  0  0  0
  -16.5052   16.3057   15.9660 C   0  0  0  0  0  0  0  0  0  0  0  0
  -15.5323   17.1198   16.8369 C   0  0  2  0  0  0  0  0  0  0  0  0
  -14.7542   18.0039   16.0232 O   0  0  0  0  0  0  0  0  0  0  0  0
  -14.6278   16.1496   17.6369 C   0  0  2  0  0  0  0  0  0  0  0  0
  -15.4384   15.2599   18.4563 O   0  0  0  0  0  0  0  0  0  0  0  0
  -13.6569   16.8584   18.5780 C   0  0  0  0  0  0  0  0  0  0  0  0
  -12.4835   17.3926   17.8381 N   0  3  0  0  0  0  0  0  0  0  0  0
  -13.4421   10.1234   17.4111 C   0  0  2  0  0  0  0  0  0  0  0  0
  -13.0012    8.7660   17.7812 N   0  3  0  0  0  0  0  0  0  0  0  0
  -13.8794   10.8828   18.6562 C   0  0  0  0  0  0  0  0  0  0  0  0
  -14.3439   12.2952   18.2839 C   0  0  2  0  0  0  0  0  0  0  0  0
  -14.6462   13.0343   19.5349 N   0  3  0  0  0  0  0  0  0  0  0  0
  -15.5234   12.2523   17.2669 C   0  0  2  0  0  0  0  0  0  0  0  0
  -15.1018   11.4298   16.0221 C   0  0  2  0  0  0  0  0  0  0  0  0
  -16.2154   11.2517   15.1805 O   0  0  0  0  0  0  0  0  0  0  0  0
  -14.6095   10.0318   16.4304 C   0  0  1  0  0  0  0  0  0  0  0  0
  -14.2030    9.3252   15.2589 O   0  0  0  0  0  0  0  0  0  0  0  0
  -14.1365    7.9432   15.3425 C   0  0  2  0  0  0  0  0  0  0  0  0
  -13.7705    7.3795   13.9588 C   0  0  2  0  0  0  0  0  0  0  0  0
  -12.5138    7.9174   13.5670 O   0  0  0  0  0  0  0  0  0  0  0  0
  -14.8543    7.7763   12.9412 C   0  0  1  0  0  0  0  0  0  0  0  0
  -14.5419    7.2740   11.5722 N   0  3  0  0  0  0  0  0  0  0  0  0
  -16.2251    7.2385   13.4196 C   0  0  2  0  0  0  0  0  0  0  0  0
  -17.2551    7.6131   12.5077 O   0  0  0  0  0  0  0  0  0  0  0  0
  -16.5372    7.7613   14.8341 C   0  0  2  0  0  0  0  0  0  0  0  0
  -15.4336    7.4416   15.7573 O   0  0  0  0  0  0  0  0  0  0  0  0
  -17.7908    7.1394   15.4083 C   0  0  0  0  0  0  0  0  0  0  0  0
  -17.9048    5.7629   15.0540 O   0  0  0  0  0  0  0  0  0  0  0  0
  1  2  1  6  0  0  0
  1  3  1  0  0  0  0
  1  9  1  0  0  0  0
  3  4  1  6  0  0  0
  3  5  1  0  0  0  0
  5  6  1  0  0  0  0
  6  7  1  6  0  0  0
  6  8  1  0  0  0  0
  8  9  1  0  0  0  0
  8 10  1  1  0  0  0
 10 11  1  0  0  0  0
 12 13  1  1  0  0  0
 12 14  1  0  0  0  0
 12 20  1  0  0  0  0
 14 15  1  0  0  0  0
 15 16  1  1  0  0  0
 15 17  1  0  0  0  0
 17  2  1  6  0  0  0
 17 18  1  0  0  0  0
 18 19  1  6  0  0  0
 18 20  1  0  0  0  0
 20 21  1  6  0  0  0
 22 21  1  6  0  0  0
 22 23  1  0  0  0  0
 22 30  1  0  0  0  0
 23 24  1  6  0  0  0
 23 25  1  0  0  0  0
 25 26  1  6  0  0  0
 25 27  1  0  0  0  0
 27 28  1  6  0  0  0
 27 29  1  0  0  0  0
 29 30  1  0  0  0  0
 29 31  1  1  0  0  0
 31 32  1  0  0  0  0
M  CHG  5   4   1  11   1  13   1  16   1  26   1
M  END
>  <CHROM.1>
-145.12519748,-72.82545676,124.56331496,176.66111382,-78.82838475,97.82250224
-164.73719524,166.61643740,162.18204732,78.21762892,176.38992167,176.00691053
60.66889768,-70.77768195,37.95363169,58.61669580,-15.20614176,11.42047790
16.06810622,1.51960471,-0.60175680,0.33876517

>  <Name>
1lc4

>  <RI>
0

>  <Rbt.Current_Directory>
/home/afrankz/demos/rdock_decoys_rna/rnas/1lc4

>  <Rbt.Executable>
rbdock ($Id: //depot/dev/client3/rdock/2013.1/src/exe/rbdock.cxx#4 $)

>  <Rbt.Library>
libRbt.so (2013.1, Build901 2013/11/27)

>  <Rbt.Parameter_File>
/export/apps/rDock/src/rDock_2013.1_src/data/scripts/dock_solv.prm

>  <Rbt.Receptor>
prm/blind_docking_40.prm

>  <SCORE>
-36.4451

>  <SCORE.INTER>
-31.3135

>  <SCORE.INTER.CONST>
1

>  <SCORE.INTER.POLAR>
-5.96089

>  <SCORE.INTER.ROT>
6

>  <SCORE.INTER.SOLV>
30.7739

>  <SCORE.INTER.VDW>
-18.864

>  <SCORE.INTER.norm>
-0.978546

>  <SCORE.INTRA>
-14.4607

>  <SCORE.INTRA.DIHEDRAL>
-25.3904

>  <SCORE.INTRA.DIHEDRAL.0>
44.2576

>  <SCORE.INTRA.POLAR>
-0.783394

>  <SCORE.INTRA.POLAR.0>
-0.381556

>  <SCORE.INTRA.REPUL>
0

>  <SCORE.INTRA.REPUL.0>
0

>  <SCORE.INTRA.SOLV>
1.70921

>  <SCORE.INTRA.SOLV.lig_0>
-134.592

>  <SCORE.INTRA.VDW>
0.0434323

>  <SCORE.INTRA.VDW.0>
-1.01417

>  <SCORE.INTRA.norm>
-0.451896

>  <SCORE.RESTR>
9.3291

>  <SCORE.RESTR.CAVITY>
9.3291

>  <SCORE.RESTR.norm>
0.291534

>  <SCORE.SYSTEM>
0

>  <SCORE.SYSTEM.CONST>
0

>  <SCORE.SYSTEM.DIHEDRAL>
0

>  <SCORE.SYSTEM.SOLV>
0

>  <SCORE.SYSTEM.norm>
0

>  <SCORE.heavy>
32

>  <SCORE.norm>
-1.13891

>  <RMSD>
7.869

$$$$
1lc4
 OpenBabel02141814113D
libRbt.so/2013.1/901 2013/11/27
 32 34  0  0  0  0  0  0  0  0999 V2000
  -13.9246   11.0412   19.7164 C   0  0  2  0  0  0  0  0  0  0  0  0
  -12.5745   10.6996   19.9072 O   0  0  0  0  0  0  0  0  0  0  0  0
  -14.2290   12.2896   20.5694 C   0  0  2  0  0  0  0  0  0  0  0  0
  -13.3434   13.3947   20.1899 N   0  3  0  0  0  0  0  0  0  0  0  0
  -14.0969   11.9517   22.0730 C   0  0  0  0  0  0  0  0  0  0  0  0
  -15.0874   10.8150   22.3807 C   0  0  2  0  0  0  0  0  0  0  0  0
  -15.0510   10.4845   23.7731 O   0  0  0  0  0  0  0  0  0  0  0  0
  -14.7447    9.5863   21.5019 C   0  0  2  0  0  0  0  0  0  0  0  0
  -14.7868    9.9443   20.0912 O   0  0  0  0  0  0  0  0  0  0  0  0
  -15.7054    8.4150   21.6917 C   0  0  0  0  0  0  0  0  0  0  0  0
  -15.0004    7.1134   21.5566 N   0  3  0  0  0  0  0  0  0  0  0  0
  -12.4118    6.7053   18.5003 C   0  0  2  0  0  0  0  0  0  0  0  0
  -11.9864    5.4657   17.8248 N   0  3  0  0  0  0  0  0  0  0  0  0
  -12.6568    7.7985   17.4691 C   0  0  0  0  0  0  0  0  0  0  0  0
  -13.0964    9.0943   18.1596 C   0  0  2  0  0  0  0  0  0  0  0  0
  -13.4368   10.0907   17.1136 N   0  3  0  0  0  0  0  0  0  0  0  0
  -12.0256    9.5815   19.1810 C   0  0  2  0  0  0  0  0  0  0  0  0
  -11.7303    8.4495   20.1985 C   0  0  2  0  0  0  0  0  0  0  0  0
  -10.6496    8.8269   21.0169 O   0  0  0  0  0  0  0  0  0  0  0  0
  -11.3253    7.1548   19.4752 C   0  0  1  0  0  0  0  0  0  0  0  0
  -11.0957    6.1355   20.4472 O   0  0  0  0  0  0  0  0  0  0  0  0
   -9.9927    5.3171   20.2601 C   0  0  2  0  0  0  0  0  0  0  0  0
   -9.8509    4.3891   21.4787 C   0  0  2  0  0  0  0  0  0  0  0  0
  -11.0355    3.6115   21.5979 O   0  0  0  0  0  0  0  0  0  0  0  0
   -9.6466    5.2366   22.7467 C   0  0  1  0  0  0  0  0  0  0  0  0
   -9.5237    4.3892   23.9678 N   0  3  0  0  0  0  0  0  0  0  0  0
   -8.3904    6.1243   22.5704 C   0  0  2  0  0  0  0  0  0  0  0  0
   -8.1896    6.9409   23.7217 O   0  0  0  0  0  0  0  0  0  0  0  0
   -8.5265    6.9936   21.3065 C   0  0  2  0  0  0  0  0  0  0  0  0
   -8.8130    6.1524   20.1305 O   0  0  0  0  0  0  0  0  0  0  0  0
   -7.2598    7.7629   21.0042 C   0  0  0  0  0  0  0  0  0  0  0  0
   -6.3101    6.9593   20.3073 O   0  0  0  0  0  0  0  0  0  0  0  0
  1  2  1  1  0  0  0
  1  3  1  0  0  0  0
  1  9  1  0  0  0  0
  3  4  1  6  0  0  0
  3  5  1  0  0  0  0
  5  6  1  0  0  0  0
  6  7  1  1  0  0  0
  6  8  1  0  0  0  0
  8  9  1  0  0  0  0
  8 10  1  6  0  0  0
 10 11  1  0  0  0  0
 12 13  1  6  0  0  0
 12 14  1  0  0  0  0
 12 20  1  0  0  0  0
 14 15  1  0  0  0  0
 15 16  1  6  0  0  0
 15 17  1  0  0  0  0
 17  2  1  1  0  0  0
 17 18  1  0  0  0  0
 18 19  1  1  0  0  0
 18 20  1  0  0  0  0
 20 21  1  1  0  0  0
 22 21  1  1  0  0  0
 22 23  1  0  0  0  0
 22 30  1  0  0  0  0
 23 24  1  1  0  0  0
 23 25  1  0  0  0  0
 25 26  1  1  0  0  0
 25 27  1  0  0  0  0
 27 28  1  1  0  0  0
 27 29  1  0  0  0  0
 29 30  1  0  0  0  0
 29 31  1  6  0  0  0
 31 32  1  0  0  0  0
M  CHG  5   4   1  11   1  13   1  16   1  26   1
M  END
>  <CHROM.1>
-178.08801328,7.17237107,-107.24126206,70.24434729,-145.76251622,58.46515067
71.17835880,-123.92345414,-28.51316811,100.39477620,174.48514042,179.27841975
78.70368440,-177.02815114,82.32568025,-133.16244474,-11.73933171,8.07290038
20.70686603,-2.99065510,-0.76522987,1.59001007

>  <Name>
1lc4

>  <RI>
0

>  <Rbt.Current_Directory>
/home/afrankz/demos/rdock_decoys_rna/rnas/1lc4

>  <Rbt.Executable>
rbdock ($Id: //depot/dev/client3/rdock/2013.1/src/exe/rbdock.cxx#4 $)

>  <Rbt.Library>
libRbt.so (2013.1, Build901 2013/11/27)

>  <Rbt.Parameter_File>
/export/apps/rDock/src/rDock_2013.1_src/data/scripts/dock_solv.prm

>  <Rbt.Receptor>
prm/blind_docking_60.prm

>  <SCORE>
-26.7298

>  <SCORE.INTER>
-28.6905

>  <SCORE.INTER.CONST>
1

>  <SCORE.INTER.POLAR>
-5.1638

>  <SCORE.INTER.ROT>
6

>  <SCORE.INTER.SOLV>
29.6943

>  <SCORE.INTER.VDW>
-19.4124

>  <SCORE.INTER.norm>
-0.896578

>  <SCORE.INTRA>
-0.851872

>  <SCORE.INTRA.DIHEDRAL>
-8.16611

>  <SCORE.INTRA.DIHEDRAL.0>
44.2576

>  <SCORE.INTRA.POLAR>
0.381556

>  <SCORE.INTRA.POLAR.0>
-0.381556

>  <SCORE.INTRA.REPUL>
0

>  <SCORE.INTRA.REPUL.0>
0

>  <SCORE.INTRA.SOLV>
-0.803179

>  <SCORE.INTRA.SOLV.lig_0>
-134.592

>  <SCORE.INTRA.VDW>
2.33548

>  <SCORE.INTRA.VDW.0>
-1.01417

>  <SCORE.INTRA.norm>
-0.026621

>  <SCORE.RESTR>
2.81251

>  <SCORE.RESTR.CAVITY>
2.81251

>  <SCORE.RESTR.norm>
0.0878909

>  <SCORE.SYSTEM>
0

>  <SCORE.SYSTEM.CONST>
0

>  <SCORE.SYSTEM.DIHEDRAL>
0

>  <SCORE.SYSTEM.SOLV>
0

>  <SCORE.SYSTEM.norm>
0

>  <SCORE.heavy>
32

>  <SCORE.norm>
-0.835308

>  <RMSD>
7.879

$$$$
1lc4
 OpenBabel02141814113D
libRbt.so/2013.1/901 2013/11/27
 32 34  0  0  0  0  0  0  0  0999 V2000
  -16.2026    7.2572   15.0290 C   0  0  2  0  0  0  0  0  0  0  0  0
  -15.9107    6.2605   15.9763 O   0  0  0  0  0  0  0  0  0  0  0  0
  -17.5895    6.9547   14.4259 C   0  0  2  0  0  0  0  0  0  0  0  0
  -18.6062    6.9118   15.4814 N   0  3  0  0  0  0  0  0  0  0  0  0
  -17.5460    5.6288   13.6304 C   0  0  0  0  0  0  0  0  0  0  0  0
  -16.4841    5.7851   12.5279 C   0  0  2  0  0  0  0  0  0  0  0  0
  -16.4260    4.6048   11.7198 O   0  0  0  0  0  0  0  0  0  0  0  0
  -15.1118    6.0888   13.1791 C   0  0  2  0  0  0  0  0  0  0  0  0
  -15.1932    7.2913   13.9961 O   0  0  0  0  0  0  0  0  0  0  0  0
  -13.9935    6.3159   12.1649 C   0  0  0  0  0  0  0  0  0  0  0  0
  -14.3228    7.4338   11.2420 N   0  3  0  0  0  0  0  0  0  0  0  0
  -13.5284    6.3526   19.4800 C   0  0  2  0  0  0  0  0  0  0  0  0
  -12.3803    6.4359   20.4013 N   0  3  0  0  0  0  0  0  0  0  0  0
  -13.3650    5.1527   18.5570 C   0  0  0  0  0  0  0  0  0  0  0  0
  -14.5513    5.0573   17.5912 C   0  0  2  0  0  0  0  0  0  0  0  0
  -14.4091    3.8125   16.7956 N   0  3  0  0  0  0  0  0  0  0  0  0
  -14.6873    6.3510   16.7338 C   0  0  2  0  0  0  0  0  0  0  0  0
  -14.7951    7.5818   17.6703 C   0  0  2  0  0  0  0  0  0  0  0  0
  -14.7519    8.7595   16.9013 O   0  0  0  0  0  0  0  0  0  0  0  0
  -13.6102    7.6313   18.6486 C   0  0  1  0  0  0  0  0  0  0  0  0
  -13.7688    8.7587   19.5091 O   0  0  0  0  0  0  0  0  0  0  0  0
  -12.9465    9.8511   19.2819 C   0  0  2  0  0  0  0  0  0  0  0  0
  -12.8740   10.6935   20.5669 C   0  0  2  0  0  0  0  0  0  0  0  0
  -12.3512    9.8836   21.6123 O   0  0  0  0  0  0  0  0  0  0  0  0
  -14.2842   11.1861   20.9365 C   0  0  1  0  0  0  0  0  0  0  0  0
  -14.2800   11.9935   22.1903 N   0  3  0  0  0  0  0  0  0  0  0  0
  -14.8619   12.0096   19.7596 C   0  0  2  0  0  0  0  0  0  0  0  0
  -16.1804   12.4590   20.0635 O   0  0  0  0  0  0  0  0  0  0  0  0
  -14.8602   11.1679   18.4700 C   0  0  2  0  0  0  0  0  0  0  0  0
  -13.5109   10.6387   18.2014 O   0  0  0  0  0  0  0  0  0  0  0  0
  -15.2686   11.9778   17.2595 C   0  0  0  0  0  0  0  0  0  0  0  0
  -15.8821   11.1622   16.2636 O   0  0  0  0  0  0  0  0  0  0  0  0
  1  2  1  1  0  0  0
  1  3  1  0  0  0  0
  1  9  1  0  0  0  0
  3  4  1  1  0  0  0
  3  5  1  0  0  0  0
  5  6  1  0  0  0  0
  6  7  1  1  0  0  0
  6  8  1  0  0  0  0
  8  9  1  0  0  0  0
  8 10  1  6  0  0  0
 10 11  1  0  0  0  0
 12 13  1  1  0  0  0
 12 14  1  0  0  0  0
 12 20  1  0  0  0  0
 14 15  1  0  0  0  0
 15 16  1  6  0  0  0
 15 17  1  0  0  0  0
 17  2  1  1  0  0  0
 17 18  1  0  0  0  0
 18 19  1  6  0  0  0
 18 20  1  0  0  0  0
 20 21  1  1  0  0  0
 22 21  1  1  0  0  0
 22 23  1  0  0  0  0
 22 30  1  0  0  0  0
 23 24  1  1  0  0  0
 23 25  1  0  0  0  0
 25 26  1  1  0  0  0
 25 27  1  0  0  0  0
 27 28  1  1  0  0  0
 27 29  1  0  0  0  0
 29 30  1  0  0  0  0
 29 31  1  6  0  0  0
 31 32  1  0  0  0  0
M  CHG  5   4   1  11   1  13   1  16   1  26   1
M  END
>  <CHROM.1>
-177.11418846,-174.32485595,-177.97171315,55.07063302,57.90726540,62.29533700
-41.53780186,-174.23588914,-60.52375340,132.22072424,-158.58824467,168.86085448
173.86989470,-61.04493306,-151.68781630,-47.41978754,-14.83584343,8.12221966
17.07152158,2.05538261,1.06164406,-2.60084891

>  <Name>
1lc4

>  <RI>
0

>  <Rbt.Current_Directory>
/home/afrankz/demos/rdock_decoys_rna/rnas/1lc4

>  <Rbt.Executable>
rbdock ($Id: //depot/dev/client3/rdock/2013.1/src/exe/rbdock.cxx#4 $)

>  <Rbt.Library>
libRbt.so (2013.1, Build901 2013/11/27)

>  <Rbt.Parameter_File>
/export/apps/rDock/src/rDock_2013.1_src/data/scripts/dock_solv.prm

>  <Rbt.Receptor>
prm/pocket_docking_4.prm

>  <SCORE>
-42.9729

>  <SCORE.INTER>
-21.4951

>  <SCORE.INTER.CONST>
1

>  <SCORE.INTER.POLAR>
-3.97947

>  <SCORE.INTER.ROT>
6

>  <SCORE.INTER.SOLV>
17.0013

>  <SCORE.INTER.VDW>
-14.3322

>  <SCORE.INTER.norm>
-0.671721

>  <SCORE.INTRA>
-21.573

>  <SCORE.INTRA.DIHEDRAL>
-30.5645

>  <SCORE.INTRA.DIHEDRAL.0>
44.2576

>  <SCORE.INTRA.POLAR>
-0.483861

>  <SCORE.INTRA.POLAR.0>
-0.381556

>  <SCORE.INTRA.REPUL>
0

>  <SCORE.INTRA.REPUL.0>
0

>  <SCORE.INTRA.SOLV>
-2.36365

>  <SCORE.INTRA.SOLV.lig_0>
-134.592

>  <SCORE.INTRA.VDW>
-3.46377

>  <SCORE.INTRA.VDW.0>
-1.01417

>  <SCORE.INTRA.norm>
-0.674155

>  <SCORE.RESTR>
0.0951622

>  <SCORE.RESTR.CAVITY>
0.0951622

>  <SCORE.RESTR.norm>
0.00297382

>  <SCORE.SYSTEM>
0

>  <SCORE.SYSTEM.CONST>
0

>  <SCORE.SYSTEM.DIHEDRAL>
0

>  <SCORE.SYSTEM.SOLV>
0

>  <SCORE.SYSTEM.norm>
0

>  <SCORE.heavy>
32

>  <SCORE.norm>
-1.3429

>  <RMSD>
7.882

$$$$
1lc4
 OpenBabel02141814113D
libRbt.so/2013.1/901 2013/11/27
 32 34  0  0  0  0  0  0  0  0999 V2000
  -13.9286   10.6282   17.4239 C   0  0  2  0  0  0  0  0  0  0  0  0
  -15.2873   10.3174   17.2413 O   0  0  0  0  0  0  0  0  0  0  0  0
  -13.0933    9.4129   16.9717 C   0  0  2  0  0  0  0  0  0  0  0  0
  -13.3801    9.0902   15.5705 N   0  3  0  0  0  0  0  0  0  0  0  0
  -13.3687    8.2042   17.8967 C   0  0  0  0  0  0  0  0  0  0  0  0
  -13.0027    8.6258   19.3306 C   0  0  2  0  0  0  0  0  0  0  0  0
  -13.1891    7.5323   20.2355 O   0  0  0  0  0  0  0  0  0  0  0  0
  -13.8630    9.8473   19.7398 C   0  0  2  0  0  0  0  0  0  0  0  0
  -13.6590   10.9465   18.8071 O   0  0  0  0  0  0  0  0  0  0  0  0
  -13.5388   10.3810   21.1329 C   0  0  0  0  0  0  0  0  0  0  0  0
  -12.2272   11.0804   21.1496 N   0  3  0  0  0  0  0  0  0  0  0  0
  -18.3318   13.2174   16.7109 C   0  0  2  0  0  0  0  0  0  0  0  0
  -19.3783   14.2242   16.9656 N   0  3  0  0  0  0  0  0  0  0  0  0
  -18.7385   11.8828   17.3206 C   0  0  0  0  0  0  0  0  0  0  0  0
  -17.6563   10.8278   17.0655 C   0  0  2  0  0  0  0  0  0  0  0  0
  -18.1467    9.5214   17.5708 N   0  3  0  0  0  0  0  0  0  0  0  0
  -16.2858   11.2690   17.6610 C   0  0  2  0  0  0  0  0  0  0  0  0
  -15.8959   12.6553   17.0869 C   0  0  2  0  0  0  0  0  0  0  0  0
  -14.7456   13.1274   17.7456 O   0  0  0  0  0  0  0  0  0  0  0  0
  -17.0142   13.6823   17.3280 C   0  0  1  0  0  0  0  0  0  0  0  0
  -16.6259   14.9307   16.7558 O   0  0  0  0  0  0  0  0  0  0  0  0
  -17.1726   16.0789   17.3071 C   0  0  2  0  0  0  0  0  0  0  0  0
  -17.5527   17.0428   16.1701 C   0  0  2  0  0  0  0  0  0  0  0  0
  -18.4954   16.3974   15.3235 O   0  0  0  0  0  0  0  0  0  0  0  0
  -16.2919   17.4132   15.3697 C   0  0  1  0  0  0  0  0  0  0  0  0
  -16.6026   18.3320   14.2369 N   0  3  0  0  0  0  0  0  0  0  0  0
  -15.2525   18.0535   16.3219 C   0  0  2  0  0  0  0  0  0  0  0  0
  -14.0613   18.3848   15.6119 O   0  0  0  0  0  0  0  0  0  0  0  0
  -14.9400   17.0979   17.4884 C   0  0  2  0  0  0  0  0  0  0  0  0
  -16.1823   16.6943   18.1713 O   0  0  0  0  0  0  0  0  0  0  0  0
  -14.0496   17.7399   18.5289 C   0  0  0  0  0  0  0  0  0  0  0  0
  -12.6836   17.7475   18.1198 O   0  0  0  0  0  0  0  0  0  0  0  0
  1  2  1  1  0  0  0
  1  3  1  0  0  0  0
  1  9  1  0  0  0  0
  3  4  1  6  0  0  0
  3  5  1  0  0  0  0
  5  6  1  0  0  0  0
  6  7  1  1  0  0  0
  6  8  1  0  0  0  0
  8  9  1  0  0  0  0
  8 10  1  1  0  0  0
 10 11  1  0  0  0  0
 12 13  1  1  0  0  0
 12 14  1  0  0  0  0
 12 20  1  0  0  0  0
 14 15  1  0  0  0  0
 15 16  1  1  0  0  0
 15 17  1  0  0  0  0
 17  2  1  6  0  0  0
 17 18  1  0  0  0  0
 18 19  1  1  0  0  0
 18 20  1  0  0  0  0
 20 21  1  6  0  0  0
 22 21  1  6  0  0  0
 22 23  1  0  0  0  0
 22 30  1  0  0  0  0
 23 24  1  6  0  0  0
 23 25  1  0  0  0  0
 25 26  1  6  0  0  0
 25 27  1  0  0  0  0
 27 28  1  6  0  0  0
 27 29  1  0  0  0  0
 29 30  1  0  0  0  0
 29 31  1  1  0  0  0
 31 32  1  0  0  0  0
M  CHG  5   4   1  11   1  13   1  16   1  26   1
M  END
>  <CHROM.1>
176.61035126,167.60126256,61.49048847,58.31651666,72.25620016,-11.28904565
-166.77219259,174.71054315,-155.19832831,84.33413411,-138.42318194,-77.42818462
155.13868610,-168.53989320,-78.92721860,-68.78284706,-15.43511286,13.21823103
17.50227189,-1.27724431,-0.42653116,-0.17285797

>  <Name>
1lc4

>  <RI>
0

>  <Rbt.Current_Directory>
/home/afrankz/demos/rdock_decoys_rna/rnas/1lc4

>  <Rbt.Executable>
rbdock ($Id: //depot/dev/client3/rdock/2013.1/src/exe/rbdock.cxx#4 $)

>  <Rbt.Library>
libRbt.so (2013.1, Build901 2013/11/27)

>  <Rbt.Parameter_File>
/export/apps/rDock/src/rDock_2013.1_src/data/scripts/dock_solv.prm

>  <Rbt.Receptor>
prm/blind_docking_40.prm

>  <SCORE>
-24.6991

>  <SCORE.INTER>
-20.4034

>  <SCORE.INTER.CONST>
1

>  <SCORE.INTER.POLAR>
-4.60783

>  <SCORE.INTER.ROT>
6

>  <SCORE.INTER.SOLV>
28.6097

>  <SCORE.INTER.VDW>
-15.3794

>  <SCORE.INTER.norm>
-0.637606

>  <SCORE.INTRA>
-15.6914

>  <SCORE.INTRA.DIHEDRAL>
-23.3019

>  <SCORE.INTRA.DIHEDRAL.0>
44.2576

>  <SCORE.INTRA.POLAR>
-0.956615

>  <SCORE.INTRA.POLAR.0>
-0.381556

>  <SCORE.INTRA.REPUL>
0.0115499

>  <SCORE.INTRA.REPUL.0>
0

>  <SCORE.INTRA.SOLV>
-1.34597

>  <SCORE.INTRA.SOLV.lig_0>
-134.592

>  <SCORE.INTRA.VDW>
-0.172727

>  <SCORE.INTRA.VDW.0>
-1.01417

>  <SCORE.INTRA.norm>
-0.490357

>  <SCORE.RESTR>
11.3957

>  <SCORE.RESTR.CAVITY>
11.3957

>  <SCORE.RESTR.norm>
0.356116

>  <SCORE.SYSTEM>
0

>  <SCORE.SYSTEM.CONST>
0

>  <SCORE.SYSTEM.DIHEDRAL>
0

>  <SCORE.SYSTEM.SOLV>
0

>  <SCORE.SYSTEM.norm>
0

>  <SCORE.heavy>
32

>  <SCORE.norm>
-0.771846

>  <RMSD>
7.894

$$$$
1lc4
 OpenBabel02141814113D
libRbt.so/2013.1/901 2013/11/27
 32 34  0  0  0  0  0  0  0  0999 V2000
  -11.8319    5.0556   13.0824 C   0  0  2  0  0  0  0  0  0  0  0  0
  -12.2554    6.3539   12.7492 O   0  0  0  0  0  0  0  0  0  0  0  0
  -10.7732    4.6164   12.0503 C   0  0  2  0  0  0  0  0  0  0  0  0
   -9.6477    5.5561   12.0430 N   0  3  0  0  0  0  0  0  0  0  0  0
  -11.4153    4.4944   10.6484 C   0  0  0  0  0  0  0  0  0  0  0  0
  -12.5531    3.4633   10.7486 C   0  0  2  0  0  0  0  0  0  0  0  0
  -13.1617    3.2656    9.4680 O   0  0  0  0  0  0  0  0  0  0  0  0
  -13.5887    3.9445   11.7952 C   0  0  2  0  0  0  0  0  0  0  0  0
  -12.9492    4.1398   13.0887 O   0  0  0  0  0  0  0  0  0  0  0  0
  -14.7373    2.9624   12.0114 C   0  0  0  0  0  0  0  0  0  0  0  0
  -15.7056    3.4790   13.0140 N   0  3  0  0  0  0  0  0  0  0  0  0
  -14.6161    9.3439   14.6056 C   0  0  2  0  0  0  0  0  0  0  0  0
  -15.7219   10.0503   15.2780 N   0  3  0  0  0  0  0  0  0  0  0  0
  -15.0778    8.8346   13.2470 C   0  0  0  0  0  0  0  0  0  0  0  0
  -13.9373    8.0947   12.5391 C   0  0  2  0  0  0  0  0  0  0  0  0
  -14.3945    7.7220   11.1772 N   0  3  0  0  0  0  0  0  0  0  0  0
  -13.4272    6.8948   13.3919 C   0  0  2  0  0  0  0  0  0  0  0  0
  -13.0108    7.4006   14.7971 C   0  0  2  0  0  0  0  0  0  0  0  0
  -12.7072    6.2996   15.6191 O   0  0  0  0  0  0  0  0  0  0  0  0
  -14.1628    8.1669   15.4671 C   0  0  1  0  0  0  0  0  0  0  0  0
  -13.7241    8.6397   16.7401 O   0  0  0  0  0  0  0  0  0  0  0  0
  -14.6734    8.7272   17.7462 C   0  0  2  0  0  0  0  0  0  0  0  0
  -14.4102   10.0010   18.5675 C   0  0  2  0  0  0  0  0  0  0  0  0
  -14.4951   11.1256   17.7013 O   0  0  0  0  0  0  0  0  0  0  0  0
  -13.0079    9.9242   19.1963 C   0  0  1  0  0  0  0  0  0  0  0  0
  -12.6870   11.1455   19.9897 N   0  3  0  0  0  0  0  0  0  0  0  0
  -12.9145    8.6581   20.0824 C   0  0  2  0  0  0  0  0  0  0  0  0
  -11.6155    8.5464   20.6595 O   0  0  0  0  0  0  0  0  0  0  0  0
  -13.2492    7.4035   19.2543 C   0  0  2  0  0  0  0  0  0  0  0  0
  -14.5584    7.5553   18.5945 O   0  0  0  0  0  0  0  0  0  0  0  0
  -13.3249    6.1586   20.1102 C   0  0  0  0  0  0  0  0  0  0  0  0
  -12.0905    5.9028   20.7767 O   0  0  0  0  0  0  0  0  0  0  0  0
  1  2  1  6  0  0  0
  1  3  1  0  0  0  0
  1  9  1  0  0  0  0
  3  4  1  6  0  0  0
  3  5  1  0  0  0  0
  5  6  1  0  0  0  0
  6  7  1  6  0  0  0
  6  8  1  0  0  0  0
  8  9  1  0  0  0  0
  8 10  1  1  0  0  0
 10 11  1  0  0  0  0
 12 13  1  1  0  0  0
 12 14  1  0  0  0  0
 12 20  1  0  0  0  0
 14 15  1  0  0  0  0
 15 16  1  6  0  0  0
 15 17  1  0  0  0  0
 17  2  1  6  0  0  0
 17 18  1  0  0  0  0
 18 19  1  1  0  0  0
 18 20  1  0  0  0  0
 20 21  1  1  0  0  0
 22 21  1  6  0  0  0
 22 23  1  0  0  0  0
 22 30  1  0  0  0  0
 23 24  1  6  0  0  0
 23 25  1  0  0  0  0
 25 26  1  1  0  0  0
 25 27  1  0  0  0  0
 27 28  1  6  0  0  0
 27 29  1  0  0  0  0
 29 30  1  0  0  0  0
 29 31  1  1  0  0  0
 31 32  1  0  0  0  0
M  CHG  5   4   1  11   1  13   1  16   1  26   1
M  END
>  <CHROM.1>
167.76438098,-161.67864593,-147.94054568,63.06959493,-179.47345469,-175.98142094
63.80733059,-70.91187074,-57.75421457,90.15532199,-141.16414221,-85.62343629
-49.79542906,169.97141003,-59.85149360,-178.99684564,-13.32109699,7.00332771
15.22106810,-1.46269257,-1.05361964,1.14579433

>  <Name>
1lc4

>  <RI>
0

>  <Rbt.Current_Directory>
/home/afrankz/demos/rdock_decoys_rna/rnas/1lc4

>  <Rbt.Executable>
rbdock ($Id: //depot/dev/client3/rdock/2013.1/src/exe/rbdock.cxx#4 $)

>  <Rbt.Library>
libRbt.so (2013.1, Build901 2013/11/27)

>  <Rbt.Parameter_File>
/export/apps/rDock/src/rDock_2013.1_src/data/scripts/dock_solv.prm

>  <Rbt.Receptor>
prm/pocket_docking_6.prm

>  <SCORE>
-47.9481

>  <SCORE.INTER>
-27.6936

>  <SCORE.INTER.CONST>
1

>  <SCORE.INTER.POLAR>
-4.79751

>  <SCORE.INTER.ROT>
6

>  <SCORE.INTER.SOLV>
17.8958

>  <SCORE.INTER.VDW>
-16.036

>  <SCORE.INTER.norm>
-0.865425

>  <SCORE.INTRA>
-20.2545

>  <SCORE.INTRA.DIHEDRAL>
-27.1411

>  <SCORE.INTRA.DIHEDRAL.0>
44.2576

>  <SCORE.INTRA.POLAR>
-0.904278

>  <SCORE.INTRA.POLAR.0>
-0.381556

>  <SCORE.INTRA.REPUL>
0

>  <SCORE.INTRA.REPUL.0>
0

>  <SCORE.INTRA.SOLV>
-1.53486

>  <SCORE.INTRA.SOLV.lig_0>
-134.592

>  <SCORE.INTRA.VDW>
-2.84193

>  <SCORE.INTRA.VDW.0>
-1.01417

>  <SCORE.INTRA.norm>
-0.632952

>  <SCORE.RESTR>
0

>  <SCORE.RESTR.CAVITY>
0

>  <SCORE.RESTR.norm>
0

>  <SCORE.SYSTEM>
0

>  <SCORE.SYSTEM.CONST>
0

>  <SCORE.SYSTEM.DIHEDRAL>
0

>  <SCORE.SYSTEM.SOLV>
0

>  <SCORE.SYSTEM.norm>
0

>  <SCORE.heavy>
32

>  <SCORE.norm>
-1.49838

>  <RMSD>
7.903

$$$$
1lc4
 OpenBabel02141814113D
libRbt.so/2013.1/901 2013/11/27
 32 34  0  0  0  0  0  0  0  0999 V2000
  -14.8335    5.3597   14.0474 C   0  0  2  0  0  0  0  0  0  0  0  0
  -14.0905    6.3594   14.6990 O   0  0  0  0  0  0  0  0  0  0  0  0
  -13.8767    4.2015   13.6981 C   0  0  2  0  0  0  0  0  0  0  0  0
  -13.2396    3.6825   14.9124 N   0  3  0  0  0  0  0  0  0  0  0  0
  -12.8249    4.6729   12.6666 C   0  0  0  0  0  0  0  0  0  0  0  0
  -13.5847    5.1596   11.4201 C   0  0  2  0  0  0  0  0  0  0  0  0
  -12.6645    5.5671   10.4021 O   0  0  0  0  0  0  0  0  0  0  0  0
  -14.5319    6.3186   11.8187 C   0  0  2  0  0  0  0  0  0  0  0  0
  -15.4580    5.8832   12.8546 O   0  0  0  0  0  0  0  0  0  0  0  0
  -15.3764    6.8410   10.6591 C   0  0  0  0  0  0  0  0  0  0  0  0
  -16.8032    6.4547   10.8156 N   0  3  0  0  0  0  0  0  0  0  0  0
  -14.7083    9.8139   17.0748 C   0  0  2  0  0  0  0  0  0  0  0  0
  -15.2425   10.7638   18.0678 N   0  3  0  0  0  0  0  0  0  0  0  0
  -15.7895    9.4614   16.0622 C   0  0  0  0  0  0  0  0  0  0  0  0
  -15.2472    8.4710   15.0258 C   0  0  2  0  0  0  0  0  0  0  0  0
  -16.2933    8.2496   13.9967 N   0  3  0  0  0  0  0  0  0  0  0  0
  -14.7341    7.1663   15.7056 C   0  0  2  0  0  0  0  0  0  0  0  0
  -13.6747    7.5260   16.7790 C   0  0  2  0  0  0  0  0  0  0  0  0
  -13.3330    6.3696   17.5043 O   0  0  0  0  0  0  0  0  0  0  0  0
  -14.2365    8.5456   17.7831 C   0  0  1  0  0  0  0  0  0  0  0  0
  -13.2190    8.8701   18.7297 O   0  0  0  0  0  0  0  0  0  0  0  0
  -13.5350    8.7344   20.0725 C   0  0  2  0  0  0  0  0  0  0  0  0
  -12.3116    9.1376   20.9133 C   0  0  2  0  0  0  0  0  0  0  0  0
  -11.9782   10.4868   20.6123 O   0  0  0  0  0  0  0  0  0  0  0  0
  -11.1292    8.2137   20.5728 C   0  0  1  0  0  0  0  0  0  0  0  0
   -9.9041    8.5715   21.3444 N   0  3  0  0  0  0  0  0  0  0  0  0
  -11.5348    6.7444   20.8443 C   0  0  2  0  0  0  0  0  0  0  0  0
  -10.4657    5.8612   20.5134 O   0  0  0  0  0  0  0  0  0  0  0  0
  -12.8012    6.3858   20.0446 C   0  0  2  0  0  0  0  0  0  0  0  0
  -13.8805    7.3484   20.3291 O   0  0  0  0  0  0  0  0  0  0  0  0
  -13.3275    5.0119   20.3957 C   0  0  0  0  0  0  0  0  0  0  0  0
  -12.3566    3.9975   20.1471 O   0  0  0  0  0  0  0  0  0  0  0  0
  1  2  1  6  0  0  0
  1  3  1  0  0  0  0
  1  9  1  0  0  0  0
  3  4  1  1  0  0  0
  3  5  1  0  0  0  0
  5  6  1  0  0  0  0
  6  7  1  6  0  0  0
  6  8  1  0  0  0  0
  8  9  1  0  0  0  0
  8 10  1  6  0  0  0
 10 11  1  0  0  0  0
 12 13  1  1  0  0  0
 12 14  1  0  0  0  0
 12 20  1  0  0  0  0
 14 15  1  0  0  0  0
 15 16  1  6  0  0  0
 15 17  1  0  0  0  0
 17  2  1  6  0  0  0
 17 18  1  0  0  0  0
 18 19  1  1  0  0  0
 18 20  1  0  0  0  0
 20 21  1  1  0  0  0
 22 21  1  6  0  0  0
 22 23  1  0  0  0  0
 22 30  1  0  0  0  0
 23 24  1  6  0  0  0
 23 25  1  0  0  0  0
 25 26  1  1  0  0  0
 25 27  1  0  0  0  0
 27 28  1  6  0  0  0
 27 29  1  0  0  0  0
 29 30  1  0  0  0  0
 29 31  1  1  0  0  0
 31 32  1  0  0  0  0
M  CHG  5   4   1  11   1  13   1  16   1  26   1
M  END
>  <CHROM.1>
-147.96443037,-94.70535891,69.20046200,174.35415078,108.78058510,75.52510139
65.92618378,-42.09907620,-53.58753699,111.37876858,-179.74783844,59.98914061
-174.24720782,-168.95100008,-59.04858040,-177.46521314,-13.64632202,7.05732564
16.59069481,-2.11629950,-0.97708457,0.88433951

>  <Name>
1lc4

>  <RI>
0

>  <Rbt.Current_Directory>
/home/afrankz/demos/rdock_decoys_rna/rnas/1lc4

>  <Rbt.Executable>
rbdock ($Id: //depot/dev/client3/rdock/2013.1/src/exe/rbdock.cxx#4 $)

>  <Rbt.Library>
libRbt.so (2013.1, Build901 2013/11/27)

>  <Rbt.Parameter_File>
/export/apps/rDock/src/rDock_2013.1_src/data/scripts/dock_solv.prm

>  <Rbt.Receptor>
prm/pocket_docking_5.prm

>  <SCORE>
-36.9928

>  <SCORE.INTER>
-21.4776

>  <SCORE.INTER.CONST>
1

>  <SCORE.INTER.POLAR>
-4.18372

>  <SCORE.INTER.ROT>
6

>  <SCORE.INTER.SOLV>
21.5829

>  <SCORE.INTER.VDW>
-15.167

>  <SCORE.INTER.norm>
-0.671176

>  <SCORE.INTRA>
-15.5152

>  <SCORE.INTRA.DIHEDRAL>
-21.4218

>  <SCORE.INTRA.DIHEDRAL.0>
44.2576

>  <SCORE.INTRA.POLAR>
-1.31519

>  <SCORE.INTRA.POLAR.0>
-0.381556

>  <SCORE.INTRA.REPUL>
0

>  <SCORE.INTRA.REPUL.0>
0

>  <SCORE.INTRA.SOLV>
3.40283

>  <SCORE.INTRA.SOLV.lig_0>
-134.592

>  <SCORE.INTRA.VDW>
-2.03404

>  <SCORE.INTRA.VDW.0>
-1.01417

>  <SCORE.INTRA.norm>
-0.48485

>  <SCORE.RESTR>
0

>  <SCORE.RESTR.CAVITY>
0

>  <SCORE.RESTR.norm>
0

>  <SCORE.SYSTEM>
0

>  <SCORE.SYSTEM.CONST>
0

>  <SCORE.SYSTEM.DIHEDRAL>
0

>  <SCORE.SYSTEM.SOLV>
0

>  <SCORE.SYSTEM.norm>
0

>  <SCORE.heavy>
32

>  <SCORE.norm>
-1.15603

>  <RMSD>
7.916

$$$$
1lc4
 OpenBabel02141814113D
libRbt.so/2013.1/901 2013/11/27
 32 34  0  0  0  0  0  0  0  0999 V2000
  -11.2188    5.3955   14.2507 C   0  0  2  0  0  0  0  0  0  0  0  0
  -11.0965    6.6052   14.9562 O   0  0  0  0  0  0  0  0  0  0  0  0
   -9.8754    4.6444   14.3496 C   0  0  2  0  0  0  0  0  0  0  0  0
   -9.5262    4.4067   15.7536 N   0  3  0  0  0  0  0  0  0  0  0  0
   -8.7668    5.4383   13.6193 C   0  0  0  0  0  0  0  0  0  0  0  0
   -9.2040    5.6018   12.1530 C   0  0  2  0  0  0  0  0  0  0  0  0
   -8.1956    6.2896   11.4052 O   0  0  0  0  0  0  0  0  0  0  0  0
  -10.5550    6.3580   12.1035 C   0  0  2  0  0  0  0  0  0  0  0  0
  -11.5651    5.6424   12.8700 O   0  0  0  0  0  0  0  0  0  0  0  0
  -11.1069    6.5266   10.6901 C   0  0  0  0  0  0  0  0  0  0  0  0
  -11.3403    5.2090   10.0427 N   0  3  0  0  0  0  0  0  0  0  0  0
  -12.6904    8.8085   18.2066 C   0  0  2  0  0  0  0  0  0  0  0  0
  -13.4649    9.1995   19.3987 N   0  3  0  0  0  0  0  0  0  0  0  0
  -13.6369    8.4694   17.0631 C   0  0  0  0  0  0  0  0  0  0  0  0
  -12.8434    8.0575   15.8181 C   0  0  2  0  0  0  0  0  0  0  0  0
  -13.7979    7.8524   14.7004 N   0  3  0  0  0  0  0  0  0  0  0  0
  -11.9300    6.8298   16.1110 C   0  0  2  0  0  0  0  0  0  0  0  0
  -11.0046    7.1501   17.3131 C   0  0  2  0  0  0  0  0  0  0  0  0
  -10.2988    5.9899   17.6817 O   0  0  0  0  0  0  0  0  0  0  0  0
  -11.8267    7.5922   18.5346 C   0  0  1  0  0  0  0  0  0  0  0  0
  -10.9339    7.9067   19.6026 O   0  0  0  0  0  0  0  0  0  0  0  0
  -11.3489    7.5977   20.8885 C   0  0  2  0  0  0  0  0  0  0  0  0
  -10.7654    8.6366   21.8614 C   0  0  2  0  0  0  0  0  0  0  0  0
  -11.2309    9.9256   21.4824 O   0  0  0  0  0  0  0  0  0  0  0  0
   -9.2286    8.5911   21.7979 C   0  0  1  0  0  0  0  0  0  0  0  0
   -8.6049    9.5950   22.7075 N   0  3  0  0  0  0  0  0  0  0  0  0
   -8.7453    7.1627   22.1489 C   0  0  2  0  0  0  0  0  0  0  0  0
   -7.3238    7.0833   22.0735 O   0  0  0  0  0  0  0  0  0  0  0  0
   -9.3962    6.1342   21.2055 C   0  0  2  0  0  0  0  0  0  0  0  0
  -10.8636    6.2722   21.2257 O   0  0  0  0  0  0  0  0  0  0  0  0
   -9.0785    4.7108   21.6069 C   0  0  0  0  0  0  0  0  0  0  0  0
   -9.9560    3.7789   20.9786 O   0  0  0  0  0  0  0  0  0  0  0  0
  1  2  1  1  0  0  0
  1  3  1  0  0  0  0
  1  9  1  0  0  0  0
  3  4  1  1  0  0  0
  3  5  1  0  0  0  0
  5  6  1  0  0  0  0
  6  7  1  6  0  0  0
  6  8  1  0  0  0  0
  8  9  1  0  0  0  0
  8 10  1  6  0  0  0
 10 11  1  0  0  0  0
 12 13  1  1  0  0  0
 12 14  1  0  0  0  0
 12 20  1  0  0  0  0
 14 15  1  0  0  0  0
 15 16  1  6  0  0  0
 15 17  1  0  0  0  0
 17  2  1  6  0  0  0
 17 18  1  0  0  0  0
 18 19  1  1  0  0  0
 18 20  1  0  0  0  0
 20 21  1  1  0  0  0
 22 21  1  6  0  0  0
 22 23  1  0  0  0  0
 22 30  1  0  0  0  0
 23 24  1  6  0  0  0
 23 25  1  0  0  0  0
 25 26  1  1  0  0  0
 25 27  1  0  0  0  0
 27 28  1  6  0  0  0
 27 29  1  0  0  0  0
 29 30  1  0  0  0  0
 29 31  1  1  0  0  0
 31 32  1  0  0  0  0
M  CHG  5   4   1  11   1  13   1  16   1  26   1
M  END
>  <CHROM.1>
-116.97962729,-117.35161566,72.67407437,62.04910876,60.08807303,152.88911561
-171.46725431,176.00797952,-167.11348895,93.57924689,-147.75591785,-67.11300426
-145.97607460,62.86216518,163.98227201,60.22145206,-10.65237162,6.85398784
17.33982086,-1.66719903,-0.66011987,1.32063166

>  <Name>
1lc4

>  <RI>
0

>  <Rbt.Current_Directory>
/home/afrankz/demos/rdock_decoys_rna/rnas/1lc4

>  <Rbt.Executable>
rbdock ($Id: //depot/dev/client3/rdock/2013.1/src/exe/rbdock.cxx#4 $)

>  <Rbt.Library>
libRbt.so (2013.1, Build901 2013/11/27)

>  <Rbt.Parameter_File>
/export/apps/rDock/src/rDock_2013.1_src/data/scripts/dock_solv.prm

>  <Rbt.Receptor>
prm/blind_docking_80.prm

>  <SCORE>
-23.4812

>  <SCORE.INTER>
-14.3717

>  <SCORE.INTER.CONST>
1

>  <SCORE.INTER.POLAR>
-3.03724

>  <SCORE.INTER.ROT>
6

>  <SCORE.INTER.SOLV>
24.308

>  <SCORE.INTER.VDW>
-15.1597

>  <SCORE.INTER.norm>
-0.449117

>  <SCORE.INTRA>
-13.9634

>  <SCORE.INTRA.DIHEDRAL>
-15.3127

>  <SCORE.INTRA.DIHEDRAL.0>
44.2576

>  <SCORE.INTRA.POLAR>
-1.2344

>  <SCORE.INTRA.POLAR.0>
-0.381556

>  <SCORE.INTRA.REPUL>
0

>  <SCORE.INTRA.REPUL.0>
0

>  <SCORE.INTRA.SOLV>
3.10825

>  <SCORE.INTRA.SOLV.lig_0>
-134.592

>  <SCORE.INTRA.VDW>
-3.6642

>  <SCORE.INTRA.VDW.0>
-1.01417

>  <SCORE.INTRA.norm>
-0.436356

>  <SCORE.RESTR>
4.85395

>  <SCORE.RESTR.CAVITY>
4.85395

>  <SCORE.RESTR.norm>
0.151686

>  <SCORE.SYSTEM>
0

>  <SCORE.SYSTEM.CONST>
0

>  <SCORE.SYSTEM.DIHEDRAL>
0

>  <SCORE.SYSTEM.SOLV>
0

>  <SCORE.SYSTEM.norm>
0

>  <SCORE.heavy>
32

>  <SCORE.norm>
-0.733787

>  <RMSD>
7.927

$$$$
1lc4
 OpenBabel02141814113D
libRbt.so/2013.1/901 2013/11/27
 32 34  0  0  0  0  0  0  0  0999 V2000
  -14.4495    8.1259   12.9945 C   0  0  2  0  0  0  0  0  0  0  0  0
  -14.3097    7.4212   14.2028 O   0  0  0  0  0  0  0  0  0  0  0  0
  -15.5931    7.4759   12.1893 C   0  0  2  0  0  0  0  0  0  0  0  0
  -16.8381    7.4977   12.9633 N   0  3  0  0  0  0  0  0  0  0  0  0
  -15.2060    6.0341   11.7842 C   0  0  0  0  0  0  0  0  0  0  0  0
  -13.9173    6.1186   10.9477 C   0  0  2  0  0  0  0  0  0  0  0  0
  -13.5282    4.8166   10.4973 O   0  0  0  0  0  0  0  0  0  0  0  0
  -12.8002    6.7778   11.7945 C   0  0  2  0  0  0  0  0  0  0  0  0
  -13.2164    8.0993   12.2423 O   0  0  0  0  0  0  0  0  0  0  0  0
  -11.4878    6.9590   11.0359 C   0  0  0  0  0  0  0  0  0  0  0  0
  -10.7810    5.6623   10.8659 N   0  3  0  0  0  0  0  0  0  0  0  0
  -12.4410    8.1313   17.9395 C   0  0  2  0  0  0  0  0  0  0  0  0
  -11.4470    8.4590   18.9780 N   0  3  0  0  0  0  0  0  0  0  0  0
  -11.9827    6.9119   17.1512 C   0  0  0  0  0  0  0  0  0  0  0  0
  -13.0066    6.5630   16.0653 C   0  0  2  0  0  0  0  0  0  0  0  0
  -12.5789    5.3049   15.4045 N   0  3  0  0  0  0  0  0  0  0  0  0
  -13.2218    7.7566   15.0873 C   0  0  2  0  0  0  0  0  0  0  0  0
  -13.6319    9.0163   15.8928 C   0  0  2  0  0  0  0  0  0  0  0  0
  -13.6655   10.1301   15.0335 O   0  0  0  0  0  0  0  0  0  0  0  0
  -12.6041    9.3204   16.9949 C   0  0  1  0  0  0  0  0  0  0  0  0
  -13.0388   10.4649   17.7284 O   0  0  0  0  0  0  0  0  0  0  0  0
  -14.2962   10.4068   18.3087 C   0  0  2  0  0  0  0  0  0  0  0  0
  -15.0173   11.7435   18.0652 C   0  0  2  0  0  0  0  0  0  0  0  0
  -15.1235   11.9536   16.6628 O   0  0  0  0  0  0  0  0  0  0  0  0
  -14.2116   12.8849   18.7100 C   0  0  1  0  0  0  0  0  0  0  0  0
  -14.8531   14.2127   18.4876 N   0  3  0  0  0  0  0  0  0  0  0  0
  -14.0503   12.6039   20.2240 C   0  0  2  0  0  0  0  0  0  0  0  0
  -13.2846   13.6340   20.8449 O   0  0  0  0  0  0  0  0  0  0  0  0
  -13.3888   11.2305   20.4425 C   0  0  2  0  0  0  0  0  0  0  0  0
  -14.1386   10.1783   19.7332 O   0  0  0  0  0  0  0  0  0  0  0  0
  -13.3519   10.8412   21.9037 C   0  0  0  0  0  0  0  0  0  0  0  0
  -12.6625    9.6089   22.1024 O   0  0  0  0  0  0  0  0  0  0  0  0
  1  2  1  1  0  0  0
  1  3  1  0  0  0  0
  1  9  1  0  0  0  0
  3  4  1  1  0  0  0
  3  5  1  0  0  0  0
  5  6  1  0  0  0  0
  6  7  1  1  0  0  0
  6  8  1  0  0  0  0
  8  9  1  0  0  0  0
  8 10  1  6  0  0  0
 10 11  1  0  0  0  0
 12 13  1  1  0  0  0
 12 14  1  0  0  0  0
 12 20  1  0  0  0  0
 14 15  1  0  0  0  0
 15 16  1  6  0  0  0
 15 17  1  0  0  0  0
 17  2  1  6  0  0  0
 17 18  1  0  0  0  0
 18 19  1  6  0  0  0
 18 20  1  0  0  0  0
 20 21  1  1  0  0  0
 22 21  1  6  0  0  0
 22 23  1  0  0  0  0
 22 30  1  0  0  0  0
 23 24  1  6  0  0  0
 23 25  1  0  0  0  0
 25 26  1  1  0  0  0
 25 27  1  0  0  0  0
 27 28  1  6  0  0  0
 27 29  1  0  0  0  0
 29 30  1  0  0  0  0
 29 31  1  1  0  0  0
 31 32  1  0  0  0  0
M  CHG  5   4   1  11   1  13   1  16   1  26   1
M  END
>  <CHROM.1>
174.41196329,-161.16100182,-161.47208780,78.98035152,-74.02043833,-66.84236782
-164.79818115,-63.97621128,-176.69559727,-65.27248942,-136.52153228,165.88293101
6.22415593,-59.85083958,-176.29273636,-59.13006889,-13.55848746,8.95489750
16.04358412,1.53246546,0.91026808,-2.12429303

>  <Name>
1lc4

>  <RI>
0

>  <Rbt.Current_Directory>
/home/afrankz/demos/rdock_decoys_rna/rnas/1lc4

>  <Rbt.Executable>
rbdock ($Id: //depot/dev/client3/rdock/2013.1/src/exe/rbdock.cxx#4 $)

>  <Rbt.Library>
libRbt.so (2013.1, Build901 2013/11/27)

>  <Rbt.Parameter_File>
/export/apps/rDock/src/rDock_2013.1_src/data/scripts/dock_solv.prm

>  <Rbt.Receptor>
prm/blind_docking_80.prm

>  <SCORE>
-39.356

>  <SCORE.INTER>
-23.4946

>  <SCORE.INTER.CONST>
1

>  <SCORE.INTER.POLAR>
-3.48886

>  <SCORE.INTER.ROT>
6

>  <SCORE.INTER.SOLV>
22.4434

>  <SCORE.INTER.VDW>
-19.1147

>  <SCORE.INTER.norm>
-0.734206

>  <SCORE.INTRA>
-21.89

>  <SCORE.INTRA.DIHEDRAL>
-27.99

>  <SCORE.INTRA.DIHEDRAL.0>
44.2576

>  <SCORE.INTRA.POLAR>
-1.38909

>  <SCORE.INTRA.POLAR.0>
-0.381556

>  <SCORE.INTRA.REPUL>
0

>  <SCORE.INTRA.REPUL.0>
0

>  <SCORE.INTRA.SOLV>
-0.753333

>  <SCORE.INTRA.SOLV.lig_0>
-134.592

>  <SCORE.INTRA.VDW>
-2.79545

>  <SCORE.INTRA.VDW.0>
-1.01417

>  <SCORE.INTRA.norm>
-0.684064

>  <SCORE.RESTR>
6.02861

>  <SCORE.RESTR.CAVITY>
6.02861

>  <SCORE.RESTR.norm>
0.188394

>  <SCORE.SYSTEM>
0

>  <SCORE.SYSTEM.CONST>
0

>  <SCORE.SYSTEM.DIHEDRAL>
0

>  <SCORE.SYSTEM.SOLV>
0

>  <SCORE.SYSTEM.norm>
0

>  <SCORE.heavy>
32

>  <SCORE.norm>
-1.22988

>  <RMSD>
7.927

$$$$
1lc4
 OpenBabel02141814113D
libRbt.so/2013.1/901 2013/11/27
 32 34  0  0  0  0  0  0  0  0999 V2000
  -13.6030    7.7414   15.7445 C   0  0  2  0  0  0  0  0  0  0  0  0
  -14.6376    8.3125   16.5057 O   0  0  0  0  0  0  0  0  0  0  0  0
  -13.2757    8.7015   14.5827 C   0  0  2  0  0  0  0  0  0  0  0  0
  -12.8883   10.0168   15.1019 N   0  3  0  0  0  0  0  0  0  0  0  0
  -14.4844    8.8075   13.6233 C   0  0  0  0  0  0  0  0  0  0  0  0
  -14.7883    7.3914   13.1034 C   0  0  2  0  0  0  0  0  0  0  0  0
  -15.8716    7.4248   12.1682 O   0  0  0  0  0  0  0  0  0  0  0  0
  -15.1087    6.4644   14.3023 C   0  0  2  0  0  0  0  0  0  0  0  0
  -13.9954    6.4455   15.2405 O   0  0  0  0  0  0  0  0  0  0  0  0
  -15.3736    5.0161   13.8984 C   0  0  0  0  0  0  0  0  0  0  0  0
  -16.6076    4.9035   13.0773 N   0  3  0  0  0  0  0  0  0  0  0  0
  -12.3000    9.2904   19.9027 C   0  0  2  0  0  0  0  0  0  0  0  0
  -11.8804    9.6122   21.2790 N   0  3  0  0  0  0  0  0  0  0  0  0
  -13.2729   10.3473   19.3979 C   0  0  0  0  0  0  0  0  0  0  0  0
  -13.7197   10.0218   17.9684 C   0  0  2  0  0  0  0  0  0  0  0  0
  -14.5691   11.1355   17.4776 N   0  3  0  0  0  0  0  0  0  0  0  0
  -14.3977    8.6210   17.8935 C   0  0  2  0  0  0  0  0  0  0  0  0
  -13.4318    7.5493   18.4611 C   0  0  2  0  0  0  0  0  0  0  0  0
  -14.1016    6.3147   18.5465 O   0  0  0  0  0  0  0  0  0  0  0  0
  -12.9752    7.9205   19.8813 C   0  0  1  0  0  0  0  0  0  0  0  0
  -12.0653    6.9253   20.3487 O   0  0  0  0  0  0  0  0  0  0  0  0
  -11.2756    6.2925   19.4015 C   0  0  2  0  0  0  0  0  0  0  0  0
  -11.4288    4.7706   19.5643 C   0  0  2  0  0  0  0  0  0  0  0  0
  -12.7973    4.4297   19.3822 O   0  0  0  0  0  0  0  0  0  0  0  0
  -10.9651    4.3569   20.9720 C   0  0  1  0  0  0  0  0  0  0  0  0
  -11.1110    2.8898   21.1965 N   0  3  0  0  0  0  0  0  0  0  0  0
   -9.4942    4.7959   21.1744 C   0  0  2  0  0  0  0  0  0  0  0  0
   -9.0439    4.4478   22.4816 O   0  0  0  0  0  0  0  0  0  0  0  0
   -9.3542    6.3113   20.9387 C   0  0  2  0  0  0  0  0  0  0  0  0
   -9.8937    6.6797   19.6174 O   0  0  0  0  0  0  0  0  0  0  0  0
   -7.9108    6.7626   20.9706 C   0  0  0  0  0  0  0  0  0  0  0  0
   -7.8028    8.1618   21.2231 O   0  0  0  0  0  0  0  0  0  0  0  0
  1  2  1  6  0  0  0
  1  3  1  0  0  0  0
  1  9  1  0  0  0  0
  3  4  1  1  0  0  0
  3  5  1  0  0  0  0
  5  6  1  0  0  0  0
  6  7  1  6  0  0  0
  6  8  1  0  0  0  0
  8  9  1  0  0  0  0
  8 10  1  6  0  0  0
 10 11  1  0  0  0  0
 12 13  1  1  0  0  0
 12 14  1  0  0  0  0
 12 20  1  0  0  0  0
 14 15  1  0  0  0  0
 15 16  1  1  0  0  0
 15 17  1  0  0  0  0
 17  2  1  6  0  0  0
 17 18  1  0  0  0  0
 18 19  1  1  0  0  0
 18 20  1  0  0  0  0
 20 21  1  6  0  0  0
 22 21  1  1  0  0  0
 22 23  1  0  0  0  0
 22 30  1  0  0  0  0
 23 24  1  1  0  0  0
 23 25  1  0  0  0  0
 25 26  1  6  0  0  0
 25 27  1  0  0  0  0
 27 28  1  1  0  0  0
 27 29  1  0  0  0  0
 29 30  1  0  0  0  0
 29 31  1  6  0  0  0
 31 32  1  0  0  0  0
M  CHG  5   4   1  11   1  13   1  16   1  26   1
M  END
>  <CHROM.1>
-119.20980891,84.47488819,39.73292983,72.72531816,-65.47728663,170.51865328
151.62209482,-34.07384423,73.19421785,-90.81520413,-127.59595321,-178.17823047
14.08880918,169.97504990,-159.48932646,-89.06245707,-12.64203205,7.13813461
17.98572218,-3.04118316,0.94823223,-3.04355058

>  <Name>
1lc4

>  <RI>
0

>  <Rbt.Current_Directory>
/home/afrankz/demos/rdock_decoys_rna/rnas/1lc4

>  <Rbt.Executable>
rbdock ($Id: //depot/dev/client3/rdock/2013.1/src/exe/rbdock.cxx#4 $)

>  <Rbt.Library>
libRbt.so (2013.1, Build901 2013/11/27)

>  <Rbt.Parameter_File>
/export/apps/rDock/src/rDock_2013.1_src/data/scripts/dock_solv.prm

>  <Rbt.Receptor>
prm/pocket_docking_2.prm

>  <SCORE>
-43.2834

>  <SCORE.INTER>
-41.6102

>  <SCORE.INTER.CONST>
1

>  <SCORE.INTER.POLAR>
-5.83443

>  <SCORE.INTER.ROT>
6

>  <SCORE.INTER.SOLV>
31.2633

>  <SCORE.INTER.VDW>
-26.3131

>  <SCORE.INTER.norm>
-1.30032

>  <SCORE.INTRA>
-2.98352

>  <SCORE.INTRA.DIHEDRAL>
-9.42775

>  <SCORE.INTRA.DIHEDRAL.0>
44.2576

>  <SCORE.INTRA.POLAR>
-0.627081

>  <SCORE.INTRA.POLAR.0>
-0.381556

>  <SCORE.INTRA.REPUL>
0

>  <SCORE.INTRA.REPUL.0>
0

>  <SCORE.INTRA.SOLV>
3.85031

>  <SCORE.INTRA.SOLV.lig_0>
-134.592

>  <SCORE.INTRA.VDW>
1.93728

>  <SCORE.INTRA.VDW.0>
-1.01417

>  <SCORE.INTRA.norm>
-0.093235

>  <SCORE.RESTR>
1.31029

>  <SCORE.RESTR.CAVITY>
1.31029

>  <SCORE.RESTR.norm>
0.0409464

>  <SCORE.SYSTEM>
0

>  <SCORE.SYSTEM.CONST>
0

>  <SCORE.SYSTEM.DIHEDRAL>
0

>  <SCORE.SYSTEM.SOLV>
0

>  <SCORE.SYSTEM.norm>
0

>  <SCORE.heavy>
32

>  <SCORE.norm>
-1.35261

>  <RMSD>
7.927

$$$$
1lc4
 OpenBabel02141814113D
libRbt.so/2013.1/901 2013/11/27
 32 34  0  0  0  0  0  0  0  0999 V2000
  -14.6480    6.5995   13.8293 C   0  0  2  0  0  0  0  0  0  0  0  0
  -15.8018    7.1961   14.3668 O   0  0  0  0  0  0  0  0  0  0  0  0
  -14.6496    6.8385   12.3055 C   0  0  2  0  0  0  0  0  0  0  0  0
  -14.6887    8.2750   12.0148 N   0  3  0  0  0  0  0  0  0  0  0  0
  -15.8402    6.0981   11.6521 C   0  0  0  0  0  0  0  0  0  0  0  0
  -15.6903    4.6019   11.9785 C   0  0  2  0  0  0  0  0  0  0  0  0
  -16.7388    3.8485   11.3601 O   0  0  0  0  0  0  0  0  0  0  0  0
  -15.6921    4.4111   13.5158 C   0  0  2  0  0  0  0  0  0  0  0  0
  -14.6196    5.1855   14.1241 O   0  0  0  0  0  0  0  0  0  0  0  0
  -15.4939    2.9609   13.9496 C   0  0  0  0  0  0  0  0  0  0  0  0
  -16.6498    2.1165   13.5489 N   0  3  0  0  0  0  0  0  0  0  0  0
  -13.9802    9.9225   17.0517 C   0  0  2  0  0  0  0  0  0  0  0  0
  -13.7050   10.7764   18.2217 N   0  3  0  0  0  0  0  0  0  0  0  0
  -15.2759   10.3621   16.3836 C   0  0  0  0  0  0  0  0  0  0  0  0
  -15.5751    9.4790   15.1672 C   0  0  2  0  0  0  0  0  0  0  0  0
  -16.7769   10.0165   14.4819 N   0  3  0  0  0  0  0  0  0  0  0  0
  -15.6886    7.9789   15.5723 C   0  0  2  0  0  0  0  0  0  0  0  0
  -14.3939    7.5429   16.3053 C   0  0  2  0  0  0  0  0  0  0  0  0
  -14.5607    6.2419   16.8148 O   0  0  0  0  0  0  0  0  0  0  0  0
  -14.1024    8.4671   17.4987 C   0  0  1  0  0  0  0  0  0  0  0  0
  -12.8882    8.0485   18.1210 O   0  0  0  0  0  0  0  0  0  0  0  0
  -12.9840    7.4827   19.3828 C   0  0  2  0  0  0  0  0  0  0  0  0
  -11.8555    8.0435   20.2650 C   0  0  2  0  0  0  0  0  0  0  0  0
  -11.9963    9.4565   20.3391 O   0  0  0  0  0  0  0  0  0  0  0  0
  -10.4939    7.6808   19.6467 C   0  0  1  0  0  0  0  0  0  0  0  0
   -9.3580    8.2182   20.4499 N   0  3  0  0  0  0  0  0  0  0  0  0
  -10.3875    6.1420   19.5133 C   0  0  2  0  0  0  0  0  0  0  0  0
   -9.1442    5.7765   18.9189 O   0  0  0  0  0  0  0  0  0  0  0  0
  -11.5654    5.5973   18.6842 C   0  0  2  0  0  0  0  0  0  0  0  0
  -12.8485    6.0433   19.2562 O   0  0  0  0  0  0  0  0  0  0  0  0
  -11.5929    4.0852   18.6572 C   0  0  0  0  0  0  0  0  0  0  0  0
  -10.4391    3.5497   18.0127 O   0  0  0  0  0  0  0  0  0  0  0  0
  1  2  1  6  0  0  0
  1  3  1  0  0  0  0
  1  9  1  0  0  0  0
  3  4  1  1  0  0  0
  3  5  1  0  0  0  0
  5  6  1  0  0  0  0
  6  7  1  6  0  0  0
  6  8  1  0  0  0  0
  8  9  1  0  0  0  0
  8 10  1  6  0  0  0
 10 11  1  0  0  0  0
 12 13  1  1  0  0  0
 12 14  1  0  0  0  0
 12 20  1  0  0  0  0
 14 15  1  0  0  0  0
 15 16  1  1  0  0  0
 15 17  1  0  0  0  0
 17  2  1  6  0  0  0
 17 18  1  0  0  0  0
 18 19  1  1  0  0  0
 18 20  1  0  0  0  0
 20 21  1  6  0  0  0
 22 21  1  6  0  0  0
 22 23  1  0  0  0  0
 22 30  1  0  0  0  0
 23 24  1  6  0  0  0
 23 25  1  0  0  0  0
 25 26  1  1  0  0  0
 25 27  1  0  0  0  0
 27 28  1  6  0  0  0
 27 29  1  0  0  0  0
 29 30  1  0  0  0  0
 29 31  1  1  0  0  0
 31 32  1  0  0  0  0
M  CHG  5   4   1  11   1  13   1  16   1  26   1
M  END
>  <CHROM.1>
-135.33663157,96.79745333,-72.86100354,58.84255802,-66.48979576,46.12883092
168.05123868,57.70887030,70.35750680,127.19857898,-137.41663137,78.16255130
73.47802281,-163.11651962,-63.67421875,161.39894587,-13.74154898,6.82884706
16.29669161,2.60349675,0.86137529,-2.76046503

>  <Name>
1lc4

>  <RI>
0

>  <Rbt.Current_Directory>
/home/afrankz/demos/rdock_decoys_rna/rnas/1lc4

>  <Rbt.Executable>
rbdock ($Id: //depot/dev/client3/rdock/2013.1/src/exe/rbdock.cxx#4 $)

>  <Rbt.Library>
libRbt.so (2013.1, Build901 2013/11/27)

>  <Rbt.Parameter_File>
/export/apps/rDock/src/rDock_2013.1_src/data/scripts/dock_solv.prm

>  <Rbt.Receptor>
prm/pocket_docking_7.prm

>  <SCORE>
-58.7153

>  <SCORE.INTER>
-41.3039

>  <SCORE.INTER.CONST>
1

>  <SCORE.INTER.POLAR>
-7.45215

>  <SCORE.INTER.ROT>
6

>  <SCORE.INTER.SOLV>
28.3538

>  <SCORE.INTER.VDW>
-19.7467

>  <SCORE.INTER.norm>
-1.29075

>  <SCORE.INTRA>
-17.4113

>  <SCORE.INTRA.DIHEDRAL>
-13.7372

>  <SCORE.INTRA.DIHEDRAL.0>
44.2576

>  <SCORE.INTRA.POLAR>
-3.40388

>  <SCORE.INTRA.POLAR.0>
-0.381556

>  <SCORE.INTRA.REPUL>
0.285459

>  <SCORE.INTRA.REPUL.0>
0

>  <SCORE.INTRA.SOLV>
2.02438

>  <SCORE.INTRA.SOLV.lig_0>
-134.592

>  <SCORE.INTRA.VDW>
-1.40905

>  <SCORE.INTRA.VDW.0>
-1.01417

>  <SCORE.INTRA.norm>
-0.544105

>  <SCORE.RESTR>
0

>  <SCORE.RESTR.CAVITY>
0

>  <SCORE.RESTR.norm>
0

>  <SCORE.SYSTEM>
0

>  <SCORE.SYSTEM.CONST>
0

>  <SCORE.SYSTEM.DIHEDRAL>
0

>  <SCORE.SYSTEM.SOLV>
0

>  <SCORE.SYSTEM.norm>
0

>  <SCORE.heavy>
32

>  <SCORE.norm>
-1.83485

>  <RMSD>
7.966

$$$$
1lc4
 OpenBabel02141814113D
libRbt.so/2013.1/901 2013/11/27
 32 34  0  0  0  0  0  0  0  0999 V2000
  -14.2016    7.7774   17.8156 C   0  0  2  0  0  0  0  0  0  0  0  0
  -13.0565    7.3618   17.1141 O   0  0  0  0  0  0  0  0  0  0  0  0
  -14.6615    9.1269   17.2271 C   0  0  2  0  0  0  0  0  0  0  0  0
  -14.9379    8.9903   15.7937 N   0  3  0  0  0  0  0  0  0  0  0  0
  -13.5954   10.2151   17.4949 C   0  0  0  0  0  0  0  0  0  0  0  0
  -13.4045   10.3110   19.0188 C   0  0  2  0  0  0  0  0  0  0  0  0
  -12.4611   11.3388   19.3399 O   0  0  0  0  0  0  0  0  0  0  0  0
  -12.9453    8.9358   19.5642 C   0  0  2  0  0  0  0  0  0  0  0  0
  -13.9176    7.9060   19.2263 O   0  0  0  0  0  0  0  0  0  0  0  0
  -12.7778    8.9077   21.0813 C   0  0  0  0  0  0  0  0  0  0  0  0
  -11.8643    9.9861   21.5420 N   0  3  0  0  0  0  0  0  0  0  0  0
  -11.6701    4.5248   19.9406 C   0  0  2  0  0  0  0  0  0  0  0  0
  -10.9983    3.3701   20.5645 N   0  3  0  0  0  0  0  0  0  0  0  0
  -12.6709    4.0408   18.9001 C   0  0  0  0  0  0  0  0  0  0  0  0
  -13.3738    5.2328   18.2412 C   0  0  2  0  0  0  0  0  0  0  0  0
  -14.4191    4.7128   17.3249 N   0  3  0  0  0  0  0  0  0  0  0  0
  -12.3479    6.1889   17.5623 C   0  0  2  0  0  0  0  0  0  0  0  0
  -11.2924    6.6379   18.6054 C   0  0  2  0  0  0  0  0  0  0  0  0
  -10.2762    7.3653   17.9587 O   0  0  0  0  0  0  0  0  0  0  0  0
  -10.6297    5.4216   19.2725 C   0  0  1  0  0  0  0  0  0  0  0  0
   -9.6921    5.8822   20.2448 O   0  0  0  0  0  0  0  0  0  0  0  0
  -10.1948    6.5882   21.3266 C   0  0  2  0  0  0  0  0  0  0  0  0
   -9.4103    7.9037   21.4685 C   0  0  2  0  0  0  0  0  0  0  0  0
   -9.5599    8.6535   20.2695 O   0  0  0  0  0  0  0  0  0  0  0  0
   -7.9238    7.5897   21.7122 C   0  0  1  0  0  0  0  0  0  0  0  0
   -7.1067    8.8310   21.8369 N   0  3  0  0  0  0  0  0  0  0  0  0
   -7.7882    6.7175   22.9841 C   0  0  2  0  0  0  0  0  0  0  0  0
   -6.4213    6.3888   23.2216 O   0  0  0  0  0  0  0  0  0  0  0  0
   -8.6366    5.4397   22.8459 C   0  0  2  0  0  0  0  0  0  0  0  0
  -10.0334    5.7808   22.5217 O   0  0  0  0  0  0  0  0  0  0  0  0
   -8.6620    4.6308   24.1237 C   0  0  0  0  0  0  0  0  0  0  0  0
   -7.3955    4.0338   24.3935 O   0  0  0  0  0  0  0  0  0  0  0  0
  1  2  1  6  0  0  0
  1  3  1  0  0  0  0
  1  9  1  0  0  0  0
  3  4  1  6  0  0  0
  3  5  1  0  0  0  0
  5  6  1  0  0  0  0
  6  7  1  6  0  0  0
  6  8  1  0  0  0  0
  8  9  1  0  0  0  0
  8 10  1  1  0  0  0
 10 11  1  0  0  0  0
 12 13  1  6  0  0  0
 12 14  1  0  0  0  0
 12 20  1  0  0  0  0
 14 15  1  0  0  0  0
 15 16  1  6  0  0  0
 15 17  1  0  0  0  0
 17  2  1  1  0  0  0
 17 18  1  0  0  0  0
 18 19  1  6  0  0  0
 18 20  1  0  0  0  0
 20 21  1  1  0  0  0
 22 21  1  6  0  0  0
 22 23  1  0  0  0  0
 22 30  1  0  0  0  0
 23 24  1  6  0  0  0
 23 25  1  0  0  0  0
 25 26  1  1  0  0  0
 25 27  1  0  0  0  0
 27 28  1  6  0  0  0
 27 29  1  0  0  0  0
 29 30  1  0  0  0  0
 29 31  1  1  0  0  0
 31 32  1  0  0  0  0
M  CHG  5   4   1  11   1  13   1  16   1  26   1
M  END
>  <CHROM.1>
173.76347703,29.43578649,-171.26373699,-82.40248951,-54.43360215,-56.47975839
-175.96364549,179.11998972,128.91233325,-57.89362213,-128.71011128,-100.23054229
-80.16711313,-33.24219216,-69.74797599,-48.72586827,-11.15342434,7.10112761
20.02554046,2.84620580,-0.73380709,0.00814121

>  <Name>
1lc4

>  <RI>
0

>  <Rbt.Current_Directory>
/home/afrankz/demos/rdock_decoys_rna/rnas/1lc4

>  <Rbt.Executable>
rbdock ($Id: //depot/dev/client3/rdock/2013.1/src/exe/rbdock.cxx#4 $)

>  <Rbt.Library>
libRbt.so (2013.1, Build901 2013/11/27)

>  <Rbt.Parameter_File>
/export/apps/rDock/src/rDock_2013.1_src/data/scripts/dock_solv.prm

>  <Rbt.Receptor>
prm/blind_docking_60.prm

>  <SCORE>
-34.7214

>  <SCORE.INTER>
-32.1737

>  <SCORE.INTER.CONST>
1

>  <SCORE.INTER.POLAR>
-6.14387

>  <SCORE.INTER.ROT>
6

>  <SCORE.INTER.SOLV>
27.2483

>  <SCORE.INTER.VDW>
-17.6523

>  <SCORE.INTER.norm>
-1.00543

>  <SCORE.INTRA>
-11.2522

>  <SCORE.INTRA.DIHEDRAL>
-13.7444

>  <SCORE.INTRA.DIHEDRAL.0>
44.2576

>  <SCORE.INTRA.POLAR>
-1.53602

>  <SCORE.INTRA.POLAR.0>
-0.381556

>  <SCORE.INTRA.REPUL>
0

>  <SCORE.INTRA.REPUL.0>
0

>  <SCORE.INTRA.SOLV>
4.68573

>  <SCORE.INTRA.SOLV.lig_0>
-134.592

>  <SCORE.INTRA.VDW>
-1.50043

>  <SCORE.INTRA.VDW.0>
-1.01417

>  <SCORE.INTRA.norm>
-0.351632

>  <SCORE.RESTR>
8.70452

>  <SCORE.RESTR.CAVITY>
8.70452

>  <SCORE.RESTR.norm>
0.272016

>  <SCORE.SYSTEM>
0

>  <SCORE.SYSTEM.CONST>
0

>  <SCORE.SYSTEM.DIHEDRAL>
0

>  <SCORE.SYSTEM.SOLV>
0

>  <SCORE.SYSTEM.norm>
0

>  <SCORE.heavy>
32

>  <SCORE.norm>
-1.08504

>  <RMSD>
8.001

$$$$
1lc4
 OpenBabel02141814113D
libRbt.so/2013.1/901 2013/11/27
 32 34  0  0  0  0  0  0  0  0999 V2000
  -12.3908    5.7390   13.6221 C   0  0  2  0  0  0  0  0  0  0  0  0
  -12.4184    7.1113   13.9253 O   0  0  0  0  0  0  0  0  0  0  0  0
  -12.1336    5.5868   12.1090 C   0  0  2  0  0  0  0  0  0  0  0  0
  -10.8732    6.2376   11.7381 N   0  3  0  0  0  0  0  0  0  0  0  0
  -13.3236    6.1634   11.3064 C   0  0  0  0  0  0  0  0  0  0  0  0
  -14.5861    5.3948   11.7342 C   0  0  2  0  0  0  0  0  0  0  0  0
  -15.7223    5.8480   10.9906 O   0  0  0  0  0  0  0  0  0  0  0  0
  -14.8027    5.5747   13.2575 C   0  0  2  0  0  0  0  0  0  0  0  0
  -13.6364    5.1087   13.9940 O   0  0  0  0  0  0  0  0  0  0  0  0
  -16.0054    4.8042   13.7966 C   0  0  0  0  0  0  0  0  0  0  0  0
  -17.2819    5.4635   13.4153 N   0  3  0  0  0  0  0  0  0  0  0  0
  -13.1561    9.5152   17.3366 C   0  0  2  0  0  0  0  0  0  0  0  0
  -13.7632   10.0878   18.5521 N   0  3  0  0  0  0  0  0  0  0  0  0
  -14.1157    9.6568   16.1630 C   0  0  0  0  0  0  0  0  0  0  0  0
  -13.4971    9.0614   14.8933 C   0  0  2  0  0  0  0  0  0  0  0  0
  -14.4132    9.3273   13.7564 N   0  3  0  0  0  0  0  0  0  0  0  0
  -13.1429    7.5569   15.0894 C   0  0  2  0  0  0  0  0  0  0  0  0
  -12.2123    7.4019   16.3197 C   0  0  2  0  0  0  0  0  0  0  0  0
  -12.0260    6.0347   16.5956 O   0  0  0  0  0  0  0  0  0  0  0  0
  -12.8446    8.0379   17.5684 C   0  0  1  0  0  0  0  0  0  0  0  0
  -11.9410    7.9002   18.6644 O   0  0  0  0  0  0  0  0  0  0  0  0
  -12.4877    7.6120   19.9052 C   0  0  2  0  0  0  0  0  0  0  0  0
  -11.7739    8.4607   20.9712 C   0  0  2  0  0  0  0  0  0  0  0  0
  -11.9536    9.8350   20.6530 O   0  0  0  0  0  0  0  0  0  0  0  0
  -10.2748    8.1137   20.9826 C   0  0  1  0  0  0  0  0  0  0  0  0
   -9.5245    8.9235   21.9852 N   0  3  0  0  0  0  0  0  0  0  0  0
  -10.1032    6.6011   21.2647 C   0  0  2  0  0  0  0  0  0  0  0  0
   -8.7228    6.2443   21.2563 O   0  0  0  0  0  0  0  0  0  0  0  0
  -10.8829    5.7743   20.2253 C   0  0  2  0  0  0  0  0  0  0  0  0
  -12.2932    6.2004   20.1803 O   0  0  0  0  0  0  0  0  0  0  0  0
  -10.8754    4.2970   20.5497 C   0  0  0  0  0  0  0  0  0  0  0  0
  -11.2201    3.5073   19.4135 O   0  0  0  0  0  0  0  0  0  0  0  0
  1  2  1  6  0  0  0
  1  3  1  0  0  0  0
  1  9  1  0  0  0  0
  3  4  1  6  0  0  0
  3  5  1  0  0  0  0
  5  6  1  0  0  0  0
  6  7  1  6  0  0  0
  6  8  1  0  0  0  0
  8  9  1  0  0  0  0
  8 10  1  1  0  0  0
 10 11  1  0  0  0  0
 12 13  1  1  0  0  0
 12 14  1  0  0  0  0
 12 20  1  0  0  0  0
 14 15  1  0  0  0  0
 15 16  1  6  0  0  0
 15 17  1  0  0  0  0
 17  2  1  6  0  0  0
 17 18  1  0  0  0  0
 18 19  1  1  0  0  0
 18 20  1  0  0  0  0
 20 21  1  1  0  0  0
 22 21  1  6  0  0  0
 22 23  1  0  0  0  0
 22 30  1  0  0  0  0
 23 24  1  6  0  0  0
 23 25  1  0  0  0  0
 25 26  1  1  0  0  0
 25 27  1  0  0  0  0
 27 28  1  6  0  0  0
 27 29  1  0  0  0  0
 29 30  1  0  0  0  0
 29 31  1  1  0  0  0
 31 32  1  0  0  0  0
M  CHG  5   4   1  11   1  13   1  16   1  26   1
M  END
>  <CHROM.1>
155.39046009,-157.76325740,177.97527965,65.38700533,-74.73372748,-55.49759628
-51.89086822,-57.37696049,-179.28833267,96.94896384,-137.97021449,176.86042201
-107.79849328,178.81049693,-161.91279539,99.87276100,-12.63326481,6.97523389
16.64141786,-2.35169121,-0.99081470,0.72666365

>  <Name>
1lc4

>  <RI>
0

>  <Rbt.Current_Directory>
/home/afrankz/demos/rdock_decoys_rna/rnas/1lc4

>  <Rbt.Executable>
rbdock ($Id: //depot/dev/client3/rdock/2013.1/src/exe/rbdock.cxx#4 $)

>  <Rbt.Library>
libRbt.so (2013.1, Build901 2013/11/27)

>  <Rbt.Parameter_File>
/export/apps/rDock/src/rDock_2013.1_src/data/scripts/dock_solv.prm

>  <Rbt.Receptor>
prm/pocket_docking_5.prm

>  <SCORE>
-53.8051

>  <SCORE.INTER>
-36.8427

>  <SCORE.INTER.CONST>
1

>  <SCORE.INTER.POLAR>
-5.579

>  <SCORE.INTER.ROT>
6

>  <SCORE.INTER.SOLV>
24.2464

>  <SCORE.INTER.VDW>
-21.6473

>  <SCORE.INTER.norm>
-1.15133

>  <SCORE.INTRA>
-16.9624

>  <SCORE.INTRA.DIHEDRAL>
-17.8997

>  <SCORE.INTRA.DIHEDRAL.0>
44.2576

>  <SCORE.INTRA.POLAR>
-1.24363

>  <SCORE.INTRA.POLAR.0>
-0.381556

>  <SCORE.INTRA.REPUL>
0

>  <SCORE.INTRA.REPUL.0>
0

>  <SCORE.INTRA.SOLV>
-0.173184

>  <SCORE.INTRA.SOLV.lig_0>
-134.592

>  <SCORE.INTRA.VDW>
-3.6976

>  <SCORE.INTRA.VDW.0>
-1.01417

>  <SCORE.INTRA.norm>
-0.530075

>  <SCORE.RESTR>
0

>  <SCORE.RESTR.CAVITY>
0

>  <SCORE.RESTR.norm>
0

>  <SCORE.SYSTEM>
0

>  <SCORE.SYSTEM.CONST>
0

>  <SCORE.SYSTEM.DIHEDRAL>
0

>  <SCORE.SYSTEM.SOLV>
0

>  <SCORE.SYSTEM.norm>
0

>  <SCORE.heavy>
32

>  <SCORE.norm>
-1.68141

>  <RMSD>
8.010

$$$$
1lc4
 OpenBabel02141814113D
libRbt.so/2013.1/901 2013/11/27
 32 34  0  0  0  0  0  0  0  0999 V2000
  -16.1679    6.6166   14.7807 C   0  0  2  0  0  0  0  0  0  0  0  0
  -15.5697    7.8816   14.9150 O   0  0  0  0  0  0  0  0  0  0  0  0
  -17.1323    6.6671   13.5781 C   0  0  2  0  0  0  0  0  0  0  0  0
  -16.4089    7.0440   12.3598 N   0  3  0  0  0  0  0  0  0  0  0  0
  -18.2949    7.6450   13.8692 C   0  0  0  0  0  0  0  0  0  0  0  0
  -19.0131    7.1464   15.1354 C   0  0  2  0  0  0  0  0  0  0  0  0
  -20.1352    7.9834   15.4351 O   0  0  0  0  0  0  0  0  0  0  0  0
  -18.0076    7.1108   16.3132 C   0  0  2  0  0  0  0  0  0  0  0  0
  -16.8752    6.2554   15.9875 O   0  0  0  0  0  0  0  0  0  0  0  0
  -18.6087    6.5768   17.6110 C   0  0  0  0  0  0  0  0  0  0  0  0
  -19.2588    5.2568   17.3998 N   0  3  0  0  0  0  0  0  0  0  0  0
  -13.7946   10.1883   17.9953 C   0  0  2  0  0  0  0  0  0  0  0  0
  -13.5364   10.8587   19.2829 N   0  3  0  0  0  0  0  0  0  0  0  0
  -15.0897   10.7123   17.3898 C   0  0  0  0  0  0  0  0  0  0  0  0
  -15.3713   10.0198   16.0517 C   0  0  2  0  0  0  0  0  0  0  0  0
  -16.5733   10.6439   15.4447 N   0  3  0  0  0  0  0  0  0  0  0  0
  -15.4730    8.4749   16.2255 C   0  0  2  0  0  0  0  0  0  0  0  0
  -14.1794    7.9447   16.8958 C   0  0  2  0  0  0  0  0  0  0  0  0
  -14.3372    6.5804   17.2023 O   0  0  0  0  0  0  0  0  0  0  0  0
  -13.9058    8.6811   18.2172 C   0  0  1  0  0  0  0  0  0  0  0  0
  -12.6921    8.1841   18.7799 O   0  0  0  0  0  0  0  0  0  0  0  0
  -12.7257    7.7809   20.1057 C   0  0  2  0  0  0  0  0  0  0  0  0
  -11.5102    8.3767   20.8365 C   0  0  2  0  0  0  0  0  0  0  0  0
  -11.5742    9.7942   20.7436 O   0  0  0  0  0  0  0  0  0  0  0  0
  -10.2163    7.8630   20.1810 C   0  0  1  0  0  0  0  0  0  0  0  0
   -9.0003    8.4256   20.8358 N   0  3  0  0  0  0  0  0  0  0  0  0
  -10.1972    6.3158   20.2330 C   0  0  2  0  0  0  0  0  0  0  0  0
   -9.0196    5.8090   19.6091 O   0  0  0  0  0  0  0  0  0  0  0  0
  -11.4573    5.7452   19.5560 C   0  0  2  0  0  0  0  0  0  0  0  0
  -12.6722    6.3314   20.1503 O   0  0  0  0  0  0  0  0  0  0  0  0
  -11.5627    4.2451   19.7188 C   0  0  0  0  0  0  0  0  0  0  0  0
  -10.9913    3.5544   18.6098 O   0  0  0  0  0  0  0  0  0  0  0  0
  1  2  1  1  0  0  0
  1  3  1  0  0  0  0
  1  9  1  0  0  0  0
  3  4  1  6  0  0  0
  3  5  1  0  0  0  0
  5  6  1  0  0  0  0
  6  7  1  1  0  0  0
  6  8  1  0  0  0  0
  8  9  1  0  0  0  0
  8 10  1  1  0  0  0
 10 11  1  0  0  0  0
 12 13  1  1  0  0  0
 12 14  1  0  0  0  0
 12 20  1  0  0  0  0
 14 15  1  0  0  0  0
 15 16  1  1  0  0  0
 15 17  1  0  0  0  0
 17  2  1  6  0  0  0
 17 18  1  0  0  0  0
 18 19  1  1  0  0  0
 18 20  1  0  0  0  0
 20 21  1  6  0  0  0
 22 21  1  6  0  0  0
 22 23  1  0  0  0  0
 22 30  1  0  0  0  0
 23 24  1  6  0  0  0
 23 25  1  0  0  0  0
 25 26  1  1  0  0  0
 25 27  1  0  0  0  0
 27 28  1  6  0  0  0
 27 29  1  0  0  0  0
 29 30  1  0  0  0  0
 29 31  1  1  0  0  0
 31 32  1  0  0  0  0
M  CHG  5   4   1  11   1  13   1  16   1  26   1
M  END
>  <CHROM.1>
134.86049608,-155.90354274,153.86024946,-69.20650712,52.87823250,173.85718293
-66.89000785,-32.04334842,-178.33268761,109.01333809,-133.26348089,155.65275799
-169.12748334,171.50527777,-93.62059527,63.21371140,-14.39620009,7.57452450
17.55540923,-3.11971179,-0.60931561,0.10392981

>  <Name>
1lc4

>  <RI>
0

>  <Rbt.Current_Directory>
/home/afrankz/demos/rdock_decoys_rna/rnas/1lc4

>  <Rbt.Executable>
rbdock ($Id: //depot/dev/client3/rdock/2013.1/src/exe/rbdock.cxx#4 $)

>  <Rbt.Library>
libRbt.so (2013.1, Build901 2013/11/27)

>  <Rbt.Parameter_File>
/export/apps/rDock/src/rDock_2013.1_src/data/scripts/dock_solv.prm

>  <Rbt.Receptor>
prm/pocket_docking_5.prm

>  <SCORE>
-54.0485

>  <SCORE.INTER>
-43.5853

>  <SCORE.INTER.CONST>
1

>  <SCORE.INTER.POLAR>
-7.7375

>  <SCORE.INTER.ROT>
6

>  <SCORE.INTER.SOLV>
24.012

>  <SCORE.INTER.VDW>
-18.8692

>  <SCORE.INTER.norm>
-1.36204

>  <SCORE.INTRA>
-10.8535

>  <SCORE.INTRA.DIHEDRAL>
-12.3507

>  <SCORE.INTRA.DIHEDRAL.0>
44.2576

>  <SCORE.INTRA.POLAR>
-0.786904

>  <SCORE.INTRA.POLAR.0>
-0.381556

>  <SCORE.INTRA.REPUL>
0

>  <SCORE.INTRA.REPUL.0>
0

>  <SCORE.INTRA.SOLV>
0.989734

>  <SCORE.INTRA.SOLV.lig_0>
-134.592

>  <SCORE.INTRA.VDW>
-2.49755

>  <SCORE.INTRA.VDW.0>
-1.01417

>  <SCORE.INTRA.norm>
-0.339171

>  <SCORE.RESTR>
0.390247

>  <SCORE.RESTR.CAVITY>
0.390247

>  <SCORE.RESTR.norm>
0.0121952

>  <SCORE.SYSTEM>
0

>  <SCORE.SYSTEM.CONST>
0

>  <SCORE.SYSTEM.DIHEDRAL>
0

>  <SCORE.SYSTEM.SOLV>
0

>  <SCORE.SYSTEM.norm>
0

>  <SCORE.heavy>
32

>  <SCORE.norm>
-1.68902

>  <RMSD>
8.038

$$$$
1lc4
 OpenBabel02141814113D
libRbt.so/2013.1/901 2013/11/27
 32 34  0  0  0  0  0  0  0  0999 V2000
  -12.8147    6.2831   14.5509 C   0  0  2  0  0  0  0  0  0  0  0  0
  -12.4767    7.5576   15.0384 O   0  0  0  0  0  0  0  0  0  0  0  0
  -11.6099    5.7378   13.7572 C   0  0  2  0  0  0  0  0  0  0  0  0
  -10.4200    5.6805   14.6120 N   0  3  0  0  0  0  0  0  0  0  0  0
  -11.3617    6.6076   12.5024 C   0  0  0  0  0  0  0  0  0  0  0  0
  -12.6453    6.5738   11.6545 C   0  0  2  0  0  0  0  0  0  0  0  0
  -12.4666    7.3235   10.4482 O   0  0  0  0  0  0  0  0  0  0  0  0
  -13.8255    7.1276   12.4911 C   0  0  2  0  0  0  0  0  0  0  0  0
  -13.9892    6.3520   13.7125 O   0  0  0  0  0  0  0  0  0  0  0  0
  -15.1636    7.0878   11.7572 C   0  0  0  0  0  0  0  0  0  0  0  0
  -16.2940    7.3580   12.6840 N   0  3  0  0  0  0  0  0  0  0  0  0
  -12.2770    9.7922   18.6337 C   0  0  2  0  0  0  0  0  0  0  0  0
  -12.5097   10.2750   20.0073 N   0  3  0  0  0  0  0  0  0  0  0  0
  -13.5669    9.8791   17.8293 C   0  0  0  0  0  0  0  0  0  0  0  0
  -13.3388    9.3762   16.3995 C   0  0  2  0  0  0  0  0  0  0  0  0
  -14.5854    9.5898   15.6230 N   0  3  0  0  0  0  0  0  0  0  0  0
  -12.8269    7.9047   16.3932 C   0  0  2  0  0  0  0  0  0  0  0  0
  -11.5455    7.8003   17.2596 C   0  0  2  0  0  0  0  0  0  0  0  0
  -11.1776    6.4483   17.3890 O   0  0  0  0  0  0  0  0  0  0  0  0
  -11.7962    8.3430   18.6760 C   0  0  1  0  0  0  0  0  0  0  0  0
  -10.5843    8.2570   19.4246 O   0  0  0  0  0  0  0  0  0  0  0  0
  -10.6872    8.3016   20.8062 C   0  0  2  0  0  0  0  0  0  0  0  0
   -9.2885    8.1023   21.4146 C   0  0  2  0  0  0  0  0  0  0  0  0
   -8.4362    9.1384   20.9434 O   0  0  0  0  0  0  0  0  0  0  0  0
   -8.7359    6.7306   20.9895 C   0  0  1  0  0  0  0  0  0  0  0  0
   -7.3685    6.4893   21.5338 N   0  3  0  0  0  0  0  0  0  0  0  0
   -9.7111    5.6212   21.4536 C   0  0  2  0  0  0  0  0  0  0  0  0
   -9.2371    4.3383   21.0509 O   0  0  0  0  0  0  0  0  0  0  0  0
  -11.1198    5.8806   20.8878 C   0  0  2  0  0  0  0  0  0  0  0  0
  -11.5746    7.2379   21.2389 O   0  0  0  0  0  0  0  0  0  0  0  0
  -12.1430    4.9128   21.4393 C   0  0  0  0  0  0  0  0  0  0  0  0
  -11.9859    4.7252   22.8441 O   0  0  0  0  0  0  0  0  0  0  0  0
  1  2  1  6  0  0  0
  1  3  1  0  0  0  0
  1  9  1  0  0  0  0
  3  4  1  1  0  0  0
  3  5  1  0  0  0  0
  5  6  1  0  0  0  0
  6  7  1  6  0  0  0
  6  8  1  0  0  0  0
  8  9  1  0  0  0  0
  8 10  1  6  0  0  0
 10 11  1  0  0  0  0
 12 13  1  1  0  0  0
 12 14  1  0  0  0  0
 12 20  1  0  0  0  0
 14 15  1  0  0  0  0
 15 16  1  6  0  0  0
 15 17  1  0  0  0  0
 17  2  1  6  0  0  0
 17 18  1  0  0  0  0
 18 19  1  1  0  0  0
 18 20  1  0  0  0  0
 20 21  1  1  0  0  0
 22 21  1  6  0  0  0
 22 23  1  0  0  0  0
 22 30  1  0  0  0  0
 23 24  1  6  0  0  0
 23 25  1  0  0  0  0
 25 26  1  1  0  0  0
 25 27  1  0  0  0  0
 27 28  1  6  0  0  0
 27 29  1  0  0  0  0
 29 30  1  0  0  0  0
 29 31  1  1  0  0  0
 31 32  1  0  0  0  0
M  CHG  5   4   1  11   1  13   1  16   1  26   1
M  END
>  <CHROM.1>
-136.97679028,-139.06708328,-12.50603755,-178.04382564,168.18053719,-23.12039497
-38.91679121,56.60576734,-64.55546866,77.46436679,176.33584778,-176.51016309
-103.38974137,-66.76088336,43.55005437,-162.69777093,-11.79170038,7.26260630
17.37841033,-2.17301597,-0.82461042,1.14659234

>  <Name>
1lc4

>  <RI>
0

>  <Rbt.Current_Directory>
/home/afrankz/demos/rdock_decoys_rna/rnas/1lc4

>  <Rbt.Executable>
rbdock ($Id: //depot/dev/client3/rdock/2013.1/src/exe/rbdock.cxx#4 $)

>  <Rbt.Library>
libRbt.so (2013.1, Build901 2013/11/27)

>  <Rbt.Parameter_File>
/export/apps/rDock/src/rDock_2013.1_src/data/scripts/dock_solv.prm

>  <Rbt.Receptor>
prm/blind_docking_80.prm

>  <SCORE>
-34.0275

>  <SCORE.INTER>
-24.947

>  <SCORE.INTER.CONST>
1

>  <SCORE.INTER.POLAR>
-3.71142

>  <SCORE.INTER.ROT>
6

>  <SCORE.INTER.SOLV>
28.9169

>  <SCORE.INTER.VDW>
-21.4989

>  <SCORE.INTER.norm>
-0.779595

>  <SCORE.INTRA>
-13.3366

>  <SCORE.INTRA.DIHEDRAL>
-18.4939

>  <SCORE.INTRA.DIHEDRAL.0>
44.2576

>  <SCORE.INTRA.POLAR>
-1.05282

>  <SCORE.INTRA.POLAR.0>
-0.381556

>  <SCORE.INTRA.REPUL>
0

>  <SCORE.INTRA.REPUL.0>
0

>  <SCORE.INTRA.SOLV>
1.51365

>  <SCORE.INTRA.SOLV.lig_0>
-134.592

>  <SCORE.INTRA.VDW>
-1.26692

>  <SCORE.INTRA.VDW.0>
-1.01417

>  <SCORE.INTRA.norm>
-0.416769

>  <SCORE.RESTR>
4.25618

>  <SCORE.RESTR.CAVITY>
4.25618

>  <SCORE.RESTR.norm>
0.133006

>  <SCORE.SYSTEM>
0

>  <SCORE.SYSTEM.CONST>
0

>  <SCORE.SYSTEM.DIHEDRAL>
0

>  <SCORE.SYSTEM.SOLV>
0

>  <SCORE.SYSTEM.norm>
0

>  <SCORE.heavy>
32

>  <SCORE.norm>
-1.06336

>  <RMSD>
8.098

$$$$
1lc4
 OpenBabel02141814113D
libRbt.so/2013.1/901 2013/11/27
 32 34  0  0  0  0  0  0  0  0999 V2000
  -13.5425    6.3053   13.4508 C   0  0  2  0  0  0  0  0  0  0  0  0
  -13.4652    7.6244   13.9303 O   0  0  0  0  0  0  0  0  0  0  0  0
  -13.5436    6.3543   11.9092 C   0  0  2  0  0  0  0  0  0  0  0  0
  -12.3362    7.0268   11.4197 N   0  3  0  0  0  0  0  0  0  0  0  0
  -14.8252    7.0547   11.4000 C   0  0  0  0  0  0  0  0  0  0  0  0
  -16.0300    6.2578   11.9302 C   0  0  2  0  0  0  0  0  0  0  0  0
  -17.2539    6.8271   11.4535 O   0  0  0  0  0  0  0  0  0  0  0  0
  -15.9862    6.2342   13.4784 C   0  0  2  0  0  0  0  0  0  0  0  0
  -14.7343    5.6526   13.9415 O   0  0  0  0  0  0  0  0  0  0  0  0
  -17.1138    5.4193   14.1071 C   0  0  0  0  0  0  0  0  0  0  0  0
  -17.2311    4.0815   13.4697 N   0  3  0  0  0  0  0  0  0  0  0  0
  -13.7196    9.7176   17.6064 C   0  0  2  0  0  0  0  0  0  0  0  0
  -14.1269   10.1515   18.9553 N   0  3  0  0  0  0  0  0  0  0  0  0
  -14.8908    9.8552   16.6431 C   0  0  0  0  0  0  0  0  0  0  0  0
  -14.4808    9.4033   15.2370 C   0  0  2  0  0  0  0  0  0  0  0  0
  -15.6114    9.6657   14.3120 N   0  3  0  0  0  0  0  0  0  0  0  0
  -13.9880    7.9253   15.2398 C   0  0  2  0  0  0  0  0  0  0  0  0
  -12.8336    7.7682   16.2628 C   0  0  2  0  0  0  0  0  0  0  0  0
  -12.5002    6.4066   16.3857 O   0  0  0  0  0  0  0  0  0  0  0  0
  -13.2639    8.2606   17.6541 C   0  0  1  0  0  0  0  0  0  0  0  0
  -12.1626    8.1273   18.5520 O   0  0  0  0  0  0  0  0  0  0  0  0
  -12.4361    7.6552   19.8262 C   0  0  2  0  0  0  0  0  0  0  0  0
  -11.4460    8.2939   20.8151 C   0  0  2  0  0  0  0  0  0  0  0  0
  -11.5987    9.7067   20.7623 O   0  0  0  0  0  0  0  0  0  0  0  0
  -10.0095    7.9038   20.4254 C   0  0  1  0  0  0  0  0  0  0  0  0
   -9.0007    8.5134   21.3391 N   0  3  0  0  0  0  0  0  0  0  0  0
   -9.8821    6.3608   20.4243 C   0  0  2  0  0  0  0  0  0  0  0  0
   -8.5661    5.9680   20.0415 O   0  0  0  0  0  0  0  0  0  0  0  0
  -10.9288    5.7414   19.4795 C   0  0  2  0  0  0  0  0  0  0  0  0
  -12.2812    6.2123   19.8285 O   0  0  0  0  0  0  0  0  0  0  0  0
  -10.9492    4.2312   19.5624 C   0  0  0  0  0  0  0  0  0  0  0  0
  -11.8316    3.6634   18.5969 O   0  0  0  0  0  0  0  0  0  0  0  0
  1  2  1  1  0  0  0
  1  3  1  0  0  0  0
  1  9  1  0  0  0  0
  3  4  1  1  0  0  0
  3  5  1  0  0  0  0
  5  6  1  0  0  0  0
  6  7  1  1  0  0  0
  6  8  1  0  0  0  0
  8  9  1  0  0  0  0
  8 10  1  6  0  0  0
 10 11  1  0  0  0  0
 12 13  1  1  0  0  0
 12 14  1  0  0  0  0
 12 20  1  0  0  0  0
 14 15  1  0  0  0  0
 15 16  1  6  0  0  0
 15 17  1  0  0  0  0
 17  2  1  6  0  0  0
 17 18  1  0  0  0  0
 18 19  1  1  0  0  0
 18 20  1  0  0  0  0
 20 21  1  1  0  0  0
 22 21  1  6  0  0  0
 22 23  1  0  0  0  0
 22 30  1  0  0  0  0
 23 24  1  6  0  0  0
 23 25  1  0  0  0  0
 25 26  1  1  0  0  0
 25 27  1  0  0  0  0
 27 28  1  6  0  0  0
 27 29  1  0  0  0  0
 29 30  1  0  0  0  0
 29 31  1  1  0  0  0
 31 32  1  0  0  0  0
M  CHG  5   4   1  11   1  13   1  16   1  26   1
M  END
>  <CHROM.1>
154.50143628,-150.23365493,65.08443003,73.80747721,48.93775679,49.43253337
179.26466780,-51.16278967,-64.48086461,99.60141142,-148.13385739,170.27639217
-72.39515020,173.93370462,-174.58685420,174.98200444,-13.19762863,7.18311887
16.52001802,-2.61455050,-0.90605771,0.53762343

>  <Name>
1lc4

>  <RI>
0

>  <Rbt.Current_Directory>
/home/afrankz/demos/rdock_decoys_rna/rnas/1lc4

>  <Rbt.Executable>
rbdock ($Id: //depot/dev/client3/rdock/2013.1/src/exe/rbdock.cxx#4 $)

>  <Rbt.Library>
libRbt.so (2013.1, Build901 2013/11/27)

>  <Rbt.Parameter_File>
/export/apps/rDock/src/rDock_2013.1_src/data/scripts/dock_solv.prm

>  <Rbt.Receptor>
prm/pocket_docking_4.prm

>  <SCORE>
-59.6032

>  <SCORE.INTER>
-39.7763

>  <SCORE.INTER.CONST>
1

>  <SCORE.INTER.POLAR>
-5.93347

>  <SCORE.INTER.ROT>
6

>  <SCORE.INTER.SOLV>
23.4337

>  <SCORE.INTER.VDW>
-22.1505

>  <SCORE.INTER.norm>
-1.24301

>  <SCORE.INTRA>
-19.8269

>  <SCORE.INTRA.DIHEDRAL>
-25.3972

>  <SCORE.INTRA.DIHEDRAL.0>
44.2576

>  <SCORE.INTRA.POLAR>
-0.809855

>  <SCORE.INTRA.POLAR.0>
-0.381556

>  <SCORE.INTRA.REPUL>
0

>  <SCORE.INTRA.REPUL.0>
0

>  <SCORE.INTRA.SOLV>
0.0566327

>  <SCORE.INTRA.SOLV.lig_0>
-134.592

>  <SCORE.INTRA.VDW>
-4.4031

>  <SCORE.INTRA.VDW.0>
-1.01417

>  <SCORE.INTRA.norm>
-0.619591

>  <SCORE.RESTR>
0

>  <SCORE.RESTR.CAVITY>
0

>  <SCORE.RESTR.norm>
0

>  <SCORE.SYSTEM>
0

>  <SCORE.SYSTEM.CONST>
0

>  <SCORE.SYSTEM.DIHEDRAL>
0

>  <SCORE.SYSTEM.SOLV>
0

>  <SCORE.SYSTEM.norm>
0

>  <SCORE.heavy>
32

>  <SCORE.norm>
-1.8626

>  <RMSD>
8.111

$$$$
1lc4
 OpenBabel02141814113D
libRbt.so/2013.1/901 2013/11/27
 32 34  0  0  0  0  0  0  0  0999 V2000
  -13.6912    6.3073   13.8264 C   0  0  2  0  0  0  0  0  0  0  0  0
  -13.9416    7.6650   14.0911 O   0  0  0  0  0  0  0  0  0  0  0  0
  -13.1262    6.1936   12.3958 C   0  0  2  0  0  0  0  0  0  0  0  0
  -11.9046    6.9937   12.2649 N   0  3  0  0  0  0  0  0  0  0  0  0
  -14.1961    6.6249   11.3653 C   0  0  0  0  0  0  0  0  0  0  0  0
  -15.4169    5.7073   11.5539 C   0  0  2  0  0  0  0  0  0  0  0  0
  -16.4312    6.0224   10.5942 O   0  0  0  0  0  0  0  0  0  0  0  0
  -15.9477    5.8535   13.0018 C   0  0  2  0  0  0  0  0  0  0  0  0
  -14.9010    5.5293   13.9607 O   0  0  0  0  0  0  0  0  0  0  0  0
  -17.1317    4.9408   13.3113 C   0  0  0  0  0  0  0  0  0  0  0  0
  -16.7381    3.5087   13.2485 N   0  3  0  0  0  0  0  0  0  0  0  0
  -14.1894    9.8895   17.6897 C   0  0  2  0  0  0  0  0  0  0  0  0
  -14.6139   10.3912   19.0096 N   0  3  0  0  0  0  0  0  0  0  0  0
  -15.3175   10.0652   16.6822 C   0  0  0  0  0  0  0  0  0  0  0  0
  -14.8895    9.5436   15.3060 C   0  0  2  0  0  0  0  0  0  0  0  0
  -15.9707    9.8427   14.3343 N   0  3  0  0  0  0  0  0  0  0  0  0
  -14.4881    8.0396   15.3716 C   0  0  2  0  0  0  0  0  0  0  0  0
  -13.3800    7.8473   16.4388 C   0  0  2  0  0  0  0  0  0  0  0  0
  -13.1345    6.4730   16.6152 O   0  0  0  0  0  0  0  0  0  0  0  0
  -13.8252    8.4101   17.7983 C   0  0  1  0  0  0  0  0  0  0  0  0
  -12.7644    8.2407   18.7379 O   0  0  0  0  0  0  0  0  0  0  0  0
  -13.1168    8.0342   20.0624 C   0  0  2  0  0  0  0  0  0  0  0  0
  -12.0405    8.6603   20.9656 C   0  0  2  0  0  0  0  0  0  0  0  0
  -11.9613   10.0512   20.6808 O   0  0  0  0  0  0  0  0  0  0  0  0
  -10.6847    7.9872   20.6888 C   0  0  1  0  0  0  0  0  0  0  0  0
   -9.5944    8.5697   21.5231 N   0  3  0  0  0  0  0  0  0  0  0  0
  -10.8099    6.4647   20.9406 C   0  0  2  0  0  0  0  0  0  0  0  0
   -9.5734    5.8095   20.6673 O   0  0  0  0  0  0  0  0  0  0  0  0
  -11.9390    5.8737   20.0761 C   0  0  2  0  0  0  0  0  0  0  0  0
  -13.1985    6.6052   20.3024 O   0  0  0  0  0  0  0  0  0  0  0  0
  -12.2050    4.4205   20.4009 C   0  0  0  0  0  0  0  0  0  0  0  0
  -13.2400    3.8797   19.5827 O   0  0  0  0  0  0  0  0  0  0  0  0
  1  2  1  6  0  0  0
  1  3  1  0  0  0  0
  1  9  1  0  0  0  0
  3  4  1  1  0  0  0
  3  5  1  0  0  0  0
  5  6  1  0  0  0  0
  6  7  1  6  0  0  0
  6  8  1  0  0  0  0
  8  9  1  0  0  0  0
  8 10  1  6  0  0  0
 10 11  1  0  0  0  0
 12 13  1  1  0  0  0
 12 14  1  0  0  0  0
 12 20  1  0  0  0  0
 14 15  1  0  0  0  0
 15 16  1  6  0  0  0
 15 17  1  0  0  0  0
 17  2  1  6  0  0  0
 17 18  1  0  0  0  0
 18 19  1  1  0  0  0
 18 20  1  0  0  0  0
 20 21  1  1  0  0  0
 22 21  1  6  0  0  0
 22 23  1  0  0  0  0
 22 30  1  0  0  0  0
 23 24  1  6  0  0  0
 23 25  1  0  0  0  0
 25 26  1  1  0  0  0
 25 27  1  0  0  0  0
 27 28  1  6  0  0  0
 27 29  1  0  0  0  0
 29 30  1  0  0  0  0
 29 31  1  1  0  0  0
 31 32  1  0  0  0  0
M  CHG  5   4   1  11   1  13   1  16   1  26   1
M  END
>  <CHROM.1>
179.53423553,-170.43630284,-179.06353609,64.73914279,64.68323187,-59.65372678
-170.44104772,-168.72829423,-58.78376059,89.75545247,-147.61417437,171.08204509
56.03585362,-54.88590151,-179.24181066,61.11610822,-13.56186280,7.18814793
16.67606136,-2.60930669,-1.07117335,0.41878244

>  <Name>
1lc4

>  <RI>
0

>  <Rbt.Current_Directory>
/home/afrankz/demos/rdock_decoys_rna/rnas/1lc4

>  <Rbt.Executable>
rbdock ($Id: //depot/dev/client3/rdock/2013.1/src/exe/rbdock.cxx#4 $)

>  <Rbt.Library>
libRbt.so (2013.1, Build901 2013/11/27)

>  <Rbt.Parameter_File>
/export/apps/rDock/src/rDock_2013.1_src/data/scripts/dock_solv.prm

>  <Rbt.Receptor>
prm/pocket_docking_5.prm

>  <SCORE>
-52.8636

>  <SCORE.INTER>
-28.2252

>  <SCORE.INTER.CONST>
1

>  <SCORE.INTER.POLAR>
-4.35379

>  <SCORE.INTER.ROT>
6

>  <SCORE.INTER.SOLV>
22.2319

>  <SCORE.INTER.VDW>
-19.3148

>  <SCORE.INTER.norm>
-0.882039

>  <SCORE.INTRA>
-24.6384

>  <SCORE.INTRA.DIHEDRAL>
-34.8226

>  <SCORE.INTRA.DIHEDRAL.0>
44.2576

>  <SCORE.INTRA.POLAR>
-0.785111

>  <SCORE.INTRA.POLAR.0>
-0.381556

>  <SCORE.INTRA.REPUL>
0

>  <SCORE.INTRA.REPUL.0>
0

>  <SCORE.INTRA.SOLV>
-1.83891

>  <SCORE.INTRA.SOLV.lig_0>
-134.592

>  <SCORE.INTRA.VDW>
-3.63827

>  <SCORE.INTRA.VDW.0>
-1.01417

>  <SCORE.INTRA.norm>
-0.76995

>  <SCORE.RESTR>
0

>  <SCORE.RESTR.CAVITY>
0

>  <SCORE.RESTR.norm>
0

>  <SCORE.SYSTEM>
0

>  <SCORE.SYSTEM.CONST>
0

>  <SCORE.SYSTEM.DIHEDRAL>
0

>  <SCORE.SYSTEM.SOLV>
0

>  <SCORE.SYSTEM.norm>
0

>  <SCORE.heavy>
32

>  <SCORE.norm>
-1.65199

>  <RMSD>
8.111

$$$$
1lc4
 OpenBabel02141814113D
libRbt.so/2013.1/901 2013/11/27
 32 34  0  0  0  0  0  0  0  0999 V2000
  -17.5060    9.2831   15.0251 C   0  0  2  0  0  0  0  0  0  0  0  0
  -16.9839    8.0258   15.3750 O   0  0  0  0  0  0  0  0  0  0  0  0
  -16.3428   10.2957   14.9998 C   0  0  2  0  0  0  0  0  0  0  0  0
  -15.3130    9.8655   14.0490 N   0  3  0  0  0  0  0  0  0  0  0  0
  -15.7597   10.4716   16.4217 C   0  0  0  0  0  0  0  0  0  0  0  0
  -16.8999   10.9597   17.3324 C   0  0  2  0  0  0  0  0  0  0  0  0
  -16.4149   11.1901   18.6595 O   0  0  0  0  0  0  0  0  0  0  0  0
  -18.0432    9.9145   17.3251 C   0  0  2  0  0  0  0  0  0  0  0  0
  -18.5208    9.6949   15.9673 O   0  0  0  0  0  0  0  0  0  0  0  0
  -19.2525   10.3292   18.1596 C   0  0  0  0  0  0  0  0  0  0  0  0
  -20.3147    9.2899   18.1213 N   0  3  0  0  0  0  0  0  0  0  0  0
  -15.9209    4.2691   13.7265 C   0  0  2  0  0  0  0  0  0  0  0  0
  -15.5327    3.2025   12.7855 N   0  3  0  0  0  0  0  0  0  0  0  0
  -17.2666    4.8537   13.3194 C   0  0  0  0  0  0  0  0  0  0  0  0
  -17.6798    5.9669   14.2885 C   0  0  2  0  0  0  0  0  0  0  0  0
  -19.0443    6.4230   13.9243 N   0  3  0  0  0  0  0  0  0  0  0  0
  -16.6159    7.1045   14.3288 C   0  0  2  0  0  0  0  0  0  0  0  0
  -15.2318    6.5041   14.6859 C   0  0  2  0  0  0  0  0  0  0  0  0
  -14.2446    7.4991   14.5613 O   0  0  0  0  0  0  0  0  0  0  0  0
  -14.8609    5.3688   13.7180 C   0  0  1  0  0  0  0  0  0  0  0  0
  -13.5984    4.8269   14.1042 O   0  0  0  0  0  0  0  0  0  0  0  0
  -12.4732    5.5950   13.8486 C   0  0  2  0  0  0  0  0  0  0  0  0
  -12.3833    5.8552   12.3352 C   0  0  2  0  0  0  0  0  0  0  0  0
  -13.5594    6.5387   11.9210 O   0  0  0  0  0  0  0  0  0  0  0  0
  -12.2633    4.5136   11.5912 C   0  0  1  0  0  0  0  0  0  0  0  0
  -12.1938    4.7018   10.1134 N   0  3  0  0  0  0  0  0  0  0  0  0
  -11.0144    3.7555   12.1037 C   0  0  2  0  0  0  0  0  0  0  0  0
  -10.8912    2.4949   11.4492 O   0  0  0  0  0  0  0  0  0  0  0  0
  -11.0953    3.5680   13.6301 C   0  0  2  0  0  0  0  0  0  0  0  0
  -11.3024    4.8651   14.2988 O   0  0  0  0  0  0  0  0  0  0  0  0
   -9.8269    2.9723   14.1996 C   0  0  0  0  0  0  0  0  0  0  0  0
   -9.9310    2.7595   15.6057 O   0  0  0  0  0  0  0  0  0  0  0  0
  1  2  1  1  0  0  0
  1  3  1  0  0  0  0
  1  9  1  0  0  0  0
  3  4  1  6  0  0  0
  3  5  1  0  0  0  0
  5  6  1  0  0  0  0
  6  7  1  1  0  0  0
  6  8  1  0  0  0  0
  8  9  1  0  0  0  0
  8 10  1  1  0  0  0
 10 11  1  0  0  0  0
 12 13  1  6  0  0  0
 12 14  1  0  0  0  0
 12 20  1  0  0  0  0
 14 15  1  0  0  0  0
 15 16  1  6  0  0  0
 15 17  1  0  0  0  0
 17  2  1  1  0  0  0
 17 18  1  0  0  0  0
 18 19  1  6  0  0  0
 18 20  1  0  0  0  0
 20 21  1  1  0  0  0
 22 21  1  6  0  0  0
 22 23  1  0  0  0  0
 22 30  1  0  0  0  0
 23 24  1  6  0  0  0
 23 25  1  0  0  0  0
 25 26  1  6  0  0  0
 25 27  1  0  0  0  0
 27 28  1  6  0  0  0
 27 29  1  0  0  0  0
 29 30  1  0  0  0  0
 29 31  1  1  0  0  0
 31 32  1  0  0  0  0
M  CHG  5   4   1  11   1  13   1  16   1  26   1
M  END
>  <CHROM.1>
-94.41876088,-106.93167209,-71.04918175,66.34508319,-179.78771541,51.57863205
178.11211105,-11.43824181,154.18661681,165.05814999,-59.55539218,52.12323898
-59.71396195,70.22505737,-177.93294728,-53.99565605,-14.93705498,6.64476619
14.42747286,2.30469422,-0.13004065,0.70499725

>  <Name>
1lc4

>  <RI>
0

>  <Rbt.Current_Directory>
/home/afrankz/demos/rdock_decoys_rna/rnas/1lc4

>  <Rbt.Executable>
rbdock ($Id: //depot/dev/client3/rdock/2013.1/src/exe/rbdock.cxx#4 $)

>  <Rbt.Library>
libRbt.so (2013.1, Build901 2013/11/27)

>  <Rbt.Parameter_File>
/export/apps/rDock/src/rDock_2013.1_src/data/scripts/dock_solv.prm

>  <Rbt.Receptor>
prm/pocket_docking_6.prm

>  <SCORE>
-42.1116

>  <SCORE.INTER>
-26.0347

>  <SCORE.INTER.CONST>
1

>  <SCORE.INTER.POLAR>
-5.31633

>  <SCORE.INTER.ROT>
6

>  <SCORE.INTER.SOLV>
20.2748

>  <SCORE.INTER.VDW>
-13.9936

>  <SCORE.INTER.norm>
-0.813585

>  <SCORE.INTRA>
-16.1091

>  <SCORE.INTRA.DIHEDRAL>
-24.5974

>  <SCORE.INTRA.DIHEDRAL.0>
44.2576

>  <SCORE.INTRA.POLAR>
-1.38114

>  <SCORE.INTRA.POLAR.0>
-0.381556

>  <SCORE.INTRA.REPUL>
0

>  <SCORE.INTRA.REPUL.0>
0

>  <SCORE.INTRA.SOLV>
0.621045

>  <SCORE.INTRA.SOLV.lig_0>
-134.592

>  <SCORE.INTRA.VDW>
0.574918

>  <SCORE.INTRA.VDW.0>
-1.01417

>  <SCORE.INTRA.norm>
-0.50341

>  <SCORE.RESTR>
0.0322258

>  <SCORE.RESTR.CAVITY>
0.0322258

>  <SCORE.RESTR.norm>
0.00100706

>  <SCORE.SYSTEM>
0

>  <SCORE.SYSTEM.CONST>
0

>  <SCORE.SYSTEM.DIHEDRAL>
0

>  <SCORE.SYSTEM.SOLV>
0

>  <SCORE.SYSTEM.norm>
0

>  <SCORE.heavy>
32

>  <SCORE.norm>
-1.31599

>  <RMSD>
8.123

$$$$
1lc4
 OpenBabel02141814113D
libRbt.so/2013.1/901 2013/11/27
 32 34  0  0  0  0  0  0  0  0999 V2000
  -15.1705    1.4172   20.4853 C   0  0  2  0  0  0  0  0  0  0  0  0
  -13.7721    1.4748   20.3544 O   0  0  0  0  0  0  0  0  0  0  0  0
  -15.5199    1.5827   21.9785 C   0  0  2  0  0  0  0  0  0  0  0  0
  -14.9912    2.8516   22.4882 N   0  3  0  0  0  0  0  0  0  0  0  0
  -14.9793    0.3805   22.7878 C   0  0  0  0  0  0  0  0  0  0  0  0
  -15.6178   -0.8933   22.2069 C   0  0  2  0  0  0  0  0  0  0  0  0
  -15.1953   -2.0448   22.9450 O   0  0  0  0  0  0  0  0  0  0  0  0
  -15.2420   -1.0164   20.7092 C   0  0  2  0  0  0  0  0  0  0  0  0
  -15.6797    0.1641   19.9778 O   0  0  0  0  0  0  0  0  0  0  0  0
  -15.8722   -2.2244   20.0205 C   0  0  0  0  0  0  0  0  0  0  0  0
  -15.1419   -3.4756   20.3539 N   0  3  0  0  0  0  0  0  0  0  0  0
  -11.0681    4.2716   18.6733 C   0  0  2  0  0  0  0  0  0  0  0  0
  -10.3704    5.1655   17.7309 N   0  3  0  0  0  0  0  0  0  0  0  0
  -10.9751    2.8320   18.1859 C   0  0  0  0  0  0  0  0  0  0  0  0
  -11.7002    1.8926   19.1559 C   0  0  2  0  0  0  0  0  0  0  0  0
  -11.4826    0.4952   18.7060 N   0  3  0  0  0  0  0  0  0  0  0  0
  -13.1995    2.2875   19.3102 C   0  0  2  0  0  0  0  0  0  0  0  0
  -13.2998    3.7708   19.7500 C   0  0  2  0  0  0  0  0  0  0  0  0
  -14.6477    4.1742   19.7298 O   0  0  0  0  0  0  0  0  0  0  0  0
  -12.5352    4.6835   18.7774 C   0  0  1  0  0  0  0  0  0  0  0  0
  -12.6279    6.0307   19.2390 O   0  0  0  0  0  0  0  0  0  0  0  0
  -12.8724    6.2233   20.5897 C   0  0  2  0  0  0  0  0  0  0  0  0
  -13.0355    7.7298   20.8546 C   0  0  2  0  0  0  0  0  0  0  0  0
  -14.1230    8.2129   20.0761 O   0  0  0  0  0  0  0  0  0  0  0  0
  -11.7401    8.4619   20.4624 C   0  0  1  0  0  0  0  0  0  0  0  0
  -11.8465    9.9338   20.6778 N   0  3  0  0  0  0  0  0  0  0  0  0
  -10.5577    7.8763   21.2724 C   0  0  2  0  0  0  0  0  0  0  0  0
   -9.3373    8.5191   20.9113 O   0  0  0  0  0  0  0  0  0  0  0  0
  -10.4577    6.3565   21.0444 C   0  0  2  0  0  0  0  0  0  0  0  0
  -11.7455    5.7046   21.3428 O   0  0  0  0  0  0  0  0  0  0  0  0
   -9.4175    5.7134   21.9346 C   0  0  0  0  0  0  0  0  0  0  0  0
   -8.1010    6.1522   21.6067 O   0  0  0  0  0  0  0  0  0  0  0  0
  1  2  1  1  0  0  0
  1  3  1  0  0  0  0
  1  9  1  0  0  0  0
  3  4  1  1  0  0  0
  3  5  1  0  0  0  0
  5  6  1  0  0  0  0
  6  7  1  1  0  0  0
  6  8  1  0  0  0  0
  8  9  1  0  0  0  0
  8 10  1  6  0  0  0
 10 11  1  0  0  0  0
 12 13  1  6  0  0  0
 12 14  1  0  0  0  0
 12 20  1  0  0  0  0
 14 15  1  0  0  0  0
 15 16  1  6  0  0  0
 15 17  1  0  0  0  0
 17  2  1  1  0  0  0
 17 18  1  0  0  0  0
 18 19  1  6  0  0  0
 18 20  1  0  0  0  0
 20 21  1  1  0  0  0
 22 21  1  6  0  0  0
 22 23  1  0  0  0  0
 22 30  1  0  0  0  0
 23 24  1  6  0  0  0
 23 25  1  0  0  0  0
 25 26  1  1  0  0  0
 25 27  1  0  0  0  0
 27 28  1  6  0  0  0
 27 29  1  0  0  0  0
 29 30  1  0  0  0  0
 29 31  1  1  0  0  0
 31 32  1  0  0  0  0
M  CHG  5   4   1  11   1  13   1  16   1  26   1
M  END
>  <CHROM.1>
-134.23037792,-165.70105497,-84.05839225,-54.05410859,-78.17555951,-76.74546660
-54.81187276,172.64082924,-52.81886270,-98.12150310,-175.94230711,78.46729313
74.42715425,51.96365869,-66.09799359,-49.98765556,-12.86574380,3.59932927
20.44770173,2.07683588,-0.46396013,-2.95489978

>  <Name>
1lc4

>  <RI>
0

>  <Rbt.Current_Directory>
/home/afrankz/demos/rdock_decoys_rna/rnas/1lc4

>  <Rbt.Executable>
rbdock ($Id: //depot/dev/client3/rdock/2013.1/src/exe/rbdock.cxx#4 $)

>  <Rbt.Library>
libRbt.so (2013.1, Build901 2013/11/27)

>  <Rbt.Parameter_File>
/export/apps/rDock/src/rDock_2013.1_src/data/scripts/dock_solv.prm

>  <Rbt.Receptor>
prm/blind_docking_60.prm

>  <SCORE>
-41.5797

>  <SCORE.INTER>
-31.8095

>  <SCORE.INTER.CONST>
1

>  <SCORE.INTER.POLAR>
-6.24115

>  <SCORE.INTER.ROT>
6

>  <SCORE.INTER.SOLV>
26.2771

>  <SCORE.INTER.VDW>
-16.7615

>  <SCORE.INTER.norm>
-0.994047

>  <SCORE.INTRA>
-16.9717

>  <SCORE.INTRA.DIHEDRAL>
-25.2179

>  <SCORE.INTRA.DIHEDRAL.0>
44.2576

>  <SCORE.INTRA.POLAR>
-1.04582

>  <SCORE.INTRA.POLAR.0>
-0.381556

>  <SCORE.INTRA.REPUL>
0

>  <SCORE.INTRA.REPUL.0>
0

>  <SCORE.INTRA.SOLV>
-0.600266

>  <SCORE.INTRA.SOLV.lig_0>
-134.592

>  <SCORE.INTRA.VDW>
-0.506845

>  <SCORE.INTRA.VDW.0>
-1.01417

>  <SCORE.INTRA.norm>
-0.530367

>  <SCORE.RESTR>
7.2016

>  <SCORE.RESTR.CAVITY>
7.2016

>  <SCORE.RESTR.norm>
0.22505

>  <SCORE.SYSTEM>
0

>  <SCORE.SYSTEM.CONST>
0

>  <SCORE.SYSTEM.DIHEDRAL>
0

>  <SCORE.SYSTEM.SOLV>
0

>  <SCORE.SYSTEM.norm>
0

>  <SCORE.heavy>
32

>  <SCORE.norm>
-1.29936

>  <RMSD>
8.136

$$$$
1lc4
 OpenBabel02141814113D
libRbt.so/2013.1/901 2013/11/27
 32 34  0  0  0  0  0  0  0  0999 V2000
  -14.6415    8.6877   16.1788 C   0  0  2  0  0  0  0  0  0  0  0  0
  -15.9101    8.7303   15.5747 O   0  0  0  0  0  0  0  0  0  0  0  0
  -13.6353    9.3717   15.2308 C   0  0  2  0  0  0  0  0  0  0  0  0
  -14.0476   10.7523   14.9598 N   0  3  0  0  0  0  0  0  0  0  0  0
  -13.4978    8.5569   13.9232 C   0  0  0  0  0  0  0  0  0  0  0  0
  -13.0260    7.1432   14.3060 C   0  0  2  0  0  0  0  0  0  0  0  0
  -12.8312    6.3471   13.1323 O   0  0  0  0  0  0  0  0  0  0  0  0
  -14.0641    6.4978   15.2574 C   0  0  2  0  0  0  0  0  0  0  0  0
  -14.2473    7.3231   16.4429 O   0  0  0  0  0  0  0  0  0  0  0  0
  -13.6633    5.1068   15.7424 C   0  0  0  0  0  0  0  0  0  0  0  0
  -12.4502    5.1644   16.5994 N   0  3  0  0  0  0  0  0  0  0  0  0
  -19.9632    9.5577   16.4955 C   0  0  2  0  0  0  0  0  0  0  0  0
  -21.2451    9.6991   17.2100 N   0  3  0  0  0  0  0  0  0  0  0  0
  -19.5342    8.0967   16.4868 C   0  0  0  0  0  0  0  0  0  0  0  0
  -18.1999    7.9370   15.7497 C   0  0  2  0  0  0  0  0  0  0  0  0
  -17.8825    6.4898   15.6631 N   0  3  0  0  0  0  0  0  0  0  0  0
  -17.0822    8.7972   16.4115 C   0  0  2  0  0  0  0  0  0  0  0  0
  -17.5398   10.2772   16.4754 C   0  0  2  0  0  0  0  0  0  0  0  0
  -16.6062   11.0235   17.2180 O   0  0  0  0  0  0  0  0  0  0  0  0
  -18.8955   10.4010   17.1897 C   0  0  1  0  0  0  0  0  0  0  0  0
  -19.2906   11.7724   17.1957 O   0  0  0  0  0  0  0  0  0  0  0  0
  -20.1258   12.1877   18.2210 C   0  0  2  0  0  0  0  0  0  0  0  0
  -20.3969   13.6934   18.0612 C   0  0  2  0  0  0  0  0  0  0  0  0
  -21.0101   13.9130   16.7971 O   0  0  0  0  0  0  0  0  0  0  0  0
  -19.0679   14.4645   18.1436 C   0  0  1  0  0  0  0  0  0  0  0  0
  -19.2657   15.9328   17.9733 N   0  3  0  0  0  0  0  0  0  0  0  0
  -18.3842   14.1600   19.4989 C   0  0  2  0  0  0  0  0  0  0  0  0
  -17.1358   14.8421   19.5937 O   0  0  0  0  0  0  0  0  0  0  0  0
  -18.1861   12.6418   19.6655 C   0  0  2  0  0  0  0  0  0  0  0  0
  -19.4659   11.9323   19.4880 O   0  0  0  0  0  0  0  0  0  0  0  0
  -17.6655   12.2818   21.0392 C   0  0  0  0  0  0  0  0  0  0  0  0
  -17.4744   10.8755   21.1773 O   0  0  0  0  0  0  0  0  0  0  0  0
  1  2  1  6  0  0  0
  1  3  1  0  0  0  0
  1  9  1  0  0  0  0
  3  4  1  6  0  0  0
  3  5  1  0  0  0  0
  5  6  1  0  0  0  0
  6  7  1  6  0  0  0
  6  8  1  0  0  0  0
  8  9  1  0  0  0  0
  8 10  1  1  0  0  0
 10 11  1  0  0  0  0
 12 13  1  1  0  0  0
 12 14  1  0  0  0  0
 12 20  1  0  0  0  0
 14 15  1  0  0  0  0
 15 16  1  1  0  0  0
 15 17  1  0  0  0  0
 17  2  1  6  0  0  0
 17 18  1  0  0  0  0
 18 19  1  1  0  0  0
 18 20  1  0  0  0  0
 20 21  1  6  0  0  0
 22 21  1  6  0  0  0
 22 23  1  0  0  0  0
 22 30  1  0  0  0  0
 23 24  1  6  0  0  0
 23 25  1  0  0  0  0
 25 26  1  1  0  0  0
 25 27  1  0  0  0  0
 27 28  1  6  0  0  0
 27 29  1  0  0  0  0
 29 30  1  0  0  0  0
 29 31  1  1  0  0  0
 31 32  1  0  0  0  0
M  CHG  5   4   1  11   1  13   1  16   1  26   1
M  END
>  <CHROM.1>
-149.44785411,-142.84329731,51.28922089,61.74232342,65.58498114,-68.13258288
-45.86310494,62.26660991,177.77491901,84.86557857,178.54611069,58.71469501
69.46511863,66.43897075,-179.45701652,-178.40300197,-17.06567517,10.16250429
16.98288245,-0.93214615,0.07383081,0.44610412

>  <Name>
1lc4

>  <RI>
0

>  <Rbt.Current_Directory>
/home/afrankz/demos/rdock_decoys_rna/rnas/1lc4

>  <Rbt.Executable>
rbdock ($Id: //depot/dev/client3/rdock/2013.1/src/exe/rbdock.cxx#4 $)

>  <Rbt.Library>
libRbt.so (2013.1, Build901 2013/11/27)

>  <Rbt.Parameter_File>
/export/apps/rDock/src/rDock_2013.1_src/data/scripts/dock_solv.prm

>  <Rbt.Receptor>
prm/pocket_docking_8.prm

>  <SCORE>
-38.4921

>  <SCORE.INTER>
-19.6238

>  <SCORE.INTER.CONST>
1

>  <SCORE.INTER.POLAR>
-4.03148

>  <SCORE.INTER.ROT>
6

>  <SCORE.INTER.SOLV>
18.6579

>  <SCORE.INTER.VDW>
-13.4636

>  <SCORE.INTER.norm>
-0.613244

>  <SCORE.INTRA>
-18.8683

>  <SCORE.INTRA.DIHEDRAL>
-31.4673

>  <SCORE.INTRA.DIHEDRAL.0>
44.2576

>  <SCORE.INTRA.POLAR>
0.354347

>  <SCORE.INTRA.POLAR.0>
-0.381556

>  <SCORE.INTRA.REPUL>
0

>  <SCORE.INTRA.REPUL.0>
0

>  <SCORE.INTRA.SOLV>
-0.288611

>  <SCORE.INTRA.SOLV.lig_0>
-134.592

>  <SCORE.INTRA.VDW>
-4.19514

>  <SCORE.INTRA.VDW.0>
-1.01417

>  <SCORE.INTRA.norm>
-0.589634

>  <SCORE.RESTR>
0

>  <SCORE.RESTR.CAVITY>
0

>  <SCORE.RESTR.norm>
0

>  <SCORE.SYSTEM>
0

>  <SCORE.SYSTEM.CONST>
0

>  <SCORE.SYSTEM.DIHEDRAL>
0

>  <SCORE.SYSTEM.SOLV>
0

>  <SCORE.SYSTEM.norm>
0

>  <SCORE.heavy>
32

>  <SCORE.norm>
-1.20288

>  <RMSD>
8.161

$$$$
1lc4
 OpenBabel02141814113D
libRbt.so/2013.1/901 2013/11/27
 32 34  0  0  0  0  0  0  0  0999 V2000
  -13.5066    5.9271   13.8403 C   0  0  2  0  0  0  0  0  0  0  0  0
  -13.3747    7.2968   14.1280 O   0  0  0  0  0  0  0  0  0  0  0  0
  -13.0171    5.6906   12.3970 C   0  0  2  0  0  0  0  0  0  0  0  0
  -11.6264    6.1317   12.2515 N   0  3  0  0  0  0  0  0  0  0  0  0
  -13.9463    6.4146   11.3946 C   0  0  0  0  0  0  0  0  0  0  0  0
  -15.3671    5.8592   11.5962 C   0  0  2  0  0  0  0  0  0  0  0  0
  -16.2733    6.4551   10.6619 O   0  0  0  0  0  0  0  0  0  0  0  0
  -15.8146    6.1173   13.0565 C   0  0  2  0  0  0  0  0  0  0  0  0
  -14.8799    5.5040   13.9893 O   0  0  0  0  0  0  0  0  0  0  0  0
  -17.1968    5.5545   13.3783 C   0  0  0  0  0  0  0  0  0  0  0  0
  -17.2244    4.0760   13.2267 N   0  3  0  0  0  0  0  0  0  0  0  0
  -13.3246    9.7891   17.5552 C   0  0  2  0  0  0  0  0  0  0  0  0
  -13.6542   10.4077   18.8523 N   0  3  0  0  0  0  0  0  0  0  0  0
  -14.4943    9.9490   16.5936 C   0  0  0  0  0  0  0  0  0  0  0  0
  -14.1652    9.3063   15.2417 C   0  0  2  0  0  0  0  0  0  0  0  0
  -15.2804    9.5893   14.3042 N   0  3  0  0  0  0  0  0  0  0  0  0
  -13.8342    7.7923   15.4016 C   0  0  2  0  0  0  0  0  0  0  0  0
  -12.6820    7.6212   16.4247 C   0  0  2  0  0  0  0  0  0  0  0  0
  -12.4943    6.2526   16.6928 O   0  0  0  0  0  0  0  0  0  0  0  0
  -13.0272    8.3047   17.7578 C   0  0  1  0  0  0  0  0  0  0  0  0
  -11.9278    8.1495   18.6545 O   0  0  0  0  0  0  0  0  0  0  0  0
  -12.1856    7.5482   19.8765 C   0  0  2  0  0  0  0  0  0  0  0  0
  -11.2529    8.1587   20.9365 C   0  0  2  0  0  0  0  0  0  0  0  0
  -11.4986    9.5576   21.0063 O   0  0  0  0  0  0  0  0  0  0  0  0
   -9.7887    7.8995   20.5406 C   0  0  1  0  0  0  0  0  0  0  0  0
   -8.8345    8.4891   21.5234 N   0  3  0  0  0  0  0  0  0  0  0  0
   -9.5589    6.3744   20.4049 C   0  0  2  0  0  0  0  0  0  0  0  0
   -8.2149    6.1042   20.0134 O   0  0  0  0  0  0  0  0  0  0  0  0
  -10.5499    5.7754   19.3896 C   0  0  2  0  0  0  0  0  0  0  0  0
  -11.9350    6.1240   19.7537 O   0  0  0  0  0  0  0  0  0  0  0  0
  -10.4708    4.2658   19.3378 C   0  0  0  0  0  0  0  0  0  0  0  0
  -10.8917    3.6747   20.5653 O   0  0  0  0  0  0  0  0  0  0  0  0
  1  2  1  6  0  0  0
  1  3  1  0  0  0  0
  1  9  1  0  0  0  0
  3  4  1  1  0  0  0
  3  5  1  0  0  0  0
  5  6  1  0  0  0  0
  6  7  1  6  0  0  0
  6  8  1  0  0  0  0
  8  9  1  0  0  0  0
  8 10  1  6  0  0  0
 10 11  1  0  0  0  0
 12 13  1  1  0  0  0
 12 14  1  0  0  0  0
 12 20  1  0  0  0  0
 14 15  1  0  0  0  0
 15 16  1  6  0  0  0
 15 17  1  0  0  0  0
 17  2  1  6  0  0  0
 17 18  1  0  0  0  0
 18 19  1  1  0  0  0
 18 20  1  0  0  0  0
 20 21  1  1  0  0  0
 22 21  1  6  0  0  0
 22 23  1  0  0  0  0
 22 30  1  0  0  0  0
 23 24  1  6  0  0  0
 23 25  1  0  0  0  0
 25 26  1  1  0  0  0
 25 27  1  0  0  0  0
 27 28  1  6  0  0  0
 27 29  1  0  0  0  0
 29 30  1  0  0  0  0
 29 31  1  1  0  0  0
 31 32  1  0  0  0  0
M  CHG  5   4   1  11   1  13   1  16   1  26   1
M  END
>  <CHROM.1>
176.74074267,-155.30852469,64.73168058,61.97907457,62.02815415,139.70714357
-63.65140911,176.65878371,-55.40992641,114.52105475,-147.43158943,169.28489391
-65.25221276,71.79081998,65.61477016,61.30598043,-12.87332768,7.05727519
16.60617847,-2.53108370,-0.88591417,0.60543296

>  <Name>
1lc4

>  <RI>
0

>  <Rbt.Current_Directory>
/home/afrankz/demos/rdock_decoys_rna/rnas/1lc4

>  <Rbt.Executable>
rbdock ($Id: //depot/dev/client3/rdock/2013.1/src/exe/rbdock.cxx#4 $)

>  <Rbt.Library>
libRbt.so (2013.1, Build901 2013/11/27)

>  <Rbt.Parameter_File>
/export/apps/rDock/src/rDock_2013.1_src/data/scripts/dock_solv.prm

>  <Rbt.Receptor>
prm/pocket_docking_7.prm

>  <SCORE>
-56.081

>  <SCORE.INTER>
-35.3902

>  <SCORE.INTER.CONST>
1

>  <SCORE.INTER.POLAR>
-4.83219

>  <SCORE.INTER.ROT>
6

>  <SCORE.INTER.SOLV>
23.6326

>  <SCORE.INTER.VDW>
-22.9637

>  <SCORE.INTER.norm>
-1.10594

>  <SCORE.INTRA>
-20.6908

>  <SCORE.INTRA.DIHEDRAL>
-25.9845

>  <SCORE.INTRA.DIHEDRAL.0>
44.2576

>  <SCORE.INTRA.POLAR>
-0.839974

>  <SCORE.INTRA.POLAR.0>
-0.381556

>  <SCORE.INTRA.REPUL>
0

>  <SCORE.INTRA.REPUL.0>
0

>  <SCORE.INTRA.SOLV>
-0.50715

>  <SCORE.INTRA.SOLV.lig_0>
-134.592

>  <SCORE.INTRA.VDW>
-4.5891

>  <SCORE.INTRA.VDW.0>
-1.01417

>  <SCORE.INTRA.norm>
-0.646588

>  <SCORE.RESTR>
0

>  <SCORE.RESTR.CAVITY>
0

>  <SCORE.RESTR.norm>
0

>  <SCORE.SYSTEM>
0

>  <SCORE.SYSTEM.CONST>
0

>  <SCORE.SYSTEM.DIHEDRAL>
0

>  <SCORE.SYSTEM.SOLV>
0

>  <SCORE.SYSTEM.norm>
0

>  <SCORE.heavy>
32

>  <SCORE.norm>
-1.75253

>  <RMSD>
8.164

$$$$
1lc4
 OpenBabel02141814113D
libRbt.so/2013.1/901 2013/11/27
 32 34  0  0  0  0  0  0  0  0999 V2000
  -15.3305   14.5730   17.4307 C   0  0  2  0  0  0  0  0  0  0  0  0
  -15.5451   14.2270   18.7761 O   0  0  0  0  0  0  0  0  0  0  0  0
  -15.0312   16.0847   17.3658 C   0  0  2  0  0  0  0  0  0  0  0  0
  -13.8627   16.4089   18.1899 N   0  3  0  0  0  0  0  0  0  0  0  0
  -16.2743   16.8926   17.8068 C   0  0  0  0  0  0  0  0  0  0  0  0
  -17.4301   16.5153   16.8637 C   0  0  2  0  0  0  0  0  0  0  0  0
  -18.6044   17.2671   17.1877 O   0  0  0  0  0  0  0  0  0  0  0  0
  -17.6930   14.9919   16.9612 C   0  0  2  0  0  0  0  0  0  0  0  0
  -16.4870   14.2468   16.6287 O   0  0  0  0  0  0  0  0  0  0  0  0
  -18.7910   14.5021   16.0203 C   0  0  0  0  0  0  0  0  0  0  0  0
  -20.1259   14.9984   16.4464 N   0  3  0  0  0  0  0  0  0  0  0  0
  -12.7322   11.0622   18.9515 C   0  0  2  0  0  0  0  0  0  0  0  0
  -12.0141    9.8355   19.3434 N   0  3  0  0  0  0  0  0  0  0  0  0
  -12.7489   12.0455   20.1139 C   0  0  0  0  0  0  0  0  0  0  0  0
  -13.4963   13.3244   19.7200 C   0  0  2  0  0  0  0  0  0  0  0  0
  -13.3847   14.2954   20.8368 N   0  3  0  0  0  0  0  0  0  0  0  0
  -14.9607   13.0128   19.2888 C   0  0  2  0  0  0  0  0  0  0  0  0
  -14.9502   11.9672   18.1441 C   0  0  2  0  0  0  0  0  0  0  0  0
  -16.2695   11.5637   17.8675 O   0  0  0  0  0  0  0  0  0  0  0  0
  -14.1653   10.7113   18.5565 C   0  0  1  0  0  0  0  0  0  0  0  0
  -14.1551    9.7937   17.4636 O   0  0  0  0  0  0  0  0  0  0  0  0
  -13.1586    9.9502   16.5128 C   0  0  2  0  0  0  0  0  0  0  0  0
  -13.8133   10.1222   15.1315 C   0  0  2  0  0  0  0  0  0  0  0  0
  -14.6545   11.2681   15.1669 O   0  0  0  0  0  0  0  0  0  0  0  0
  -14.6424    8.8695   14.7982 C   0  0  1  0  0  0  0  0  0  0  0  0
  -15.3205    8.9875   13.4753 N   0  3  0  0  0  0  0  0  0  0  0  0
  -13.7220    7.6249   14.8301 C   0  0  2  0  0  0  0  0  0  0  0  0
  -14.4689    6.4434   14.5493 O   0  0  0  0  0  0  0  0  0  0  0  0
  -13.0256    7.5132   16.1991 C   0  0  2  0  0  0  0  0  0  0  0  0
  -12.3196    8.7661   16.5222 O   0  0  0  0  0  0  0  0  0  0  0  0
  -11.9974    6.4041   16.2272 C   0  0  0  0  0  0  0  0  0  0  0  0
  -12.6020    5.1225   16.0684 O   0  0  0  0  0  0  0  0  0  0  0  0
  1  2  1  1  0  0  0
  1  3  1  0  0  0  0
  1  9  1  0  0  0  0
  3  4  1  1  0  0  0
  3  5  1  0  0  0  0
  5  6  1  0  0  0  0
  6  7  1  1  0  0  0
  6  8  1  0  0  0  0
  8  9  1  0  0  0  0
  8 10  1  6  0  0  0
 10 11  1  0  0  0  0
 12 13  1  1  0  0  0
 12 14  1  0  0  0  0
 12 20  1  0  0  0  0
 14 15  1  0  0  0  0
 15 16  1  1  0  0  0
 15 17  1  0  0  0  0
 17  2  1  6  0  0  0
 17 18  1  0  0  0  0
 18 19  1  1  0  0  0
 18 20  1  0  0  0  0
 20 21  1  6  0  0  0
 22 21  1  1  0  0  0
 22 23  1  0  0  0  0
 22 30  1  0  0  0  0
 23 24  1  1  0  0  0
 23 25  1  0  0  0  0
 25 26  1  6  0  0  0
 25 27  1  0  0  0  0
 27 28  1  1  0  0  0
 27 29  1  0  0  0  0
 29 30  1  0  0  0  0
 29 31  1  6  0  0  0
 31 32  1  0  0  0  0
M  CHG  5   4   1  11   1  13   1  16   1  26   1
M  END
>  <CHROM.1>
-137.30373069,84.54965617,72.24009062,63.75538346,-69.28849209,64.28935480
79.20373016,101.83214499,72.22095493,-35.81108783,-123.55054877,-164.54475342
-68.23135707,-50.51834811,-64.94123734,54.17683051,-14.83478974,11.84359934
17.15475526,-2.11859186,0.69824025,-2.56182309

>  <Name>
1lc4

>  <RI>
0

>  <Rbt.Current_Directory>
/home/afrankz/demos/rdock_decoys_rna/rnas/1lc4

>  <Rbt.Executable>
rbdock ($Id: //depot/dev/client3/rdock/2013.1/src/exe/rbdock.cxx#4 $)

>  <Rbt.Library>
libRbt.so (2013.1, Build901 2013/11/27)

>  <Rbt.Parameter_File>
/export/apps/rDock/src/rDock_2013.1_src/data/scripts/dock_solv.prm

>  <Rbt.Receptor>
prm/blind_docking_40.prm

>  <SCORE>
-10.656

>  <SCORE.INTER>
-10.4828

>  <SCORE.INTER.CONST>
1

>  <SCORE.INTER.POLAR>
-5.91294

>  <SCORE.INTER.ROT>
6

>  <SCORE.INTER.SOLV>
29.1188

>  <SCORE.INTER.VDW>
-4.58497

>  <SCORE.INTER.norm>
-0.327587

>  <SCORE.INTRA>
-11.9323

>  <SCORE.INTRA.DIHEDRAL>
-19.0255

>  <SCORE.INTRA.DIHEDRAL.0>
44.2576

>  <SCORE.INTRA.POLAR>
-2.27167

>  <SCORE.INTRA.POLAR.0>
-0.381556

>  <SCORE.INTRA.REPUL>
0.635837

>  <SCORE.INTRA.REPUL.0>
0

>  <SCORE.INTRA.SOLV>
3.54279

>  <SCORE.INTRA.SOLV.lig_0>
-134.592

>  <SCORE.INTRA.VDW>
0.353633

>  <SCORE.INTRA.VDW.0>
-1.01417

>  <SCORE.INTRA.norm>
-0.372883

>  <SCORE.RESTR>
11.7591

>  <SCORE.RESTR.CAVITY>
11.7591

>  <SCORE.RESTR.norm>
0.367471

>  <SCORE.SYSTEM>
0

>  <SCORE.SYSTEM.CONST>
0

>  <SCORE.SYSTEM.DIHEDRAL>
0

>  <SCORE.SYSTEM.SOLV>
0

>  <SCORE.SYSTEM.norm>
0

>  <SCORE.heavy>
32

>  <SCORE.norm>
-0.332999

>  <RMSD>
8.165

$$$$
1lc4
 OpenBabel02141814113D
libRbt.so/2013.1/901 2013/11/27
 32 34  0  0  0  0  0  0  0  0999 V2000
  -11.6282    5.1718   20.2767 C   0  0  2  0  0  0  0  0  0  0  0  0
  -12.2732    4.8127   21.4730 O   0  0  0  0  0  0  0  0  0  0  0  0
  -10.2091    5.6647   20.6259 C   0  0  2  0  0  0  0  0  0  0  0  0
   -9.4663    4.6188   21.3358 N   0  3  0  0  0  0  0  0  0  0  0  0
  -10.2877    6.9654   21.4594 C   0  0  0  0  0  0  0  0  0  0  0  0
  -11.0458    8.0083   20.6195 C   0  0  2  0  0  0  0  0  0  0  0  0
  -11.1126    9.2571   21.3160 O   0  0  0  0  0  0  0  0  0  0  0  0
  -12.4611    7.4704   20.2923 C   0  0  2  0  0  0  0  0  0  0  0  0
  -12.3702    6.2007   19.5854 O   0  0  0  0  0  0  0  0  0  0  0  0
  -13.2815    8.4106   19.4127 C   0  0  0  0  0  0  0  0  0  0  0  0
  -12.6767    8.5485   18.0619 N   0  3  0  0  0  0  0  0  0  0  0  0
  -15.6554    2.3401   22.1107 C   0  0  2  0  0  0  0  0  0  0  0  0
  -17.0349    1.8207   22.1432 N   0  3  0  0  0  0  0  0  0  0  0  0
  -15.5666    3.6238   22.9247 C   0  0  0  0  0  0  0  0  0  0  0  0
  -14.1371    4.1760   22.8956 C   0  0  2  0  0  0  0  0  0  0  0  0
  -14.0717    5.3551   23.7946 N   0  3  0  0  0  0  0  0  0  0  0  0
  -13.6705    4.4591   21.4364 C   0  0  2  0  0  0  0  0  0  0  0  0
  -13.8147    3.1688   20.5890 C   0  0  2  0  0  0  0  0  0  0  0  0
  -13.5514    3.4646   19.2387 O   0  0  0  0  0  0  0  0  0  0  0  0
  -15.2490    2.6208   20.6653 C   0  0  1  0  0  0  0  0  0  0  0  0
  -15.3255    1.4192   19.8991 O   0  0  0  0  0  0  0  0  0  0  0  0
  -14.2218    0.5810   19.9214 C   0  0  2  0  0  0  0  0  0  0  0  0
  -14.4539   -0.5715   18.9294 C   0  0  2  0  0  0  0  0  0  0  0  0
  -14.6384   -0.0228   17.6306 O   0  0  0  0  0  0  0  0  0  0  0  0
  -15.7038   -1.3647   19.3493 C   0  0  1  0  0  0  0  0  0  0  0  0
  -15.9923   -2.4859   18.4092 N   0  3  0  0  0  0  0  0  0  0  0  0
  -15.5103   -1.8972   20.7901 C   0  0  2  0  0  0  0  0  0  0  0  0
  -16.6651   -2.6163   21.2167 O   0  0  0  0  0  0  0  0  0  0  0  0
  -15.2114   -0.7323   21.7520 C   0  0  2  0  0  0  0  0  0  0  0  0
  -14.0655    0.0570   21.2657 O   0  0  0  0  0  0  0  0  0  0  0  0
  -14.8599   -1.2158   23.1415 C   0  0  0  0  0  0  0  0  0  0  0  0
  -14.9390   -0.1632   24.1002 O   0  0  0  0  0  0  0  0  0  0  0  0
  1  2  1  1  0  0  0
  1  3  1  0  0  0  0
  1  9  1  0  0  0  0
  3  4  1  1  0  0  0
  3  5  1  0  0  0  0
  5  6  1  0  0  0  0
  6  7  1  1  0  0  0
  6  8  1  0  0  0  0
  8  9  1  0  0  0  0
  8 10  1  6  0  0  0
 10 11  1  0  0  0  0
 12 13  1  6  0  0  0
 12 14  1  0  0  0  0
 12 20  1  0  0  0  0
 14 15  1  0  0  0  0
 15 16  1  1  0  0  0
 15 17  1  0  0  0  0
 17  2  1  1  0  0  0
 17 18  1  0  0  0  0
 18 19  1  6  0  0  0
 18 20  1  0  0  0  0
 20 21  1  6  0  0  0
 22 21  1  1  0  0  0
 22 23  1  0  0  0  0
 22 30  1  0  0  0  0
 23 24  1  6  0  0  0
 23 25  1  0  0  0  0
 25 26  1  6  0  0  0
 25 27  1  0  0  0  0
 27 28  1  1  0  0  0
 27 29  1  0  0  0  0
 29 30  1  0  0  0  0
 29 31  1  1  0  0  0
 31 32  1  0  0  0  0
M  CHG  5   4   1  11   1  13   1  16   1  26   1
M  END
>  <CHROM.1>
173.09576749,-177.31227679,53.69752481,-59.76372943,65.35610220,58.34172066
-56.34073627,-109.30204253,-51.52826974,-85.21994770,-174.36756860,68.55316431
-172.12048592,-53.87576252,-164.23176935,-163.86340749,-13.79733156,3.02926684
20.82593505,-0.31302599,-1.10858386,-1.93580696

>  <Name>
1lc4

>  <RI>
0

>  <Rbt.Current_Directory>
/home/afrankz/demos/rdock_decoys_rna/rnas/1lc4

>  <Rbt.Executable>
rbdock ($Id: //depot/dev/client3/rdock/2013.1/src/exe/rbdock.cxx#4 $)

>  <Rbt.Library>
libRbt.so (2013.1, Build901 2013/11/27)

>  <Rbt.Parameter_File>
/export/apps/rDock/src/rDock_2013.1_src/data/scripts/dock_solv.prm

>  <Rbt.Receptor>
prm/blind_docking_60.prm

>  <SCORE>
-23.9822

>  <SCORE.INTER>
-15.6557

>  <SCORE.INTER.CONST>
1

>  <SCORE.INTER.POLAR>
-2.56271

>  <SCORE.INTER.ROT>
6

>  <SCORE.INTER.SOLV>
23.6722

>  <SCORE.INTER.VDW>
-17.3855

>  <SCORE.INTER.norm>
-0.489239

>  <SCORE.INTRA>
-17.471

>  <SCORE.INTRA.DIHEDRAL>
-34.4095

>  <SCORE.INTRA.DIHEDRAL.0>
44.2576

>  <SCORE.INTRA.POLAR>
0.379293

>  <SCORE.INTRA.POLAR.0>
-0.381556

>  <SCORE.INTRA.REPUL>
0

>  <SCORE.INTRA.REPUL.0>
0

>  <SCORE.INTRA.SOLV>
-1.62123

>  <SCORE.INTRA.SOLV.lig_0>
-134.592

>  <SCORE.INTRA.VDW>
-0.745273

>  <SCORE.INTRA.VDW.0>
-1.01417

>  <SCORE.INTRA.norm>
-0.54597

>  <SCORE.RESTR>
9.14452

>  <SCORE.RESTR.CAVITY>
9.14452

>  <SCORE.RESTR.norm>
0.285766

>  <SCORE.SYSTEM>
0

>  <SCORE.SYSTEM.CONST>
0

>  <SCORE.SYSTEM.DIHEDRAL>
0

>  <SCORE.SYSTEM.SOLV>
0

>  <SCORE.SYSTEM.norm>
0

>  <SCORE.heavy>
32

>  <SCORE.norm>
-0.749443

>  <RMSD>
8.169

$$$$
1lc4
 OpenBabel02141814113D
libRbt.so/2013.1/901 2013/11/27
 32 34  0  0  0  0  0  0  0  0999 V2000
  -11.5688    3.4889   17.6798 C   0  0  2  0  0  0  0  0  0  0  0  0
  -10.5078    2.6414   17.3164 O   0  0  0  0  0  0  0  0  0  0  0  0
  -11.0226    4.5497   18.6572 C   0  0  2  0  0  0  0  0  0  0  0  0
   -9.9310    5.3038   18.0332 N   0  3  0  0  0  0  0  0  0  0  0  0
  -10.5634    3.8758   19.9715 C   0  0  0  0  0  0  0  0  0  0  0  0
  -11.7803    3.1469   20.5678 C   0  0  2  0  0  0  0  0  0  0  0  0
  -11.4352    2.5386   21.8168 O   0  0  0  0  0  0  0  0  0  0  0  0
  -12.2943    2.0954   19.5531 C   0  0  2  0  0  0  0  0  0  0  0  0
  -12.6386    2.7346   18.2910 O   0  0  0  0  0  0  0  0  0  0  0  0
  -13.5390    1.3494   20.0272 C   0  0  0  0  0  0  0  0  0  0  0  0
  -13.2876    0.6446   21.3116 N   0  3  0  0  0  0  0  0  0  0  0  0
   -8.4344    1.0752   13.9686 C   0  0  2  0  0  0  0  0  0  0  0  0
   -8.0577    0.7027   12.5926 N   0  3  0  0  0  0  0  0  0  0  0  0
   -9.7582    0.4199   14.3380 C   0  0  0  0  0  0  0  0  0  0  0  0
  -10.1627    0.8028   15.7660 C   0  0  2  0  0  0  0  0  0  0  0  0
  -11.3911    0.0503   16.1229 N   0  3  0  0  0  0  0  0  0  0  0  0
  -10.2925    2.3476   15.9214 C   0  0  2  0  0  0  0  0  0  0  0  0
   -8.9652    3.0229   15.4902 C   0  0  2  0  0  0  0  0  0  0  0  0
   -9.1356    4.4196   15.4729 O   0  0  0  0  0  0  0  0  0  0  0  0
   -8.5688    2.5935   14.0683 C   0  0  1  0  0  0  0  0  0  0  0  0
   -7.3287    3.2123   13.7280 O   0  0  0  0  0  0  0  0  0  0  0  0
   -7.1143    3.5113   12.3916 C   0  0  2  0  0  0  0  0  0  0  0  0
   -5.8881    4.4334   12.2799 C   0  0  2  0  0  0  0  0  0  0  0  0
   -4.7619    3.7601   12.8282 O   0  0  0  0  0  0  0  0  0  0  0  0
   -6.1538    5.7350   13.0563 C   0  0  1  0  0  0  0  0  0  0  0  0
   -4.9874    6.6628   13.0016 N   0  3  0  0  0  0  0  0  0  0  0  0
   -7.4214    6.4187   12.4880 C   0  0  2  0  0  0  0  0  0  0  0  0
   -7.7077    7.6169   13.2057 O   0  0  0  0  0  0  0  0  0  0  0  0
   -8.6189    5.4522   12.5475 C   0  0  2  0  0  0  0  0  0  0  0  0
   -8.2914    4.1832   11.8729 O   0  0  0  0  0  0  0  0  0  0  0  0
   -9.8426    6.0172   11.8609 C   0  0  0  0  0  0  0  0  0  0  0  0
  -10.8358    5.0163   11.6488 O   0  0  0  0  0  0  0  0  0  0  0  0
  1  2  1  1  0  0  0
  1  3  1  0  0  0  0
  1  9  1  0  0  0  0
  3  4  1  6  0  0  0
  3  5  1  0  0  0  0
  5  6  1  0  0  0  0
  6  7  1  1  0  0  0
  6  8  1  0  0  0  0
  8  9  1  0  0  0  0
  8 10  1  1  0  0  0
 10 11  1  0  0  0  0
 12 13  1  6  0  0  0
 12 14  1  0  0  0  0
 12 20  1  0  0  0  0
 14 15  1  0  0  0  0
 15 16  1  6  0  0  0
 15 17  1  0  0  0  0
 17  2  1  1  0  0  0
 17 18  1  0  0  0  0
 18 19  1  6  0  0  0
 18 20  1  0  0  0  0
 20 21  1  1  0  0  0
 22 21  1  1  0  0  0
 22 23  1  0  0  0  0
 22 30  1  0  0  0  0
 23 24  1  1  0  0  0
 23 25  1  0  0  0  0
 25 26  1  6  0  0  0
 25 27  1  0  0  0  0
 27 28  1  1  0  0  0
 27 29  1  0  0  0  0
 29 30  1  0  0  0  0
 29 31  1  6  0  0  0
 31 32  1  0  0  0  0
M  CHG  5   4   1  11   1  13   1  16   1  26   1
M  END
>  <CHROM.1>
-131.39255634,-130.12402827,127.24149861,64.37133881,-58.65283319,69.94073963
54.38246740,173.53020011,-58.16411587,88.80846858,167.71527337,64.38169902
-38.61553682,-11.32379985,166.56552877,-170.55132458,-9.43905972,3.44255663
15.56329200,-2.99922479,-0.99563263,-2.61090271

>  <Name>
1lc4

>  <RI>
0

>  <Rbt.Current_Directory>
/home/afrankz/demos/rdock_decoys_rna/rnas/1lc4

>  <Rbt.Executable>
rbdock ($Id: //depot/dev/client3/rdock/2013.1/src/exe/rbdock.cxx#4 $)

>  <Rbt.Library>
libRbt.so (2013.1, Build901 2013/11/27)

>  <Rbt.Parameter_File>
/export/apps/rDock/src/rDock_2013.1_src/data/scripts/dock_solv.prm

>  <Rbt.Receptor>
prm/blind_docking_100.prm

>  <SCORE>
-49.323

>  <SCORE.INTER>
-41.4505

>  <SCORE.INTER.CONST>
1

>  <SCORE.INTER.POLAR>
-7.2289

>  <SCORE.INTER.ROT>
6

>  <SCORE.INTER.SOLV>
33.8849

>  <SCORE.INTER.VDW>
-22.4323

>  <SCORE.INTER.norm>
-1.29533

>  <SCORE.INTRA>
-11.2188

>  <SCORE.INTRA.DIHEDRAL>
-14.1031

>  <SCORE.INTRA.DIHEDRAL.0>
44.2576

>  <SCORE.INTRA.POLAR>
-1.03768

>  <SCORE.INTRA.POLAR.0>
-0.381556

>  <SCORE.INTRA.REPUL>
0

>  <SCORE.INTRA.REPUL.0>
0

>  <SCORE.INTRA.SOLV>
1.86077

>  <SCORE.INTRA.SOLV.lig_0>
-134.592

>  <SCORE.INTRA.VDW>
-1.5696

>  <SCORE.INTRA.VDW.0>
-1.01417

>  <SCORE.INTRA.norm>
-0.350589

>  <SCORE.RESTR>
3.34631

>  <SCORE.RESTR.CAVITY>
3.34631

>  <SCORE.RESTR.norm>
0.104572

>  <SCORE.SYSTEM>
0

>  <SCORE.SYSTEM.CONST>
0

>  <SCORE.SYSTEM.DIHEDRAL>
0

>  <SCORE.SYSTEM.SOLV>
0

>  <SCORE.SYSTEM.norm>
0

>  <SCORE.heavy>
32

>  <SCORE.norm>
-1.54134

>  <RMSD>
8.173

$$$$
1lc4
 OpenBabel02141814113D
libRbt.so/2013.1/901 2013/11/27
 32 34  0  0  0  0  0  0  0  0999 V2000
  -10.2557    5.1944   15.1781 C   0  0  2  0  0  0  0  0  0  0  0  0
  -10.2622    3.7955   15.0396 O   0  0  0  0  0  0  0  0  0  0  0  0
  -11.1782    5.7883   14.0941 C   0  0  2  0  0  0  0  0  0  0  0  0
  -12.5348    5.2482   14.2273 N   0  3  0  0  0  0  0  0  0  0  0  0
  -10.5956    5.5095   12.6886 C   0  0  0  0  0  0  0  0  0  0  0  0
   -9.1952    6.1449   12.6337 C   0  0  2  0  0  0  0  0  0  0  0  0
   -8.6158    5.9647   11.3371 O   0  0  0  0  0  0  0  0  0  0  0  0
   -8.3068    5.5205   13.7384 C   0  0  2  0  0  0  0  0  0  0  0  0
   -8.9141    5.7142   15.0474 O   0  0  0  0  0  0  0  0  0  0  0  0
   -6.9055    6.1226   13.8055 C   0  0  0  0  0  0  0  0  0  0  0  0
   -5.9701    5.4119   12.8947 N   0  3  0  0  0  0  0  0  0  0  0  0
  -11.7243    1.3089   18.1443 C   0  0  2  0  0  0  0  0  0  0  0  0
  -11.8093    0.4518   19.3409 N   0  3  0  0  0  0  0  0  0  0  0  0
  -10.8027    0.6698   17.1145 C   0  0  0  0  0  0  0  0  0  0  0  0
  -10.7030    1.5537   15.8663 C   0  0  2  0  0  0  0  0  0  0  0  0
   -9.8941    0.8381   14.8484 N   0  3  0  0  0  0  0  0  0  0  0  0
  -10.1709    2.9744   16.2212 C   0  0  2  0  0  0  0  0  0  0  0  0
  -11.0732    3.6057   17.3126 C   0  0  2  0  0  0  0  0  0  0  0  0
  -10.5011    4.8144   17.7504 O   0  0  0  0  0  0  0  0  0  0  0  0
  -11.1808    2.6815   18.5364 C   0  0  1  0  0  0  0  0  0  0  0  0
  -12.0443    3.2872   19.4978 O   0  0  0  0  0  0  0  0  0  0  0  0
  -11.5528    3.4402   20.7848 C   0  0  2  0  0  0  0  0  0  0  0  0
  -12.6643    4.0228   21.6744 C   0  0  2  0  0  0  0  0  0  0  0  0
  -13.7696    3.1282   21.6648 O   0  0  0  0  0  0  0  0  0  0  0  0
  -13.0920    5.3956   21.1264 C   0  0  1  0  0  0  0  0  0  0  0  0
  -14.1860    6.0019   21.9386 N   0  3  0  0  0  0  0  0  0  0  0  0
  -11.8612    6.3338   21.0825 C   0  0  2  0  0  0  0  0  0  0  0  0
  -12.2223    7.6078   20.5542 O   0  0  0  0  0  0  0  0  0  0  0  0
  -10.7374    5.6979   20.2432 C   0  0  2  0  0  0  0  0  0  0  0  0
  -10.4212    4.3479   20.7433 O   0  0  0  0  0  0  0  0  0  0  0  0
   -9.4582    6.5032   20.2993 C   0  0  0  0  0  0  0  0  0  0  0  0
   -8.3358    5.7382   19.8655 O   0  0  0  0  0  0  0  0  0  0  0  0
  1  2  1  6  0  0  0
  1  3  1  0  0  0  0
  1  9  1  0  0  0  0
  3  4  1  6  0  0  0
  3  5  1  0  0  0  0
  5  6  1  0  0  0  0
  6  7  1  6  0  0  0
  6  8  1  0  0  0  0
  8  9  1  0  0  0  0
  8 10  1  1  0  0  0
 10 11  1  0  0  0  0
 12 13  1  1  0  0  0
 12 14  1  0  0  0  0
 12 20  1  0  0  0  0
 14 15  1  0  0  0  0
 15 16  1  6  0  0  0
 15 17  1  0  0  0  0
 17  2  1  6  0  0  0
 17 18  1  0  0  0  0
 18 19  1  1  0  0  0
 18 20  1  0  0  0  0
 20 21  1  1  0  0  0
 22 21  1  6  0  0  0
 22 23  1  0  0  0  0
 22 30  1  0  0  0  0
 23 24  1  6  0  0  0
 23 25  1  0  0  0  0
 25 26  1  1  0  0  0
 25 27  1  0  0  0  0
 27 28  1  6  0  0  0
 27 29  1  0  0  0  0
 29 30  1  0  0  0  0
 29 31  1  1  0  0  0
 31 32  1  0  0  0  0
M  CHG  5   4   1  11   1  13   1  16   1  26   1
M  END
>  <CHROM.1>
-145.18381805,159.93796433,68.14535820,167.02802984,-88.14190167,174.53997490
28.93057478,51.33376877,-59.40149273,111.64579700,-176.35942265,78.99148590
-36.24337935,177.78786837,162.86183603,-67.56052993,-10.64367932,4.40580627
17.35812151,-0.41594698,1.10333786,0.55222452

>  <Name>
1lc4

>  <RI>
0

>  <Rbt.Current_Directory>
/home/afrankz/demos/rdock_decoys_rna/rnas/1lc4

>  <Rbt.Executable>
rbdock ($Id: //depot/dev/client3/rdock/2013.1/src/exe/rbdock.cxx#4 $)

>  <Rbt.Library>
libRbt.so (2013.1, Build901 2013/11/27)

>  <Rbt.Parameter_File>
/export/apps/rDock/src/rDock_2013.1_src/data/scripts/dock_solv.prm

>  <Rbt.Receptor>
prm/blind_docking_100.prm

>  <SCORE>
-28.6001

>  <SCORE.INTER>
-19.8456

>  <SCORE.INTER.CONST>
1

>  <SCORE.INTER.POLAR>
-3.73537

>  <SCORE.INTER.ROT>
6

>  <SCORE.INTER.SOLV>
22.7935

>  <SCORE.INTER.VDW>
-15.977

>  <SCORE.INTER.norm>
-0.620176

>  <SCORE.INTRA>
-11.399

>  <SCORE.INTRA.DIHEDRAL>
-21.3196

>  <SCORE.INTRA.DIHEDRAL.0>
44.2576

>  <SCORE.INTRA.POLAR>
0.249996

>  <SCORE.INTRA.POLAR.0>
-0.381556

>  <SCORE.INTRA.REPUL>
0

>  <SCORE.INTRA.REPUL.0>
0

>  <SCORE.INTRA.SOLV>
-2.98894

>  <SCORE.INTRA.SOLV.lig_0>
-134.592

>  <SCORE.INTRA.VDW>
-0.094725

>  <SCORE.INTRA.VDW.0>
-1.01417

>  <SCORE.INTRA.norm>
-0.356219

>  <SCORE.RESTR>
2.64459

>  <SCORE.RESTR.CAVITY>
2.64459

>  <SCORE.RESTR.norm>
0.0826434

>  <SCORE.SYSTEM>
0

>  <SCORE.SYSTEM.CONST>
0

>  <SCORE.SYSTEM.DIHEDRAL>
0

>  <SCORE.SYSTEM.SOLV>
0

>  <SCORE.SYSTEM.norm>
0

>  <SCORE.heavy>
32

>  <SCORE.norm>
-0.893752

>  <RMSD>
8.185

$$$$
1lc4
 OpenBabel02141814113D
libRbt.so/2013.1/901 2013/11/27
 32 34  0  0  0  0  0  0  0  0999 V2000
  -15.2476    4.1458   15.0567 C   0  0  2  0  0  0  0  0  0  0  0  0
  -15.0516    5.3766   14.4065 O   0  0  0  0  0  0  0  0  0  0  0  0
  -14.6386    3.0356   14.1761 C   0  0  2  0  0  0  0  0  0  0  0  0
  -13.2137    3.2924   13.9447 N   0  3  0  0  0  0  0  0  0  0  0  0
  -15.4160    2.9272   12.8432 C   0  0  0  0  0  0  0  0  0  0  0  0
  -16.8838    2.6194   13.1872 C   0  0  2  0  0  0  0  0  0  0  0  0
  -17.6535    2.4578   11.9910 O   0  0  0  0  0  0  0  0  0  0  0  0
  -17.4513    3.7575   14.0716 C   0  0  2  0  0  0  0  0  0  0  0  0
  -16.6543    3.9052   15.2811 O   0  0  0  0  0  0  0  0  0  0  0  0
  -18.8929    3.5224   14.5157 C   0  0  0  0  0  0  0  0  0  0  0  0
  -19.7918    3.3322   13.3471 N   0  3  0  0  0  0  0  0  0  0  0  0
  -15.2830    9.5142   15.2936 C   0  0  2  0  0  0  0  0  0  0  0  0
  -15.7254   10.8211   15.8133 N   0  3  0  0  0  0  0  0  0  0  0  0
  -16.3458    8.9391   14.3673 C   0  0  0  0  0  0  0  0  0  0  0  0
  -15.8989    7.5778   13.8229 C   0  0  2  0  0  0  0  0  0  0  0  0
  -16.9068    7.1131   12.8376 N   0  3  0  0  0  0  0  0  0  0  0  0
  -15.6240    6.5698   14.9787 C   0  0  2  0  0  0  0  0  0  0  0  0
  -14.5851    7.1767   15.9565 C   0  0  2  0  0  0  0  0  0  0  0  0
  -14.4599    6.3422   17.0826 O   0  0  0  0  0  0  0  0  0  0  0  0
  -15.0450    8.5551   16.4583 C   0  0  1  0  0  0  0  0  0  0  0  0
  -14.0455    9.0873   17.3269 O   0  0  0  0  0  0  0  0  0  0  0  0
  -14.4804    9.8033   18.4312 C   0  0  2  0  0  0  0  0  0  0  0  0
  -13.2887   10.0279   19.3776 C   0  0  2  0  0  0  0  0  0  0  0  0
  -12.2830   10.7501   18.6783 O   0  0  0  0  0  0  0  0  0  0  0  0
  -12.7371    8.6673   19.8383 C   0  0  1  0  0  0  0  0  0  0  0  0
  -11.5627    8.8216   20.7444 N   0  3  0  0  0  0  0  0  0  0  0  0
  -13.8647    7.8698   20.5380 C   0  0  2  0  0  0  0  0  0  0  0  0
  -13.3891    6.5918   20.9542 O   0  0  0  0  0  0  0  0  0  0  0  0
  -15.0727    7.7177   19.5950 C   0  0  2  0  0  0  0  0  0  0  0  0
  -15.5124    9.0359   19.1035 O   0  0  0  0  0  0  0  0  0  0  0  0
  -16.2592    7.0828   20.2857 C   0  0  0  0  0  0  0  0  0  0  0  0
  -15.9344    5.7993   20.8153 O   0  0  0  0  0  0  0  0  0  0  0  0
  1  2  1  6  0  0  0
  1  3  1  0  0  0  0
  1  9  1  0  0  0  0
  3  4  1  6  0  0  0
  3  5  1  0  0  0  0
  5  6  1  0  0  0  0
  6  7  1  6  0  0  0
  6  8  1  0  0  0  0
  8  9  1  0  0  0  0
  8 10  1  1  0  0  0
 10 11  1  0  0  0  0
 12 13  1  1  0  0  0
 12 14  1  0  0  0  0
 12 20  1  0  0  0  0
 14 15  1  0  0  0  0
 15 16  1  6  0  0  0
 15 17  1  0  0  0  0
 17  2  1  6  0  0  0
 17 18  1  0  0  0  0
 18 19  1  1  0  0  0
 18 20  1  0  0  0  0
 20 21  1  1  0  0  0
 22 21  1  6  0  0  0
 22 23  1  0  0  0  0
 22 30  1  0  0  0  0
 23 24  1  6  0  0  0
 23 25  1  0  0  0  0
 25 26  1  1  0  0  0
 25 27  1  0  0  0  0
 27 28  1  6  0  0  0
 27 29  1  0  0  0  0
 29 30  1  0  0  0  0
 29 31  1  1  0  0  0
 31 32  1  0  0  0  0
M  CHG  5   4   1  11   1  13   1  16   1  26   1
M  END
>  <CHROM.1>
175.27854931,-152.05257932,-39.70425691,65.94988473,-56.99025656,-59.87975255
-169.52995153,49.28618184,62.43073516,95.42328571,168.21744828,174.30369239
-140.87180098,74.28946623,-57.99711695,-176.18019142,-15.28108513,6.61846521
16.42369839,-2.85371587,-1.16903095,-0.40081319

>  <Name>
1lc4

>  <RI>
0

>  <Rbt.Current_Directory>
/home/afrankz/demos/rdock_decoys_rna/rnas/1lc4

>  <Rbt.Executable>
rbdock ($Id: //depot/dev/client3/rdock/2013.1/src/exe/rbdock.cxx#4 $)

>  <Rbt.Library>
libRbt.so (2013.1, Build901 2013/11/27)

>  <Rbt.Parameter_File>
/export/apps/rDock/src/rDock_2013.1_src/data/scripts/dock_solv.prm

>  <Rbt.Receptor>
prm/pocket_docking_5.prm

>  <SCORE>
-54.1737

>  <SCORE.INTER>
-36.5227

>  <SCORE.INTER.CONST>
1

>  <SCORE.INTER.POLAR>
-7.64349

>  <SCORE.INTER.ROT>
6

>  <SCORE.INTER.SOLV>
20.0388

>  <SCORE.INTER.VDW>
-13.1498

>  <SCORE.INTER.norm>
-1.14133

>  <SCORE.INTRA>
-17.7905

>  <SCORE.INTRA.DIHEDRAL>
-30.0544

>  <SCORE.INTRA.DIHEDRAL.0>
44.2576

>  <SCORE.INTRA.POLAR>
-0.178907

>  <SCORE.INTRA.POLAR.0>
-0.381556

>  <SCORE.INTRA.REPUL>
0

>  <SCORE.INTRA.REPUL.0>
0

>  <SCORE.INTRA.SOLV>
0.110361

>  <SCORE.INTRA.SOLV.lig_0>
-134.592

>  <SCORE.INTRA.VDW>
-2.21018

>  <SCORE.INTRA.VDW.0>
-1.01417

>  <SCORE.INTRA.norm>
-0.555953

>  <SCORE.RESTR>
0.139515

>  <SCORE.RESTR.CAVITY>
0.139515

>  <SCORE.RESTR.norm>
0.00435986

>  <SCORE.SYSTEM>
0

>  <SCORE.SYSTEM.CONST>
0

>  <SCORE.SYSTEM.DIHEDRAL>
0

>  <SCORE.SYSTEM.SOLV>
0

>  <SCORE.SYSTEM.norm>
0

>  <SCORE.heavy>
32

>  <SCORE.norm>
-1.69293

>  <RMSD>
8.185

$$$$
1lc4
 OpenBabel02141814113D
libRbt.so/2013.1/901 2013/11/27
 32 34  0  0  0  0  0  0  0  0999 V2000
  -11.9659    4.8585   12.8931 C   0  0  2  0  0  0  0  0  0  0  0  0
  -12.6122    6.0942   12.7159 O   0  0  0  0  0  0  0  0  0  0  0  0
  -10.9041    4.7089   11.7845 C   0  0  2  0  0  0  0  0  0  0  0  0
   -9.9490    5.8200   11.8402 N   0  3  0  0  0  0  0  0  0  0  0  0
  -11.5887    4.6224   10.4002 C   0  0  0  0  0  0  0  0  0  0  0  0
  -12.5362    3.4103   10.4274 C   0  0  2  0  0  0  0  0  0  0  0  0
  -13.1693    3.2429    9.1544 O   0  0  0  0  0  0  0  0  0  0  0  0
  -13.5815    3.6035   11.5542 C   0  0  2  0  0  0  0  0  0  0  0  0
  -12.9170    3.7723   12.8387 O   0  0  0  0  0  0  0  0  0  0  0  0
  -14.5418    2.4260   11.7024 C   0  0  0  0  0  0  0  0  0  0  0  0
  -15.6570    2.7543   12.6288 N   0  3  0  0  0  0  0  0  0  0  0  0
  -14.4611    8.6080   15.5833 C   0  0  2  0  0  0  0  0  0  0  0  0
  -15.4008    9.1582   16.5774 N   0  3  0  0  0  0  0  0  0  0  0  0
  -15.1631    8.4462   14.2419 C   0  0  0  0  0  0  0  0  0  0  0  0
  -14.1970    7.8711   13.2002 C   0  0  2  0  0  0  0  0  0  0  0  0
  -14.8867    7.8426   11.8864 N   0  3  0  0  0  0  0  0  0  0  0  0
  -13.6317    6.4922   13.6545 C   0  0  2  0  0  0  0  0  0  0  0  0
  -12.9671    6.6405   15.0474 C   0  0  2  0  0  0  0  0  0  0  0  0
  -12.6042    5.3694   15.5299 O   0  0  0  0  0  0  0  0  0  0  0  0
  -13.9491    7.2505   16.0608 C   0  0  1  0  0  0  0  0  0  0  0  0
  -13.2855    7.3978   17.3156 O   0  0  0  0  0  0  0  0  0  0  0  0
  -12.1550    8.1992   17.3454 C   0  0  2  0  0  0  0  0  0  0  0  0
  -11.1832    7.6473   18.4024 C   0  0  2  0  0  0  0  0  0  0  0  0
  -10.8403    6.3126   18.0515 O   0  0  0  0  0  0  0  0  0  0  0  0
  -11.8610    7.6719   19.7836 C   0  0  1  0  0  0  0  0  0  0  0  0
  -10.9713    7.1265   20.8491 N   0  3  0  0  0  0  0  0  0  0  0  0
  -12.2861    9.1226   20.1178 C   0  0  2  0  0  0  0  0  0  0  0  0
  -12.9409    9.1728   21.3833 O   0  0  0  0  0  0  0  0  0  0  0  0
  -13.2026    9.6767   19.0112 C   0  0  2  0  0  0  0  0  0  0  0  0
  -12.5543    9.5503   17.6935 O   0  0  0  0  0  0  0  0  0  0  0  0
  -13.5179   11.1423   19.2123 C   0  0  0  0  0  0  0  0  0  0  0  0
  -14.4812   11.6072   18.2693 O   0  0  0  0  0  0  0  0  0  0  0  0
  1  2  1  6  0  0  0
  1  3  1  0  0  0  0
  1  9  1  0  0  0  0
  3  4  1  6  0  0  0
  3  5  1  0  0  0  0
  5  6  1  0  0  0  0
  6  7  1  6  0  0  0
  6  8  1  0  0  0  0
  8  9  1  0  0  0  0
  8 10  1  1  0  0  0
 10 11  1  0  0  0  0
 12 13  1  1  0  0  0
 12 14  1  0  0  0  0
 12 20  1  0  0  0  0
 14 15  1  0  0  0  0
 15 16  1  6  0  0  0
 15 17  1  0  0  0  0
 17  2  1  6  0  0  0
 17 18  1  0  0  0  0
 18 19  1  1  0  0  0
 18 20  1  0  0  0  0
 20 21  1  1  0  0  0
 22 21  1  1  0  0  0
 22 23  1  0  0  0  0
 22 30  1  0  0  0  0
 23 24  1  6  0  0  0
 23 25  1  0  0  0  0
 25 26  1  1  0  0  0
 25 27  1  0  0  0  0
 27 28  1  1  0  0  0
 27 29  1  0  0  0  0
 29 30  1  0  0  0  0
 29 31  1  1  0  0  0
 31 32  1  0  0  0  0
M  CHG  5   4   1  11   1  13   1  16   1  26   1
M  END
>  <CHROM.1>
-178.29199170,-178.56962407,-168.11361105,-59.12859511,-170.34724828,-176.21786618
92.34814496,-71.83362998,88.74342884,-62.28599488,-147.94922457,-51.10586648
62.30424236,178.46663943,-173.57692965,178.16211386,-13.01193914,6.80674302
15.24512877,-1.60349274,-0.74974997,0.98753828

>  <Name>
1lc4

>  <RI>
0

>  <Rbt.Current_Directory>
/home/afrankz/demos/rdock_decoys_rna/rnas/1lc4

>  <Rbt.Executable>
rbdock ($Id: //depot/dev/client3/rdock/2013.1/src/exe/rbdock.cxx#4 $)

>  <Rbt.Library>
libRbt.so (2013.1, Build901 2013/11/27)

>  <Rbt.Parameter_File>
/export/apps/rDock/src/rDock_2013.1_src/data/scripts/dock_solv.prm

>  <Rbt.Receptor>
prm/pocket_docking_6.prm

>  <SCORE>
-39.4378

>  <SCORE.INTER>
-17.7952

>  <SCORE.INTER.CONST>
1

>  <SCORE.INTER.POLAR>
-2.76035

>  <SCORE.INTER.ROT>
6

>  <SCORE.INTER.SOLV>
15.5041

>  <SCORE.INTER.VDW>
-15.4303

>  <SCORE.INTER.norm>
-0.5561

>  <SCORE.INTRA>
-21.6426

>  <SCORE.INTRA.DIHEDRAL>
-33.1045

>  <SCORE.INTRA.DIHEDRAL.0>
44.2576

>  <SCORE.INTRA.POLAR>
-0.869318

>  <SCORE.INTRA.POLAR.0>
-0.381556

>  <SCORE.INTRA.REPUL>
0

>  <SCORE.INTRA.REPUL.0>
0

>  <SCORE.INTRA.SOLV>
-2.62998

>  <SCORE.INTRA.SOLV.lig_0>
-134.592

>  <SCORE.INTRA.VDW>
-0.81966

>  <SCORE.INTRA.VDW.0>
-1.01417

>  <SCORE.INTRA.norm>
-0.676331

>  <SCORE.RESTR>
0

>  <SCORE.RESTR.CAVITY>
0

>  <SCORE.RESTR.norm>
0

>  <SCORE.SYSTEM>
0

>  <SCORE.SYSTEM.CONST>
0

>  <SCORE.SYSTEM.DIHEDRAL>
0

>  <SCORE.SYSTEM.SOLV>
0

>  <SCORE.SYSTEM.norm>
0

>  <SCORE.heavy>
32

>  <SCORE.norm>
-1.23243

>  <RMSD>
8.190

$$$$
1lc4
 OpenBabel02141814113D
libRbt.so/2013.1/901 2013/11/27
 32 34  0  0  0  0  0  0  0  0999 V2000
  -15.5507    1.0805   21.0019 C   0  0  2  0  0  0  0  0  0  0  0  0
  -14.1903    1.3834   21.1854 O   0  0  0  0  0  0  0  0  0  0  0  0
  -16.0007    0.1708   22.1633 C   0  0  2  0  0  0  0  0  0  0  0  0
  -15.7743    0.8367   23.4497 N   0  3  0  0  0  0  0  0  0  0  0  0
  -15.2622   -1.1865   22.0929 C   0  0  0  0  0  0  0  0  0  0  0  0
  -15.5913   -1.8224   20.7309 C   0  0  2  0  0  0  0  0  0  0  0  0
  -14.9751   -3.1097   20.6191 O   0  0  0  0  0  0  0  0  0  0  0  0
  -15.1240   -0.8751   19.5979 C   0  0  2  0  0  0  0  0  0  0  0  0
  -15.7614    0.4273   19.7307 O   0  0  0  0  0  0  0  0  0  0  0  0
  -15.4533   -1.3901   18.1990 C   0  0  0  0  0  0  0  0  0  0  0  0
  -16.9046   -1.6803   18.0601 N   0  3  0  0  0  0  0  0  0  0  0  0
  -11.5640    4.5428   20.1459 C   0  0  2  0  0  0  0  0  0  0  0  0
  -10.8322    5.5755   19.3898 N   0  3  0  0  0  0  0  0  0  0  0  0
  -11.2636    3.1671   19.5666 C   0  0  0  0  0  0  0  0  0  0  0  0
  -12.0220    2.0844   20.3424 C   0  0  2  0  0  0  0  0  0  0  0  0
  -11.6082    0.7577   19.8216 N   0  3  0  0  0  0  0  0  0  0  0  0
  -13.5594    2.3341   20.3041 C   0  0  2  0  0  0  0  0  0  0  0  0
  -13.8647    3.7570   20.8389 C   0  0  2  0  0  0  0  0  0  0  0  0
  -15.2294    4.0439   20.6515 O   0  0  0  0  0  0  0  0  0  0  0  0
  -13.0645    4.8167   20.0642 C   0  0  1  0  0  0  0  0  0  0  0  0
  -13.3519    6.1032   20.6110 O   0  0  0  0  0  0  0  0  0  0  0  0
  -14.3299    6.8565   19.9806 C   0  0  2  0  0  0  0  0  0  0  0  0
  -13.6499    7.8592   19.0327 C   0  0  2  0  0  0  0  0  0  0  0  0
  -12.8846    7.1347   18.0781 O   0  0  0  0  0  0  0  0  0  0  0  0
  -12.7341    8.7915   19.8450 C   0  0  1  0  0  0  0  0  0  0  0  0
  -12.0288    9.7751   18.9736 N   0  3  0  0  0  0  0  0  0  0  0  0
  -13.5739    9.5209   20.9218 C   0  0  2  0  0  0  0  0  0  0  0  0
  -12.7460   10.3746   21.7082 O   0  0  0  0  0  0  0  0  0  0  0  0
  -14.2991    8.4968   21.8147 C   0  0  2  0  0  0  0  0  0  0  0  0
  -15.0919    7.5655   20.9920 O   0  0  0  0  0  0  0  0  0  0  0  0
  -15.2550    9.1591   22.7819 C   0  0  0  0  0  0  0  0  0  0  0  0
  -15.8680    8.2080   23.6497 O   0  0  0  0  0  0  0  0  0  0  0  0
  1  2  1  1  0  0  0
  1  3  1  0  0  0  0
  1  9  1  0  0  0  0
  3  4  1  1  0  0  0
  3  5  1  0  0  0  0
  5  6  1  0  0  0  0
  6  7  1  6  0  0  0
  6  8  1  0  0  0  0
  8  9  1  0  0  0  0
  8 10  1  6  0  0  0
 10 11  1  0  0  0  0
 12 13  1  6  0  0  0
 12 14  1  0  0  0  0
 12 20  1  0  0  0  0
 14 15  1  0  0  0  0
 15 16  1  6  0  0  0
 15 17  1  0  0  0  0
 17  2  1  1  0  0  0
 17 18  1  0  0  0  0
 18 19  1  6  0  0  0
 18 20  1  0  0  0  0
 20 21  1  1  0  0  0
 22 21  1  1  0  0  0
 22 23  1  0  0  0  0
 22 30  1  0  0  0  0
 23 24  1  6  0  0  0
 23 25  1  0  0  0  0
 25 26  1  6  0  0  0
 25 27  1  0  0  0  0
 27 28  1  1  0  0  0
 27 29  1  0  0  0  0
 29 30  1  0  0  0  0
 29 31  1  1  0  0  0
 31 32  1  0  0  0  0
M  CHG  5   4   1  11   1  13   1  16   1  26   1
M  END
>  <CHROM.1>
-173.74906664,-158.42527208,72.55416978,62.21661188,55.02433573,-178.88715843
-27.00511554,-2.08918582,170.66477726,142.06482194,-97.83954242,175.74197213
58.68137762,171.29296768,-176.95340294,-177.86263429,-14.04892060,3.91582484
20.51125797,1.81918208,-0.73001156,-2.93610823

>  <Name>
1lc4

>  <RI>
0

>  <Rbt.Current_Directory>
/home/afrankz/demos/rdock_decoys_rna/rnas/1lc4

>  <Rbt.Executable>
rbdock ($Id: //depot/dev/client3/rdock/2013.1/src/exe/rbdock.cxx#4 $)

>  <Rbt.Library>
libRbt.so (2013.1, Build901 2013/11/27)

>  <Rbt.Parameter_File>
/export/apps/rDock/src/rDock_2013.1_src/data/scripts/dock_solv.prm

>  <Rbt.Receptor>
prm/blind_docking_60.prm

>  <SCORE>
-30.4376

>  <SCORE.INTER>
-18.6658

>  <SCORE.INTER.CONST>
1

>  <SCORE.INTER.POLAR>
-4.13871

>  <SCORE.INTER.ROT>
6

>  <SCORE.INTER.SOLV>
22.5044

>  <SCORE.INTER.VDW>
-13.7496

>  <SCORE.INTER.norm>
-0.583305

>  <SCORE.INTRA>
-17.8409

>  <SCORE.INTRA.DIHEDRAL>
-24.7917

>  <SCORE.INTRA.DIHEDRAL.0>
44.2576

>  <SCORE.INTRA.POLAR>
-0.801736

>  <SCORE.INTRA.POLAR.0>
-0.381556

>  <SCORE.INTRA.REPUL>
0

>  <SCORE.INTRA.REPUL.0>
0

>  <SCORE.INTRA.SOLV>
-0.421883

>  <SCORE.INTRA.SOLV.lig_0>
-134.592

>  <SCORE.INTRA.VDW>
-2.50816

>  <SCORE.INTRA.VDW.0>
-1.01417

>  <SCORE.INTRA.norm>
-0.557527

>  <SCORE.RESTR>
6.06901

>  <SCORE.RESTR.CAVITY>
6.06901

>  <SCORE.RESTR.norm>
0.189657

>  <SCORE.SYSTEM>
0

>  <SCORE.SYSTEM.CONST>
0

>  <SCORE.SYSTEM.DIHEDRAL>
0

>  <SCORE.SYSTEM.SOLV>
0

>  <SCORE.SYSTEM.norm>
0

>  <SCORE.heavy>
32

>  <SCORE.norm>
-0.951176

>  <RMSD>
8.196

$$$$
1lc4
 OpenBabel02141814113D
libRbt.so/2013.1/901 2013/11/27
 32 34  0  0  0  0  0  0  0  0999 V2000
  -15.4078    8.1985   15.6157 C   0  0  2  0  0  0  0  0  0  0  0  0
  -16.0882    8.3741   16.8331 O   0  0  0  0  0  0  0  0  0  0  0  0
  -15.9369    9.2460   14.6148 C   0  0  2  0  0  0  0  0  0  0  0  0
  -15.7401   10.5999   15.1421 N   0  3  0  0  0  0  0  0  0  0  0  0
  -17.4264    8.9748   14.2984 C   0  0  0  0  0  0  0  0  0  0  0  0
  -17.5249    7.5535   13.7172 C   0  0  2  0  0  0  0  0  0  0  0  0
  -18.8774    7.2545   13.3558 O   0  0  0  0  0  0  0  0  0  0  0  0
  -16.9823    6.5384   14.7538 C   0  0  2  0  0  0  0  0  0  0  0  0
  -15.6071    6.8609   15.1076 O   0  0  0  0  0  0  0  0  0  0  0  0
  -16.9854    5.0962   14.2531 C   0  0  0  0  0  0  0  0  0  0  0  0
  -16.4333    5.0034   12.8761 N   0  3  0  0  0  0  0  0  0  0  0  0
  -12.9515    6.8488   19.2403 C   0  0  2  0  0  0  0  0  0  0  0  0
  -12.1328    6.4452   20.3982 N   0  3  0  0  0  0  0  0  0  0  0  0
  -13.1867    8.3528   19.2721 C   0  0  0  0  0  0  0  0  0  0  0  0
  -14.0404    8.7847   18.0745 C   0  0  2  0  0  0  0  0  0  0  0  0
  -14.1432   10.2652   18.0817 N   0  3  0  0  0  0  0  0  0  0  0  0
  -15.4139    8.0494   18.0654 C   0  0  2  0  0  0  0  0  0  0  0  0
  -15.1791    6.5171   18.0921 C   0  0  2  0  0  0  0  0  0  0  0  0
  -16.4123    5.8580   18.2500 O   0  0  0  0  0  0  0  0  0  0  0  0
  -14.2928    6.1194   19.2836 C   0  0  1  0  0  0  0  0  0  0  0  0
  -14.0779    4.7090   19.2487 O   0  0  0  0  0  0  0  0  0  0  0  0
  -14.8867    3.9236   20.0552 C   0  0  2  0  0  0  0  0  0  0  0  0
  -13.9950    3.0007   20.9033 C   0  0  2  0  0  0  0  0  0  0  0  0
  -13.1310    3.8059   21.6952 O   0  0  0  0  0  0  0  0  0  0  0  0
  -13.1676    2.0939   19.9755 C   0  0  1  0  0  0  0  0  0  0  0  0
  -12.2651    1.1885   20.7434 N   0  3  0  0  0  0  0  0  0  0  0  0
  -14.1250    1.2747   19.0758 C   0  0  2  0  0  0  0  0  0  0  0  0
  -13.3850    0.4421   18.1860 O   0  0  0  0  0  0  0  0  0  0  0  0
  -15.0533    2.2185   18.2889 C   0  0  2  0  0  0  0  0  0  0  0  0
  -15.7578    3.1319   19.2064 O   0  0  0  0  0  0  0  0  0  0  0  0
  -16.1110    1.4635   17.5149 C   0  0  0  0  0  0  0  0  0  0  0  0
  -16.9230    2.3425   16.7394 O   0  0  0  0  0  0  0  0  0  0  0  0
  1  2  1  1  0  0  0
  1  3  1  0  0  0  0
  1  9  1  0  0  0  0
  3  4  1  1  0  0  0
  3  5  1  0  0  0  0
  5  6  1  0  0  0  0
  6  7  1  1  0  0  0
  6  8  1  0  0  0  0
  8  9  1  0  0  0  0
  8 10  1  6  0  0  0
 10 11  1  0  0  0  0
 12 13  1  1  0  0  0
 12 14  1  0  0  0  0
 12 20  1  0  0  0  0
 14 15  1  0  0  0  0
 15 16  1  1  0  0  0
 15 17  1  0  0  0  0
 17  2  1  6  0  0  0
 17 18  1  0  0  0  0
 18 19  1  1  0  0  0
 18 20  1  0  0  0  0
 20 21  1  6  0  0  0
 22 21  1  6  0  0  0
 22 23  1  0  0  0  0
 22 30  1  0  0  0  0
 23 24  1  6  0  0  0
 23 25  1  0  0  0  0
 25 26  1  1  0  0  0
 25 27  1  0  0  0  0
 27 28  1  6  0  0  0
 27 29  1  0  0  0  0
 29 30  1  0  0  0  0
 29 31  1  1  0  0  0
 31 32  1  0  0  0  0
M  CHG  5   4   1  11   1  13   1  16   1  26   1
M  END
>  <CHROM.1>
-149.65121319,51.79608062,55.39542774,168.88372828,46.04548423,157.40531636
-79.94697655,-26.09519357,67.04283769,140.37871082,-128.08685544,167.43495705
27.28703222,178.69727934,-177.15251207,58.56105959,-15.10989598,5.62020988
17.52045094,-2.21816907,0.96549936,2.99144350

>  <Name>
1lc4

>  <RI>
0

>  <Rbt.Current_Directory>
/home/afrankz/demos/rdock_decoys_rna/rnas/1lc4

>  <Rbt.Executable>
rbdock ($Id: //depot/dev/client3/rdock/2013.1/src/exe/rbdock.cxx#4 $)

>  <Rbt.Library>
libRbt.so (2013.1, Build901 2013/11/27)

>  <Rbt.Parameter_File>
/export/apps/rDock/src/rDock_2013.1_src/data/scripts/dock_solv.prm

>  <Rbt.Receptor>
prm/pocket_docking_6.prm

>  <SCORE>
-48.6447

>  <SCORE.INTER>
-34.6831

>  <SCORE.INTER.CONST>
1

>  <SCORE.INTER.POLAR>
-6.94947

>  <SCORE.INTER.ROT>
6

>  <SCORE.INTER.SOLV>
19.577

>  <SCORE.INTER.VDW>
-14.0828

>  <SCORE.INTER.norm>
-1.08385

>  <SCORE.INTRA>
-13.9727

>  <SCORE.INTRA.DIHEDRAL>
-19.4145

>  <SCORE.INTRA.DIHEDRAL.0>
44.2576

>  <SCORE.INTRA.POLAR>
-0.788124

>  <SCORE.INTRA.POLAR.0>
-0.381556

>  <SCORE.INTRA.REPUL>
0.00125543

>  <SCORE.INTRA.REPUL.0>
0

>  <SCORE.INTRA.SOLV>
3.7384

>  <SCORE.INTRA.SOLV.lig_0>
-134.592

>  <SCORE.INTRA.VDW>
-3.46127

>  <SCORE.INTRA.VDW.0>
-1.01417

>  <SCORE.INTRA.norm>
-0.436645

>  <SCORE.RESTR>
0.011014

>  <SCORE.RESTR.CAVITY>
0.011014

>  <SCORE.RESTR.norm>
0.000344187

>  <SCORE.SYSTEM>
0

>  <SCORE.SYSTEM.CONST>
0

>  <SCORE.SYSTEM.DIHEDRAL>
0

>  <SCORE.SYSTEM.SOLV>
0

>  <SCORE.SYSTEM.norm>
0

>  <SCORE.heavy>
32

>  <SCORE.norm>
-1.52015

>  <RMSD>
8.209

$$$$
1lc4
 OpenBabel02141814113D
libRbt.so/2013.1/901 2013/11/27
 32 34  0  0  0  0  0  0  0  0999 V2000
  -16.5231   14.9771   17.6153 C   0  0  2  0  0  0  0  0  0  0  0  0
  -15.5138   14.1229   17.1380 O   0  0  0  0  0  0  0  0  0  0  0  0
  -17.5810   15.1376   16.5045 C   0  0  2  0  0  0  0  0  0  0  0  0
  -18.1269   13.8301   16.1275 N   0  3  0  0  0  0  0  0  0  0  0  0
  -16.9664   15.8650   15.2856 C   0  0  0  0  0  0  0  0  0  0  0  0
  -16.4599   17.2345   15.7708 C   0  0  2  0  0  0  0  0  0  0  0  0
  -15.9197   17.9832   14.6768 O   0  0  0  0  0  0  0  0  0  0  0  0
  -15.4036   17.0239   16.8840 C   0  0  2  0  0  0  0  0  0  0  0  0
  -15.9730   16.2606   17.9855 O   0  0  0  0  0  0  0  0  0  0  0  0
  -14.8733   18.3279   17.4748 C   0  0  0  0  0  0  0  0  0  0  0  0
  -14.0372   18.0733   18.6772 N   0  3  0  0  0  0  0  0  0  0  0  0
  -13.5938   10.4562   18.0482 C   0  0  2  0  0  0  0  0  0  0  0  0
  -13.3210    9.0915   18.5352 N   0  3  0  0  0  0  0  0  0  0  0  0
  -13.9643   11.3584   19.2174 C   0  0  0  0  0  0  0  0  0  0  0  0
  -14.2540   12.7801   18.7233 C   0  0  2  0  0  0  0  0  0  0  0  0
  -14.4928   13.6471   19.9039 N   0  3  0  0  0  0  0  0  0  0  0  0
  -15.4102   12.7905   17.6791 C   0  0  2  0  0  0  0  0  0  0  0  0
  -15.0627   11.8277   16.5146 C   0  0  2  0  0  0  0  0  0  0  0  0
  -16.1727   11.7109   15.6576 O   0  0  0  0  0  0  0  0  0  0  0  0
  -14.7443   10.4200   17.0443 C   0  0  1  0  0  0  0  0  0  0  0  0
  -14.3998    9.5796   15.9435 O   0  0  0  0  0  0  0  0  0  0  0  0
  -14.5234    8.2113   16.1267 C   0  0  2  0  0  0  0  0  0  0  0  0
  -13.5536    7.4932   15.1728 C   0  0  2  0  0  0  0  0  0  0  0  0
  -12.2290    7.9189   15.4664 O   0  0  0  0  0  0  0  0  0  0  0  0
  -13.9107    7.8462   13.7183 C   0  0  1  0  0  0  0  0  0  0  0  0
  -12.9878    7.1937   12.7453 N   0  3  0  0  0  0  0  0  0  0  0  0
  -15.3771    7.4355   13.4387 C   0  0  2  0  0  0  0  0  0  0  0  0
  -15.7452    7.7740   12.1035 O   0  0  0  0  0  0  0  0  0  0  0  0
  -16.3211    8.1130   14.4493 C   0  0  2  0  0  0  0  0  0  0  0  0
  -15.8907    7.8260   15.8295 O   0  0  0  0  0  0  0  0  0  0  0  0
  -17.7456    7.6218   14.3171 C   0  0  0  0  0  0  0  0  0  0  0  0
  -18.2238    7.7489   12.9798 O   0  0  0  0  0  0  0  0  0  0  0  0
  1  2  1  6  0  0  0
  1  3  1  0  0  0  0
  1  9  1  0  0  0  0
  3  4  1  6  0  0  0
  3  5  1  0  0  0  0
  5  6  1  0  0  0  0
  6  7  1  6  0  0  0
  6  8  1  0  0  0  0
  8  9  1  0  0  0  0
  8 10  1  1  0  0  0
 10 11  1  0  0  0  0
 12 13  1  1  0  0  0
 12 14  1  0  0  0  0
 12 20  1  0  0  0  0
 14 15  1  0  0  0  0
 15 16  1  1  0  0  0
 15 17  1  0  0  0  0
 17  2  1  6  0  0  0
 17 18  1  0  0  0  0
 18 19  1  6  0  0  0
 18 20  1  0  0  0  0
 20 21  1  6  0  0  0
 22 21  1  6  0  0  0
 22 23  1  0  0  0  0
 22 30  1  0  0  0  0
 23 24  1  1  0  0  0
 23 25  1  0  0  0  0
 25 26  1  6  0  0  0
 25 27  1  0  0  0  0
 27 28  1  6  0  0  0
 27 29  1  0  0  0  0
 29 30  1  0  0  0  0
 29 31  1  1  0  0  0
 31 32  1  0  0  0  0
M  CHG  5   4   1  11   1  13   1  16   1  26   1
M  END
>  <CHROM.1>
-108.57283587,-100.98267433,57.64774336,31.71428094,170.78359596,-174.92680247
-45.62392358,-56.76314585,157.79047917,79.56212440,-154.21989568,67.87200209
-165.47777915,-61.19044589,-53.68895757,-53.02131229,-15.28305916,11.79151621
16.15504235,1.69684047,-0.88445695,0.41277701

>  <Name>
1lc4

>  <RI>
0

>  <Rbt.Current_Directory>
/home/afrankz/demos/rdock_decoys_rna/rnas/1lc4

>  <Rbt.Executable>
rbdock ($Id: //depot/dev/client3/rdock/2013.1/src/exe/rbdock.cxx#4 $)

>  <Rbt.Library>
libRbt.so (2013.1, Build901 2013/11/27)

>  <Rbt.Parameter_File>
/export/apps/rDock/src/rDock_2013.1_src/data/scripts/dock_solv.prm

>  <Rbt.Receptor>
prm/blind_docking_40.prm

>  <SCORE>
-36.8757

>  <SCORE.INTER>
-28.6853

>  <SCORE.INTER.CONST>
1

>  <SCORE.INTER.POLAR>
-4.3676

>  <SCORE.INTER.ROT>
6

>  <SCORE.INTER.SOLV>
22.0706

>  <SCORE.INTER.VDW>
-19.5217

>  <SCORE.INTER.norm>
-0.896416

>  <SCORE.INTRA>
-14.6582

>  <SCORE.INTRA.DIHEDRAL>
-19.9854

>  <SCORE.INTRA.DIHEDRAL.0>
44.2576

>  <SCORE.INTRA.POLAR>
-0.814358

>  <SCORE.INTRA.POLAR.0>
-0.381556

>  <SCORE.INTRA.REPUL>
0

>  <SCORE.INTRA.REPUL.0>
0

>  <SCORE.INTRA.SOLV>
1.26164

>  <SCORE.INTRA.SOLV.lig_0>
-134.592

>  <SCORE.INTRA.VDW>
-2.5275

>  <SCORE.INTRA.VDW.0>
-1.01417

>  <SCORE.INTRA.norm>
-0.458069

>  <SCORE.RESTR>
6.46784

>  <SCORE.RESTR.CAVITY>
6.46784

>  <SCORE.RESTR.norm>
0.20212

>  <SCORE.SYSTEM>
0

>  <SCORE.SYSTEM.CONST>
0

>  <SCORE.SYSTEM.DIHEDRAL>
0

>  <SCORE.SYSTEM.SOLV>
0

>  <SCORE.SYSTEM.norm>
0

>  <SCORE.heavy>
32

>  <SCORE.norm>
-1.15236

>  <RMSD>
8.279

$$$$
1lc4
 OpenBabel02141814113D
libRbt.so/2013.1/901 2013/11/27
 32 34  0  0  0  0  0  0  0  0999 V2000
  -12.6424    6.1099   13.7511 C   0  0  2  0  0  0  0  0  0  0  0  0
  -12.3161    7.3539   14.3186 O   0  0  0  0  0  0  0  0  0  0  0  0
  -11.6600    5.8380   12.5936 C   0  0  2  0  0  0  0  0  0  0  0  0
  -10.2783    5.8514   13.0837 N   0  3  0  0  0  0  0  0  0  0  0  0
  -11.8682    6.8745   11.4645 C   0  0  0  0  0  0  0  0  0  0  0  0
  -13.3279    6.7574   10.9919 C   0  0  2  0  0  0  0  0  0  0  0  0
  -13.5760    7.6604    9.9092 O   0  0  0  0  0  0  0  0  0  0  0  0
  -14.2756    7.0362   12.1851 C   0  0  2  0  0  0  0  0  0  0  0  0
  -14.0061    6.1082   13.2743 O   0  0  0  0  0  0  0  0  0  0  0  0
  -15.7544    6.8922   11.8346 C   0  0  0  0  0  0  0  0  0  0  0  0
  -16.0058    5.6468   11.0628 N   0  3  0  0  0  0  0  0  0  0  0  0
  -12.8748    9.6987   17.8043 C   0  0  2  0  0  0  0  0  0  0  0  0
  -13.3989   10.2300   19.0759 N   0  3  0  0  0  0  0  0  0  0  0  0
  -13.9468    9.7851   16.7264 C   0  0  0  0  0  0  0  0  0  0  0  0
  -13.4150    9.2321   15.3996 C   0  0  2  0  0  0  0  0  0  0  0  0
  -14.4477    9.4451   14.3553 N   0  3  0  0  0  0  0  0  0  0  0  0
  -12.9541    7.7513   15.5490 C   0  0  2  0  0  0  0  0  0  0  0  0
  -11.9048    7.6496   16.6858 C   0  0  2  0  0  0  0  0  0  0  0  0
  -11.6115    6.2954   16.9315 O   0  0  0  0  0  0  0  0  0  0  0  0
  -12.4546    8.2424   17.9934 C   0  0  1  0  0  0  0  0  0  0  0  0
  -11.4458    8.1567   18.9992 O   0  0  0  0  0  0  0  0  0  0  0  0
  -11.8269    7.6713   20.2404 C   0  0  2  0  0  0  0  0  0  0  0  0
  -11.1553    8.5208   21.3329 C   0  0  2  0  0  0  0  0  0  0  0  0
  -11.5692    9.8721   21.1763 O   0  0  0  0  0  0  0  0  0  0  0  0
   -9.6263    8.4180   21.1939 C   0  0  1  0  0  0  0  0  0  0  0  0
   -8.9186    9.2409   22.2167 N   0  3  0  0  0  0  0  0  0  0  0  0
   -9.2026    6.9327   21.3007 C   0  0  2  0  0  0  0  0  0  0  0  0
   -7.7908    6.8034   21.1500 O   0  0  0  0  0  0  0  0  0  0  0  0
   -9.9399    6.0919   20.2419 C   0  0  2  0  0  0  0  0  0  0  0  0
  -11.3966    6.2896   20.3492 O   0  0  0  0  0  0  0  0  0  0  0  0
   -9.6793    4.6110   20.4068 C   0  0  0  0  0  0  0  0  0  0  0  0
  -10.0198    4.1598   21.7159 O   0  0  0  0  0  0  0  0  0  0  0  0
  1  2  1  6  0  0  0
  1  3  1  0  0  0  0
  1  9  1  0  0  0  0
  3  4  1  1  0  0  0
  3  5  1  0  0  0  0
  5  6  1  0  0  0  0
  6  7  1  6  0  0  0
  6  8  1  0  0  0  0
  8  9  1  0  0  0  0
  8 10  1  6  0  0  0
 10 11  1  0  0  0  0
 12 13  1  1  0  0  0
 12 14  1  0  0  0  0
 12 20  1  0  0  0  0
 14 15  1  0  0  0  0
 15 16  1  6  0  0  0
 15 17  1  0  0  0  0
 17  2  1  6  0  0  0
 17 18  1  0  0  0  0
 18 19  1  1  0  0  0
 18 20  1  0  0  0  0
 20 21  1  1  0  0  0
 22 21  1  6  0  0  0
 22 23  1  0  0  0  0
 22 30  1  0  0  0  0
 23 24  1  6  0  0  0
 23 25  1  0  0  0  0
 25 26  1  1  0  0  0
 25 27  1  0  0  0  0
 27 28  1  6  0  0  0
 27 29  1  0  0  0  0
 29 30  1  0  0  0  0
 29 31  1  1  0  0  0
 31 32  1  0  0  0  0
M  CHG  5   4   1  11   1  13   1  16   1  26   1
M  END
>  <CHROM.1>
-170.67376728,-134.53035885,-58.78802668,-171.32349879,46.20332257,-65.90959391
-169.94401269,-61.17663651,-174.89052855,104.81353130,-138.29895285,170.23387896
102.14583599,71.90904601,55.85700819,72.95355721,-12.03074497,7.41062775
16.74983436,-2.17909264,-0.85639740,1.02439756

>  <Name>
1lc4

>  <RI>
0

>  <Rbt.Current_Directory>
/home/afrankz/demos/rdock_decoys_rna/rnas/1lc4

>  <Rbt.Executable>
rbdock ($Id: //depot/dev/client3/rdock/2013.1/src/exe/rbdock.cxx#4 $)

>  <Rbt.Library>
libRbt.so (2013.1, Build901 2013/11/27)

>  <Rbt.Parameter_File>
/export/apps/rDock/src/rDock_2013.1_src/data/scripts/dock_solv.prm

>  <Rbt.Receptor>
prm/blind_docking_80.prm

>  <SCORE>
-43.0029

>  <SCORE.INTER>
-32.449

>  <SCORE.INTER.CONST>
1

>  <SCORE.INTER.POLAR>
-4.1077

>  <SCORE.INTER.ROT>
6

>  <SCORE.INTER.SOLV>
29.6011

>  <SCORE.INTER.VDW>
-25.4074

>  <SCORE.INTER.norm>
-1.01403

>  <SCORE.INTRA>
-14.6437

>  <SCORE.INTRA.DIHEDRAL>
-19.4273

>  <SCORE.INTRA.DIHEDRAL.0>
44.2576

>  <SCORE.INTRA.POLAR>
-0.795622

>  <SCORE.INTRA.POLAR.0>
-0.381556

>  <SCORE.INTRA.REPUL>
0

>  <SCORE.INTRA.REPUL.0>
0

>  <SCORE.INTRA.SOLV>
2.84445

>  <SCORE.INTRA.SOLV.lig_0>
-134.592

>  <SCORE.INTRA.VDW>
-3.64718

>  <SCORE.INTRA.VDW.0>
-1.01417

>  <SCORE.INTRA.norm>
-0.457616

>  <SCORE.RESTR>
4.08983

>  <SCORE.RESTR.CAVITY>
4.08983

>  <SCORE.RESTR.norm>
0.127807

>  <SCORE.SYSTEM>
0

>  <SCORE.SYSTEM.CONST>
0

>  <SCORE.SYSTEM.DIHEDRAL>
0

>  <SCORE.SYSTEM.SOLV>
0

>  <SCORE.SYSTEM.norm>
0

>  <SCORE.heavy>
32

>  <SCORE.norm>
-1.34384

>  <RMSD>
8.281

$$$$
1lc4
 OpenBabel02141814113D
libRbt.so/2013.1/901 2013/11/27
 32 34  0  0  0  0  0  0  0  0999 V2000
  -13.9419    5.9541   14.6557 C   0  0  2  0  0  0  0  0  0  0  0  0
  -13.5030    7.2629   14.9213 O   0  0  0  0  0  0  0  0  0  0  0  0
  -13.5005    5.5808   13.2258 C   0  0  2  0  0  0  0  0  0  0  0  0
  -12.0439    5.6882   13.0975 N   0  3  0  0  0  0  0  0  0  0  0  0
  -14.2253    6.4769   12.1942 C   0  0  0  0  0  0  0  0  0  0  0  0
  -15.7381    6.2664   12.3802 C   0  0  2  0  0  0  0  0  0  0  0  0
  -16.4708    7.0340   11.4193 O   0  0  0  0  0  0  0  0  0  0  0  0
  -16.1340    6.6515   13.8274 C   0  0  2  0  0  0  0  0  0  0  0  0
  -15.3775    5.8603   14.7876 O   0  0  0  0  0  0  0  0  0  0  0  0
  -17.6126    6.4274   14.1343 C   0  0  0  0  0  0  0  0  0  0  0  0
  -18.4616    7.4491   13.4671 N   0  3  0  0  0  0  0  0  0  0  0  0
  -12.1998    8.8644   18.6223 C   0  0  2  0  0  0  0  0  0  0  0  0
  -12.1787    9.4174   19.9889 N   0  3  0  0  0  0  0  0  0  0  0  0
  -12.9905    9.7858   17.7034 C   0  0  0  0  0  0  0  0  0  0  0  0
  -13.0229    9.2195   16.2795 C   0  0  2  0  0  0  0  0  0  0  0  0
  -13.6985   10.2044   15.3986 N   0  3  0  0  0  0  0  0  0  0  0  0
  -13.6577    7.7970   16.2516 C   0  0  2  0  0  0  0  0  0  0  0  0
  -12.8914    6.8706   17.2305 C   0  0  2  0  0  0  0  0  0  0  0  0
  -13.5626    5.6377   17.3294 O   0  0  0  0  0  0  0  0  0  0  0  0
  -12.8469    7.4809   18.6408 C   0  0  1  0  0  0  0  0  0  0  0  0
  -12.1062    6.6118   19.4968 O   0  0  0  0  0  0  0  0  0  0  0  0
  -10.9737    6.0131   18.9671 C   0  0  2  0  0  0  0  0  0  0  0  0
  -10.9810    4.5207   19.3397 C   0  0  2  0  0  0  0  0  0  0  0  0
  -12.1569    3.9250   18.8063 O   0  0  0  0  0  0  0  0  0  0  0  0
  -10.9644    4.3753   20.8715 C   0  0  1  0  0  0  0  0  0  0  0  0
  -10.9922    2.9454   21.2943 N   0  3  0  0  0  0  0  0  0  0  0  0
   -9.7118    5.0872   21.4382 C   0  0  2  0  0  0  0  0  0  0  0  0
   -9.6825    4.9908   22.8604 O   0  0  0  0  0  0  0  0  0  0  0  0
   -9.6918    6.5618   20.9946 C   0  0  2  0  0  0  0  0  0  0  0  0
   -9.8024    6.6607   19.5281 O   0  0  0  0  0  0  0  0  0  0  0  0
   -8.4097    7.2595   21.3913 C   0  0  0  0  0  0  0  0  0  0  0  0
   -8.6507    8.5972   21.8225 O   0  0  0  0  0  0  0  0  0  0  0  0
  1  2  1  6  0  0  0
  1  3  1  0  0  0  0
  1  9  1  0  0  0  0
  3  4  1  1  0  0  0
  3  5  1  0  0  0  0
  5  6  1  0  0  0  0
  6  7  1  6  0  0  0
  6  8  1  0  0  0  0
  8  9  1  0  0  0  0
  8 10  1  6  0  0  0
 10 11  1  0  0  0  0
 12 13  1  1  0  0  0
 12 14  1  0  0  0  0
 12 20  1  0  0  0  0
 14 15  1  0  0  0  0
 15 16  1  6  0  0  0
 15 17  1  0  0  0  0
 17  2  1  6  0  0  0
 17 18  1  0  0  0  0
 18 19  1  1  0  0  0
 18 20  1  0  0  0  0
 20 21  1  1  0  0  0
 22 21  1  1  0  0  0
 22 23  1  0  0  0  0
 22 30  1  0  0  0  0
 23 24  1  1  0  0  0
 23 25  1  0  0  0  0
 25 26  1  6  0  0  0
 25 27  1  0  0  0  0
 27 28  1  1  0  0  0
 27 29  1  0  0  0  0
 29 30  1  0  0  0  0
 29 31  1  6  0  0  0
 31 32  1  0  0  0  0
M  CHG  5   4   1  11   1  13   1  16   1  26   1
M  END
>  <CHROM.1>
-173.04480470,176.97478984,-59.52646001,60.75607573,-73.21025282,175.69148237
42.76365496,173.82182655,-176.09607286,-82.11191015,-134.13757768,166.86791473
-12.68285238,-67.75737888,-141.09020276,-65.60801727,-12.76272315,6.66961669
17.27472494,3.06760930,-0.95161134,0.01370556

>  <Name>
1lc4

>  <RI>
0

>  <Rbt.Current_Directory>
/home/afrankz/demos/rdock_decoys_rna/rnas/1lc4

>  <Rbt.Executable>
rbdock ($Id: //depot/dev/client3/rdock/2013.1/src/exe/rbdock.cxx#4 $)

>  <Rbt.Library>
libRbt.so (2013.1, Build901 2013/11/27)

>  <Rbt.Parameter_File>
/export/apps/rDock/src/rDock_2013.1_src/data/scripts/dock_solv.prm

>  <Rbt.Receptor>
prm/pocket_docking_2.prm

>  <SCORE>
-54.0231

>  <SCORE.INTER>
-37.0862

>  <SCORE.INTER.CONST>
1

>  <SCORE.INTER.POLAR>
-5.33845

>  <SCORE.INTER.ROT>
6

>  <SCORE.INTER.SOLV>
29.3739

>  <SCORE.INTER.VDW>
-24.3206

>  <SCORE.INTER.norm>
-1.15894

>  <SCORE.INTRA>
-19.0743

>  <SCORE.INTRA.DIHEDRAL>
-25.6556

>  <SCORE.INTRA.DIHEDRAL.0>
44.2576

>  <SCORE.INTRA.POLAR>
-1.34371

>  <SCORE.INTRA.POLAR.0>
-0.381556

>  <SCORE.INTRA.REPUL>
0

>  <SCORE.INTRA.REPUL.0>
0

>  <SCORE.INTRA.SOLV>
-3.16083

>  <SCORE.INTRA.SOLV.lig_0>
-134.592

>  <SCORE.INTRA.VDW>
-0.0974965

>  <SCORE.INTRA.VDW.0>
-1.01417

>  <SCORE.INTRA.norm>
-0.596072

>  <SCORE.RESTR>
2.13733

>  <SCORE.RESTR.CAVITY>
2.13733

>  <SCORE.RESTR.norm>
0.0667915

>  <SCORE.SYSTEM>
0

>  <SCORE.SYSTEM.CONST>
0

>  <SCORE.SYSTEM.DIHEDRAL>
0

>  <SCORE.SYSTEM.SOLV>
0

>  <SCORE.SYSTEM.norm>
0

>  <SCORE.heavy>
32

>  <SCORE.norm>
-1.68822

>  <RMSD>
8.281

$$$$
1lc4
 OpenBabel02141814113D
libRbt.so/2013.1/901 2013/11/27
 32 34  0  0  0  0  0  0  0  0999 V2000
  -13.7957   13.9946   20.1702 C   0  0  2  0  0  0  0  0  0  0  0  0
  -14.7751   13.1365   19.6406 O   0  0  0  0  0  0  0  0  0  0  0  0
  -14.4045   14.7269   21.3835 C   0  0  2  0  0  0  0  0  0  0  0  0
  -14.8608   13.7597   22.3864 N   0  3  0  0  0  0  0  0  0  0  0  0
  -15.5578   15.6497   20.9241 C   0  0  0  0  0  0  0  0  0  0  0  0
  -14.9750   16.6485   19.9090 C   0  0  2  0  0  0  0  0  0  0  0  0
  -15.9841   17.5678   19.4775 O   0  0  0  0  0  0  0  0  0  0  0  0
  -14.3750   15.8696   18.7120 C   0  0  2  0  0  0  0  0  0  0  0  0
  -13.3525   14.9409   19.1726 O   0  0  0  0  0  0  0  0  0  0  0  0
  -13.7195   16.7693   17.6672 C   0  0  0  0  0  0  0  0  0  0  0  0
  -14.6870   17.7602   17.1271 N   0  3  0  0  0  0  0  0  0  0  0  0
  -14.3261    9.3602   17.7704 C   0  0  2  0  0  0  0  0  0  0  0  0
  -14.0048    8.2981   16.7996 N   0  3  0  0  0  0  0  0  0  0  0  0
  -15.3451   10.3190   17.1699 C   0  0  0  0  0  0  0  0  0  0  0  0
  -15.6849   11.4307   18.1689 C   0  0  2  0  0  0  0  0  0  0  0  0
  -16.7639   12.2684   17.5889 N   0  3  0  0  0  0  0  0  0  0  0  0
  -14.4112   12.2268   18.5829 C   0  0  2  0  0  0  0  0  0  0  0  0
  -13.3482   11.2459   19.1410 C   0  0  2  0  0  0  0  0  0  0  0  0
  -12.1429   11.9381   19.3603 O   0  0  0  0  0  0  0  0  0  0  0  0
  -13.0539   10.1245   18.1313 C   0  0  1  0  0  0  0  0  0  0  0  0
  -12.0973    9.2309   18.6997 O   0  0  0  0  0  0  0  0  0  0  0  0
  -12.5524    8.3413   19.6604 C   0  0  2  0  0  0  0  0  0  0  0  0
  -11.8341    8.6351   20.9886 C   0  0  2  0  0  0  0  0  0  0  0  0
  -12.1191    9.9742   21.3727 O   0  0  0  0  0  0  0  0  0  0  0  0
  -10.3178    8.4512   20.8023 C   0  0  1  0  0  0  0  0  0  0  0  0
   -9.5643    8.7441   22.0555 N   0  3  0  0  0  0  0  0  0  0  0  0
  -10.0341    7.0075   20.3202 C   0  0  2  0  0  0  0  0  0  0  0  0
   -8.6365    6.8147   20.1143 O   0  0  0  0  0  0  0  0  0  0  0  0
  -10.8178    6.7148   19.0273 C   0  0  2  0  0  0  0  0  0  0  0  0
  -12.2527    6.9913   19.2203 O   0  0  0  0  0  0  0  0  0  0  0  0
  -10.6975    5.2681   18.6025 C   0  0  0  0  0  0  0  0  0  0  0  0
  -11.2370    4.3853   19.5838 O   0  0  0  0  0  0  0  0  0  0  0  0
  1  2  1  6  0  0  0
  1  3  1  0  0  0  0
  1  9  1  0  0  0  0
  3  4  1  1  0  0  0
  3  5  1  0  0  0  0
  5  6  1  0  0  0  0
  6  7  1  6  0  0  0
  6  8  1  0  0  0  0
  8  9  1  0  0  0  0
  8 10  1  6  0  0  0
 10 11  1  0  0  0  0
 12 13  1  6  0  0  0
 12 14  1  0  0  0  0
 12 20  1  0  0  0  0
 14 15  1  0  0  0  0
 15 16  1  6  0  0  0
 15 17  1  0  0  0  0
 17  2  1  1  0  0  0
 17 18  1  0  0  0  0
 18 19  1  6  0  0  0
 18 20  1  0  0  0  0
 20 21  1  1  0  0  0
 22 21  1  6  0  0  0
 22 23  1  0  0  0  0
 22 30  1  0  0  0  0
 23 24  1  6  0  0  0
 23 25  1  0  0  0  0
 25 26  1  1  0  0  0
 25 27  1  0  0  0  0
 27 28  1  6  0  0  0
 27 29  1  0  0  0  0
 29 30  1  0  0  0  0
 29 31  1  1  0  0  0
 31 32  1  0  0  0  0
M  CHG  5   4   1  11   1  13   1  16   1  26   1
M  END
>  <CHROM.1>
-173.34847822,-178.63395660,69.27878667,60.54171591,-58.15982873,34.85329081
-54.30891073,53.08472966,171.95854150,-45.51816890,-117.57764570,173.00274337
-42.59434144,64.26027407,61.81725704,-65.40907661,-13.16656027,11.20573133
19.38266609,-2.20752260,0.80371524,-2.71051084

>  <Name>
1lc4

>  <RI>
0

>  <Rbt.Current_Directory>
/home/afrankz/demos/rdock_decoys_rna/rnas/1lc4

>  <Rbt.Executable>
rbdock ($Id: //depot/dev/client3/rdock/2013.1/src/exe/rbdock.cxx#4 $)

>  <Rbt.Library>
libRbt.so (2013.1, Build901 2013/11/27)

>  <Rbt.Parameter_File>
/export/apps/rDock/src/rDock_2013.1_src/data/scripts/dock_solv.prm

>  <Rbt.Receptor>
prm/pocket_docking_8.prm

>  <SCORE>
-62.7292

>  <SCORE.INTER>
-40.2736

>  <SCORE.INTER.CONST>
1

>  <SCORE.INTER.POLAR>
-5.52967

>  <SCORE.INTER.ROT>
6

>  <SCORE.INTER.SOLV>
20.889

>  <SCORE.INTER.VDW>
-22.9798

>  <SCORE.INTER.norm>
-1.25855

>  <SCORE.INTRA>
-22.4556

>  <SCORE.INTRA.DIHEDRAL>
-32.5011

>  <SCORE.INTRA.DIHEDRAL.0>
44.2576

>  <SCORE.INTRA.POLAR>
-1.37066

>  <SCORE.INTRA.POLAR.0>
-0.381556

>  <SCORE.INTRA.REPUL>
0

>  <SCORE.INTRA.REPUL.0>
0

>  <SCORE.INTRA.SOLV>
-0.879291

>  <SCORE.INTRA.SOLV.lig_0>
-134.592

>  <SCORE.INTRA.VDW>
-1.10521

>  <SCORE.INTRA.VDW.0>
-1.01417

>  <SCORE.INTRA.norm>
-0.701739

>  <SCORE.RESTR>
0

>  <SCORE.RESTR.CAVITY>
0

>  <SCORE.RESTR.norm>
0

>  <SCORE.SYSTEM>
0

>  <SCORE.SYSTEM.CONST>
0

>  <SCORE.SYSTEM.DIHEDRAL>
0

>  <SCORE.SYSTEM.SOLV>
0

>  <SCORE.SYSTEM.norm>
0

>  <SCORE.heavy>
32

>  <SCORE.norm>
-1.96029

>  <RMSD>
8.295

$$$$
1lc4
 OpenBabel02141814113D
libRbt.so/2013.1/901 2013/11/27
 32 34  0  0  0  0  0  0  0  0999 V2000
  -14.0980    9.3797   18.7444 C   0  0  2  0  0  0  0  0  0  0  0  0
  -12.7440    9.1801   18.4237 O   0  0  0  0  0  0  0  0  0  0  0  0
  -14.5428   10.7242   18.1332 C   0  0  2  0  0  0  0  0  0  0  0  0
  -14.3368   10.7174   16.6816 N   0  3  0  0  0  0  0  0  0  0  0  0
  -13.7825   11.8916   18.8054 C   0  0  0  0  0  0  0  0  0  0  0  0
  -14.0911   11.8383   20.3120 C   0  0  2  0  0  0  0  0  0  0  0  0
  -13.4540   12.9258   20.9908 O   0  0  0  0  0  0  0  0  0  0  0  0
  -13.6299   10.4731   20.8805 C   0  0  2  0  0  0  0  0  0  0  0  0
  -14.2887    9.3821   20.1764 O   0  0  0  0  0  0  0  0  0  0  0  0
  -13.9403   10.2954   22.3646 C   0  0  0  0  0  0  0  0  0  0  0  0
  -14.4829    8.9396   22.6424 N   0  3  0  0  0  0  0  0  0  0  0  0
  -12.2541    5.1509   19.6426 C   0  0  2  0  0  0  0  0  0  0  0  0
  -11.8220    3.7430   19.7136 N   0  3  0  0  0  0  0  0  0  0  0  0
  -12.9964    5.3990   18.3365 C   0  0  0  0  0  0  0  0  0  0  0  0
  -13.4479    6.8611   18.2490 C   0  0  2  0  0  0  0  0  0  0  0  0
  -14.2656    7.0266   17.0216 N   0  3  0  0  0  0  0  0  0  0  0  0
  -12.2345    7.8337   18.3437 C   0  0  2  0  0  0  0  0  0  0  0  0
  -11.4418    7.5448   19.6444 C   0  0  2  0  0  0  0  0  0  0  0  0
  -10.2586    8.3065   19.6497 O   0  0  0  0  0  0  0  0  0  0  0  0
  -11.0327    6.0648   19.7193 C   0  0  1  0  0  0  0  0  0  0  0  0
  -10.3362    5.8398   20.9445 O   0  0  0  0  0  0  0  0  0  0  0  0
   -9.3197    4.8975   20.9328 C   0  0  2  0  0  0  0  0  0  0  0  0
   -9.2792    4.1942   22.3003 C   0  0  2  0  0  0  0  0  0  0  0  0
  -10.5365    3.5700   22.5275 O   0  0  0  0  0  0  0  0  0  0  0  0
   -8.9988    5.2317   23.4015 C   0  0  1  0  0  0  0  0  0  0  0  0
   -8.9691    4.6096   24.7566 N   0  3  0  0  0  0  0  0  0  0  0  0
   -7.6589    5.9464   23.1002 C   0  0  2  0  0  0  0  0  0  0  0  0
   -7.3844    6.9331   24.0921 O   0  0  0  0  0  0  0  0  0  0  0  0
   -7.6994    6.5836   21.6988 C   0  0  2  0  0  0  0  0  0  0  0  0
   -8.0615    5.5769   20.6849 O   0  0  0  0  0  0  0  0  0  0  0  0
   -6.3600    7.1589   21.2948 C   0  0  0  0  0  0  0  0  0  0  0  0
   -6.3023    8.5657   21.5206 O   0  0  0  0  0  0  0  0  0  0  0  0
  1  2  1  1  0  0  0
  1  3  1  0  0  0  0
  1  9  1  0  0  0  0
  3  4  1  6  0  0  0
  3  5  1  0  0  0  0
  5  6  1  0  0  0  0
  6  7  1  1  0  0  0
  6  8  1  0  0  0  0
  8  9  1  0  0  0  0
  8 10  1  1  0  0  0
 10 11  1  0  0  0  0
 12 13  1  6  0  0  0
 12 14  1  0  0  0  0
 12 20  1  0  0  0  0
 14 15  1  0  0  0  0
 15 16  1  6  0  0  0
 15 17  1  0  0  0  0
 17  2  1  1  0  0  0
 17 18  1  0  0  0  0
 18 19  1  6  0  0  0
 18 20  1  0  0  0  0
 20 21  1  1  0  0  0
 22 21  1  1  0  0  0
 22 23  1  0  0  0  0
 22 30  1  0  0  0  0
 23 24  1  1  0  0  0
 23 25  1  0  0  0  0
 25 26  1  1  0  0  0
 25 27  1  0  0  0  0
 27 28  1  1  0  0  0
 27 29  1  0  0  0  0
 29 30  1  0  0  0  0
 29 31  1  6  0  0  0
 31 32  1  0  0  0  0
M  CHG  5   4   1  11   1  13   1  16   1  26   1
M  END
>  <CHROM.1>
-153.40011762,15.95372995,-49.23408633,-58.20181230,136.43009711,-155.33582364
78.34992908,75.94423035,-25.80950401,91.64849914,-146.33836214,-69.82915228
-29.17886323,-163.61207803,-98.27868519,-65.82810809,-11.36297332,7.58893566
20.51192914,2.69224737,-0.68538194,0.30192701

>  <Name>
1lc4

>  <RI>
0

>  <Rbt.Current_Directory>
/home/afrankz/demos/rdock_decoys_rna/rnas/1lc4

>  <Rbt.Executable>
rbdock ($Id: //depot/dev/client3/rdock/2013.1/src/exe/rbdock.cxx#4 $)

>  <Rbt.Library>
libRbt.so (2013.1, Build901 2013/11/27)

>  <Rbt.Parameter_File>
/export/apps/rDock/src/rDock_2013.1_src/data/scripts/dock_solv.prm

>  <Rbt.Receptor>
prm/blind_docking_60.prm

>  <SCORE>
-16.0526

>  <SCORE.INTER>
-16.7133

>  <SCORE.INTER.CONST>
1

>  <SCORE.INTER.POLAR>
-2.19137

>  <SCORE.INTER.ROT>
6

>  <SCORE.INTER.SOLV>
27.7466

>  <SCORE.INTER.VDW>
-20.6865

>  <SCORE.INTER.norm>
-0.522292

>  <SCORE.INTRA>
-4.08945

>  <SCORE.INTRA.DIHEDRAL>
-7.85358

>  <SCORE.INTRA.DIHEDRAL.0>
44.2576

>  <SCORE.INTRA.POLAR>
-0.459197

>  <SCORE.INTRA.POLAR.0>
-0.381556

>  <SCORE.INTRA.REPUL>
0

>  <SCORE.INTRA.REPUL.0>
0

>  <SCORE.INTRA.SOLV>
0.939765

>  <SCORE.INTRA.SOLV.lig_0>
-134.592

>  <SCORE.INTRA.VDW>
0.928726

>  <SCORE.INTRA.VDW.0>
-1.01417

>  <SCORE.INTRA.norm>
-0.127795

>  <SCORE.RESTR>
4.75018

>  <SCORE.RESTR.CAVITY>
4.75018

>  <SCORE.RESTR.norm>
0.148443

>  <SCORE.SYSTEM>
0

>  <SCORE.SYSTEM.CONST>
0

>  <SCORE.SYSTEM.DIHEDRAL>
0

>  <SCORE.SYSTEM.SOLV>
0

>  <SCORE.SYSTEM.norm>
0

>  <SCORE.heavy>
32

>  <SCORE.norm>
-0.501644

>  <RMSD>
8.298

$$$$
1lc4
 OpenBabel02141814113D
libRbt.so/2013.1/901 2013/11/27
 32 34  0  0  0  0  0  0  0  0999 V2000
   -9.1167    3.6270   15.2865 C   0  0  2  0  0  0  0  0  0  0  0  0
  -10.1044    2.6623   15.5508 O   0  0  0  0  0  0  0  0  0  0  0  0
   -9.7337    4.7085   14.3763 C   0  0  2  0  0  0  0  0  0  0  0  0
  -10.9043    5.3109   15.0216 N   0  3  0  0  0  0  0  0  0  0  0  0
  -10.0975    4.1021   13.0007 C   0  0  0  0  0  0  0  0  0  0  0  0
   -8.8050    3.5339   12.3888 C   0  0  2  0  0  0  0  0  0  0  0  0
   -9.0628    2.9975   11.0869 O   0  0  0  0  0  0  0  0  0  0  0  0
   -8.2219    2.4556   13.3359 C   0  0  2  0  0  0  0  0  0  0  0  0
   -7.9680    3.0215   14.6532 O   0  0  0  0  0  0  0  0  0  0  0  0
   -6.9031    1.8633   12.8454 C   0  0  0  0  0  0  0  0  0  0  0  0
   -5.8722    1.8848   13.9160 N   0  3  0  0  0  0  0  0  0  0  0  0
  -12.4757    1.9006   18.9796 C   0  0  2  0  0  0  0  0  0  0  0  0
  -12.9067    1.5428   20.3435 N   0  3  0  0  0  0  0  0  0  0  0  0
  -11.7977    0.7067   18.3214 C   0  0  0  0  0  0  0  0  0  0  0  0
  -11.3415    1.0673   16.9033 C   0  0  2  0  0  0  0  0  0  0  0  0
  -10.7963   -0.1547   16.2612 N   0  3  0  0  0  0  0  0  0  0  0  0
  -10.3572    2.2749   16.9164 C   0  0  2  0  0  0  0  0  0  0  0  0
  -11.0225    3.4751   17.6381 C   0  0  2  0  0  0  0  0  0  0  0  0
  -10.0790    4.5071   17.7957 O   0  0  0  0  0  0  0  0  0  0  0  0
  -11.4993    3.0734   19.0433 C   0  0  1  0  0  0  0  0  0  0  0  0
  -12.1320    4.1970   19.6549 O   0  0  0  0  0  0  0  0  0  0  0  0
  -11.8455    4.4379   20.9895 C   0  0  2  0  0  0  0  0  0  0  0  0
  -12.5716    5.7208   21.4291 C   0  0  2  0  0  0  0  0  0  0  0  0
  -13.9695    5.5381   21.2432 O   0  0  0  0  0  0  0  0  0  0  0  0
  -12.0772    6.9054   20.5806 C   0  0  1  0  0  0  0  0  0  0  0  0
  -12.7637    8.1773   20.9483 N   0  3  0  0  0  0  0  0  0  0  0  0
  -10.5441    7.0461   20.7447 C   0  0  2  0  0  0  0  0  0  0  0  0
  -10.0527    8.1221   19.9487 O   0  0  0  0  0  0  0  0  0  0  0  0
   -9.8452    5.7276   20.3644 C   0  0  2  0  0  0  0  0  0  0  0  0
  -10.4109    4.6039   21.1325 O   0  0  0  0  0  0  0  0  0  0  0  0
   -8.3616    5.7633   20.6570 C   0  0  0  0  0  0  0  0  0  0  0  0
   -8.1037    5.8573   22.0562 O   0  0  0  0  0  0  0  0  0  0  0  0
  1  2  1  6  0  0  0
  1  3  1  0  0  0  0
  1  9  1  0  0  0  0
  3  4  1  1  0  0  0
  3  5  1  0  0  0  0
  5  6  1  0  0  0  0
  6  7  1  6  0  0  0
  6  8  1  0  0  0  0
  8  9  1  0  0  0  0
  8 10  1  6  0  0  0
 10 11  1  0  0  0  0
 12 13  1  1  0  0  0
 12 14  1  0  0  0  0
 12 20  1  0  0  0  0
 14 15  1  0  0  0  0
 15 16  1  1  0  0  0
 15 17  1  0  0  0  0
 17  2  1  6  0  0  0
 17 18  1  0  0  0  0
 18 19  1  1  0  0  0
 18 20  1  0  0  0  0
 20 21  1  6  0  0  0
 22 21  1  6  0  0  0
 22 23  1  0  0  0  0
 22 30  1  0  0  0  0
 23 24  1  6  0  0  0
 23 25  1  0  0  0  0
 25 26  1  1  0  0  0
 25 27  1  0  0  0  0
 27 28  1  6  0  0  0
 27 29  1  0  0  0  0
 29 30  1  0  0  0  0
 29 31  1  1  0  0  0
 31 32  1  0  0  0  0
M  CHG  5   4   1  11   1  13   1  16   1  26   1
M  END
>  <CHROM.1>
-129.28770749,-172.24482708,166.48664236,-58.69274874,129.77795217,-68.65286476
-50.44613524,82.42682964,-58.76063264,100.36766655,177.36869768,-52.99114871
-64.54788565,82.60022838,65.59019635,-58.46093573,-10.36208521,3.97883664
17.62506908,-1.00149132,0.89866431,0.69879500

>  <Name>
1lc4

>  <RI>
0

>  <Rbt.Current_Directory>
/home/afrankz/demos/rdock_decoys_rna/rnas/1lc4

>  <Rbt.Executable>
rbdock ($Id: //depot/dev/client3/rdock/2013.1/src/exe/rbdock.cxx#4 $)

>  <Rbt.Library>
libRbt.so (2013.1, Build901 2013/11/27)

>  <Rbt.Parameter_File>
/export/apps/rDock/src/rDock_2013.1_src/data/scripts/dock_solv.prm

>  <Rbt.Receptor>
prm/blind_docking_100.prm

>  <SCORE>
-35.7466

>  <SCORE.INTER>
-22.2081

>  <SCORE.INTER.CONST>
1

>  <SCORE.INTER.POLAR>
-3.55071

>  <SCORE.INTER.ROT>
6

>  <SCORE.INTER.SOLV>
27.256

>  <SCORE.INTER.VDW>
-19.655

>  <SCORE.INTER.norm>
-0.694004

>  <SCORE.INTRA>
-15.9158

>  <SCORE.INTRA.DIHEDRAL>
-22.1039

>  <SCORE.INTRA.DIHEDRAL.0>
44.2576

>  <SCORE.INTRA.POLAR>
-0.518901

>  <SCORE.INTRA.POLAR.0>
-0.381556

>  <SCORE.INTRA.REPUL>
0

>  <SCORE.INTRA.REPUL.0>
0

>  <SCORE.INTRA.SOLV>
-0.693798

>  <SCORE.INTRA.SOLV.lig_0>
-134.592

>  <SCORE.INTRA.VDW>
-2.75264

>  <SCORE.INTRA.VDW.0>
-1.01417

>  <SCORE.INTRA.norm>
-0.497367

>  <SCORE.RESTR>
2.37724

>  <SCORE.RESTR.CAVITY>
2.37724

>  <SCORE.RESTR.norm>
0.0742889

>  <SCORE.SYSTEM>
0

>  <SCORE.SYSTEM.CONST>
0

>  <SCORE.SYSTEM.DIHEDRAL>
0

>  <SCORE.SYSTEM.SOLV>
0

>  <SCORE.SYSTEM.norm>
0

>  <SCORE.heavy>
32

>  <SCORE.norm>
-1.11708

>  <RMSD>
8.319

$$$$
1lc4
 OpenBabel02141814113D
libRbt.so/2013.1/901 2013/11/27
 32 34  0  0  0  0  0  0  0  0999 V2000
  -18.1203    7.3906   17.3285 C   0  0  2  0  0  0  0  0  0  0  0  0
  -18.1747    7.0079   15.9770 O   0  0  0  0  0  0  0  0  0  0  0  0
  -19.5639    7.6194   17.8210 C   0  0  2  0  0  0  0  0  0  0  0  0
  -20.3614    6.4016   17.6461 N   0  3  0  0  0  0  0  0  0  0  0  0
  -20.1959    8.8193   17.0771 C   0  0  0  0  0  0  0  0  0  0  0  0
  -19.3147   10.0505   17.3517 C   0  0  2  0  0  0  0  0  0  0  0  0
  -19.8723   11.2124   16.7286 O   0  0  0  0  0  0  0  0  0  0  0  0
  -17.8778    9.7745   16.8432 C   0  0  2  0  0  0  0  0  0  0  0  0
  -17.3304    8.5895   17.4884 O   0  0  0  0  0  0  0  0  0  0  0  0
  -16.9048   10.9187   17.1169 C   0  0  0  0  0  0  0  0  0  0  0  0
  -15.4981   10.4943   16.8919 N   0  3  0  0  0  0  0  0  0  0  0  0
  -15.0698    5.4047   13.5792 C   0  0  2  0  0  0  0  0  0  0  0  0
  -13.8545    5.2650   12.7562 N   0  3  0  0  0  0  0  0  0  0  0  0
  -16.0388    6.3707   12.9111 C   0  0  0  0  0  0  0  0  0  0  0  0
  -17.3057    6.5274   13.7594 C   0  0  2  0  0  0  0  0  0  0  0  0
  -18.2657    7.3802   13.0153 N   0  3  0  0  0  0  0  0  0  0  0  0
  -16.9676    7.0450   15.1895 C   0  0  2  0  0  0  0  0  0  0  0  0
  -15.9360    6.0955   15.8514 C   0  0  2  0  0  0  0  0  0  0  0  0
  -15.5072    6.6490   17.0720 O   0  0  0  0  0  0  0  0  0  0  0  0
  -14.6927    5.9319   14.9622 C   0  0  1  0  0  0  0  0  0  0  0  0
  -13.7884    5.0271   15.5948 O   0  0  0  0  0  0  0  0  0  0  0  0
  -12.8458    5.5692   16.4545 C   0  0  2  0  0  0  0  0  0  0  0  0
  -11.5798    4.6963   16.4169 C   0  0  2  0  0  0  0  0  0  0  0  0
  -11.0846    4.6712   15.0841 O   0  0  0  0  0  0  0  0  0  0  0  0
  -11.9275    3.2697   16.8772 C   0  0  1  0  0  0  0  0  0  0  0  0
  -10.7394    2.3690   16.8410 N   0  3  0  0  0  0  0  0  0  0  0  0
  -12.5264    3.3254   18.3038 C   0  0  2  0  0  0  0  0  0  0  0  0
  -12.8824    2.0183   18.7480 O   0  0  0  0  0  0  0  0  0  0  0  0
  -13.7509    4.2590   18.3305 C   0  0  2  0  0  0  0  0  0  0  0  0
  -13.3987    5.5868   17.7962 O   0  0  0  0  0  0  0  0  0  0  0  0
  -14.2769    4.4699   19.7329 C   0  0  0  0  0  0  0  0  0  0  0  0
  -13.2911    5.0534   20.5821 O   0  0  0  0  0  0  0  0  0  0  0  0
  1  2  1  6  0  0  0
  1  3  1  0  0  0  0
  1  9  1  0  0  0  0
  3  4  1  6  0  0  0
  3  5  1  0  0  0  0
  5  6  1  0  0  0  0
  6  7  1  6  0  0  0
  6  8  1  0  0  0  0
  8  9  1  0  0  0  0
  8 10  1  1  0  0  0
 10 11  1  0  0  0  0
 12 13  1  6  0  0  0
 12 14  1  0  0  0  0
 12 20  1  0  0  0  0
 14 15  1  0  0  0  0
 15 16  1  6  0  0  0
 15 17  1  0  0  0  0
 17  2  1  1  0  0  0
 17 18  1  0  0  0  0
 18 19  1  1  0  0  0
 18 20  1  0  0  0  0
 20 21  1  1  0  0  0
 22 21  1  6  0  0  0
 22 23  1  0  0  0  0
 22 30  1  0  0  0  0
 23 24  1  6  0  0  0
 23 25  1  0  0  0  0
 25 26  1  1  0  0  0
 25 27  1  0  0  0  0
 27 28  1  6  0  0  0
 27 29  1  0  0  0  0
 29 30  1  0  0  0  0
 29 31  1  1  0  0  0
 31 32  1  0  0  0  0
M  CHG  5   4   1  11   1  13   1  16   1  26   1
M  END
>  <CHROM.1>
165.18464750,178.03236993,43.73211863,162.66021256,167.33846456,55.87269234
177.93984980,-169.14569323,-56.23701117,147.99505045,-149.19081199,65.15589959
-36.80352341,177.39619863,60.01053389,-63.63343617,-15.56002113,6.40809216
16.51281022,3.04735688,0.67544176,-1.53212250

>  <Name>
1lc4

>  <RI>
0

>  <Rbt.Current_Directory>
/home/afrankz/demos/rdock_decoys_rna/rnas/1lc4

>  <Rbt.Executable>
rbdock ($Id: //depot/dev/client3/rdock/2013.1/src/exe/rbdock.cxx#4 $)

>  <Rbt.Library>
libRbt.so (2013.1, Build901 2013/11/27)

>  <Rbt.Parameter_File>
/export/apps/rDock/src/rDock_2013.1_src/data/scripts/dock_solv.prm

>  <Rbt.Receptor>
prm/pocket_docking_8.prm

>  <SCORE>
-46.0561

>  <SCORE.INTER>
-27.9927

>  <SCORE.INTER.CONST>
1

>  <SCORE.INTER.POLAR>
-5.82305

>  <SCORE.INTER.ROT>
6

>  <SCORE.INTER.SOLV>
18.5951

>  <SCORE.INTER.VDW>
-13.05

>  <SCORE.INTER.norm>
-0.874771

>  <SCORE.INTRA>
-18.0634

>  <SCORE.INTRA.DIHEDRAL>
-31.0347

>  <SCORE.INTRA.DIHEDRAL.0>
44.2576

>  <SCORE.INTRA.POLAR>
0.366714

>  <SCORE.INTRA.POLAR.0>
-0.381556

>  <SCORE.INTRA.REPUL>
0.00323458

>  <SCORE.INTRA.REPUL.0>
0

>  <SCORE.INTRA.SOLV>
-3.42256

>  <SCORE.INTRA.SOLV.lig_0>
-134.592

>  <SCORE.INTRA.VDW>
-2.09776

>  <SCORE.INTRA.VDW.0>
-1.01417

>  <SCORE.INTRA.norm>
-0.564481

>  <SCORE.RESTR>
0

>  <SCORE.RESTR.CAVITY>
0

>  <SCORE.RESTR.norm>
0

>  <SCORE.SYSTEM>
0

>  <SCORE.SYSTEM.CONST>
0

>  <SCORE.SYSTEM.DIHEDRAL>
0

>  <SCORE.SYSTEM.SOLV>
0

>  <SCORE.SYSTEM.norm>
0

>  <SCORE.heavy>
32

>  <SCORE.norm>
-1.43925

>  <RMSD>
8.320

$$$$
1lc4
 OpenBabel02141814113D
libRbt.so/2013.1/901 2013/11/27
 32 34  0  0  0  0  0  0  0  0999 V2000
  -13.6961    8.9916   18.3800 C   0  0  2  0  0  0  0  0  0  0  0  0
  -12.3575    8.9352   17.9547 O   0  0  0  0  0  0  0  0  0  0  0  0
  -14.2930   10.3337   17.9096 C   0  0  2  0  0  0  0  0  0  0  0  0
  -14.1941   10.4526   16.4516 N   0  3  0  0  0  0  0  0  0  0  0  0
  -13.5836   11.5099   18.6209 C   0  0  0  0  0  0  0  0  0  0  0  0
  -13.7754   11.3183   20.1356 C   0  0  2  0  0  0  0  0  0  0  0  0
  -13.1814   12.4039   20.8552 O   0  0  0  0  0  0  0  0  0  0  0  0
  -13.1637    9.9602   20.5608 C   0  0  2  0  0  0  0  0  0  0  0  0
  -13.7808    8.8711   19.8172 O   0  0  0  0  0  0  0  0  0  0  0  0
  -13.3488    9.6465   22.0434 C   0  0  0  0  0  0  0  0  0  0  0  0
  -14.7805    9.4151   22.3698 N   0  3  0  0  0  0  0  0  0  0  0  0
  -11.5948    4.9357   19.1305 C   0  0  2  0  0  0  0  0  0  0  0  0
  -11.0158    3.5837   19.2344 N   0  3  0  0  0  0  0  0  0  0  0  0
  -12.1421    5.1577   17.7271 C   0  0  0  0  0  0  0  0  0  0  0  0
  -12.7440    6.5620   17.6052 C   0  0  2  0  0  0  0  0  0  0  0  0
  -13.3680    6.6899   16.2647 N   0  3  0  0  0  0  0  0  0  0  0  0
  -11.6856    7.6599   17.9241 C   0  0  2  0  0  0  0  0  0  0  0  0
  -11.0832    7.4033   19.3295 C   0  0  2  0  0  0  0  0  0  0  0  0
  -10.0151    8.2925   19.5496 O   0  0  0  0  0  0  0  0  0  0  0  0
  -10.5187    5.9770   19.4315 C   0  0  1  0  0  0  0  0  0  0  0  0
  -10.0062    5.7765   20.7482 O   0  0  0  0  0  0  0  0  0  0  0  0
   -8.8696    4.9931   20.8742 C   0  0  2  0  0  0  0  0  0  0  0  0
   -8.9213    4.2572   22.2240 C   0  0  2  0  0  0  0  0  0  0  0  0
  -10.0911    3.4493   22.2565 O   0  0  0  0  0  0  0  0  0  0  0  0
   -8.9593    5.2865   23.3672 C   0  0  1  0  0  0  0  0  0  0  0  0
   -9.0319    4.6297   24.7042 N   0  3  0  0  0  0  0  0  0  0  0  0
   -7.7116    6.1984   23.2747 C   0  0  2  0  0  0  0  0  0  0  0  0
   -7.7322    7.1803   24.3083 O   0  0  0  0  0  0  0  0  0  0  0  0
   -7.6451    6.8701   21.8905 C   0  0  2  0  0  0  0  0  0  0  0  0
   -7.7042    5.8564   20.8221 O   0  0  0  0  0  0  0  0  0  0  0  0
   -6.3625    7.6475   21.6947 C   0  0  0  0  0  0  0  0  0  0  0  0
   -5.2467    6.9760   22.2755 O   0  0  0  0  0  0  0  0  0  0  0  0
  1  2  1  1  0  0  0
  1  3  1  0  0  0  0
  1  9  1  0  0  0  0
  3  4  1  6  0  0  0
  3  5  1  0  0  0  0
  5  6  1  0  0  0  0
  6  7  1  1  0  0  0
  6  8  1  0  0  0  0
  8  9  1  0  0  0  0
  8 10  1  1  0  0  0
 10 11  1  0  0  0  0
 12 13  1  6  0  0  0
 12 14  1  0  0  0  0
 12 20  1  0  0  0  0
 14 15  1  0  0  0  0
 15 16  1  6  0  0  0
 15 17  1  0  0  0  0
 17  2  1  1  0  0  0
 17 18  1  0  0  0  0
 18 19  1  6  0  0  0
 18 20  1  0  0  0  0
 20 21  1  1  0  0  0
 22 21  1  1  0  0  0
 22 23  1  0  0  0  0
 22 30  1  0  0  0  0
 23 24  1  6  0  0  0
 23 25  1  0  0  0  0
 25 26  1  1  0  0  0
 25 27  1  0  0  0  0
 27 28  1  1  0  0  0
 27 29  1  0  0  0  0
 29 30  1  0  0  0  0
 29 31  1  1  0  0  0
 31 32  1  0  0  0  0
M  CHG  5   4   1  11   1  13   1  16   1  26   1
M  END
>  <CHROM.1>
-162.53506227,31.56830947,-60.66590645,-55.75846017,67.43945021,-62.00002610
-170.52344996,70.00522394,69.74769985,93.77567276,-148.44401681,-74.10820140
-38.85095015,66.23814333,38.17175470,-66.44552278,-11.01034492,7.41145355
20.33651863,2.99680940,-0.78136065,0.62763191

>  <Name>
1lc4

>  <RI>
0

>  <Rbt.Current_Directory>
/home/afrankz/demos/rdock_decoys_rna/rnas/1lc4

>  <Rbt.Executable>
rbdock ($Id: //depot/dev/client3/rdock/2013.1/src/exe/rbdock.cxx#4 $)

>  <Rbt.Library>
libRbt.so (2013.1, Build901 2013/11/27)

>  <Rbt.Parameter_File>
/export/apps/rDock/src/rDock_2013.1_src/data/scripts/dock_solv.prm

>  <Rbt.Receptor>
prm/blind_docking_60.prm

>  <SCORE>
-20.3024

>  <SCORE.INTER>
-10.0708

>  <SCORE.INTER.CONST>
1

>  <SCORE.INTER.POLAR>
-1.23445

>  <SCORE.INTER.ROT>
6

>  <SCORE.INTER.SOLV>
29.4917

>  <SCORE.INTER.VDW>
-20.0296

>  <SCORE.INTER.norm>
-0.314713

>  <SCORE.INTRA>
-15.4381

>  <SCORE.INTRA.DIHEDRAL>
-26.1836

>  <SCORE.INTRA.DIHEDRAL.0>
44.2576

>  <SCORE.INTRA.POLAR>
-0.19551

>  <SCORE.INTRA.POLAR.0>
-0.381556

>  <SCORE.INTRA.REPUL>
0

>  <SCORE.INTRA.REPUL.0>
0

>  <SCORE.INTRA.SOLV>
1.71

>  <SCORE.INTRA.SOLV.lig_0>
-134.592

>  <SCORE.INTRA.VDW>
-2.53663

>  <SCORE.INTRA.VDW.0>
-1.01417

>  <SCORE.INTRA.norm>
-0.482442

>  <SCORE.RESTR>
5.20651

>  <SCORE.RESTR.CAVITY>
5.20651

>  <SCORE.RESTR.norm>
0.162703

>  <SCORE.SYSTEM>
0

>  <SCORE.SYSTEM.CONST>
0

>  <SCORE.SYSTEM.DIHEDRAL>
0

>  <SCORE.SYSTEM.SOLV>
0

>  <SCORE.SYSTEM.norm>
0

>  <SCORE.heavy>
32

>  <SCORE.norm>
-0.634451

>  <RMSD>
8.326

$$$$
1lc4
 OpenBabel02141814113D
libRbt.so/2013.1/901 2013/11/27
 32 34  0  0  0  0  0  0  0  0999 V2000
  -16.5113   14.9707   18.1334 C   0  0  2  0  0  0  0  0  0  0  0  0
  -15.4943   14.0857   17.7354 O   0  0  0  0  0  0  0  0  0  0  0  0
  -17.1726   15.5441   16.8634 C   0  0  2  0  0  0  0  0  0  0  0  0
  -17.7072   14.4603   16.0333 N   0  3  0  0  0  0  0  0  0  0  0  0
  -16.1573   16.4076   16.0785 C   0  0  0  0  0  0  0  0  0  0  0  0
  -15.6860   17.5339   17.0150 C   0  0  2  0  0  0  0  0  0  0  0  0
  -14.7762   18.4030   16.3321 O   0  0  0  0  0  0  0  0  0  0  0  0
  -15.0318   16.9121   18.2739 C   0  0  2  0  0  0  0  0  0  0  0  0
  -15.9729   16.0322   18.9522 O   0  0  0  0  0  0  0  0  0  0  0  0
  -14.5756   17.9484   19.2979 C   0  0  0  0  0  0  0  0  0  0  0  0
  -13.3206   18.6169   18.8646 N   0  3  0  0  0  0  0  0  0  0  0  0
  -12.7599   11.3272   19.4309 C   0  0  2  0  0  0  0  0  0  0  0  0
  -12.1537   10.2858   20.2804 N   0  3  0  0  0  0  0  0  0  0  0  0
  -13.1684   12.5192   20.2858 C   0  0  0  0  0  0  0  0  0  0  0  0
  -13.8038   13.6081   19.4140 C   0  0  2  0  0  0  0  0  0  0  0  0
  -14.0757   14.7920   20.2667 N   0  3  0  0  0  0  0  0  0  0  0  0
  -15.0526   13.0673   18.6555 C   0  0  2  0  0  0  0  0  0  0  0  0
  -14.6533   11.8176   17.8292 C   0  0  2  0  0  0  0  0  0  0  0  0
  -15.8085   11.2335   17.2775 O   0  0  0  0  0  0  0  0  0  0  0  0
  -13.9888   10.7587   18.7240 C   0  0  1  0  0  0  0  0  0  0  0  0
  -13.6103    9.6441   17.9170 O   0  0  0  0  0  0  0  0  0  0  0  0
  -14.4881    8.5728   17.8627 C   0  0  2  0  0  0  0  0  0  0  0  0
  -14.3137    7.7235   19.1334 C   0  0  2  0  0  0  0  0  0  0  0  0
  -14.5892    8.5383   20.2658 O   0  0  0  0  0  0  0  0  0  0  0  0
  -12.8701    7.1955   19.2023 C   0  0  1  0  0  0  0  0  0  0  0  0
  -12.6345    6.3798   20.4284 N   0  3  0  0  0  0  0  0  0  0  0  0
  -12.5683    6.3668   17.9298 C   0  0  2  0  0  0  0  0  0  0  0  0
  -11.2268    5.8846   17.9535 O   0  0  0  0  0  0  0  0  0  0  0  0
  -12.8162    7.2173   16.6700 C   0  0  2  0  0  0  0  0  0  0  0  0
  -14.1785    7.7797   16.6874 O   0  0  0  0  0  0  0  0  0  0  0  0
  -12.6867    6.4063   15.3998 C   0  0  0  0  0  0  0  0  0  0  0  0
  -11.3266    6.2864   14.9888 O   0  0  0  0  0  0  0  0  0  0  0  0
  1  2  1  6  0  0  0
  1  3  1  0  0  0  0
  1  9  1  0  0  0  0
  3  4  1  6  0  0  0
  3  5  1  0  0  0  0
  5  6  1  0  0  0  0
  6  7  1  6  0  0  0
  6  8  1  0  0  0  0
  8  9  1  0  0  0  0
  8 10  1  1  0  0  0
 10 11  1  0  0  0  0
 12 13  1  1  0  0  0
 12 14  1  0  0  0  0
 12 20  1  0  0  0  0
 14 15  1  0  0  0  0
 15 16  1  1  0  0  0
 15 17  1  0  0  0  0
 17  2  1  6  0  0  0
 17 18  1  0  0  0  0
 18 19  1  1  0  0  0
 18 20  1  0  0  0  0
 20 21  1  6  0  0  0
 22 21  1  1  0  0  0
 22 23  1  0  0  0  0
 22 30  1  0  0  0  0
 23 24  1  1  0  0  0
 23 25  1  0  0  0  0
 25 26  1  1  0  0  0
 25 27  1  0  0  0  0
 27 28  1  1  0  0  0
 27 29  1  0  0  0  0
 29 30  1  0  0  0  0
 29 31  1  6  0  0  0
 31 32  1  0  0  0  0
M  CHG  5   4   1  11   1  13   1  16   1  26   1
M  END
>  <CHROM.1>
-157.63666065,-95.00185872,-163.91811499,49.41031834,-76.10236709,167.39527963
-72.67811696,-22.53391672,-55.59660267,142.11439500,-79.49069015,60.58468921
-63.12508570,-66.43648573,-83.10776344,-178.36269471,-14.20043634,11.80867474
18.13175835,2.14409048,-1.07154388,0.51346893

>  <Name>
1lc4

>  <RI>
0

>  <Rbt.Current_Directory>
/home/afrankz/demos/rdock_decoys_rna/rnas/1lc4

>  <Rbt.Executable>
rbdock ($Id: //depot/dev/client3/rdock/2013.1/src/exe/rbdock.cxx#4 $)

>  <Rbt.Library>
libRbt.so (2013.1, Build901 2013/11/27)

>  <Rbt.Parameter_File>
/export/apps/rDock/src/rDock_2013.1_src/data/scripts/dock_solv.prm

>  <Rbt.Receptor>
prm/pocket_docking_8.prm

>  <SCORE>
-56.3939

>  <SCORE.INTER>
-40.9988

>  <SCORE.INTER.CONST>
1

>  <SCORE.INTER.POLAR>
-7.38222

>  <SCORE.INTER.ROT>
6

>  <SCORE.INTER.SOLV>
24.7345

>  <SCORE.INTER.VDW>
-18.57

>  <SCORE.INTER.norm>
-1.28121

>  <SCORE.INTRA>
-16.0155

>  <SCORE.INTRA.DIHEDRAL>
-23.4383

>  <SCORE.INTRA.DIHEDRAL.0>
44.2576

>  <SCORE.INTRA.POLAR>
-1.40185

>  <SCORE.INTRA.POLAR.0>
-0.381556

>  <SCORE.INTRA.REPUL>
0

>  <SCORE.INTRA.REPUL.0>
0

>  <SCORE.INTRA.SOLV>
5.58875

>  <SCORE.INTRA.SOLV.lig_0>
-134.592

>  <SCORE.INTRA.VDW>
-2.32444

>  <SCORE.INTRA.VDW.0>
-1.01417

>  <SCORE.INTRA.norm>
-0.500483

>  <SCORE.RESTR>
0.620382

>  <SCORE.RESTR.CAVITY>
0.620382

>  <SCORE.RESTR.norm>
0.0193869

>  <SCORE.SYSTEM>
0

>  <SCORE.SYSTEM.CONST>
0

>  <SCORE.SYSTEM.DIHEDRAL>
0

>  <SCORE.SYSTEM.SOLV>
0

>  <SCORE.SYSTEM.norm>
0

>  <SCORE.heavy>
32

>  <SCORE.norm>
-1.76231

>  <RMSD>
8.338

$$$$
1lc4
 OpenBabel02141814113D
libRbt.so/2013.1/901 2013/11/27
 32 34  0  0  0  0  0  0  0  0999 V2000
  -14.0540    6.2094   13.8907 C   0  0  2  0  0  0  0  0  0  0  0  0
  -14.0216    7.5313   14.3678 O   0  0  0  0  0  0  0  0  0  0  0  0
  -13.6931    6.2314   12.3913 C   0  0  2  0  0  0  0  0  0  0  0  0
  -12.3714    6.8345   12.1938 N   0  3  0  0  0  0  0  0  0  0  0  0
  -14.7823    6.9855   11.5929 C   0  0  0  0  0  0  0  0  0  0  0  0
  -16.1175    6.2587   11.8311 C   0  0  2  0  0  0  0  0  0  0  0  0
  -17.1650    6.8796   11.0786 O   0  0  0  0  0  0  0  0  0  0  0  0
  -16.4371    6.2602   13.3468 C   0  0  2  0  0  0  0  0  0  0  0  0
  -15.3598    5.6254   14.0929 O   0  0  0  0  0  0  0  0  0  0  0  0
  -17.7212    5.5134   13.6991 C   0  0  0  0  0  0  0  0  0  0  0  0
  -18.8162    6.4581   14.0427 N   0  3  0  0  0  0  0  0  0  0  0  0
  -13.6299    9.3322   18.1839 C   0  0  2  0  0  0  0  0  0  0  0  0
  -13.8406    9.7025   19.5954 N   0  3  0  0  0  0  0  0  0  0  0  0
  -14.8607    9.6954   17.3645 C   0  0  0  0  0  0  0  0  0  0  0  0
  -14.6554    9.3118   15.8948 C   0  0  2  0  0  0  0  0  0  0  0  0
  -15.8257    9.7900   15.1175 N   0  3  0  0  0  0  0  0  0  0  0  0
  -14.3680    7.7880   15.7435 C   0  0  2  0  0  0  0  0  0  0  0  0
  -13.1505    7.4027   16.6227 C   0  0  2  0  0  0  0  0  0  0  0  0
  -12.9928    6.0044   16.6157 O   0  0  0  0  0  0  0  0  0  0  0  0
  -13.3718    7.8302   18.0827 C   0  0  1  0  0  0  0  0  0  0  0  0
  -12.2157    7.4854   18.8450 O   0  0  0  0  0  0  0  0  0  0  0  0
  -12.3693    7.3805   20.2186 C   0  0  2  0  0  0  0  0  0  0  0  0
  -11.2474    8.1775   20.9057 C   0  0  2  0  0  0  0  0  0  0  0  0
  -11.3381    9.5359   20.4952 O   0  0  0  0  0  0  0  0  0  0  0  0
   -9.8825    7.5941   20.5003 C   0  0  1  0  0  0  0  0  0  0  0  0
   -8.7516    8.3423   21.1212 N   0  3  0  0  0  0  0  0  0  0  0  0
   -9.8290    6.0982   20.8958 C   0  0  2  0  0  0  0  0  0  0  0  0
   -8.5831    5.5230   20.5090 O   0  0  0  0  0  0  0  0  0  0  0  0
  -11.0013    5.3353   20.2513 C   0  0  2  0  0  0  0  0  0  0  0  0
  -12.2833    5.9797   20.5884 O   0  0  0  0  0  0  0  0  0  0  0  0
  -11.0837    3.9037   20.7326 C   0  0  0  0  0  0  0  0  0  0  0  0
  -11.4866    3.8306   22.0985 O   0  0  0  0  0  0  0  0  0  0  0  0
  1  2  1  6  0  0  0
  1  3  1  0  0  0  0
  1  9  1  0  0  0  0
  3  4  1  1  0  0  0
  3  5  1  0  0  0  0
  5  6  1  0  0  0  0
  6  7  1  6  0  0  0
  6  8  1  0  0  0  0
  8  9  1  0  0  0  0
  8 10  1  6  0  0  0
 10 11  1  0  0  0  0
 12 13  1  1  0  0  0
 12 14  1  0  0  0  0
 12 20  1  0  0  0  0
 14 15  1  0  0  0  0
 15 16  1  6  0  0  0
 15 17  1  0  0  0  0
 17  2  1  6  0  0  0
 17 18  1  0  0  0  0
 18 19  1  1  0  0  0
 18 20  1  0  0  0  0
 20 21  1  1  0  0  0
 22 21  1  6  0  0  0
 22 23  1  0  0  0  0
 22 30  1  0  0  0  0
 23 24  1  6  0  0  0
 23 25  1  0  0  0  0
 25 26  1  1  0  0  0
 25 27  1  0  0  0  0
 27 28  1  6  0  0  0
 27 29  1  0  0  0  0
 29 30  1  0  0  0  0
 29 31  1  1  0  0  0
 31 32  1  0  0  0  0
M  CHG  5   4   1  11   1  13   1  16   1  26   1
M  END
>  <CHROM.1>
177.98154101,-163.69451063,-161.61141312,-168.67988908,-105.91184319,73.73251497
86.22854043,99.28350992,-171.11164560,78.61152262,-131.41255234,175.91945480
88.70620692,-66.49351959,69.64505901,-50.69610983,-13.34475101,7.09582347
16.98784770,-2.62218712,-0.86825389,0.65350356

>  <Name>
1lc4

>  <RI>
0

>  <Rbt.Current_Directory>
/home/afrankz/demos/rdock_decoys_rna/rnas/1lc4

>  <Rbt.Executable>
rbdock ($Id: //depot/dev/client3/rdock/2013.1/src/exe/rbdock.cxx#4 $)

>  <Rbt.Library>
libRbt.so (2013.1, Build901 2013/11/27)

>  <Rbt.Parameter_File>
/export/apps/rDock/src/rDock_2013.1_src/data/scripts/dock_solv.prm

>  <Rbt.Receptor>
prm/pocket_docking_4.prm

>  <SCORE>
-46.2829

>  <SCORE.INTER>
-32.2811

>  <SCORE.INTER.CONST>
1

>  <SCORE.INTER.POLAR>
-4.94069

>  <SCORE.INTER.ROT>
6

>  <SCORE.INTER.SOLV>
24.357

>  <SCORE.INTER.VDW>
-20.7708

>  <SCORE.INTER.norm>
-1.00878

>  <SCORE.INTRA>
-14.0409

>  <SCORE.INTRA.DIHEDRAL>
-21.2126

>  <SCORE.INTRA.DIHEDRAL.0>
44.2576

>  <SCORE.INTRA.POLAR>
-0.894029

>  <SCORE.INTRA.POLAR.0>
-0.381556

>  <SCORE.INTRA.REPUL>
0

>  <SCORE.INTRA.REPUL.0>
0

>  <SCORE.INTRA.SOLV>
-0.0943018

>  <SCORE.INTRA.SOLV.lig_0>
-134.592

>  <SCORE.INTRA.VDW>
-0.34775

>  <SCORE.INTRA.VDW.0>
-1.01417

>  <SCORE.INTRA.norm>
-0.438779

>  <SCORE.RESTR>
0.0391101

>  <SCORE.RESTR.CAVITY>
0.0391101

>  <SCORE.RESTR.norm>
0.00122219

>  <SCORE.SYSTEM>
0

>  <SCORE.SYSTEM.CONST>
0

>  <SCORE.SYSTEM.DIHEDRAL>
0

>  <SCORE.SYSTEM.SOLV>
0

>  <SCORE.SYSTEM.norm>
0

>  <SCORE.heavy>
32

>  <SCORE.norm>
-1.44634

>  <RMSD>
8.352

$$$$
1lc4
 OpenBabel02141814113D
libRbt.so/2013.1/901 2013/11/27
 32 34  0  0  0  0  0  0  0  0999 V2000
  -14.6018    5.6824   14.7453 C   0  0  2  0  0  0  0  0  0  0  0  0
  -13.8906    6.8857   14.8944 O   0  0  0  0  0  0  0  0  0  0  0  0
  -14.2211    5.0655   13.3839 C   0  0  2  0  0  0  0  0  0  0  0  0
  -12.7743    4.8389   13.3135 N   0  3  0  0  0  0  0  0  0  0  0  0
  -14.7060    5.9773   12.2324 C   0  0  0  0  0  0  0  0  0  0  0  0
  -16.2318    6.1225   12.3681 C   0  0  2  0  0  0  0  0  0  0  0  0
  -16.7544    6.9192   11.2997 O   0  0  0  0  0  0  0  0  0  0  0  0
  -16.5658    6.7428   13.7476 C   0  0  2  0  0  0  0  0  0  0  0  0
  -16.0252    5.9180   14.8188 O   0  0  0  0  0  0  0  0  0  0  0  0
  -18.0641    6.8809   14.0065 C   0  0  0  0  0  0  0  0  0  0  0  0
  -18.7030    5.5515   14.1918 N   0  3  0  0  0  0  0  0  0  0  0  0
  -12.1428    8.6433   18.3318 C   0  0  2  0  0  0  0  0  0  0  0  0
  -11.9575    9.3022   19.6378 N   0  3  0  0  0  0  0  0  0  0  0  0
  -12.9118    9.5628   17.3929 C   0  0  0  0  0  0  0  0  0  0  0  0
  -13.1142    8.8873   16.0321 C   0  0  2  0  0  0  0  0  0  0  0  0
  -13.7598    9.8610   15.1168 N   0  3  0  0  0  0  0  0  0  0  0  0
  -13.8845    7.5411   16.1786 C   0  0  2  0  0  0  0  0  0  0  0  0
  -13.1353    6.6241   17.1794 C   0  0  2  0  0  0  0  0  0  0  0  0
  -13.9130    5.4801   17.4375 O   0  0  0  0  0  0  0  0  0  0  0  0
  -12.9177    7.3409   18.5219 C   0  0  1  0  0  0  0  0  0  0  0  0
  -12.1983    6.4732   19.3972 O   0  0  0  0  0  0  0  0  0  0  0  0
  -11.0414    5.8907   18.9037 C   0  0  2  0  0  0  0  0  0  0  0  0
  -10.9980    4.4189   19.3488 C   0  0  2  0  0  0  0  0  0  0  0  0
  -12.1480    3.7559   18.8389 O   0  0  0  0  0  0  0  0  0  0  0  0
  -10.9871    4.3489   20.8859 C   0  0  1  0  0  0  0  0  0  0  0  0
  -10.9668    2.9413   21.3782 N   0  3  0  0  0  0  0  0  0  0  0  0
   -9.7649    5.1324   21.4239 C   0  0  2  0  0  0  0  0  0  0  0  0
   -9.7423    5.1065   22.8493 O   0  0  0  0  0  0  0  0  0  0  0  0
   -9.7944    6.5834   20.9087 C   0  0  2  0  0  0  0  0  0  0  0  0
   -9.8980    6.6066   19.4386 O   0  0  0  0  0  0  0  0  0  0  0  0
   -8.5410    7.3453   21.2778 C   0  0  0  0  0  0  0  0  0  0  0  0
   -7.3684    6.6962   20.7909 O   0  0  0  0  0  0  0  0  0  0  0  0
  1  2  1  6  0  0  0
  1  3  1  0  0  0  0
  1  9  1  0  0  0  0
  3  4  1  1  0  0  0
  3  5  1  0  0  0  0
  5  6  1  0  0  0  0
  6  7  1  6  0  0  0
  6  8  1  0  0  0  0
  8  9  1  0  0  0  0
  8 10  1  1  0  0  0
 10 11  1  0  0  0  0
 12 13  1  1  0  0  0
 12 14  1  0  0  0  0
 12 20  1  0  0  0  0
 14 15  1  0  0  0  0
 15 16  1  6  0  0  0
 15 17  1  0  0  0  0
 17  2  1  6  0  0  0
 17 18  1  0  0  0  0
 18 19  1  1  0  0  0
 18 20  1  0  0  0  0
 20 21  1  1  0  0  0
 22 21  1  1  0  0  0
 22 23  1  0  0  0  0
 22 30  1  0  0  0  0
 23 24  1  1  0  0  0
 23 25  1  0  0  0  0
 25 26  1  6  0  0  0
 25 27  1  0  0  0  0
 27 28  1  1  0  0  0
 27 29  1  0  0  0  0
 29 30  1  0  0  0  0
 29 31  1  6  0  0  0
 31 32  1  0  0  0  0
M  CHG  5   4   1  11   1  13   1  16   1  26   1
M  END
>  <CHROM.1>
-169.13701465,-176.06031031,-174.53974440,100.53740004,69.53791208,41.85067364
-71.37942053,-72.62349211,-67.59677429,-71.55586332,-138.04241259,170.46202933
104.15685989,-57.11931761,56.94819032,102.76243627,-12.92917379,6.38677801
17.21096893,2.89373327,-0.86140815,-0.23724021

>  <Name>
1lc4

>  <RI>
0

>  <Rbt.Current_Directory>
/home/afrankz/demos/rdock_decoys_rna/rnas/1lc4

>  <Rbt.Executable>
rbdock ($Id: //depot/dev/client3/rdock/2013.1/src/exe/rbdock.cxx#4 $)

>  <Rbt.Library>
libRbt.so (2013.1, Build901 2013/11/27)

>  <Rbt.Parameter_File>
/export/apps/rDock/src/rDock_2013.1_src/data/scripts/dock_solv.prm

>  <Rbt.Receptor>
prm/pocket_docking_4.prm

>  <SCORE>
-60.5346

>  <SCORE.INTER>
-48.9328

>  <SCORE.INTER.CONST>
1

>  <SCORE.INTER.POLAR>
-7.91065

>  <SCORE.INTER.ROT>
6

>  <SCORE.INTER.SOLV>
28.434

>  <SCORE.INTER.VDW>
-23.331

>  <SCORE.INTER.norm>
-1.52915

>  <SCORE.INTRA>
-11.6018

>  <SCORE.INTRA.DIHEDRAL>
-20.2092

>  <SCORE.INTRA.DIHEDRAL.0>
44.2576

>  <SCORE.INTRA.POLAR>
0.251315

>  <SCORE.INTRA.POLAR.0>
-0.381556

>  <SCORE.INTRA.REPUL>
0.084392

>  <SCORE.INTRA.REPUL.0>
0

>  <SCORE.INTRA.SOLV>
-2.50283

>  <SCORE.INTRA.SOLV.lig_0>
-134.592

>  <SCORE.INTRA.VDW>
-1.52218

>  <SCORE.INTRA.VDW.0>
-1.01417

>  <SCORE.INTRA.norm>
-0.362556

>  <SCORE.RESTR>
0

>  <SCORE.RESTR.CAVITY>
0

>  <SCORE.RESTR.norm>
0

>  <SCORE.SYSTEM>
0

>  <SCORE.SYSTEM.CONST>
0

>  <SCORE.SYSTEM.DIHEDRAL>
0

>  <SCORE.SYSTEM.SOLV>
0

>  <SCORE.SYSTEM.norm>
0

>  <SCORE.heavy>
32

>  <SCORE.norm>
-1.89171

>  <RMSD>
8.374

$$$$
1lc4
 OpenBabel02141814113D
libRbt.so/2013.1/901 2013/11/27
 32 34  0  0  0  0  0  0  0  0999 V2000
  -16.6066   15.1084   17.6972 C   0  0  2  0  0  0  0  0  0  0  0  0
  -15.7193   14.1173   17.2431 O   0  0  0  0  0  0  0  0  0  0  0  0
  -17.6968   15.3048   16.6240 C   0  0  2  0  0  0  0  0  0  0  0  0
  -18.3968   14.0416   16.3713 N   0  3  0  0  0  0  0  0  0  0  0  0
  -17.0716   15.8724   15.3281 C   0  0  0  0  0  0  0  0  0  0  0  0
  -16.3986   17.2091   15.6858 C   0  0  2  0  0  0  0  0  0  0  0  0
  -15.8385   17.8148   14.5158 O   0  0  0  0  0  0  0  0  0  0  0  0
  -15.3151   16.9634   16.7653 C   0  0  2  0  0  0  0  0  0  0  0  0
  -15.9053   16.3470   17.9450 O   0  0  0  0  0  0  0  0  0  0  0  0
  -14.6202   18.2401   17.2320 C   0  0  0  0  0  0  0  0  0  0  0  0
  -15.3889   18.9058   18.3163 N   0  3  0  0  0  0  0  0  0  0  0  0
  -13.0655   11.2664   18.9136 C   0  0  2  0  0  0  0  0  0  0  0  0
  -12.4905   10.1985   19.7518 N   0  3  0  0  0  0  0  0  0  0  0  0
  -13.4467   12.4573   19.7824 C   0  0  0  0  0  0  0  0  0  0  0  0
  -14.0495   13.5737   18.9225 C   0  0  2  0  0  0  0  0  0  0  0  0
  -14.2945   14.7530   19.7896 N   0  3  0  0  0  0  0  0  0  0  0  0
  -15.3085   13.0757   18.1515 C   0  0  2  0  0  0  0  0  0  0  0  0
  -14.9381   11.8270   17.3105 C   0  0  2  0  0  0  0  0  0  0  0  0
  -16.1055   11.2805   16.7461 O   0  0  0  0  0  0  0  0  0  0  0  0
  -14.3055   10.7395   18.1939 C   0  0  1  0  0  0  0  0  0  0  0  0
  -13.9524    9.6261   17.3739 O   0  0  0  0  0  0  0  0  0  0  0  0
  -12.7538    9.7025   16.6819 C   0  0  2  0  0  0  0  0  0  0  0  0
  -13.0314    9.4905   15.1838 C   0  0  2  0  0  0  0  0  0  0  0  0
  -13.9294   10.5002   14.7408 O   0  0  0  0  0  0  0  0  0  0  0  0
  -13.6546    8.0999   14.9703 C   0  0  1  0  0  0  0  0  0  0  0  0
  -13.9665    7.8451   13.5343 N   0  3  0  0  0  0  0  0  0  0  0  0
  -12.6915    7.0191   15.5191 C   0  0  2  0  0  0  0  0  0  0  0  0
  -13.2544    5.7192   15.3578 O   0  0  0  0  0  0  0  0  0  0  0  0
  -12.3746    7.2922   17.0012 C   0  0  2  0  0  0  0  0  0  0  0  0
  -11.8672    8.6650   17.1756 O   0  0  0  0  0  0  0  0  0  0  0  0
  -11.3162    6.3557   17.5402 C   0  0  0  0  0  0  0  0  0  0  0  0
  -10.5026    6.9917   18.5236 O   0  0  0  0  0  0  0  0  0  0  0  0
  1  2  1  6  0  0  0
  1  3  1  0  0  0  0
  1  9  1  0  0  0  0
  3  4  1  6  0  0  0
  3  5  1  0  0  0  0
  5  6  1  0  0  0  0
  6  7  1  6  0  0  0
  6  8  1  0  0  0  0
  8  9  1  0  0  0  0
  8 10  1  1  0  0  0
 10 11  1  0  0  0  0
 12 13  1  1  0  0  0
 12 14  1  0  0  0  0
 12 20  1  0  0  0  0
 14 15  1  0  0  0  0
 15 16  1  1  0  0  0
 15 17  1  0  0  0  0
 17  2  1  6  0  0  0
 17 18  1  0  0  0  0
 18 19  1  1  0  0  0
 18 20  1  0  0  0  0
 20 21  1  6  0  0  0
 22 21  1  1  0  0  0
 22 23  1  0  0  0  0
 22 30  1  0  0  0  0
 23 24  1  1  0  0  0
 23 25  1  0  0  0  0
 25 26  1  6  0  0  0
 25 27  1  0  0  0  0
 27 28  1  1  0  0  0
 27 29  1  0  0  0  0
 29 30  1  0  0  0  0
 29 31  1  6  0  0  0
 31 32  1  0  0  0  0
M  CHG  5   4   1  11   1  13   1  16   1  26   1
M  END
>  <CHROM.1>
-134.34085408,-88.18663643,-57.86728275,39.49407804,85.38184173,40.77384105
178.45624952,67.46997692,-63.15912435,-39.97651956,-124.34441865,89.17928705
-59.68514079,176.38681128,146.88818380,-43.81587985,-14.38487063,12.06546321
17.02057864,-2.25151038,0.95779796,-2.50703895

>  <Name>
1lc4

>  <RI>
0

>  <Rbt.Current_Directory>
/home/afrankz/demos/rdock_decoys_rna/rnas/1lc4

>  <Rbt.Executable>
rbdock ($Id: //depot/dev/client3/rdock/2013.1/src/exe/rbdock.cxx#4 $)

>  <Rbt.Library>
libRbt.so (2013.1, Build901 2013/11/27)

>  <Rbt.Parameter_File>
/export/apps/rDock/src/rDock_2013.1_src/data/scripts/dock_solv.prm

>  <Rbt.Receptor>
prm/blind_docking_40.prm

>  <SCORE>
-40.9069

>  <SCORE.INTER>
-36.7405

>  <SCORE.INTER.CONST>
1

>  <SCORE.INTER.POLAR>
-5.83425

>  <SCORE.INTER.ROT>
6

>  <SCORE.INTER.SOLV>
20.7889

>  <SCORE.INTER.VDW>
-19.5758

>  <SCORE.INTER.norm>
-1.14814

>  <SCORE.INTRA>
-13.4275

>  <SCORE.INTRA.DIHEDRAL>
-13.0501

>  <SCORE.INTRA.DIHEDRAL.0>
44.2576

>  <SCORE.INTRA.POLAR>
-1.84493

>  <SCORE.INTRA.POLAR.0>
-0.381556

>  <SCORE.INTRA.REPUL>
0

>  <SCORE.INTRA.REPUL.0>
0

>  <SCORE.INTRA.SOLV>
1.71925

>  <SCORE.INTRA.SOLV.lig_0>
-134.592

>  <SCORE.INTRA.VDW>
-1.48937

>  <SCORE.INTRA.VDW.0>
-1.01417

>  <SCORE.INTRA.norm>
-0.41961

>  <SCORE.RESTR>
9.26111

>  <SCORE.RESTR.CAVITY>
9.26111

>  <SCORE.RESTR.norm>
0.28941

>  <SCORE.SYSTEM>
0

>  <SCORE.SYSTEM.CONST>
0

>  <SCORE.SYSTEM.DIHEDRAL>
0

>  <SCORE.SYSTEM.SOLV>
0

>  <SCORE.SYSTEM.norm>
0

>  <SCORE.heavy>
32

>  <SCORE.norm>
-1.27834

>  <RMSD>
8.385

$$$$
1lc4
 OpenBabel02141814113D
libRbt.so/2013.1/901 2013/11/27
 32 34  0  0  0  0  0  0  0  0999 V2000
  -14.7979    5.7384   14.6490 C   0  0  2  0  0  0  0  0  0  0  0  0
  -14.0182    6.8977   14.8045 O   0  0  0  0  0  0  0  0  0  0  0  0
  -14.2811    4.9748   13.4126 C   0  0  2  0  0  0  0  0  0  0  0  0
  -12.8625    4.6421   13.5750 N   0  3  0  0  0  0  0  0  0  0  0  0
  -14.5220    5.8093   12.1328 C   0  0  0  0  0  0  0  0  0  0  0  0
  -16.0345    6.0726   12.0296 C   0  0  2  0  0  0  0  0  0  0  0  0
  -16.3337    6.8031   10.8354 O   0  0  0  0  0  0  0  0  0  0  0  0
  -16.5075    6.8381   13.2904 C   0  0  2  0  0  0  0  0  0  0  0  0
  -16.1932    6.0787   14.4924 O   0  0  0  0  0  0  0  0  0  0  0  0
  -18.0107    7.1036   13.3133 C   0  0  0  0  0  0  0  0  0  0  0  0
  -18.7604    5.9125   13.7919 N   0  3  0  0  0  0  0  0  0  0  0  0
  -12.1302    8.4979   18.2447 C   0  0  2  0  0  0  0  0  0  0  0  0
  -11.8913    9.1259   19.5571 N   0  3  0  0  0  0  0  0  0  0  0  0
  -12.8520    9.4753   17.3271 C   0  0  0  0  0  0  0  0  0  0  0  0
  -13.1096    8.8325   15.9597 C   0  0  2  0  0  0  0  0  0  0  0  0
  -13.7047    9.8562   15.0651 N   0  3  0  0  0  0  0  0  0  0  0  0
  -13.9586    7.5334   16.0972 C   0  0  2  0  0  0  0  0  0  0  0  0
  -13.2558    6.5588   17.0769 C   0  0  2  0  0  0  0  0  0  0  0  0
  -14.0986    5.4605   17.3286 O   0  0  0  0  0  0  0  0  0  0  0  0
  -12.9806    7.2422   18.4262 C   0  0  1  0  0  0  0  0  0  0  0  0
  -12.3059    6.3203   19.2815 O   0  0  0  0  0  0  0  0  0  0  0  0
  -11.1802    5.6907   18.7738 C   0  0  2  0  0  0  0  0  0  0  0  0
  -11.1400    4.2458   19.2999 C   0  0  2  0  0  0  0  0  0  0  0  0
  -12.3208    3.5755   18.8773 O   0  0  0  0  0  0  0  0  0  0  0  0
  -11.0642    4.2623   20.8366 C   0  0  1  0  0  0  0  0  0  0  0  0
  -11.0442    2.8844   21.4069 N   0  3  0  0  0  0  0  0  0  0  0  0
   -9.8083    5.0532   21.2773 C   0  0  2  0  0  0  0  0  0  0  0  0
   -9.7250    5.1071   22.6996 O   0  0  0  0  0  0  0  0  0  0  0  0
   -9.8380    6.4732   20.6820 C   0  0  2  0  0  0  0  0  0  0  0  0
  -10.0042    6.4154   19.2186 O   0  0  0  0  0  0  0  0  0  0  0  0
   -8.5584    7.2325   20.9541 C   0  0  0  0  0  0  0  0  0  0  0  0
   -7.4781    6.7433   20.1624 O   0  0  0  0  0  0  0  0  0  0  0  0
  1  2  1  6  0  0  0
  1  3  1  0  0  0  0
  1  9  1  0  0  0  0
  3  4  1  1  0  0  0
  3  5  1  0  0  0  0
  5  6  1  0  0  0  0
  6  7  1  6  0  0  0
  6  8  1  0  0  0  0
  8  9  1  0  0  0  0
  8 10  1  6  0  0  0
 10 11  1  0  0  0  0
 12 13  1  1  0  0  0
 12 14  1  0  0  0  0
 12 20  1  0  0  0  0
 14 15  1  0  0  0  0
 15 16  1  6  0  0  0
 15 17  1  0  0  0  0
 17  2  1  6  0  0  0
 17 18  1  0  0  0  0
 18 19  1  1  0  0  0
 18 20  1  0  0  0  0
 20 21  1  1  0  0  0
 22 21  1  1  0  0  0
 22 23  1  0  0  0  0
 22 30  1  0  0  0  0
 23 24  1  1  0  0  0
 23 25  1  0  0  0  0
 25 26  1  6  0  0  0
 25 27  1  0  0  0  0
 27 28  1  1  0  0  0
 27 29  1  0  0  0  0
 29 30  1  0  0  0  0
 29 31  1  6  0  0  0
 31 32  1  0  0  0  0
M  CHG  5   4   1  11   1  13   1  16   1  26   1
M  END
>  <CHROM.1>
-158.33573658,-176.33974789,52.57317746,156.80483170,81.63828816,-95.55538027
165.58213283,44.73380710,-174.11467644,-70.61993894,-143.49328932,171.87502314
-17.88358422,65.39370048,72.74292739,168.13404033,-12.95719984,6.33325262
17.04641554,2.85730889,-0.86842933,-0.25858845

>  <Name>
1lc4

>  <RI>
0

>  <Rbt.Current_Directory>
/home/afrankz/demos/rdock_decoys_rna/rnas/1lc4

>  <Rbt.Executable>
rbdock ($Id: //depot/dev/client3/rdock/2013.1/src/exe/rbdock.cxx#4 $)

>  <Rbt.Library>
libRbt.so (2013.1, Build901 2013/11/27)

>  <Rbt.Parameter_File>
/export/apps/rDock/src/rDock_2013.1_src/data/scripts/dock_solv.prm

>  <Rbt.Receptor>
prm/pocket_docking_7.prm

>  <SCORE>
-66.9149

>  <SCORE.INTER>
-49.4049

>  <SCORE.INTER.CONST>
1

>  <SCORE.INTER.POLAR>
-7.54992

>  <SCORE.INTER.ROT>
6

>  <SCORE.INTER.SOLV>
30.0315

>  <SCORE.INTER.VDW>
-25.3807

>  <SCORE.INTER.norm>
-1.5439

>  <SCORE.INTRA>
-17.51

>  <SCORE.INTRA.DIHEDRAL>
-24.582

>  <SCORE.INTRA.DIHEDRAL.0>
44.2576

>  <SCORE.INTRA.POLAR>
-0.934253

>  <SCORE.INTRA.POLAR.0>
-0.381556

>  <SCORE.INTRA.REPUL>
0

>  <SCORE.INTRA.REPUL.0>
0

>  <SCORE.INTRA.SOLV>
-1.4215

>  <SCORE.INTRA.SOLV.lig_0>
-134.592

>  <SCORE.INTRA.VDW>
-1.3318

>  <SCORE.INTRA.VDW.0>
-1.01417

>  <SCORE.INTRA.norm>
-0.547187

>  <SCORE.RESTR>
0

>  <SCORE.RESTR.CAVITY>
0

>  <SCORE.RESTR.norm>
0

>  <SCORE.SYSTEM>
0

>  <SCORE.SYSTEM.CONST>
0

>  <SCORE.SYSTEM.DIHEDRAL>
0

>  <SCORE.SYSTEM.SOLV>
0

>  <SCORE.SYSTEM.norm>
0

>  <SCORE.heavy>
32

>  <SCORE.norm>
-2.09109

>  <RMSD>
8.401

$$$$
1lc4
 OpenBabel02141814113D
libRbt.so/2013.1/901 2013/11/27
 32 34  0  0  0  0  0  0  0  0999 V2000
  -13.8569    8.6419   18.4725 C   0  0  2  0  0  0  0  0  0  0  0  0
  -12.5627    8.2499   18.0885 O   0  0  0  0  0  0  0  0  0  0  0  0
  -14.1275   10.0430   17.8870 C   0  0  2  0  0  0  0  0  0  0  0  0
  -13.9911   10.0207   16.4274 N   0  3  0  0  0  0  0  0  0  0  0  0
  -13.1749   11.0801   18.5269 C   0  0  0  0  0  0  0  0  0  0  0  0
  -13.4189   11.0574   20.0460 C   0  0  2  0  0  0  0  0  0  0  0  0
  -12.5993   12.0334   20.6979 O   0  0  0  0  0  0  0  0  0  0  0  0
  -13.1370    9.6339   20.5880 C   0  0  2  0  0  0  0  0  0  0  0  0
  -13.9797    8.6578   19.9118 O   0  0  0  0  0  0  0  0  0  0  0  0
  -13.4021    9.4886   22.0844 C   0  0  0  0  0  0  0  0  0  0  0  0
  -14.7589    9.9803   22.4409 N   0  3  0  0  0  0  0  0  0  0  0  0
  -11.6428    4.9403   20.5705 C   0  0  2  0  0  0  0  0  0  0  0  0
  -11.2144    3.6122   21.0464 N   0  3  0  0  0  0  0  0  0  0  0  0
  -12.8249    4.7935   19.6221 C   0  0  0  0  0  0  0  0  0  0  0  0
  -13.2776    6.1680   19.1171 C   0  0  2  0  0  0  0  0  0  0  0  0
  -14.4996    5.9862   18.2948 N   0  3  0  0  0  0  0  0  0  0  0  0
  -12.1199    6.9103   18.3849 C   0  0  2  0  0  0  0  0  0  0  0  0
  -10.8931    7.0101   19.3276 C   0  0  2  0  0  0  0  0  0  0  0  0
   -9.7971    7.5305   18.6149 O   0  0  0  0  0  0  0  0  0  0  0  0
  -10.4844    5.6209   19.8438 C   0  0  1  0  0  0  0  0  0  0  0  0
   -9.3754    5.7657   20.7303 O   0  0  0  0  0  0  0  0  0  0  0  0
   -9.5285    6.6311   21.8021 C   0  0  2  0  0  0  0  0  0  0  0  0
   -8.2902    7.5398   21.8869 C   0  0  2  0  0  0  0  0  0  0  0  0
   -8.1760    8.2668   20.6702 O   0  0  0  0  0  0  0  0  0  0  0  0
   -7.0354    6.6764   22.1053 C   0  0  1  0  0  0  0  0  0  0  0  0
   -5.7966    7.5038   22.1744 N   0  3  0  0  0  0  0  0  0  0  0  0
   -7.2077    5.8434   23.3989 C   0  0  2  0  0  0  0  0  0  0  0  0
   -6.0690    5.0129   23.6142 O   0  0  0  0  0  0  0  0  0  0  0  0
   -8.4900    4.9945   23.3181 C   0  0  2  0  0  0  0  0  0  0  0  0
   -9.6544    5.8465   23.0165 O   0  0  0  0  0  0  0  0  0  0  0  0
   -8.7858    4.2826   24.6195 C   0  0  0  0  0  0  0  0  0  0  0  0
   -8.8374    5.1921   25.7165 O   0  0  0  0  0  0  0  0  0  0  0  0
  1  2  1  1  0  0  0
  1  3  1  0  0  0  0
  1  9  1  0  0  0  0
  3  4  1  6  0  0  0
  3  5  1  0  0  0  0
  5  6  1  0  0  0  0
  6  7  1  1  0  0  0
  6  8  1  0  0  0  0
  8  9  1  0  0  0  0
  8 10  1  1  0  0  0
 10 11  1  0  0  0  0
 12 13  1  6  0  0  0
 12 14  1  0  0  0  0
 12 20  1  0  0  0  0
 14 15  1  0  0  0  0
 15 16  1  6  0  0  0
 15 17  1  0  0  0  0
 17  2  1  1  0  0  0
 17 18  1  0  0  0  0
 18 19  1  6  0  0  0
 18 20  1  0  0  0  0
 20 21  1  1  0  0  0
 22 21  1  6  0  0  0
 22 23  1  0  0  0  0
 22 30  1  0  0  0  0
 23 24  1  6  0  0  0
 23 25  1  0  0  0  0
 25 26  1  1  0  0  0
 25 27  1  0  0  0  0
 27 28  1  6  0  0  0
 27 29  1  0  0  0  0
 29 30  1  0  0  0  0
 29 31  1  1  0  0  0
 31 32  1  0  0  0  0
M  CHG  5   4   1  11   1  13   1  16   1  26   1
M  END
>  <CHROM.1>
-173.17780513,-0.03602653,-47.37882786,-61.92518493,51.63296075,171.86674154
-168.36577982,22.80165538,64.97654357,-66.86244536,-132.82505030,76.52890934
-110.52285291,84.18780237,54.41267581,-174.11722374,-11.01054343,7.35662253
20.73802456,2.73040663,-0.67265639,0.11910683

>  <Name>
1lc4

>  <RI>
0

>  <Rbt.Current_Directory>
/home/afrankz/demos/rdock_decoys_rna/rnas/1lc4

>  <Rbt.Executable>
rbdock ($Id: //depot/dev/client3/rdock/2013.1/src/exe/rbdock.cxx#4 $)

>  <Rbt.Library>
libRbt.so (2013.1, Build901 2013/11/27)

>  <Rbt.Parameter_File>
/export/apps/rDock/src/rDock_2013.1_src/data/scripts/dock_solv.prm

>  <Rbt.Receptor>
prm/blind_docking_60.prm

>  <SCORE>
-20.9106

>  <SCORE.INTER>
-17.693

>  <SCORE.INTER.CONST>
1

>  <SCORE.INTER.POLAR>
-3.78433

>  <SCORE.INTER.ROT>
6

>  <SCORE.INTER.SOLV>
25.6684

>  <SCORE.INTER.VDW>
-15.337

>  <SCORE.INTER.norm>
-0.552905

>  <SCORE.INTRA>
-5.63897

>  <SCORE.INTRA.DIHEDRAL>
-18.9985

>  <SCORE.INTRA.DIHEDRAL.0>
44.2576

>  <SCORE.INTRA.POLAR>
0.342787

>  <SCORE.INTRA.POLAR.0>
-0.381556

>  <SCORE.INTRA.REPUL>
0

>  <SCORE.INTRA.REPUL.0>
0

>  <SCORE.INTRA.SOLV>
-0.306594

>  <SCORE.INTRA.SOLV.lig_0>
-134.592

>  <SCORE.INTRA.VDW>
2.84811

>  <SCORE.INTRA.VDW.0>
-1.01417

>  <SCORE.INTRA.norm>
-0.176218

>  <SCORE.RESTR>
2.42128

>  <SCORE.RESTR.CAVITY>
2.42128

>  <SCORE.RESTR.norm>
0.0756651

>  <SCORE.SYSTEM>
0

>  <SCORE.SYSTEM.CONST>
0

>  <SCORE.SYSTEM.DIHEDRAL>
0

>  <SCORE.SYSTEM.SOLV>
0

>  <SCORE.SYSTEM.norm>
0

>  <SCORE.heavy>
32

>  <SCORE.norm>
-0.653458

>  <RMSD>
8.409

$$$$
1lc4
 OpenBabel02141814113D
libRbt.so/2013.1/901 2013/11/27
 32 34  0  0  0  0  0  0  0  0999 V2000
  -15.1197    7.6756   14.0281 C   0  0  2  0  0  0  0  0  0  0  0  0
  -14.6818    8.3255   12.8611 O   0  0  0  0  0  0  0  0  0  0  0  0
  -16.6538    7.8140   14.1076 C   0  0  2  0  0  0  0  0  0  0  0  0
  -17.2802    7.2390   12.9133 N   0  3  0  0  0  0  0  0  0  0  0  0
  -17.0452    9.2993   14.2903 C   0  0  0  0  0  0  0  0  0  0  0  0
  -16.3757    9.7989   15.5825 C   0  0  2  0  0  0  0  0  0  0  0  0
  -16.7376   11.1601   15.8382 O   0  0  0  0  0  0  0  0  0  0  0  0
  -14.8400    9.6393   15.4575 C   0  0  2  0  0  0  0  0  0  0  0  0
  -14.4942    8.2491   15.1972 O   0  0  0  0  0  0  0  0  0  0  0  0
  -14.0800   10.0583   16.7135 C   0  0  0  0  0  0  0  0  0  0  0  0
  -12.6785    9.5639   16.6846 N   0  3  0  0  0  0  0  0  0  0  0  0
  -11.9455    5.4325   11.4109 C   0  0  2  0  0  0  0  0  0  0  0  0
  -10.7770    4.7883   10.7836 N   0  3  0  0  0  0  0  0  0  0  0  0
  -12.6950    6.2629   10.3779 C   0  0  0  0  0  0  0  0  0  0  0  0
  -13.9107    6.9413   11.0191 C   0  0  2  0  0  0  0  0  0  0  0  0
  -14.6737    7.6394    9.9546 N   0  3  0  0  0  0  0  0  0  0  0  0
  -13.4860    7.8574   12.2056 C   0  0  2  0  0  0  0  0  0  0  0  0
  -12.6719    7.0284   13.2320 C   0  0  2  0  0  0  0  0  0  0  0  0
  -12.1496    7.8868   14.2171 O   0  0  0  0  0  0  0  0  0  0  0  0
  -11.4803    6.3337   12.5531 C   0  0  1  0  0  0  0  0  0  0  0  0
  -10.7816    5.5588   13.5268 O   0  0  0  0  0  0  0  0  0  0  0  0
   -9.6158    6.0972   14.0488 C   0  0  2  0  0  0  0  0  0  0  0  0
   -8.4122    5.3511   13.4479 C   0  0  2  0  0  0  0  0  0  0  0  0
   -8.4434    5.5026   12.0343 O   0  0  0  0  0  0  0  0  0  0  0  0
   -8.4958    3.8605   13.8205 C   0  0  1  0  0  0  0  0  0  0  0  0
   -7.3627    3.0796   13.2457 N   0  3  0  0  0  0  0  0  0  0  0  0
   -8.5278    3.7207   15.3621 C   0  0  2  0  0  0  0  0  0  0  0  0
   -8.6307    2.3492   15.7377 O   0  0  0  0  0  0  0  0  0  0  0  0
   -9.6997    4.5318   15.9455 C   0  0  2  0  0  0  0  0  0  0  0  0
   -9.6346    5.9322   15.4905 O   0  0  0  0  0  0  0  0  0  0  0  0
   -9.6805    4.5548   17.4578 C   0  0  0  0  0  0  0  0  0  0  0  0
  -10.0085    5.8452   17.9683 O   0  0  0  0  0  0  0  0  0  0  0  0
  1  2  1  6  0  0  0
  1  3  1  0  0  0  0
  1  9  1  0  0  0  0
  3  4  1  6  0  0  0
  3  5  1  0  0  0  0
  5  6  1  0  0  0  0
  6  7  1  6  0  0  0
  6  8  1  0  0  0  0
  8  9  1  0  0  0  0
  8 10  1  1  0  0  0
 10 11  1  0  0  0  0
 12 13  1  6  0  0  0
 12 14  1  0  0  0  0
 12 20  1  0  0  0  0
 14 15  1  0  0  0  0
 15 16  1  6  0  0  0
 15 17  1  0  0  0  0
 17  2  1  1  0  0  0
 17 18  1  0  0  0  0
 18 19  1  1  0  0  0
 18 20  1  0  0  0  0
 20 21  1  1  0  0  0
 22 21  1  6  0  0  0
 22 23  1  0  0  0  0
 22 30  1  0  0  0  0
 23 24  1  6  0  0  0
 23 25  1  0  0  0  0
 25 26  1  1  0  0  0
 25 27  1  0  0  0  0
 27 28  1  6  0  0  0
 27 29  1  0  0  0  0
 29 30  1  0  0  0  0
 29 31  1  1  0  0  0
 31 32  1  0  0  0  0
M  CHG  5   4   1  11   1  13   1  16   1  26   1
M  END
>  <CHROM.1>
-150.97567080,98.60988088,165.86223506,-52.47014380,165.13251063,52.00784622
-52.31549612,-163.82720136,70.74146994,136.99739700,-106.01510842,-179.93144226
-179.64474630,79.33304590,138.84177465,67.75739746,-12.25738665,6.72334115
13.98669015,2.99496748,-0.58877960,1.30095719

>  <Name>
1lc4

>  <RI>
0

>  <Rbt.Current_Directory>
/home/afrankz/demos/rdock_decoys_rna/rnas/1lc4

>  <Rbt.Executable>
rbdock ($Id: //depot/dev/client3/rdock/2013.1/src/exe/rbdock.cxx#4 $)

>  <Rbt.Library>
libRbt.so (2013.1, Build901 2013/11/27)

>  <Rbt.Parameter_File>
/export/apps/rDock/src/rDock_2013.1_src/data/scripts/dock_solv.prm

>  <Rbt.Receptor>
prm/blind_docking_80.prm

>  <SCORE>
-27.2086

>  <SCORE.INTER>
-25.8249

>  <SCORE.INTER.CONST>
1

>  <SCORE.INTER.POLAR>
-5.35831

>  <SCORE.INTER.ROT>
6

>  <SCORE.INTER.SOLV>
33.5038

>  <SCORE.INTER.VDW>
-18.1235

>  <SCORE.INTER.norm>
-0.807029

>  <SCORE.INTRA>
-7.60275

>  <SCORE.INTRA.DIHEDRAL>
-14.446

>  <SCORE.INTRA.DIHEDRAL.0>
44.2576

>  <SCORE.INTRA.POLAR>
-0.655327

>  <SCORE.INTRA.POLAR.0>
-0.381556

>  <SCORE.INTRA.REPUL>
0.0399282

>  <SCORE.INTRA.REPUL.0>
0

>  <SCORE.INTRA.SOLV>
3.1395

>  <SCORE.INTRA.SOLV.lig_0>
-134.592

>  <SCORE.INTRA.VDW>
0.0789761

>  <SCORE.INTRA.VDW.0>
-1.01417

>  <SCORE.INTRA.norm>
-0.237586

>  <SCORE.RESTR>
6.21907

>  <SCORE.RESTR.CAVITY>
6.21907

>  <SCORE.RESTR.norm>
0.194346

>  <SCORE.SYSTEM>
0

>  <SCORE.SYSTEM.CONST>
0

>  <SCORE.SYSTEM.DIHEDRAL>
0

>  <SCORE.SYSTEM.SOLV>
0

>  <SCORE.SYSTEM.norm>
0

>  <SCORE.heavy>
32

>  <SCORE.norm>
-0.850269

>  <RMSD>
8.413

$$$$
1lc4
 OpenBabel02141814113D
libRbt.so/2013.1/901 2013/11/27
 32 34  0  0  0  0  0  0  0  0999 V2000
  -19.1926    4.6352   16.5775 C   0  0  2  0  0  0  0  0  0  0  0  0
  -18.0543    5.4362   16.7745 O   0  0  0  0  0  0  0  0  0  0  0  0
  -20.0958    4.7708   17.8204 C   0  0  2  0  0  0  0  0  0  0  0  0
  -20.4647    6.1740   18.0319 N   0  3  0  0  0  0  0  0  0  0  0  0
  -19.3853    4.1811   19.0613 C   0  0  0  0  0  0  0  0  0  0  0  0
  -19.0759    2.7043   18.7594 C   0  0  2  0  0  0  0  0  0  0  0  0
  -18.4580    2.0823   19.8910 O   0  0  0  0  0  0  0  0  0  0  0  0
  -18.1701    2.6177   17.5057 C   0  0  2  0  0  0  0  0  0  0  0  0
  -18.8165    3.2562   16.3680 O   0  0  0  0  0  0  0  0  0  0  0  0
  -17.8461    1.1859   17.0865 C   0  0  0  0  0  0  0  0  0  0  0  0
  -19.0627    0.4756   16.6121 N   0  3  0  0  0  0  0  0  0  0  0  0
  -16.6835    9.3543   15.9204 C   0  0  2  0  0  0  0  0  0  0  0  0
  -16.6236   10.8142   15.7227 N   0  3  0  0  0  0  0  0  0  0  0  0
  -17.6916    8.7427   14.9570 C   0  0  0  0  0  0  0  0  0  0  0  0
  -17.7659    7.2247   15.1553 C   0  0  2  0  0  0  0  0  0  0  0  0
  -18.6674    6.6602   14.1203 N   0  3  0  0  0  0  0  0  0  0  0  0
  -18.1676    6.8649   16.6170 C   0  0  2  0  0  0  0  0  0  0  0  0
  -17.1771    7.5344   17.6041 C   0  0  2  0  0  0  0  0  0  0  0  0
  -17.6328    7.3475   18.9222 O   0  0  0  0  0  0  0  0  0  0  0  0
  -17.0992    9.0500   17.3583 C   0  0  1  0  0  0  0  0  0  0  0  0
  -16.1543    9.6168   18.2653 O   0  0  0  0  0  0  0  0  0  0  0  0
  -16.5873    9.8680   19.5579 C   0  0  2  0  0  0  0  0  0  0  0  0
  -15.9663   11.1898   20.0411 C   0  0  2  0  0  0  0  0  0  0  0  0
  -16.3773   12.2318   19.1651 O   0  0  0  0  0  0  0  0  0  0  0  0
  -14.4324   11.0681   20.0329 C   0  0  1  0  0  0  0  0  0  0  0  0
  -13.7723   12.3309   20.4731 N   0  3  0  0  0  0  0  0  0  0  0  0
  -14.0093    9.8868   20.9397 C   0  0  2  0  0  0  0  0  0  0  0  0
  -12.5918    9.7333   20.9320 O   0  0  0  0  0  0  0  0  0  0  0  0
  -14.6973    8.5887   20.4779 C   0  0  2  0  0  0  0  0  0  0  0  0
  -16.1579    8.7751   20.4107 O   0  0  0  0  0  0  0  0  0  0  0  0
  -14.4396    7.4382   21.4255 C   0  0  0  0  0  0  0  0  0  0  0  0
  -13.2786    6.6993   21.0520 O   0  0  0  0  0  0  0  0  0  0  0  0
  1  2  1  1  0  0  0
  1  3  1  0  0  0  0
  1  9  1  0  0  0  0
  3  4  1  1  0  0  0
  3  5  1  0  0  0  0
  5  6  1  0  0  0  0
  6  7  1  1  0  0  0
  6  8  1  0  0  0  0
  8  9  1  0  0  0  0
  8 10  1  6  0  0  0
 10 11  1  0  0  0  0
 12 13  1  1  0  0  0
 12 14  1  0  0  0  0
 12 20  1  0  0  0  0
 14 15  1  0  0  0  0
 15 16  1  6  0  0  0
 15 17  1  0  0  0  0
 17  2  1  6  0  0  0
 17 18  1  0  0  0  0
 18 19  1  1  0  0  0
 18 20  1  0  0  0  0
 20 21  1  1  0  0  0
 22 21  1  6  0  0  0
 22 23  1  0  0  0  0
 22 30  1  0  0  0  0
 23 24  1  6  0  0  0
 23 25  1  0  0  0  0
 25 26  1  1  0  0  0
 25 27  1  0  0  0  0
 27 28  1  6  0  0  0
 27 29  1  0  0  0  0
 29 30  1  0  0  0  0
 29 31  1  1  0  0  0
 31 32  1  0  0  0  0
M  CHG  5   4   1  11   1  13   1  16   1  26   1
M  END
>  <CHROM.1>
-76.33403135,-93.99439290,-71.47261926,-57.88030149,66.71009366,60.18671365
-52.08973380,152.25726233,165.90188610,157.28789607,-141.71071017,65.82398482
-51.11215743,84.47259049,-90.82790872,178.25341995,-17.00113123,7.14985312
18.25520344,2.45523023,0.92534243,2.70692950

>  <Name>
1lc4

>  <RI>
0

>  <Rbt.Current_Directory>
/home/afrankz/demos/rdock_decoys_rna/rnas/1lc4

>  <Rbt.Executable>
rbdock ($Id: //depot/dev/client3/rdock/2013.1/src/exe/rbdock.cxx#4 $)

>  <Rbt.Library>
libRbt.so (2013.1, Build901 2013/11/27)

>  <Rbt.Parameter_File>
/export/apps/rDock/src/rDock_2013.1_src/data/scripts/dock_solv.prm

>  <Rbt.Receptor>
prm/pocket_docking_8.prm

>  <SCORE>
-35.8802

>  <SCORE.INTER>
-19.06

>  <SCORE.INTER.CONST>
1

>  <SCORE.INTER.POLAR>
-4.21596

>  <SCORE.INTER.ROT>
6

>  <SCORE.INTER.SOLV>
18.0976

>  <SCORE.INTER.VDW>
-12.286

>  <SCORE.INTER.norm>
-0.595626

>  <SCORE.INTRA>
-16.8202

>  <SCORE.INTRA.DIHEDRAL>
-22.379

>  <SCORE.INTRA.DIHEDRAL.0>
44.2576

>  <SCORE.INTRA.POLAR>
-1.44098

>  <SCORE.INTRA.POLAR.0>
-0.381556

>  <SCORE.INTRA.REPUL>
0

>  <SCORE.INTRA.REPUL.0>
0

>  <SCORE.INTRA.SOLV>
1.17336

>  <SCORE.INTRA.SOLV.lig_0>
-134.592

>  <SCORE.INTRA.VDW>
-1.318

>  <SCORE.INTRA.VDW.0>
-1.01417

>  <SCORE.INTRA.norm>
-0.52563

>  <SCORE.RESTR>
0

>  <SCORE.RESTR.CAVITY>
0

>  <SCORE.RESTR.norm>
0

>  <SCORE.SYSTEM>
0

>  <SCORE.SYSTEM.CONST>
0

>  <SCORE.SYSTEM.DIHEDRAL>
0

>  <SCORE.SYSTEM.SOLV>
0

>  <SCORE.SYSTEM.norm>
0

>  <SCORE.heavy>
32

>  <SCORE.norm>
-1.12126

>  <RMSD>
8.415

$$$$
1lc4
 OpenBabel02141814113D
libRbt.so/2013.1/901 2013/11/27
 32 34  0  0  0  0  0  0  0  0999 V2000
  -17.4889    8.4776   14.5411 C   0  0  2  0  0  0  0  0  0  0  0  0
  -17.3961    7.7354   15.7313 O   0  0  0  0  0  0  0  0  0  0  0  0
  -17.7704    7.4967   13.3846 C   0  0  2  0  0  0  0  0  0  0  0  0
  -19.0046    6.7477   13.6404 N   0  3  0  0  0  0  0  0  0  0  0  0
  -16.5652    6.5476   13.1867 C   0  0  0  0  0  0  0  0  0  0  0  0
  -15.3336    7.4198   12.8865 C   0  0  2  0  0  0  0  0  0  0  0  0
  -14.1870    6.5978   12.6440 O   0  0  0  0  0  0  0  0  0  0  0  0
  -15.0912    8.3875   14.0715 C   0  0  2  0  0  0  0  0  0  0  0  0
  -16.2686    9.2128   14.3013 O   0  0  0  0  0  0  0  0  0  0  0  0
  -13.9182    9.3392   13.8503 C   0  0  0  0  0  0  0  0  0  0  0  0
  -14.0286   10.5405   14.7189 N   0  3  0  0  0  0  0  0  0  0  0  0
  -17.7905    8.6919   19.8410 C   0  0  2  0  0  0  0  0  0  0  0  0
  -17.6003    9.3002   21.1706 N   0  3  0  0  0  0  0  0  0  0  0  0
  -16.5144    7.9820   19.4096 C   0  0  0  0  0  0  0  0  0  0  0  0
  -16.6983    7.3481   18.0263 C   0  0  2  0  0  0  0  0  0  0  0  0
  -15.4766    6.5708   17.7006 N   0  3  0  0  0  0  0  0  0  0  0  0
  -17.0767    8.4191   16.9599 C   0  0  2  0  0  0  0  0  0  0  0  0
  -18.3427    9.1845   17.4238 C   0  0  2  0  0  0  0  0  0  0  0  0
  -18.5883   10.2569   16.5465 O   0  0  0  0  0  0  0  0  0  0  0  0
  -18.1399    9.7792   18.8268 C   0  0  1  0  0  0  0  0  0  0  0  0
  -19.3385   10.4443   19.2240 O   0  0  0  0  0  0  0  0  0  0  0  0
  -19.2025   11.6313   19.9268 C   0  0  2  0  0  0  0  0  0  0  0  0
  -20.5125   12.4293   19.8109 C   0  0  2  0  0  0  0  0  0  0  0  0
  -21.5702   11.6472   20.3510 O   0  0  0  0  0  0  0  0  0  0  0  0
  -20.7916   12.7434   18.3307 C   0  0  1  0  0  0  0  0  0  0  0  0
  -22.0645   13.4999   18.1534 N   0  3  0  0  0  0  0  0  0  0  0  0
  -19.5991   13.5374   17.7437 C   0  0  2  0  0  0  0  0  0  0  0  0
  -19.8183   13.8214   16.3638 O   0  0  0  0  0  0  0  0  0  0  0  0
  -18.2901   12.7486   17.9333 C   0  0  2  0  0  0  0  0  0  0  0  0
  -18.1062   12.3876   19.3505 O   0  0  0  0  0  0  0  0  0  0  0  0
  -17.0761   13.5498   17.5180 C   0  0  0  0  0  0  0  0  0  0  0  0
  -16.9063   14.7077   18.3327 O   0  0  0  0  0  0  0  0  0  0  0  0
  1  2  1  1  0  0  0
  1  3  1  0  0  0  0
  1  9  1  0  0  0  0
  3  4  1  1  0  0  0
  3  5  1  0  0  0  0
  5  6  1  0  0  0  0
  6  7  1  1  0  0  0
  6  8  1  0  0  0  0
  8  9  1  0  0  0  0
  8 10  1  6  0  0  0
 10 11  1  0  0  0  0
 12 13  1  1  0  0  0
 12 14  1  0  0  0  0
 12 20  1  0  0  0  0
 14 15  1  0  0  0  0
 15 16  1  6  0  0  0
 15 17  1  0  0  0  0
 17  2  1  6  0  0  0
 17 18  1  0  0  0  0
 18 19  1  6  0  0  0
 18 20  1  0  0  0  0
 20 21  1  1  0  0  0
 22 21  1  6  0  0  0
 22 23  1  0  0  0  0
 22 30  1  0  0  0  0
 23 24  1  6  0  0  0
 23 25  1  0  0  0  0
 25 26  1  1  0  0  0
 25 27  1  0  0  0  0
 27 28  1  6  0  0  0
 27 29  1  0  0  0  0
 29 30  1  0  0  0  0
 29 31  1  1  0  0  0
 31 32  1  0  0  0  0
M  CHG  5   4   1  11   1  13   1  16   1  26   1
M  END
>  <CHROM.1>
177.28999108,-166.38597189,-62.77562692,-64.15760054,158.59493222,66.29718560
-54.88096589,-62.51085343,-179.53805411,96.54453507,159.51933557,-61.02605843
-146.23439057,51.76819838,63.55613653,-59.62192857,-17.71786385,10.00344967
16.93805040,-0.03969424,1.05587036,-0.74725479

>  <Name>
1lc4

>  <RI>
0

>  <Rbt.Current_Directory>
/home/afrankz/demos/rdock_decoys_rna/rnas/1lc4

>  <Rbt.Executable>
rbdock ($Id: //depot/dev/client3/rdock/2013.1/src/exe/rbdock.cxx#4 $)

>  <Rbt.Library>
libRbt.so (2013.1, Build901 2013/11/27)

>  <Rbt.Parameter_File>
/export/apps/rDock/src/rDock_2013.1_src/data/scripts/dock_solv.prm

>  <Rbt.Receptor>
prm/pocket_docking_8.prm

>  <SCORE>
-49.6659

>  <SCORE.INTER>
-30.6436

>  <SCORE.INTER.CONST>
1

>  <SCORE.INTER.POLAR>
-5.70559

>  <SCORE.INTER.ROT>
6

>  <SCORE.INTER.SOLV>
21.0731

>  <SCORE.INTER.VDW>
-16.0348

>  <SCORE.INTER.norm>
-0.957612

>  <SCORE.INTRA>
-19.1907

>  <SCORE.INTRA.DIHEDRAL>
-32.2714

>  <SCORE.INTRA.DIHEDRAL.0>
44.2576

>  <SCORE.INTRA.POLAR>
0.338453

>  <SCORE.INTRA.POLAR.0>
-0.381556

>  <SCORE.INTRA.REPUL>
0

>  <SCORE.INTRA.REPUL.0>
0

>  <SCORE.INTRA.SOLV>
-3.22906

>  <SCORE.INTRA.SOLV.lig_0>
-134.592

>  <SCORE.INTRA.VDW>
-2.59125

>  <SCORE.INTRA.VDW.0>
-1.01417

>  <SCORE.INTRA.norm>
-0.599711

>  <SCORE.RESTR>
0.168364

>  <SCORE.RESTR.CAVITY>
0.168364

>  <SCORE.RESTR.norm>
0.00526137

>  <SCORE.SYSTEM>
0

>  <SCORE.SYSTEM.CONST>
0

>  <SCORE.SYSTEM.DIHEDRAL>
0

>  <SCORE.SYSTEM.SOLV>
0

>  <SCORE.SYSTEM.norm>
0

>  <SCORE.heavy>
32

>  <SCORE.norm>
-1.55206

>  <RMSD>
8.415

$$$$
1lc4
 OpenBabel02141814113D
libRbt.so/2013.1/901 2013/11/27
 32 34  0  0  0  0  0  0  0  0999 V2000
  -12.0156    4.5140   12.1465 C   0  0  2  0  0  0  0  0  0  0  0  0
  -12.4128    5.8334   11.8681 O   0  0  0  0  0  0  0  0  0  0  0  0
  -10.6035    4.3045   11.5625 C   0  0  2  0  0  0  0  0  0  0  0  0
   -9.6652    5.2735   12.1373 N   0  3  0  0  0  0  0  0  0  0  0  0
  -10.6452    4.4066   10.0197 C   0  0  0  0  0  0  0  0  0  0  0  0
  -11.6207    3.3309    9.5108 C   0  0  2  0  0  0  0  0  0  0  0  0
  -11.6702    3.3384    8.0802 O   0  0  0  0  0  0  0  0  0  0  0  0
  -13.0216    3.5801   10.1232 C   0  0  2  0  0  0  0  0  0  0  0  0
  -12.9485    3.5690   11.5774 O   0  0  0  0  0  0  0  0  0  0  0  0
  -14.0565    2.5317    9.7226 C   0  0  0  0  0  0  0  0  0  0  0  0
  -15.4349    3.0843    9.7865 N   0  3  0  0  0  0  0  0  0  0  0  0
  -14.3828    8.9002   14.0298 C   0  0  2  0  0  0  0  0  0  0  0  0
  -15.3682    9.6497   14.8305 N   0  3  0  0  0  0  0  0  0  0  0  0
  -15.0124    8.4584   12.7158 C   0  0  0  0  0  0  0  0  0  0  0  0
  -13.9984    7.6744   11.8754 C   0  0  2  0  0  0  0  0  0  0  0  0
  -14.6156    7.3687   10.5608 N   0  3  0  0  0  0  0  0  0  0  0  0
  -13.4767    6.4225   12.6424 C   0  0  2  0  0  0  0  0  0  0  0  0
  -12.8875    6.8621   14.0074 C   0  0  2  0  0  0  0  0  0  0  0  0
  -12.5681    5.7218   14.7676 O   0  0  0  0  0  0  0  0  0  0  0  0
  -13.9154    7.6742   14.8118 C   0  0  1  0  0  0  0  0  0  0  0  0
  -13.3195    8.0835   16.0423 O   0  0  0  0  0  0  0  0  0  0  0  0
  -13.9249    7.6560   17.2137 C   0  0  2  0  0  0  0  0  0  0  0  0
  -13.9354    8.8193   18.2200 C   0  0  2  0  0  0  0  0  0  0  0  0
  -14.6570    9.9050   17.6520 O   0  0  0  0  0  0  0  0  0  0  0  0
  -12.4888    9.2482   18.5220 C   0  0  1  0  0  0  0  0  0  0  0  0
  -12.4360   10.3908   19.4789 N   0  3  0  0  0  0  0  0  0  0  0  0
  -11.7022    8.0355   19.0769 C   0  0  2  0  0  0  0  0  0  0  0  0
  -10.3488    8.3967   19.3427 O   0  0  0  0  0  0  0  0  0  0  0  0
  -11.7643    6.8612   18.0825 C   0  0  2  0  0  0  0  0  0  0  0  0
  -13.1639    6.5419   17.7483 O   0  0  0  0  0  0  0  0  0  0  0  0
  -11.1443    5.6023   18.6471 C   0  0  0  0  0  0  0  0  0  0  0  0
   -9.7512    5.7705   18.9011 O   0  0  0  0  0  0  0  0  0  0  0  0
  1  2  1  6  0  0  0
  1  3  1  0  0  0  0
  1  9  1  0  0  0  0
  3  4  1  1  0  0  0
  3  5  1  0  0  0  0
  5  6  1  0  0  0  0
  6  7  1  6  0  0  0
  6  8  1  0  0  0  0
  8  9  1  0  0  0  0
  8 10  1  1  0  0  0
 10 11  1  0  0  0  0
 12 13  1  1  0  0  0
 12 14  1  0  0  0  0
 12 20  1  0  0  0  0
 14 15  1  0  0  0  0
 15 16  1  6  0  0  0
 15 17  1  0  0  0  0
 17  2  1  6  0  0  0
 17 18  1  0  0  0  0
 18 19  1  1  0  0  0
 18 20  1  0  0  0  0
 20 21  1  1  0  0  0
 22 21  1  6  0  0  0
 22 23  1  0  0  0  0
 22 30  1  0  0  0  0
 23 24  1  6  0  0  0
 23 25  1  0  0  0  0
 25 26  1  1  0  0  0
 25 27  1  0  0  0  0
 27 28  1  6  0  0  0
 27 29  1  0  0  0  0
 29 30  1  0  0  0  0
 29 31  1  1  0  0  0
 31 32  1  0  0  0  0
M  CHG  5   4   1  11   1  13   1  16   1  26   1
M  END
>  <CHROM.1>
-160.55228116,-163.16221917,63.74704570,62.80501422,-154.41360927,-67.59896607
-56.57195113,-49.58974572,71.00317451,117.89439767,-138.51969874,78.07520353
-49.88474279,48.65222787,-63.55594996,-179.09713541,-12.77372281,6.50742815
14.25821454,-1.60059110,-0.67276855,1.06904625

>  <Name>
1lc4

>  <RI>
0

>  <Rbt.Current_Directory>
/home/afrankz/demos/rdock_decoys_rna/rnas/1lc4

>  <Rbt.Executable>
rbdock ($Id: //depot/dev/client3/rdock/2013.1/src/exe/rbdock.cxx#4 $)

>  <Rbt.Library>
libRbt.so (2013.1, Build901 2013/11/27)

>  <Rbt.Parameter_File>
/export/apps/rDock/src/rDock_2013.1_src/data/scripts/dock_solv.prm

>  <Rbt.Receptor>
prm/pocket_docking_7.prm

>  <SCORE>
-51.9403

>  <SCORE.INTER>
-34.0358

>  <SCORE.INTER.CONST>
1

>  <SCORE.INTER.POLAR>
-5.3925

>  <SCORE.INTER.ROT>
6

>  <SCORE.INTER.SOLV>
22.9059

>  <SCORE.INTER.VDW>
-19.9508

>  <SCORE.INTER.norm>
-1.06362

>  <SCORE.INTRA>
-17.9045

>  <SCORE.INTRA.DIHEDRAL>
-22.8084

>  <SCORE.INTRA.DIHEDRAL.0>
44.2576

>  <SCORE.INTRA.POLAR>
-0.700058

>  <SCORE.INTRA.POLAR.0>
-0.381556

>  <SCORE.INTRA.REPUL>
0.0105967

>  <SCORE.INTRA.REPUL.0>
0

>  <SCORE.INTRA.SOLV>
-1.39831

>  <SCORE.INTRA.SOLV.lig_0>
-134.592

>  <SCORE.INTRA.VDW>
-3.47394

>  <SCORE.INTRA.VDW.0>
-1.01417

>  <SCORE.INTRA.norm>
-0.559516

>  <SCORE.RESTR>
0

>  <SCORE.RESTR.CAVITY>
0

>  <SCORE.RESTR.norm>
0

>  <SCORE.SYSTEM>
0

>  <SCORE.SYSTEM.CONST>
0

>  <SCORE.SYSTEM.DIHEDRAL>
0

>  <SCORE.SYSTEM.SOLV>
0

>  <SCORE.SYSTEM.norm>
0

>  <SCORE.heavy>
32

>  <SCORE.norm>
-1.62314

>  <RMSD>
8.420

$$$$
1lc4
 OpenBabel02141814113D
libRbt.so/2013.1/901 2013/11/27
 32 34  0  0  0  0  0  0  0  0999 V2000
  -12.9905    7.5597   14.7091 C   0  0  2  0  0  0  0  0  0  0  0  0
  -13.6569    6.5686   15.4505 O   0  0  0  0  0  0  0  0  0  0  0  0
  -14.0483    8.5316   14.1476 C   0  0  2  0  0  0  0  0  0  0  0  0
  -14.8296    9.1211   15.2392 N   0  3  0  0  0  0  0  0  0  0  0  0
  -14.9586    7.7994   13.1338 C   0  0  0  0  0  0  0  0  0  0  0  0
  -14.0573    7.2529   12.0128 C   0  0  2  0  0  0  0  0  0  0  0  0
  -14.8458    6.6020   11.0109 O   0  0  0  0  0  0  0  0  0  0  0  0
  -13.0124    6.2855   12.6226 C   0  0  2  0  0  0  0  0  0  0  0  0
  -12.2227    6.9669   13.6385 O   0  0  0  0  0  0  0  0  0  0  0  0
  -12.0294    5.7260   11.5973 C   0  0  0  0  0  0  0  0  0  0  0  0
  -11.0256    6.7480   11.2005 N   0  3  0  0  0  0  0  0  0  0  0  0
  -12.2765    3.8456   18.3899 C   0  0  2  0  0  0  0  0  0  0  0  0
  -11.5733    2.7413   19.0679 N   0  3  0  0  0  0  0  0  0  0  0  0
  -13.1739    3.2909   17.2920 C   0  0  0  0  0  0  0  0  0  0  0  0
  -13.9082    4.4304   16.5767 C   0  0  2  0  0  0  0  0  0  0  0  0
  -14.8556    3.8375   15.6002 N   0  3  0  0  0  0  0  0  0  0  0  0
  -12.9044    5.4473   15.9557 C   0  0  2  0  0  0  0  0  0  0  0  0
  -11.9504    5.9707   17.0601 C   0  0  2  0  0  0  0  0  0  0  0  0
  -10.9436    6.7591   16.4729 O   0  0  0  0  0  0  0  0  0  0  0  0
  -11.2552    4.8045   17.7812 C   0  0  1  0  0  0  0  0  0  0  0  0
  -10.4148    5.3314   18.8073 O   0  0  0  0  0  0  0  0  0  0  0  0
  -10.8399    5.1768   20.1175 C   0  0  2  0  0  0  0  0  0  0  0  0
  -11.6806    6.4023   20.5143 C   0  0  2  0  0  0  0  0  0  0  0  0
  -12.7945    6.4931   19.6351 O   0  0  0  0  0  0  0  0  0  0  0  0
  -10.8181    7.6719   20.4057 C   0  0  1  0  0  0  0  0  0  0  0  0
  -11.5885    8.8991   20.7589 N   0  3  0  0  0  0  0  0  0  0  0  0
   -9.5768    7.5255   21.3193 C   0  0  2  0  0  0  0  0  0  0  0  0
   -8.7441    8.6785   21.2201 O   0  0  0  0  0  0  0  0  0  0  0  0
   -8.7897    6.2551   20.9476 C   0  0  2  0  0  0  0  0  0  0  0  0
   -9.6727    5.0752   20.9740 O   0  0  0  0  0  0  0  0  0  0  0  0
   -7.6566    5.9835   21.9121 C   0  0  0  0  0  0  0  0  0  0  0  0
   -8.1397    5.5578   23.1845 O   0  0  0  0  0  0  0  0  0  0  0  0
  1  2  1  6  0  0  0
  1  3  1  0  0  0  0
  1  9  1  0  0  0  0
  3  4  1  1  0  0  0
  3  5  1  0  0  0  0
  5  6  1  0  0  0  0
  6  7  1  6  0  0  0
  6  8  1  0  0  0  0
  8  9  1  0  0  0  0
  8 10  1  6  0  0  0
 10 11  1  0  0  0  0
 12 13  1  6  0  0  0
 12 14  1  0  0  0  0
 12 20  1  0  0  0  0
 14 15  1  0  0  0  0
 15 16  1  6  0  0  0
 15 17  1  0  0  0  0
 17  2  1  1  0  0  0
 17 18  1  0  0  0  0
 18 19  1  6  0  0  0
 18 20  1  0  0  0  0
 20 21  1  1  0  0  0
 22 21  1  6  0  0  0
 22 23  1  0  0  0  0
 22 30  1  0  0  0  0
 23 24  1  6  0  0  0
 23 25  1  0  0  0  0
 25 26  1  1  0  0  0
 25 27  1  0  0  0  0
 27 28  1  6  0  0  0
 27 29  1  0  0  0  0
 29 30  1  0  0  0  0
 29 31  1  1  0  0  0
 31 32  1  0  0  0  0
M  CHG  5   4   1  11   1  13   1  16   1  26   1
M  END
>  <CHROM.1>
172.94731323,-173.11436351,-52.13072557,170.12667886,74.84929298,-46.09224063
101.81344477,-52.92300095,-55.13476226,-15.23632952,-90.68613140,174.06040461
-65.74420991,-67.91673568,70.92599432,-55.73389188,-11.90594260,6.24849196
17.15359524,-2.74946237,1.08810271,2.76283521

>  <Name>
1lc4

>  <RI>
0

>  <Rbt.Current_Directory>
/home/afrankz/demos/rdock_decoys_rna/rnas/1lc4

>  <Rbt.Executable>
rbdock ($Id: //depot/dev/client3/rdock/2013.1/src/exe/rbdock.cxx#4 $)

>  <Rbt.Library>
libRbt.so (2013.1, Build901 2013/11/27)

>  <Rbt.Parameter_File>
/export/apps/rDock/src/rDock_2013.1_src/data/scripts/dock_solv.prm

>  <Rbt.Receptor>
prm/pocket_docking_8.prm

>  <SCORE>
-57.3011

>  <SCORE.INTER>
-45.8959

>  <SCORE.INTER.CONST>
1

>  <SCORE.INTER.POLAR>
-6.97225

>  <SCORE.INTER.ROT>
6

>  <SCORE.INTER.SOLV>
21.4885

>  <SCORE.INTER.VDW>
-22.1193

>  <SCORE.INTER.norm>
-1.43425

>  <SCORE.INTRA>
-11.4052

>  <SCORE.INTRA.DIHEDRAL>
-27.8505

>  <SCORE.INTRA.DIHEDRAL.0>
44.2576

>  <SCORE.INTRA.POLAR>
0.363096

>  <SCORE.INTRA.POLAR.0>
-0.381556

>  <SCORE.INTRA.REPUL>
0

>  <SCORE.INTRA.REPUL.0>
0

>  <SCORE.INTRA.SOLV>
-1.50356

>  <SCORE.INTRA.SOLV.lig_0>
-134.592

>  <SCORE.INTRA.VDW>
2.0373

>  <SCORE.INTRA.VDW.0>
-1.01417

>  <SCORE.INTRA.norm>
-0.356412

>  <SCORE.RESTR>
0

>  <SCORE.RESTR.CAVITY>
0

>  <SCORE.RESTR.norm>
0

>  <SCORE.SYSTEM>
0

>  <SCORE.SYSTEM.CONST>
0

>  <SCORE.SYSTEM.DIHEDRAL>
0

>  <SCORE.SYSTEM.SOLV>
0

>  <SCORE.SYSTEM.norm>
0

>  <SCORE.heavy>
32

>  <SCORE.norm>
-1.79066

>  <RMSD>
8.424

$$$$
1lc4
 OpenBabel02141814113D
libRbt.so/2013.1/901 2013/11/27
 32 34  0  0  0  0  0  0  0  0999 V2000
  -16.3436    6.0997   13.0531 C   0  0  2  0  0  0  0  0  0  0  0  0
  -16.1171    4.7176   13.1733 O   0  0  0  0  0  0  0  0  0  0  0  0
  -15.5831    6.6043   11.8098 C   0  0  2  0  0  0  0  0  0  0  0  0
  -16.0312    5.8871   10.6121 N   0  3  0  0  0  0  0  0  0  0  0  0
  -14.0583    6.4524   12.0208 C   0  0  0  0  0  0  0  0  0  0  0  0
  -13.6805    7.2671   13.2704 C   0  0  2  0  0  0  0  0  0  0  0  0
  -12.2681    7.2086   13.4962 O   0  0  0  0  0  0  0  0  0  0  0  0
  -14.4678    6.7271   14.4902 C   0  0  2  0  0  0  0  0  0  0  0  0
  -15.9005    6.7949   14.2395 O   0  0  0  0  0  0  0  0  0  0  0  0
  -14.2050    7.5048   15.7773 C   0  0  0  0  0  0  0  0  0  0  0  0
  -13.4184    6.6950   16.7444 N   0  3  0  0  0  0  0  0  0  0  0  0
  -16.7086    4.4421   17.3607 C   0  0  2  0  0  0  0  0  0  0  0  0
  -16.9977    3.9279   18.7119 N   0  3  0  0  0  0  0  0  0  0  0  0
  -17.9331    4.2762   16.4710 C   0  0  0  0  0  0  0  0  0  0  0  0
  -17.6438    4.8041   15.0615 C   0  0  2  0  0  0  0  0  0  0  0  0
  -18.8957    4.7318   14.2677 N   0  3  0  0  0  0  0  0  0  0  0  0
  -16.4354    4.0613   14.4170 C   0  0  2  0  0  0  0  0  0  0  0  0
  -15.2015    4.1783   15.3484 C   0  0  2  0  0  0  0  0  0  0  0  0
  -14.1612    3.3726   14.8494 O   0  0  0  0  0  0  0  0  0  0  0  0
  -15.5324    3.6732   16.7621 C   0  0  1  0  0  0  0  0  0  0  0  0
  -14.3804    3.8299   17.5898 O   0  0  0  0  0  0  0  0  0  0  0  0
  -13.2955    3.0073   17.3298 C   0  0  2  0  0  0  0  0  0  0  0  0
  -13.3891    1.7632   18.2297 C   0  0  2  0  0  0  0  0  0  0  0  0
  -14.6078    1.0877   17.9456 O   0  0  0  0  0  0  0  0  0  0  0  0
  -13.3575    2.1956   19.7061 C   0  0  1  0  0  0  0  0  0  0  0  0
  -13.4670    1.0295   20.6292 N   0  3  0  0  0  0  0  0  0  0  0  0
  -12.0547    2.9865   19.9786 C   0  0  2  0  0  0  0  0  0  0  0  0
  -12.0092    3.4229   21.3351 O   0  0  0  0  0  0  0  0  0  0  0  0
  -11.9506    4.1868   19.0194 C   0  0  2  0  0  0  0  0  0  0  0  0
  -12.0778    3.7414   17.6202 O   0  0  0  0  0  0  0  0  0  0  0  0
  -10.6219    4.8995   19.1396 C   0  0  0  0  0  0  0  0  0  0  0  0
   -9.6970    4.4585   18.1479 O   0  0  0  0  0  0  0  0  0  0  0  0
  1  2  1  1  0  0  0
  1  3  1  0  0  0  0
  1  9  1  0  0  0  0
  3  4  1  6  0  0  0
  3  5  1  0  0  0  0
  5  6  1  0  0  0  0
  6  7  1  1  0  0  0
  6  8  1  0  0  0  0
  8  9  1  0  0  0  0
  8 10  1  1  0  0  0
 10 11  1  0  0  0  0
 12 13  1  1  0  0  0
 12 14  1  0  0  0  0
 12 20  1  0  0  0  0
 14 15  1  0  0  0  0
 15 16  1  6  0  0  0
 15 17  1  0  0  0  0
 17  2  1  6  0  0  0
 17 18  1  0  0  0  0
 18 19  1  6  0  0  0
 18 20  1  0  0  0  0
 20 21  1  1  0  0  0
 22 21  1  1  0  0  0
 22 23  1  0  0  0  0
 22 30  1  0  0  0  0
 23 24  1  6  0  0  0
 23 25  1  0  0  0  0
 25 26  1  1  0  0  0
 25 27  1  0  0  0  0
 27 28  1  1  0  0  0
 27 29  1  0  0  0  0
 29 30  1  0  0  0  0
 29 31  1  6  0  0  0
 31 32  1  0  0  0  0
M  CHG  5   4   1  11   1  13   1  16   1  26   1
M  END
>  <CHROM.1>
164.88736442,31.35158114,76.82605908,-63.01042166,-109.75350725,178.84860424
175.80483904,-176.23207438,61.30554954,168.56516350,-93.65735267,58.46244088
41.96265695,-58.31684715,96.46155561,-55.35825160,-14.43253209,4.53927813
16.22769320,2.02623742,-0.31902042,-0.97532245

>  <Name>
1lc4

>  <RI>
0

>  <Rbt.Current_Directory>
/home/afrankz/demos/rdock_decoys_rna/rnas/1lc4

>  <Rbt.Executable>
rbdock ($Id: //depot/dev/client3/rdock/2013.1/src/exe/rbdock.cxx#4 $)

>  <Rbt.Library>
libRbt.so (2013.1, Build901 2013/11/27)

>  <Rbt.Parameter_File>
/export/apps/rDock/src/rDock_2013.1_src/data/scripts/dock_solv.prm

>  <Rbt.Receptor>
prm/pocket_docking_6.prm

>  <SCORE>
-51.3593

>  <SCORE.INTER>
-36.585

>  <SCORE.INTER.CONST>
1

>  <SCORE.INTER.POLAR>
-6.99044

>  <SCORE.INTER.ROT>
6

>  <SCORE.INTER.SOLV>
20.1788

>  <SCORE.INTER.VDW>
-15.4148

>  <SCORE.INTER.norm>
-1.14328

>  <SCORE.INTRA>
-14.7742

>  <SCORE.INTRA.DIHEDRAL>
-24.7612

>  <SCORE.INTRA.DIHEDRAL.0>
44.2576

>  <SCORE.INTRA.POLAR>
-0.722655

>  <SCORE.INTRA.POLAR.0>
-0.381556

>  <SCORE.INTRA.REPUL>
0

>  <SCORE.INTRA.REPUL.0>
0

>  <SCORE.INTRA.SOLV>
2.26511

>  <SCORE.INTRA.SOLV.lig_0>
-134.592

>  <SCORE.INTRA.VDW>
-1.06915

>  <SCORE.INTRA.VDW.0>
-1.01417

>  <SCORE.INTRA.norm>
-0.461695

>  <SCORE.RESTR>
0

>  <SCORE.RESTR.CAVITY>
0

>  <SCORE.RESTR.norm>
0

>  <SCORE.SYSTEM>
0

>  <SCORE.SYSTEM.CONST>
0

>  <SCORE.SYSTEM.DIHEDRAL>
0

>  <SCORE.SYSTEM.SOLV>
0

>  <SCORE.SYSTEM.norm>
0

>  <SCORE.heavy>
32

>  <SCORE.norm>
-1.60498

>  <RMSD>
8.434

$$$$
1lc4
 OpenBabel02141814113D
libRbt.so/2013.1/901 2013/11/27
 32 34  0  0  0  0  0  0  0  0999 V2000
  -16.2885    6.1462   13.0903 C   0  0  2  0  0  0  0  0  0  0  0  0
  -15.9724    4.7794   13.1793 O   0  0  0  0  0  0  0  0  0  0  0  0
  -15.6388    6.7067   11.8087 C   0  0  2  0  0  0  0  0  0  0  0  0
  -16.1171    5.9739   10.6323 N   0  3  0  0  0  0  0  0  0  0  0  0
  -14.0975    6.6457   11.9231 C   0  0  0  0  0  0  0  0  0  0  0  0
  -13.6919    7.4710   13.1568 C   0  0  2  0  0  0  0  0  0  0  0  0
  -12.2672    7.4964   13.2941 O   0  0  0  0  0  0  0  0  0  0  0  0
  -14.3676    6.8738   14.4163 C   0  0  2  0  0  0  0  0  0  0  0  0
  -15.8146    6.8568   14.2555 O   0  0  0  0  0  0  0  0  0  0  0  0
  -14.0720    7.6550   15.6942 C   0  0  0  0  0  0  0  0  0  0  0  0
  -14.5490    6.9216   16.8959 N   0  3  0  0  0  0  0  0  0  0  0  0
  -16.3749    4.4017   17.3811 C   0  0  2  0  0  0  0  0  0  0  0  0
  -16.5810    3.8500   18.7327 N   0  3  0  0  0  0  0  0  0  0  0  0
  -17.6251    4.1878   16.5388 C   0  0  0  0  0  0  0  0  0  0  0  0
  -17.4219    4.7542   15.1291 C   0  0  2  0  0  0  0  0  0  0  0  0
  -18.7004    4.6306   14.3854 N   0  3  0  0  0  0  0  0  0  0  0  0
  -16.2049    4.0863   14.4219 C   0  0  2  0  0  0  0  0  0  0  0  0
  -14.9410    4.2510   15.3046 C   0  0  2  0  0  0  0  0  0  0  0  0
  -13.8825    3.5092   14.7484 O   0  0  0  0  0  0  0  0  0  0  0  0
  -15.1867    3.7052   16.7206 C   0  0  1  0  0  0  0  0  0  0  0  0
  -14.0109    3.9073   17.5038 O   0  0  0  0  0  0  0  0  0  0  0  0
  -12.9593    3.0256   17.3088 C   0  0  2  0  0  0  0  0  0  0  0  0
  -13.1721    1.7935   18.2047 C   0  0  2  0  0  0  0  0  0  0  0  0
  -14.4074    1.1835   17.8524 O   0  0  0  0  0  0  0  0  0  0  0  0
  -13.2020    2.2317   19.6794 C   0  0  1  0  0  0  0  0  0  0  0  0
  -13.4277    1.0783   20.5975 N   0  3  0  0  0  0  0  0  0  0  0  0
  -11.8758    2.9522   20.0248 C   0  0  2  0  0  0  0  0  0  0  0  0
  -11.8847    3.3929   21.3807 O   0  0  0  0  0  0  0  0  0  0  0  0
  -11.6515    4.1398   19.0704 C   0  0  2  0  0  0  0  0  0  0  0  0
  -11.7221    3.6942   17.6672 O   0  0  0  0  0  0  0  0  0  0  0  0
  -10.2951    4.7800   19.2654 C   0  0  0  0  0  0  0  0  0  0  0  0
  -10.1668    5.9814   18.5081 O   0  0  0  0  0  0  0  0  0  0  0  0
  1  2  1  1  0  0  0
  1  3  1  0  0  0  0
  1  9  1  0  0  0  0
  3  4  1  6  0  0  0
  3  5  1  0  0  0  0
  5  6  1  0  0  0  0
  6  7  1  1  0  0  0
  6  8  1  0  0  0  0
  8  9  1  0  0  0  0
  8 10  1  1  0  0  0
 10 11  1  0  0  0  0
 12 13  1  1  0  0  0
 12 14  1  0  0  0  0
 12 20  1  0  0  0  0
 14 15  1  0  0  0  0
 15 16  1  6  0  0  0
 15 17  1  0  0  0  0
 17  2  1  6  0  0  0
 17 18  1  0  0  0  0
 18 19  1  6  0  0  0
 18 20  1  0  0  0  0
 20 21  1  1  0  0  0
 22 21  1  1  0  0  0
 22 23  1  0  0  0  0
 22 30  1  0  0  0  0
 23 24  1  6  0  0  0
 23 25  1  0  0  0  0
 25 26  1  1  0  0  0
 25 27  1  0  0  0  0
 27 28  1  1  0  0  0
 27 29  1  0  0  0  0
 29 30  1  0  0  0  0
 29 31  1  1  0  0  0
 31 32  1  0  0  0  0
M  CHG  5   4   1  11   1  13   1  16   1  26   1
M  END
>  <CHROM.1>
166.47705937,30.62709260,85.19495352,67.31109153,-170.51613905,-179.67022841
-169.48046851,-172.42170246,65.27540231,159.97763150,-86.22287195,-170.69073471
160.74323344,-171.74907662,-172.19344148,69.43853033,-14.32076920,4.64858897
16.23728920,2.02881529,-0.41225938,-0.93117670

>  <Name>
1lc4

>  <RI>
0

>  <Rbt.Current_Directory>
/home/afrankz/demos/rdock_decoys_rna/rnas/1lc4

>  <Rbt.Executable>
rbdock ($Id: //depot/dev/client3/rdock/2013.1/src/exe/rbdock.cxx#4 $)

>  <Rbt.Library>
libRbt.so (2013.1, Build901 2013/11/27)

>  <Rbt.Parameter_File>
/export/apps/rDock/src/rDock_2013.1_src/data/scripts/dock_solv.prm

>  <Rbt.Receptor>
prm/pocket_docking_8.prm

>  <SCORE>
-50.2914

>  <SCORE.INTER>
-33.0218

>  <SCORE.INTER.CONST>
1

>  <SCORE.INTER.POLAR>
-5.89507

>  <SCORE.INTER.ROT>
6

>  <SCORE.INTER.SOLV>
19.0684

>  <SCORE.INTER.VDW>
-16.3204

>  <SCORE.INTER.norm>
-1.03193

>  <SCORE.INTRA>
-17.2696

>  <SCORE.INTRA.DIHEDRAL>
-30.4058

>  <SCORE.INTRA.DIHEDRAL.0>
44.2576

>  <SCORE.INTRA.POLAR>
-0.829403

>  <SCORE.INTRA.POLAR.0>
-0.381556

>  <SCORE.INTRA.REPUL>
0.00690214

>  <SCORE.INTRA.REPUL.0>
0

>  <SCORE.INTRA.SOLV>
3.81073

>  <SCORE.INTRA.SOLV.lig_0>
-134.592

>  <SCORE.INTRA.VDW>
-1.18661

>  <SCORE.INTRA.VDW.0>
-1.01417

>  <SCORE.INTRA.norm>
-0.539675

>  <SCORE.RESTR>
0

>  <SCORE.RESTR.CAVITY>
0

>  <SCORE.RESTR.norm>
0

>  <SCORE.SYSTEM>
0

>  <SCORE.SYSTEM.CONST>
0

>  <SCORE.SYSTEM.DIHEDRAL>
0

>  <SCORE.SYSTEM.SOLV>
0

>  <SCORE.SYSTEM.norm>
0

>  <SCORE.heavy>
32

>  <SCORE.norm>
-1.57161

>  <RMSD>
8.446

$$$$
1lc4
 OpenBabel02141814113D
libRbt.so/2013.1/901 2013/11/27
 32 34  0  0  0  0  0  0  0  0999 V2000
  -14.0007    4.9418   13.7140 C   0  0  2  0  0  0  0  0  0  0  0  0
  -14.0335    5.1894   15.0974 O   0  0  0  0  0  0  0  0  0  0  0  0
  -14.0840    6.2968   12.9819 C   0  0  2  0  0  0  0  0  0  0  0  0
  -12.9771    7.1666   13.3916 N   0  3  0  0  0  0  0  0  0  0  0  0
  -15.4540    6.9630   13.2499 C   0  0  0  0  0  0  0  0  0  0  0  0
  -16.5437    5.9966   12.7534 C   0  0  2  0  0  0  0  0  0  0  0  0
  -17.8413    6.5752   12.9283 O   0  0  0  0  0  0  0  0  0  0  0  0
  -16.4201    4.6526   13.5135 C   0  0  2  0  0  0  0  0  0  0  0  0
  -15.0940    4.0823   13.3230 O   0  0  0  0  0  0  0  0  0  0  0  0
  -17.4263    3.5995   13.0559 C   0  0  0  0  0  0  0  0  0  0  0  0
  -17.2049    2.3051   13.7524 N   0  3  0  0  0  0  0  0  0  0  0  0
  -12.1454    4.0031   18.7012 C   0  0  2  0  0  0  0  0  0  0  0  0
  -11.1487    3.5354   19.6818 N   0  3  0  0  0  0  0  0  0  0  0  0
  -12.3829    2.9264   17.6511 C   0  0  0  0  0  0  0  0  0  0  0  0
  -13.4152    3.4024   16.6230 C   0  0  2  0  0  0  0  0  0  0  0  0
  -13.7016    2.2819   15.6930 N   0  3  0  0  0  0  0  0  0  0  0  0
  -12.9498    4.7126   15.9201 C   0  0  2  0  0  0  0  0  0  0  0  0
  -12.6506    5.7940   16.9900 C   0  0  2  0  0  0  0  0  0  0  0  0
  -12.0753    6.9185   16.3698 O   0  0  0  0  0  0  0  0  0  0  0  0
  -11.6388    5.2755   18.0249 C   0  0  1  0  0  0  0  0  0  0  0  0
  -11.4197    6.2898   19.0046 O   0  0  0  0  0  0  0  0  0  0  0  0
  -10.9094    7.5001   18.5618 C   0  0  2  0  0  0  0  0  0  0  0  0
   -9.9839    8.0754   19.6474 C   0  0  2  0  0  0  0  0  0  0  0  0
   -8.9330    7.1478   19.8869 O   0  0  0  0  0  0  0  0  0  0  0  0
  -10.7894    8.3045   20.9383 C   0  0  1  0  0  0  0  0  0  0  0  0
   -9.9371    8.8433   22.0371 N   0  3  0  0  0  0  0  0  0  0  0  0
  -11.9674    9.2643   20.6413 C   0  0  2  0  0  0  0  0  0  0  0  0
  -12.7483    9.4758   21.8154 O   0  0  0  0  0  0  0  0  0  0  0  0
  -12.8399    8.6998   19.5047 C   0  0  2  0  0  0  0  0  0  0  0  0
  -12.0155    8.4076   18.3183 O   0  0  0  0  0  0  0  0  0  0  0  0
  -13.9125    9.6743   19.0712 C   0  0  0  0  0  0  0  0  0  0  0  0
  -14.7412    9.1239   18.0496 O   0  0  0  0  0  0  0  0  0  0  0  0
  1  2  1  1  0  0  0
  1  3  1  0  0  0  0
  1  9  1  0  0  0  0
  3  4  1  1  0  0  0
  3  5  1  0  0  0  0
  5  6  1  0  0  0  0
  6  7  1  1  0  0  0
  6  8  1  0  0  0  0
  8  9  1  0  0  0  0
  8 10  1  6  0  0  0
 10 11  1  0  0  0  0
 12 13  1  1  0  0  0
 12 14  1  0  0  0  0
 12 20  1  0  0  0  0
 14 15  1  0  0  0  0
 15 16  1  6  0  0  0
 15 17  1  0  0  0  0
 17  2  1  6  0  0  0
 17 18  1  0  0  0  0
 18 19  1  6  0  0  0
 18 20  1  0  0  0  0
 20 21  1  1  0  0  0
 22 21  1  1  0  0  0
 22 23  1  0  0  0  0
 22 30  1  0  0  0  0
 23 24  1  1  0  0  0
 23 25  1  0  0  0  0
 25 26  1  1  0  0  0
 25 27  1  0  0  0  0
 27 28  1  1  0  0  0
 27 29  1  0  0  0  0
 29 30  1  0  0  0  0
 29 31  1  6  0  0  0
 31 32  1  0  0  0  0
M  CHG  5   4   1  11   1  13   1  16   1  26   1
M  END
>  <CHROM.1>
-122.87296317,-100.53073465,-50.27306288,171.87424518,176.23160734,176.99612870
47.74252114,-165.75276134,-72.11734799,177.68686154,-145.68327646,178.11156057
37.64543848,172.71974881,-178.06861744,-57.91725985,-13.22737974,6.17357156
16.92112022,-2.48190982,-0.84159483,0.33608141

>  <Name>
1lc4

>  <RI>
0

>  <Rbt.Current_Directory>
/home/afrankz/demos/rdock_decoys_rna/rnas/1lc4

>  <Rbt.Executable>
rbdock ($Id: //depot/dev/client3/rdock/2013.1/src/exe/rbdock.cxx#4 $)

>  <Rbt.Library>
libRbt.so (2013.1, Build901 2013/11/27)

>  <Rbt.Parameter_File>
/export/apps/rDock/src/rDock_2013.1_src/data/scripts/dock_solv.prm

>  <Rbt.Receptor>
prm/pocket_docking_5.prm

>  <SCORE>
-41.268

>  <SCORE.INTER>
-23.9515

>  <SCORE.INTER.CONST>
1

>  <SCORE.INTER.POLAR>
-4.08957

>  <SCORE.INTER.ROT>
6

>  <SCORE.INTER.SOLV>
20.3219

>  <SCORE.INTER.VDW>
-16.7097

>  <SCORE.INTER.norm>
-0.748484

>  <SCORE.INTRA>
-17.3165

>  <SCORE.INTRA.DIHEDRAL>
-23.5348

>  <SCORE.INTRA.DIHEDRAL.0>
44.2576

>  <SCORE.INTRA.POLAR>
-1.31074

>  <SCORE.INTRA.POLAR.0>
-0.381556

>  <SCORE.INTRA.REPUL>
0.00107257

>  <SCORE.INTRA.REPUL.0>
0

>  <SCORE.INTRA.SOLV>
-0.16009

>  <SCORE.INTRA.SOLV.lig_0>
-134.592

>  <SCORE.INTRA.VDW>
-1.01796

>  <SCORE.INTRA.VDW.0>
-1.01417

>  <SCORE.INTRA.norm>
-0.541142

>  <SCORE.RESTR>
0

>  <SCORE.RESTR.CAVITY>
0

>  <SCORE.RESTR.norm>
0

>  <SCORE.SYSTEM>
0

>  <SCORE.SYSTEM.CONST>
0

>  <SCORE.SYSTEM.DIHEDRAL>
0

>  <SCORE.SYSTEM.SOLV>
0

>  <SCORE.SYSTEM.norm>
0

>  <SCORE.heavy>
32

>  <SCORE.norm>
-1.28963

>  <RMSD>
8.447

$$$$
1lc4
 OpenBabel02141814113D
libRbt.so/2013.1/901 2013/11/27
 32 34  0  0  0  0  0  0  0  0999 V2000
  -13.3703    8.0827   14.6456 C   0  0  2  0  0  0  0  0  0  0  0  0
  -14.1742    7.1149   15.2725 O   0  0  0  0  0  0  0  0  0  0  0  0
  -14.2920    9.0322   13.8531 C   0  0  2  0  0  0  0  0  0  0  0  0
  -15.2723    9.6554   14.7477 N   0  3  0  0  0  0  0  0  0  0  0  0
  -14.9856    8.2638   12.7038 C   0  0  0  0  0  0  0  0  0  0  0  0
  -13.8816    7.6830   11.8029 C   0  0  2  0  0  0  0  0  0  0  0  0
  -14.4579    6.9965   10.6866 O   0  0  0  0  0  0  0  0  0  0  0  0
  -12.9822    6.7396   12.6399 C   0  0  2  0  0  0  0  0  0  0  0  0
  -12.4074    7.4568   13.7691 O   0  0  0  0  0  0  0  0  0  0  0  0
  -11.8172    6.1491   11.8494 C   0  0  0  0  0  0  0  0  0  0  0  0
  -11.0301    5.1997   12.6792 N   0  3  0  0  0  0  0  0  0  0  0  0
  -13.1840    4.4020   18.3740 C   0  0  2  0  0  0  0  0  0  0  0  0
  -12.6135    3.2697   19.1266 N   0  3  0  0  0  0  0  0  0  0  0  0
  -14.0686    3.8823   17.2489 C   0  0  0  0  0  0  0  0  0  0  0  0
  -14.6651    5.0506   16.4562 C   0  0  2  0  0  0  0  0  0  0  0  0
  -15.6088    4.5017   15.4509 N   0  3  0  0  0  0  0  0  0  0  0  0
  -13.5474    5.9550   15.8558 C   0  0  2  0  0  0  0  0  0  0  0  0
  -12.6096    6.4390   16.9915 C   0  0  2  0  0  0  0  0  0  0  0  0
  -11.5102    7.1168   16.4329 O   0  0  0  0  0  0  0  0  0  0  0  0
  -12.0546    5.2475   17.7888 C   0  0  1  0  0  0  0  0  0  0  0  0
  -11.2254    5.7416   18.8401 O   0  0  0  0  0  0  0  0  0  0  0  0
  -11.8568    6.3497   19.9138 C   0  0  2  0  0  0  0  0  0  0  0  0
  -11.1278    7.6647   20.2383 C   0  0  2  0  0  0  0  0  0  0  0  0
  -11.1729    8.5042   19.0914 O   0  0  0  0  0  0  0  0  0  0  0  0
   -9.6664    7.3612   20.6126 C   0  0  1  0  0  0  0  0  0  0  0  0
   -8.9012    8.6044   20.9179 N   0  3  0  0  0  0  0  0  0  0  0  0
   -9.6394    6.3937   21.8210 C   0  0  2  0  0  0  0  0  0  0  0  0
   -8.2960    6.0737   22.1754 O   0  0  0  0  0  0  0  0  0  0  0  0
  -10.4334    5.1147   21.4962 C   0  0  2  0  0  0  0  0  0  0  0  0
  -11.7980    5.4534   21.0537 O   0  0  0  0  0  0  0  0  0  0  0  0
  -10.5688    4.2067   22.6983 C   0  0  0  0  0  0  0  0  0  0  0  0
   -9.4655    4.3473   23.5906 O   0  0  0  0  0  0  0  0  0  0  0  0
  1  2  1  6  0  0  0
  1  3  1  0  0  0  0
  1  9  1  0  0  0  0
  3  4  1  1  0  0  0
  3  5  1  0  0  0  0
  5  6  1  0  0  0  0
  6  7  1  6  0  0  0
  6  8  1  0  0  0  0
  8  9  1  0  0  0  0
  8 10  1  6  0  0  0
 10 11  1  0  0  0  0
 12 13  1  6  0  0  0
 12 14  1  0  0  0  0
 12 20  1  0  0  0  0
 14 15  1  0  0  0  0
 15 16  1  6  0  0  0
 15 17  1  0  0  0  0
 17  2  1  1  0  0  0
 17 18  1  0  0  0  0
 18 19  1  6  0  0  0
 18 20  1  0  0  0  0
 20 21  1  1  0  0  0
 22 21  1  6  0  0  0
 22 23  1  0  0  0  0
 22 30  1  0  0  0  0
 23 24  1  6  0  0  0
 23 25  1  0  0  0  0
 25 26  1  1  0  0  0
 25 27  1  0  0  0  0
 27 28  1  6  0  0  0
 27 29  1  0  0  0  0
 29 30  1  0  0  0  0
 29 31  1  1  0  0  0
 31 32  1  0  0  0  0
M  CHG  5   4   1  11   1  13   1  16   1  26   1
M  END
>  <CHROM.1>
167.74250272,-179.19089931,49.12816170,-61.02821052,-177.07438531,-172.64479628
-168.23479228,-59.77244574,169.50782565,-49.24777749,-133.47744564,66.78183965
106.84350263,63.64316087,-29.14531940,172.40922802,-12.24403198,6.37562056
17.23480443,-2.29915647,0.93341445,2.35112235

>  <Name>
1lc4

>  <RI>
0

>  <Rbt.Current_Directory>
/home/afrankz/demos/rdock_decoys_rna/rnas/1lc4

>  <Rbt.Executable>
rbdock ($Id: //depot/dev/client3/rdock/2013.1/src/exe/rbdock.cxx#4 $)

>  <Rbt.Library>
libRbt.so (2013.1, Build901 2013/11/27)

>  <Rbt.Parameter_File>
/export/apps/rDock/src/rDock_2013.1_src/data/scripts/dock_solv.prm

>  <Rbt.Receptor>
prm/pocket_docking_6.prm

>  <SCORE>
-52.8322

>  <SCORE.INTER>
-32.8481

>  <SCORE.INTER.CONST>
1

>  <SCORE.INTER.POLAR>
-4.39903

>  <SCORE.INTER.ROT>
6

>  <SCORE.INTER.SOLV>
19.5072

>  <SCORE.INTER.VDW>
-21.3377

>  <SCORE.INTER.norm>
-1.0265

>  <SCORE.INTRA>
-19.9841

>  <SCORE.INTRA.DIHEDRAL>
-28.7022

>  <SCORE.INTRA.DIHEDRAL.0>
44.2576

>  <SCORE.INTRA.POLAR>
-1.04066

>  <SCORE.INTRA.POLAR.0>
-0.381556

>  <SCORE.INTRA.REPUL>
0

>  <SCORE.INTRA.REPUL.0>
0

>  <SCORE.INTRA.SOLV>
-2.36769

>  <SCORE.INTRA.SOLV.lig_0>
-134.592

>  <SCORE.INTRA.VDW>
-0.910965

>  <SCORE.INTRA.VDW.0>
-1.01417

>  <SCORE.INTRA.norm>
-0.624504

>  <SCORE.RESTR>
0

>  <SCORE.RESTR.CAVITY>
0

>  <SCORE.RESTR.norm>
0

>  <SCORE.SYSTEM>
0

>  <SCORE.SYSTEM.CONST>
0

>  <SCORE.SYSTEM.DIHEDRAL>
0

>  <SCORE.SYSTEM.SOLV>
0

>  <SCORE.SYSTEM.norm>
0

>  <SCORE.heavy>
32

>  <SCORE.norm>
-1.65101

>  <RMSD>
8.449

$$$$
1lc4
 OpenBabel02141814113D
libRbt.so/2013.1/901 2013/11/27
 32 34  0  0  0  0  0  0  0  0999 V2000
   -9.7542    5.5424   14.2781 C   0  0  2  0  0  0  0  0  0  0  0  0
   -9.7762    4.1601   14.0236 O   0  0  0  0  0  0  0  0  0  0  0  0
  -10.4676    6.2565   13.1118 C   0  0  2  0  0  0  0  0  0  0  0  0
  -11.8418    5.7637   12.9765 N   0  3  0  0  0  0  0  0  0  0  0  0
   -9.6680    6.0648   11.8017 C   0  0  0  0  0  0  0  0  0  0  0  0
   -8.2609    6.6445   12.0291 C   0  0  2  0  0  0  0  0  0  0  0  0
   -7.4798    6.5426   10.8338 O   0  0  0  0  0  0  0  0  0  0  0  0
   -7.5854    5.8999   13.2075 C   0  0  2  0  0  0  0  0  0  0  0  0
   -8.3957    6.0155   14.4117 O   0  0  0  0  0  0  0  0  0  0  0  0
   -6.1986    6.4371   13.5523 C   0  0  0  0  0  0  0  0  0  0  0  0
   -5.1808    5.9647   12.5773 N   0  3  0  0  0  0  0  0  0  0  0  0
  -11.2308    1.5869   17.0606 C   0  0  2  0  0  0  0  0  0  0  0  0
  -11.3066    0.6495   18.1960 N   0  3  0  0  0  0  0  0  0  0  0  0
  -10.4661    0.9459   15.9105 C   0  0  0  0  0  0  0  0  0  0  0  0
  -10.3772    1.9126   14.7245 C   0  0  2  0  0  0  0  0  0  0  0  0
   -9.7312    1.2056   13.5907 N   0  3  0  0  0  0  0  0  0  0  0  0
   -9.6747    3.2425   15.1311 C   0  0  2  0  0  0  0  0  0  0  0  0
  -10.4161    3.8690   16.3401 C   0  0  2  0  0  0  0  0  0  0  0  0
   -9.6891    4.9782   16.8105 O   0  0  0  0  0  0  0  0  0  0  0  0
  -10.5190    2.8650   17.4997 C   0  0  1  0  0  0  0  0  0  0  0  0
  -11.2350    3.4727   18.5743 O   0  0  0  0  0  0  0  0  0  0  0  0
  -10.5663    3.6196   19.7796 C   0  0  2  0  0  0  0  0  0  0  0  0
  -11.5535    3.3576   20.9299 C   0  0  2  0  0  0  0  0  0  0  0  0
  -12.0633    2.0365   20.7990 O   0  0  0  0  0  0  0  0  0  0  0  0
  -12.7044    4.3764   20.8590 C   0  0  1  0  0  0  0  0  0  0  0  0
  -13.7077    4.1577   21.9405 N   0  3  0  0  0  0  0  0  0  0  0  0
  -12.1231    5.8093   20.9361 C   0  0  2  0  0  0  0  0  0  0  0  0
  -13.1659    6.7775   20.8473 O   0  0  0  0  0  0  0  0  0  0  0  0
  -11.0874    6.0242   19.8168 C   0  0  2  0  0  0  0  0  0  0  0  0
  -10.0535    4.9747   19.8625 O   0  0  0  0  0  0  0  0  0  0  0  0
  -10.3770    7.3534   19.9444 C   0  0  0  0  0  0  0  0  0  0  0  0
   -9.8029    7.5206   21.2390 O   0  0  0  0  0  0  0  0  0  0  0  0
  1  2  1  6  0  0  0
  1  3  1  0  0  0  0
  1  9  1  0  0  0  0
  3  4  1  6  0  0  0
  3  5  1  0  0  0  0
  5  6  1  0  0  0  0
  6  7  1  6  0  0  0
  6  8  1  0  0  0  0
  8  9  1  0  0  0  0
  8 10  1  1  0  0  0
 10 11  1  0  0  0  0
 12 13  1  1  0  0  0
 12 14  1  0  0  0  0
 12 20  1  0  0  0  0
 14 15  1  0  0  0  0
 15 16  1  6  0  0  0
 15 17  1  0  0  0  0
 17  2  1  6  0  0  0
 17 18  1  0  0  0  0
 18 19  1  1  0  0  0
 18 20  1  0  0  0  0
 20 21  1  1  0  0  0
 22 21  1  6  0  0  0
 22 23  1  0  0  0  0
 22 30  1  0  0  0  0
 23 24  1  6  0  0  0
 23 25  1  0  0  0  0
 25 26  1  1  0  0  0
 25 27  1  0  0  0  0
 27 28  1  6  0  0  0
 27 29  1  0  0  0  0
 29 30  1  0  0  0  0
 29 31  1  1  0  0  0
 31 32  1  0  0  0  0
M  CHG  5   4   1  11   1  13   1  16   1  26   1
M  END
>  <CHROM.1>
-155.65185115,153.36298629,66.02014377,-52.43106541,-77.01849209,89.99328088
177.92434279,-176.72553178,-52.42407499,119.21509047,-142.18618112,170.08925947
-98.21761053,-55.25941319,53.52025023,65.28950018,-10.20098320,4.56132552
16.68976403,-0.46264300,1.08991960,0.65141035

>  <Name>
1lc4

>  <RI>
0

>  <Rbt.Current_Directory>
/home/afrankz/demos/rdock_decoys_rna/rnas/1lc4

>  <Rbt.Executable>
rbdock ($Id: //depot/dev/client3/rdock/2013.1/src/exe/rbdock.cxx#4 $)

>  <Rbt.Library>
libRbt.so (2013.1, Build901 2013/11/27)

>  <Rbt.Parameter_File>
/export/apps/rDock/src/rDock_2013.1_src/data/scripts/dock_solv.prm

>  <Rbt.Receptor>
prm/blind_docking_100.prm

>  <SCORE>
-28.7296

>  <SCORE.INTER>
-17.6624

>  <SCORE.INTER.CONST>
1

>  <SCORE.INTER.POLAR>
-3.96454

>  <SCORE.INTER.ROT>
6

>  <SCORE.INTER.SOLV>
18.9795

>  <SCORE.INTER.VDW>
-12.4863

>  <SCORE.INTER.norm>
-0.551949

>  <SCORE.INTRA>
-14.3281

>  <SCORE.INTRA.DIHEDRAL>
-19.5648

>  <SCORE.INTRA.DIHEDRAL.0>
44.2576

>  <SCORE.INTRA.POLAR>
-0.799791

>  <SCORE.INTRA.POLAR.0>
-0.381556

>  <SCORE.INTRA.REPUL>
0

>  <SCORE.INTRA.REPUL.0>
0

>  <SCORE.INTRA.SOLV>
-1.35513

>  <SCORE.INTRA.SOLV.lig_0>
-134.592

>  <SCORE.INTRA.VDW>
-1.14885

>  <SCORE.INTRA.VDW.0>
-1.01417

>  <SCORE.INTRA.norm>
-0.447754

>  <SCORE.RESTR>
3.2609

>  <SCORE.RESTR.CAVITY>
3.2609

>  <SCORE.RESTR.norm>
0.101903

>  <SCORE.SYSTEM>
0

>  <SCORE.SYSTEM.CONST>
0

>  <SCORE.SYSTEM.DIHEDRAL>
0

>  <SCORE.SYSTEM.SOLV>
0

>  <SCORE.SYSTEM.norm>
0

>  <SCORE.heavy>
32

>  <SCORE.norm>
-0.8978

>  <RMSD>
8.482

$$$$
1lc4
 OpenBabel02141814113D
libRbt.so/2013.1/901 2013/11/27
 32 34  0  0  0  0  0  0  0  0999 V2000
  -15.2362    7.0445   15.1856 C   0  0  2  0  0  0  0  0  0  0  0  0
  -14.8315    5.7574   15.5802 O   0  0  0  0  0  0  0  0  0  0  0  0
  -16.7202    6.9750   14.7711 C   0  0  2  0  0  0  0  0  0  0  0  0
  -17.5374    6.4795   15.8830 N   0  3  0  0  0  0  0  0  0  0  0  0
  -16.8806    6.0880   13.5141 C   0  0  0  0  0  0  0  0  0  0  0  0
  -16.0216    6.7075   12.3978 C   0  0  2  0  0  0  0  0  0  0  0  0
  -16.1628    5.9591   11.1857 O   0  0  0  0  0  0  0  0  0  0  0  0
  -14.5435    6.7582   12.8584 C   0  0  2  0  0  0  0  0  0  0  0  0
  -14.4226    7.5226   14.0917 O   0  0  0  0  0  0  0  0  0  0  0  0
  -13.6103    7.4080   11.8398 C   0  0  0  0  0  0  0  0  0  0  0  0
  -13.2991    6.4765   10.7240 N   0  3  0  0  0  0  0  0  0  0  0  0
  -11.3605    4.4036   17.5999 C   0  0  2  0  0  0  0  0  0  0  0  0
   -9.9632    4.0685   17.9301 N   0  3  0  0  0  0  0  0  0  0  0  0
  -11.8052    3.6176   16.3740 C   0  0  0  0  0  0  0  0  0  0  0  0
  -13.2561    3.9602   16.0181 C   0  0  2  0  0  0  0  0  0  0  0  0
  -13.6823    3.0872   14.8961 N   0  3  0  0  0  0  0  0  0  0  0  0
  -13.4251    5.4841   15.7410 C   0  0  2  0  0  0  0  0  0  0  0  0
  -12.9186    6.2903   16.9647 C   0  0  2  0  0  0  0  0  0  0  0  0
  -12.9170    7.6623   16.6522 O   0  0  0  0  0  0  0  0  0  0  0  0
  -11.4740    5.9004   17.3177 C   0  0  1  0  0  0  0  0  0  0  0  0
  -11.0632    6.6418   18.4659 O   0  0  0  0  0  0  0  0  0  0  0  0
  -12.0028    6.8342   19.4666 C   0  0  2  0  0  0  0  0  0  0  0  0
  -11.5729    8.0348   20.3267 C   0  0  2  0  0  0  0  0  0  0  0  0
  -11.4884    9.1838   19.4932 O   0  0  0  0  0  0  0  0  0  0  0  0
  -10.2030    7.7437   20.9641 C   0  0  1  0  0  0  0  0  0  0  0  0
   -9.7229    8.8850   21.7954 N   0  3  0  0  0  0  0  0  0  0  0  0
  -10.2991    6.4529   21.8135 C   0  0  2  0  0  0  0  0  0  0  0  0
   -9.0358    6.1433   22.3974 O   0  0  0  0  0  0  0  0  0  0  0  0
  -10.7971    5.2815   20.9466 C   0  0  2  0  0  0  0  0  0  0  0  0
  -12.0639    5.6346   20.2811 O   0  0  0  0  0  0  0  0  0  0  0  0
  -11.0573    4.0364   21.7651 C   0  0  0  0  0  0  0  0  0  0  0  0
  -11.7854    3.0612   21.0220 O   0  0  0  0  0  0  0  0  0  0  0  0
  1  2  1  6  0  0  0
  1  3  1  0  0  0  0
  1  9  1  0  0  0  0
  3  4  1  1  0  0  0
  3  5  1  0  0  0  0
  5  6  1  0  0  0  0
  6  7  1  6  0  0  0
  6  8  1  0  0  0  0
  8  9  1  0  0  0  0
  8 10  1  6  0  0  0
 10 11  1  0  0  0  0
 12 13  1  6  0  0  0
 12 14  1  0  0  0  0
 12 20  1  0  0  0  0
 14 15  1  0  0  0  0
 15 16  1  6  0  0  0
 15 17  1  0  0  0  0
 17  2  1  1  0  0  0
 17 18  1  0  0  0  0
 18 19  1  6  0  0  0
 18 20  1  0  0  0  0
 20 21  1  1  0  0  0
 22 21  1  6  0  0  0
 22 23  1  0  0  0  0
 22 30  1  0  0  0  0
 23 24  1  6  0  0  0
 23 25  1  0  0  0  0
 25 26  1  1  0  0  0
 25 27  1  0  0  0  0
 27 28  1  6  0  0  0
 27 29  1  0  0  0  0
 29 30  1  0  0  0  0
 29 31  1  1  0  0  0
 31 32  1  0  0  0  0
M  CHG  5   4   1  11   1  13   1  16   1  26   1
M  END
>  <CHROM.1>
166.83908918,-173.59925864,62.47669119,64.97730893,-77.26840676,59.65308201
172.20490289,63.83789636,-59.93352331,-82.98143259,-159.47574677,-167.91927221
-79.90706117,173.02069744,167.22328814,-167.16540410,-12.83402050,6.10758075
17.07334944,2.93949613,1.02160266,-2.89600770

>  <Name>
1lc4

>  <RI>
0

>  <Rbt.Current_Directory>
/home/afrankz/demos/rdock_decoys_rna/rnas/1lc4

>  <Rbt.Executable>
rbdock ($Id: //depot/dev/client3/rdock/2013.1/src/exe/rbdock.cxx#4 $)

>  <Rbt.Library>
libRbt.so (2013.1, Build901 2013/11/27)

>  <Rbt.Parameter_File>
/export/apps/rDock/src/rDock_2013.1_src/data/scripts/dock_solv.prm

>  <Rbt.Receptor>
prm/pocket_docking_7.prm

>  <SCORE>
-54.7705

>  <SCORE.INTER>
-34.3031

>  <SCORE.INTER.CONST>
1

>  <SCORE.INTER.POLAR>
-5.5422

>  <SCORE.INTER.ROT>
6

>  <SCORE.INTER.SOLV>
23.6179

>  <SCORE.INTER.VDW>
-19.8674

>  <SCORE.INTER.norm>
-1.07197

>  <SCORE.INTRA>
-20.4674

>  <SCORE.INTRA.DIHEDRAL>
-34.4488

>  <SCORE.INTRA.DIHEDRAL.0>
44.2576

>  <SCORE.INTRA.POLAR>
-0.171164

>  <SCORE.INTRA.POLAR.0>
-0.381556

>  <SCORE.INTRA.REPUL>
0

>  <SCORE.INTRA.REPUL.0>
0

>  <SCORE.INTRA.SOLV>
-2.16108

>  <SCORE.INTRA.SOLV.lig_0>
-134.592

>  <SCORE.INTRA.VDW>
-1.58052

>  <SCORE.INTRA.VDW.0>
-1.01417

>  <SCORE.INTRA.norm>
-0.639606

>  <SCORE.RESTR>
0

>  <SCORE.RESTR.CAVITY>
0

>  <SCORE.RESTR.norm>
0

>  <SCORE.SYSTEM>
0

>  <SCORE.SYSTEM.CONST>
0

>  <SCORE.SYSTEM.DIHEDRAL>
0

>  <SCORE.SYSTEM.SOLV>
0

>  <SCORE.SYSTEM.norm>
0

>  <SCORE.heavy>
32

>  <SCORE.norm>
-1.71158

>  <RMSD>
8.487

$$$$
1lc4
 OpenBabel02141814113D
libRbt.so/2013.1/901 2013/11/27
 32 34  0  0  0  0  0  0  0  0999 V2000
  -13.0831    7.5237   14.4708 C   0  0  2  0  0  0  0  0  0  0  0  0
  -13.5566    6.2945   14.9618 O   0  0  0  0  0  0  0  0  0  0  0  0
  -14.3003    8.3786   14.0630 C   0  0  2  0  0  0  0  0  0  0  0  0
  -15.1932    8.5738   15.2094 N   0  3  0  0  0  0  0  0  0  0  0  0
  -15.0413    7.7177   12.8769 C   0  0  0  0  0  0  0  0  0  0  0  0
  -14.0384    7.5921   11.7167 C   0  0  2  0  0  0  0  0  0  0  0  0
  -14.6754    7.0293   10.5649 O   0  0  0  0  0  0  0  0  0  0  0  0
  -12.8353    6.7291   12.1719 C   0  0  2  0  0  0  0  0  0  0  0  0
  -12.2030    7.3183   13.3436 O   0  0  0  0  0  0  0  0  0  0  0  0
  -11.7509    6.5861   11.1068 C   0  0  0  0  0  0  0  0  0  0  0  0
  -10.6674    5.6753   11.5608 N   0  3  0  0  0  0  0  0  0  0  0  0
  -12.0325    3.7880   18.0202 C   0  0  2  0  0  0  0  0  0  0  0  0
  -11.1839    2.8575   18.7871 N   0  3  0  0  0  0  0  0  0  0  0  0
  -12.5151    3.1147   16.7427 C   0  0  0  0  0  0  0  0  0  0  0  0
  -13.3960    4.0737   15.9343 C   0  0  2  0  0  0  0  0  0  0  0  0
  -13.9374    3.3391   14.7638 N   0  3  0  0  0  0  0  0  0  0  0  0
  -12.6247    5.3772   15.5690 C   0  0  2  0  0  0  0  0  0  0  0  0
  -12.0812    6.0351   16.8633 C   0  0  2  0  0  0  0  0  0  0  0  0
  -11.2484    7.1173   16.5234 O   0  0  0  0  0  0  0  0  0  0  0  0
  -11.2305    5.0394   17.6685 C   0  0  1  0  0  0  0  0  0  0  0  0
  -10.7803    5.6772   18.8631 O   0  0  0  0  0  0  0  0  0  0  0  0
  -11.6046    5.5970   19.9747 C   0  0  2  0  0  0  0  0  0  0  0  0
  -12.0263    7.0188   20.3831 C   0  0  2  0  0  0  0  0  0  0  0  0
  -12.7143    7.6195   19.2932 O   0  0  0  0  0  0  0  0  0  0  0  0
  -10.7754    7.8427   20.7356 C   0  0  1  0  0  0  0  0  0  0  0  0
  -11.1213    9.2415   21.1201 N   0  3  0  0  0  0  0  0  0  0  0  0
  -10.0051    7.1375   21.8786 C   0  0  2  0  0  0  0  0  0  0  0  0
   -8.8253    7.8660   22.2102 O   0  0  0  0  0  0  0  0  0  0  0  0
   -9.6544    5.6941   21.4722 C   0  0  2  0  0  0  0  0  0  0  0  0
  -10.8666    4.9672   21.0539 O   0  0  0  0  0  0  0  0  0  0  0  0
   -9.0401    4.9136   22.6130 C   0  0  0  0  0  0  0  0  0  0  0  0
  -10.0062    4.5941   23.6120 O   0  0  0  0  0  0  0  0  0  0  0  0
  1  2  1  6  0  0  0
  1  3  1  0  0  0  0
  1  9  1  0  0  0  0
  3  4  1  1  0  0  0
  3  5  1  0  0  0  0
  5  6  1  0  0  0  0
  6  7  1  6  0  0  0
  6  8  1  0  0  0  0
  8  9  1  0  0  0  0
  8 10  1  6  0  0  0
 10 11  1  0  0  0  0
 12 13  1  6  0  0  0
 12 14  1  0  0  0  0
 12 20  1  0  0  0  0
 14 15  1  0  0  0  0
 15 16  1  6  0  0  0
 15 17  1  0  0  0  0
 17  2  1  1  0  0  0
 17 18  1  0  0  0  0
 18 19  1  6  0  0  0
 18 20  1  0  0  0  0
 20 21  1  1  0  0  0
 22 21  1  6  0  0  0
 22 23  1  0  0  0  0
 22 30  1  0  0  0  0
 23 24  1  6  0  0  0
 23 25  1  0  0  0  0
 25 26  1  1  0  0  0
 25 27  1  0  0  0  0
 27 28  1  6  0  0  0
 27 29  1  0  0  0  0
 29 30  1  0  0  0  0
 29 31  1  1  0  0  0
 31 32  1  0  0  0  0
M  CHG  5   4   1  11   1  13   1  16   1  26   1
M  END
>  <CHROM.1>
-172.18778768,-176.37455611,-51.71236147,-173.90241522,-176.12258228,-169.83361319
-170.79476797,-179.08029618,-65.52482431,-33.24571165,-118.47313967,-64.24578704
-122.11050645,-178.65697795,71.85100352,-175.00516108,-12.01447463,6.20108889
17.08204705,2.79581376,1.20964996,-2.69831801

>  <Name>
1lc4

>  <RI>
0

>  <Rbt.Current_Directory>
/home/afrankz/demos/rdock_decoys_rna/rnas/1lc4

>  <Rbt.Executable>
rbdock ($Id: //depot/dev/client3/rdock/2013.1/src/exe/rbdock.cxx#4 $)

>  <Rbt.Library>
libRbt.so (2013.1, Build901 2013/11/27)

>  <Rbt.Parameter_File>
/export/apps/rDock/src/rDock_2013.1_src/data/scripts/dock_solv.prm

>  <Rbt.Receptor>
prm/pocket_docking_5.prm

>  <SCORE>
-50.6133

>  <SCORE.INTER>
-31.2986

>  <SCORE.INTER.CONST>
1

>  <SCORE.INTER.POLAR>
-4.00278

>  <SCORE.INTER.ROT>
6

>  <SCORE.INTER.SOLV>
21.0806

>  <SCORE.INTER.VDW>
-22.15

>  <SCORE.INTER.norm>
-0.978082

>  <SCORE.INTRA>
-19.3147

>  <SCORE.INTRA.DIHEDRAL>
-28.3046

>  <SCORE.INTRA.DIHEDRAL.0>
44.2576

>  <SCORE.INTRA.POLAR>
-1.24343

>  <SCORE.INTRA.POLAR.0>
-0.381556

>  <SCORE.INTRA.REPUL>
0

>  <SCORE.INTRA.REPUL.0>
0

>  <SCORE.INTRA.SOLV>
-3.8574

>  <SCORE.INTRA.SOLV.lig_0>
-134.592

>  <SCORE.INTRA.VDW>
0.994033

>  <SCORE.INTRA.VDW.0>
-1.01417

>  <SCORE.INTRA.norm>
-0.603583

>  <SCORE.RESTR>
0

>  <SCORE.RESTR.CAVITY>
0

>  <SCORE.RESTR.norm>
0

>  <SCORE.SYSTEM>
0

>  <SCORE.SYSTEM.CONST>
0

>  <SCORE.SYSTEM.DIHEDRAL>
0

>  <SCORE.SYSTEM.SOLV>
0

>  <SCORE.SYSTEM.norm>
0

>  <SCORE.heavy>
32

>  <SCORE.norm>
-1.58166

>  <RMSD>
8.537

$$$$
1lc4
 OpenBabel02141814113D
libRbt.so/2013.1/901 2013/11/27
 32 34  0  0  0  0  0  0  0  0999 V2000
  -13.1294    7.4418   14.3149 C   0  0  2  0  0  0  0  0  0  0  0  0
  -13.5985    6.1696   14.6857 O   0  0  0  0  0  0  0  0  0  0  0  0
  -14.3401    8.2906   13.8760 C   0  0  2  0  0  0  0  0  0  0  0  0
  -15.3194    8.3824   14.9633 N   0  3  0  0  0  0  0  0  0  0  0  0
  -14.9722    7.6942   12.5964 C   0  0  0  0  0  0  0  0  0  0  0  0
  -13.8844    7.6757   11.5082 C   0  0  2  0  0  0  0  0  0  0  0  0
  -14.4184    7.1774   10.2770 O   0  0  0  0  0  0  0  0  0  0  0  0
  -12.6910    6.8151   11.9927 C   0  0  2  0  0  0  0  0  0  0  0  0
  -12.1640    7.3383   13.2452 O   0  0  0  0  0  0  0  0  0  0  0  0
  -11.5284    6.7748   11.0041 C   0  0  0  0  0  0  0  0  0  0  0  0
  -10.4453    5.8765   11.4834 N   0  3  0  0  0  0  0  0  0  0  0  0
  -12.1444    3.6347   17.7549 C   0  0  2  0  0  0  0  0  0  0  0  0
  -11.3171    2.6914   18.5292 N   0  3  0  0  0  0  0  0  0  0  0  0
  -12.6192    2.9715   16.4692 C   0  0  0  0  0  0  0  0  0  0  0  0
  -13.4779    3.9440   15.6529 C   0  0  2  0  0  0  0  0  0  0  0  0
  -14.0136    3.2199   14.4734 N   0  3  0  0  0  0  0  0  0  0  0  0
  -12.6858    5.2388   15.3016 C   0  0  2  0  0  0  0  0  0  0  0  0
  -12.1504    5.8859   16.6048 C   0  0  2  0  0  0  0  0  0  0  0  0
  -11.3000    6.9586   16.2789 O   0  0  0  0  0  0  0  0  0  0  0  0
  -11.3225    4.8771   17.4173 C   0  0  1  0  0  0  0  0  0  0  0  0
  -10.8794    5.5055   18.6195 O   0  0  0  0  0  0  0  0  0  0  0  0
  -11.6691    5.3456   19.7474 C   0  0  2  0  0  0  0  0  0  0  0  0
  -12.1694    6.7272   20.2027 C   0  0  2  0  0  0  0  0  0  0  0  0
  -12.9208    7.3095   19.1452 O   0  0  0  0  0  0  0  0  0  0  0  0
  -10.9646    7.6200   20.5475 C   0  0  1  0  0  0  0  0  0  0  0  0
  -11.3883    8.9840   20.9765 N   0  3  0  0  0  0  0  0  0  0  0  0
  -10.1232    6.9374   21.6534 C   0  0  2  0  0  0  0  0  0  0  0  0
   -8.9837    7.7312   21.9765 O   0  0  0  0  0  0  0  0  0  0  0  0
   -9.6923    5.5297   21.2013 C   0  0  2  0  0  0  0  0  0  0  0  0
  -10.8662    4.7376   20.7924 O   0  0  0  0  0  0  0  0  0  0  0  0
   -9.0018    4.7620   22.3067 C   0  0  0  0  0  0  0  0  0  0  0  0
   -7.7570    5.3591   22.6633 O   0  0  0  0  0  0  0  0  0  0  0  0
  1  2  1  6  0  0  0
  1  3  1  0  0  0  0
  1  9  1  0  0  0  0
  3  4  1  1  0  0  0
  3  5  1  0  0  0  0
  5  6  1  0  0  0  0
  6  7  1  6  0  0  0
  6  8  1  0  0  0  0
  8  9  1  0  0  0  0
  8 10  1  6  0  0  0
 10 11  1  0  0  0  0
 12 13  1  6  0  0  0
 12 14  1  0  0  0  0
 12 20  1  0  0  0  0
 14 15  1  0  0  0  0
 15 16  1  6  0  0  0
 15 17  1  0  0  0  0
 17  2  1  1  0  0  0
 17 18  1  0  0  0  0
 18 19  1  6  0  0  0
 18 20  1  0  0  0  0
 20 21  1  1  0  0  0
 22 21  1  6  0  0  0
 22 23  1  0  0  0  0
 22 30  1  0  0  0  0
 23 24  1  6  0  0  0
 23 25  1  0  0  0  0
 25 26  1  1  0  0  0
 25 27  1  0  0  0  0
 27 28  1  6  0  0  0
 27 29  1  0  0  0  0
 29 30  1  0  0  0  0
 29 31  1  1  0  0  0
 31 32  1  0  0  0  0
M  CHG  5   4   1  11   1  13   1  16   1  26   1
M  END
>  <CHROM.1>
-171.98952209,177.89690367,-177.61678045,65.86542821,-176.82238050,61.04279468
72.18784607,-64.75840503,-178.87349388,-28.44075584,-118.08367484,175.26345254
-167.53654756,62.40581289,-65.93580319,51.94802973,-11.98012373,6.13168527
16.83737288,2.77475178,1.17931109,-2.66263787

>  <Name>
1lc4

>  <RI>
0

>  <Rbt.Current_Directory>
/home/afrankz/demos/rdock_decoys_rna/rnas/1lc4

>  <Rbt.Executable>
rbdock ($Id: //depot/dev/client3/rdock/2013.1/src/exe/rbdock.cxx#4 $)

>  <Rbt.Library>
libRbt.so (2013.1, Build901 2013/11/27)

>  <Rbt.Parameter_File>
/export/apps/rDock/src/rDock_2013.1_src/data/scripts/dock_solv.prm

>  <Rbt.Receptor>
prm/pocket_docking_5.prm

>  <SCORE>
-54.4151

>  <SCORE.INTER>
-33.214

>  <SCORE.INTER.CONST>
1

>  <SCORE.INTER.POLAR>
-3.91092

>  <SCORE.INTER.ROT>
6

>  <SCORE.INTER.SOLV>
19.3039

>  <SCORE.INTER.VDW>
-23.1409

>  <SCORE.INTER.norm>
-1.03794

>  <SCORE.INTRA>
-21.201

>  <SCORE.INTRA.DIHEDRAL>
-31.1564

>  <SCORE.INTRA.DIHEDRAL.0>
44.2576

>  <SCORE.INTRA.POLAR>
-1.3897

>  <SCORE.INTRA.POLAR.0>
-0.381556

>  <SCORE.INTRA.REPUL>
0

>  <SCORE.INTRA.REPUL.0>
0

>  <SCORE.INTRA.SOLV>
-3.0208

>  <SCORE.INTRA.SOLV.lig_0>
-134.592

>  <SCORE.INTRA.VDW>
0.61252

>  <SCORE.INTRA.VDW.0>
-1.01417

>  <SCORE.INTRA.norm>
-0.662532

>  <SCORE.RESTR>
0

>  <SCORE.RESTR.CAVITY>
0

>  <SCORE.RESTR.norm>
0

>  <SCORE.SYSTEM>
0

>  <SCORE.SYSTEM.CONST>
0

>  <SCORE.SYSTEM.DIHEDRAL>
0

>  <SCORE.SYSTEM.SOLV>
0

>  <SCORE.SYSTEM.norm>
0

>  <SCORE.heavy>
32

>  <SCORE.norm>
-1.70047

>  <RMSD>
8.545

$$$$
1lc4
 OpenBabel02141814113D
libRbt.so/2013.1/901 2013/11/27
 32 34  0  0  0  0  0  0  0  0999 V2000
   -5.7789   11.1535   22.2222 C   0  0  2  0  0  0  0  0  0  0  0  0
   -4.9906   10.0754   22.6605 O   0  0  0  0  0  0  0  0  0  0  0  0
   -4.8369   12.2467   21.6777 C   0  0  2  0  0  0  0  0  0  0  0  0
   -4.0137   11.7137   20.5877 N   0  3  0  0  0  0  0  0  0  0  0  0
   -3.9619   12.8127   22.8207 C   0  0  0  0  0  0  0  0  0  0  0  0
   -4.9097   13.3806   23.8915 C   0  0  2  0  0  0  0  0  0  0  0  0
   -4.1604   13.9667   24.9613 O   0  0  0  0  0  0  0  0  0  0  0  0
   -5.8353   12.2504   24.4065 C   0  0  2  0  0  0  0  0  0  0  0  0
   -6.5869   11.6683   23.3036 O   0  0  0  0  0  0  0  0  0  0  0  0
   -6.8560   12.7222   25.4391 C   0  0  0  0  0  0  0  0  0  0  0  0
   -7.9389   11.7205   25.6222 N   0  3  0  0  0  0  0  0  0  0  0  0
   -6.4549    6.1968   23.5391 C   0  0  2  0  0  0  0  0  0  0  0  0
   -7.0593    5.0414   24.2275 N   0  3  0  0  0  0  0  0  0  0  0  0
   -5.2225    6.6658   24.3003 C   0  0  0  0  0  0  0  0  0  0  0  0
   -4.5868    7.8697   23.5962 C   0  0  2  0  0  0  0  0  0  0  0  0
   -3.3287    8.2158   24.3033 N   0  3  0  0  0  0  0  0  0  0  0  0
   -5.5960    9.0504   23.4739 C   0  0  2  0  0  0  0  0  0  0  0  0
   -6.8772    8.5612   22.7507 C   0  0  2  0  0  0  0  0  0  0  0  0
   -7.8505    9.5769   22.7862 O   0  0  0  0  0  0  0  0  0  0  0  0
   -7.4718    7.3337   23.4600 C   0  0  1  0  0  0  0  0  0  0  0  0
   -8.6270    6.9006   22.7426 O   0  0  0  0  0  0  0  0  0  0  0  0
   -8.4354    6.4411   21.4490 C   0  0  2  0  0  0  0  0  0  0  0  0
   -9.0504    7.4527   20.4669 C   0  0  2  0  0  0  0  0  0  0  0  0
   -8.4116    8.7099   20.6503 O   0  0  0  0  0  0  0  0  0  0  0  0
  -10.5586    7.5823   20.7427 C   0  0  1  0  0  0  0  0  0  0  0  0
  -11.2075    8.5690   19.8319 N   0  3  0  0  0  0  0  0  0  0  0  0
  -11.2244    6.1915   20.6032 C   0  0  2  0  0  0  0  0  0  0  0  0
  -12.6208    6.2757   20.8784 O   0  0  0  0  0  0  0  0  0  0  0  0
  -10.5463    5.1802   21.5461 C   0  0  2  0  0  0  0  0  0  0  0  0
   -9.0911    5.1535   21.3132 O   0  0  0  0  0  0  0  0  0  0  0  0
  -11.0559    3.7719   21.3338 C   0  0  0  0  0  0  0  0  0  0  0  0
  -12.4356    3.6550   21.6745 O   0  0  0  0  0  0  0  0  0  0  0  0
  1  2  1  1  0  0  0
  1  3  1  0  0  0  0
  1  9  1  0  0  0  0
  3  4  1  6  0  0  0
  3  5  1  0  0  0  0
  5  6  1  0  0  0  0
  6  7  1  1  0  0  0
  6  8  1  0  0  0  0
  8  9  1  0  0  0  0
  8 10  1  1  0  0  0
 10 11  1  0  0  0  0
 12 13  1  1  0  0  0
 12 14  1  0  0  0  0
 12 20  1  0  0  0  0
 14 15  1  0  0  0  0
 15 16  1  1  0  0  0
 15 17  1  0  0  0  0
 17  2  1  6  0  0  0
 17 18  1  0  0  0  0
 18 19  1  1  0  0  0
 18 20  1  0  0  0  0
 20 21  1  6  0  0  0
 22 21  1  1  0  0  0
 22 23  1  0  0  0  0
 22 30  1  0  0  0  0
 23 24  1  1  0  0  0
 23 25  1  0  0  0  0
 25 26  1  6  0  0  0
 25 27  1  0  0  0  0
 27 28  1  1  0  0  0
 27 29  1  0  0  0  0
 29 30  1  0  0  0  0
 29 31  1  6  0  0  0
 31 32  1  0  0  0  0
M  CHG  5   4   1  11   1  13   1  16   1  26   1
M  END
>  <CHROM.1>
166.67874314,169.89538302,-40.10290628,-58.67180839,164.46059085,-90.74189553
-176.41560007,59.74206002,172.91889423,-57.80014550,-110.68718112,-167.63797496
159.73094089,-53.40139414,-64.91615755,54.56891089,-7.45989842,8.69178261
22.60164525,0.74337904,-0.50020517,-0.13176872

>  <Name>
1lc4

>  <RI>
0

>  <Rbt.Current_Directory>
/home/afrankz/demos/rdock_decoys_rna/rnas/1lc4

>  <Rbt.Executable>
rbdock ($Id: //depot/dev/client3/rdock/2013.1/src/exe/rbdock.cxx#4 $)

>  <Rbt.Library>
libRbt.so (2013.1, Build901 2013/11/27)

>  <Rbt.Parameter_File>
/export/apps/rDock/src/rDock_2013.1_src/data/scripts/dock_solv.prm

>  <Rbt.Receptor>
prm/pocket_docking_7.prm

>  <SCORE>
-55.6766

>  <SCORE.INTER>
-41.4032

>  <SCORE.INTER.CONST>
1

>  <SCORE.INTER.POLAR>
-5.58925

>  <SCORE.INTER.ROT>
6

>  <SCORE.INTER.SOLV>
25.9886

>  <SCORE.INTER.VDW>
-25.2342

>  <SCORE.INTER.norm>
-1.29385

>  <SCORE.INTRA>
-14.8969

>  <SCORE.INTRA.DIHEDRAL>
-30.058

>  <SCORE.INTRA.DIHEDRAL.0>
44.2576

>  <SCORE.INTRA.POLAR>
-0.493841

>  <SCORE.INTRA.POLAR.0>
-0.381556

>  <SCORE.INTRA.REPUL>
0.0705741

>  <SCORE.INTRA.REPUL.0>
0

>  <SCORE.INTRA.SOLV>
-1.41595

>  <SCORE.INTRA.SOLV.lig_0>
-134.592

>  <SCORE.INTRA.VDW>
2.16631

>  <SCORE.INTRA.VDW.0>
-1.01417

>  <SCORE.INTRA.norm>
-0.465527

>  <SCORE.RESTR>
0.623383

>  <SCORE.RESTR.CAVITY>
0.623383

>  <SCORE.RESTR.norm>
0.0194807

>  <SCORE.SYSTEM>
0

>  <SCORE.SYSTEM.CONST>
0

>  <SCORE.SYSTEM.DIHEDRAL>
0

>  <SCORE.SYSTEM.SOLV>
0

>  <SCORE.SYSTEM.norm>
0

>  <SCORE.heavy>
32

>  <SCORE.norm>
-1.73989

>  <RMSD>
8.562

$$$$
1lc4
 OpenBabel02141814113D
libRbt.so/2013.1/901 2013/11/27
 32 34  0  0  0  0  0  0  0  0999 V2000
  -14.3268    8.2346   14.9987 C   0  0  2  0  0  0  0  0  0  0  0  0
  -14.1986    7.0156   15.6867 O   0  0  0  0  0  0  0  0  0  0  0  0
  -15.6616    8.8841   15.4175 C   0  0  2  0  0  0  0  0  0  0  0  0
  -15.6960    9.0880   16.8690 N   0  3  0  0  0  0  0  0  0  0  0  0
  -16.8489    8.0143   14.9418 C   0  0  0  0  0  0  0  0  0  0  0  0
  -16.7484    7.8912   13.4112 C   0  0  2  0  0  0  0  0  0  0  0  0
  -17.8500    7.1346   12.8979 O   0  0  0  0  0  0  0  0  0  0  0  0
  -15.3947    7.2370   13.0386 C   0  0  2  0  0  0  0  0  0  0  0  0
  -14.2891    8.0212   13.5703 O   0  0  0  0  0  0  0  0  0  0  0  0
  -15.1703    7.1170   11.5333 C   0  0  0  0  0  0  0  0  0  0  0  0
  -13.9842    6.2734   11.2315 N   0  3  0  0  0  0  0  0  0  0  0  0
  -11.1277    4.6925   17.4568 C   0  0  2  0  0  0  0  0  0  0  0  0
   -9.8513    3.9964   17.7020 N   0  3  0  0  0  0  0  0  0  0  0  0
  -11.7874    4.1366   16.2022 C   0  0  0  0  0  0  0  0  0  0  0  0
  -13.1145    4.8552   15.9342 C   0  0  2  0  0  0  0  0  0  0  0  0
  -13.7754    4.2029   14.7765 N   0  3  0  0  0  0  0  0  0  0  0  0
  -12.9022    6.3896   15.7669 C   0  0  2  0  0  0  0  0  0  0  0  0
  -12.1777    6.9498   17.0179 C   0  0  2  0  0  0  0  0  0  0  0  0
  -11.8395    8.2979   16.7976 O   0  0  0  0  0  0  0  0  0  0  0  0
  -10.8687    6.1874   17.2801 C   0  0  1  0  0  0  0  0  0  0  0  0
  -10.2550    6.7145   18.4558 O   0  0  0  0  0  0  0  0  0  0  0  0
  -11.0879    7.0396   19.5150 C   0  0  2  0  0  0  0  0  0  0  0  0
  -10.2326    7.5977   20.6654 C   0  0  2  0  0  0  0  0  0  0  0  0
   -9.5423    8.7506   20.2004 O   0  0  0  0  0  0  0  0  0  0  0  0
   -9.2251    6.5274   21.1203 C   0  0  1  0  0  0  0  0  0  0  0  0
   -8.3507    7.0202   22.2233 N   0  3  0  0  0  0  0  0  0  0  0  0
   -9.9933    5.2570   21.5596 C   0  0  2  0  0  0  0  0  0  0  0  0
   -9.0829    4.2367   21.9633 O   0  0  0  0  0  0  0  0  0  0  0  0
  -10.8940    4.7575   20.4147 C   0  0  2  0  0  0  0  0  0  0  0  0
  -11.7794    5.8387   19.9459 O   0  0  0  0  0  0  0  0  0  0  0  0
  -11.7822    3.6117   20.8461 C   0  0  0  0  0  0  0  0  0  0  0  0
  -12.6501    3.9915   21.9118 O   0  0  0  0  0  0  0  0  0  0  0  0
  1  2  1  1  0  0  0
  1  3  1  0  0  0  0
  1  9  1  0  0  0  0
  3  4  1  1  0  0  0
  3  5  1  0  0  0  0
  5  6  1  0  0  0  0
  6  7  1  1  0  0  0
  6  8  1  0  0  0  0
  8  9  1  0  0  0  0
  8 10  1  6  0  0  0
 10 11  1  0  0  0  0
 12 13  1  6  0  0  0
 12 14  1  0  0  0  0
 12 20  1  0  0  0  0
 14 15  1  0  0  0  0
 15 16  1  6  0  0  0
 15 17  1  0  0  0  0
 17  2  1  1  0  0  0
 17 18  1  0  0  0  0
 18 19  1  6  0  0  0
 18 20  1  0  0  0  0
 20 21  1  1  0  0  0
 22 21  1  6  0  0  0
 22 23  1  0  0  0  0
 22 30  1  0  0  0  0
 23 24  1  6  0  0  0
 23 25  1  0  0  0  0
 25 26  1  1  0  0  0
 25 27  1  0  0  0  0
 27 28  1  6  0  0  0
 27 29  1  0  0  0  0
 29 30  1  0  0  0  0
 29 31  1  1  0  0  0
 31 32  1  0  0  0  0
M  CHG  5   4   1  11   1  13   1  16   1  26   1
M  END
>  <CHROM.1>
-163.06422988,-153.44809847,179.23926632,-58.49313910,-169.86644387,176.92516892
42.01857750,-173.42899422,-179.69874672,-82.03570167,-179.45863408,-75.48448673
73.86826291,-173.69315377,60.40459063,-160.31492554,-12.55887785,6.42251050
17.25107514,2.88963266,0.91988017,-2.60966967

>  <Name>
1lc4

>  <RI>
0

>  <Rbt.Current_Directory>
/home/afrankz/demos/rdock_decoys_rna/rnas/1lc4

>  <Rbt.Executable>
rbdock ($Id: //depot/dev/client3/rdock/2013.1/src/exe/rbdock.cxx#4 $)

>  <Rbt.Library>
libRbt.so (2013.1, Build901 2013/11/27)

>  <Rbt.Parameter_File>
/export/apps/rDock/src/rDock_2013.1_src/data/scripts/dock_solv.prm

>  <Rbt.Receptor>
prm/pocket_docking_4.prm

>  <SCORE>
-51.8757

>  <SCORE.INTER>
-34.7476

>  <SCORE.INTER.CONST>
1

>  <SCORE.INTER.POLAR>
-5.00986

>  <SCORE.INTER.ROT>
6

>  <SCORE.INTER.SOLV>
20.009

>  <SCORE.INTER.VDW>
-20.7352

>  <SCORE.INTER.norm>
-1.08586

>  <SCORE.INTRA>
-17.1281

>  <SCORE.INTRA.DIHEDRAL>
-32.9677

>  <SCORE.INTRA.DIHEDRAL.0>
44.2576

>  <SCORE.INTRA.POLAR>
0.344216

>  <SCORE.INTRA.POLAR.0>
-0.381556

>  <SCORE.INTRA.REPUL>
0

>  <SCORE.INTRA.REPUL.0>
0

>  <SCORE.INTRA.SOLV>
-0.793133

>  <SCORE.INTRA.SOLV.lig_0>
-134.592

>  <SCORE.INTRA.VDW>
-1.41805

>  <SCORE.INTRA.VDW.0>
-1.01417

>  <SCORE.INTRA.norm>
-0.535254

>  <SCORE.RESTR>
0

>  <SCORE.RESTR.CAVITY>
0

>  <SCORE.RESTR.norm>
0

>  <SCORE.SYSTEM>
0

>  <SCORE.SYSTEM.CONST>
0

>  <SCORE.SYSTEM.DIHEDRAL>
0

>  <SCORE.SYSTEM.SOLV>
0

>  <SCORE.SYSTEM.norm>
0

>  <SCORE.heavy>
32

>  <SCORE.norm>
-1.62112

>  <RMSD>
8.573

$$$$
1lc4
 OpenBabel02141814113D
libRbt.so/2013.1/901 2013/11/27
 32 34  0  0  0  0  0  0  0  0999 V2000
  -10.0154    5.4834   13.8067 C   0  0  2  0  0  0  0  0  0  0  0  0
  -11.0248    4.5784   14.1787 O   0  0  0  0  0  0  0  0  0  0  0  0
  -10.3441    6.0161   12.3971 C   0  0  2  0  0  0  0  0  0  0  0  0
  -11.6620    6.6586   12.3893 N   0  3  0  0  0  0  0  0  0  0  0  0
  -10.2705    4.8675   11.3637 C   0  0  0  0  0  0  0  0  0  0  0  0
   -8.8469    4.2860   11.4186 C   0  0  2  0  0  0  0  0  0  0  0  0
   -8.6952    3.2449   10.4478 O   0  0  0  0  0  0  0  0  0  0  0  0
   -8.5617    3.7663   12.8497 C   0  0  2  0  0  0  0  0  0  0  0  0
   -8.7221    4.8397   13.8204 O   0  0  0  0  0  0  0  0  0  0  0  0
   -7.1492    3.2148   13.0270 C   0  0  0  0  0  0  0  0  0  0  0  0
   -6.7329    3.2498   14.4536 N   0  3  0  0  0  0  0  0  0  0  0  0
  -11.7171    3.2392   18.1394 C   0  0  2  0  0  0  0  0  0  0  0  0
  -11.6380    2.4925   19.4082 N   0  3  0  0  0  0  0  0  0  0  0  0
  -12.1013    2.2964   17.0073 C   0  0  0  0  0  0  0  0  0  0  0  0
  -12.1833    3.0606   15.6812 C   0  0  2  0  0  0  0  0  0  0  0  0
  -12.6740    2.1307   14.6338 N   0  3  0  0  0  0  0  0  0  0  0  0
  -10.8271    3.7477   15.3404 C   0  0  2  0  0  0  0  0  0  0  0  0
  -10.4031    4.6643   16.5167 C   0  0  2  0  0  0  0  0  0  0  0  0
   -9.1052    5.1549   16.2826 O   0  0  0  0  0  0  0  0  0  0  0  0
  -10.3630    3.8779   17.8370 C   0  0  1  0  0  0  0  0  0  0  0  0
  -10.0007    4.7669   18.8931 O   0  0  0  0  0  0  0  0  0  0  0  0
  -11.0135    5.5244   19.4604 C   0  0  2  0  0  0  0  0  0  0  0  0
  -10.4974    6.9565   19.6818 C   0  0  2  0  0  0  0  0  0  0  0  0
  -10.1111    7.4995   18.4256 O   0  0  0  0  0  0  0  0  0  0  0  0
   -9.2906    6.9241   20.6359 C   0  0  1  0  0  0  0  0  0  0  0  0
   -8.7321    8.2866   20.8721 N   0  3  0  0  0  0  0  0  0  0  0  0
   -9.7146    6.2693   21.9733 C   0  0  2  0  0  0  0  0  0  0  0  0
   -8.6083    6.2023   22.8701 O   0  0  0  0  0  0  0  0  0  0  0  0
  -10.2912    4.8642   21.7182 C   0  0  2  0  0  0  0  0  0  0  0  0
  -11.3831    4.9265   20.7300 O   0  0  0  0  0  0  0  0  0  0  0  0
  -10.8637    4.2460   22.9743 C   0  0  0  0  0  0  0  0  0  0  0  0
  -12.1644    4.7533   23.2645 O   0  0  0  0  0  0  0  0  0  0  0  0
  1  2  1  6  0  0  0
  1  3  1  0  0  0  0
  1  9  1  0  0  0  0
  3  4  1  1  0  0  0
  3  5  1  0  0  0  0
  5  6  1  0  0  0  0
  6  7  1  6  0  0  0
  6  8  1  0  0  0  0
  8  9  1  0  0  0  0
  8 10  1  6  0  0  0
 10 11  1  0  0  0  0
 12 13  1  1  0  0  0
 12 14  1  0  0  0  0
 12 20  1  0  0  0  0
 14 15  1  0  0  0  0
 15 16  1  6  0  0  0
 15 17  1  0  0  0  0
 17  2  1  6  0  0  0
 17 18  1  0  0  0  0
 18 19  1  6  0  0  0
 18 20  1  0  0  0  0
 20 21  1  1  0  0  0
 22 21  1  1  0  0  0
 22 23  1  0  0  0  0
 22 30  1  0  0  0  0
 23 24  1  6  0  0  0
 23 25  1  0  0  0  0
 25 26  1  1  0  0  0
 25 27  1  0  0  0  0
 27 28  1  1  0  0  0
 27 29  1  0  0  0  0
 29 30  1  0  0  0  0
 29 31  1  1  0  0  0
 31 32  1  0  0  0  0
M  CHG  5   4   1  11   1  13   1  16   1  26   1
M  END
>  <CHROM.1>
168.30649397,169.07648976,-66.68933359,-179.72747109,156.84160371,96.02915504
-53.82120484,63.01452616,-74.22986955,-38.40070700,-137.85186102,162.49563000
142.79171845,158.00316976,79.56770666,59.60348445,-10.16589449,4.76183366
16.97787290,-1.43764616,0.81921501,1.32265526

>  <Name>
1lc4

>  <RI>
0

>  <Rbt.Current_Directory>
/home/afrankz/demos/rdock_decoys_rna/rnas/1lc4

>  <Rbt.Executable>
rbdock ($Id: //depot/dev/client3/rdock/2013.1/src/exe/rbdock.cxx#4 $)

>  <Rbt.Library>
libRbt.so (2013.1, Build901 2013/11/27)

>  <Rbt.Parameter_File>
/export/apps/rDock/src/rDock_2013.1_src/data/scripts/dock_solv.prm

>  <Rbt.Receptor>
prm/blind_docking_100.prm

>  <SCORE>
-46.8893

>  <SCORE.INTER>
-38.1247

>  <SCORE.INTER.CONST>
1

>  <SCORE.INTER.POLAR>
-6.35512

>  <SCORE.INTER.ROT>
6

>  <SCORE.INTER.SOLV>
27.7413

>  <SCORE.INTER.VDW>
-21.0799

>  <SCORE.INTER.norm>
-1.1914

>  <SCORE.INTRA>
-13.1486

>  <SCORE.INTRA.DIHEDRAL>
-22.6173

>  <SCORE.INTRA.DIHEDRAL.0>
44.2576

>  <SCORE.INTRA.POLAR>
-0.747067

>  <SCORE.INTRA.POLAR.0>
-0.381556

>  <SCORE.INTRA.REPUL>
0

>  <SCORE.INTRA.REPUL.0>
0

>  <SCORE.INTRA.SOLV>
-0.462295

>  <SCORE.INTRA.SOLV.lig_0>
-134.592

>  <SCORE.INTRA.VDW>
0.931272

>  <SCORE.INTRA.VDW.0>
-1.01417

>  <SCORE.INTRA.norm>
-0.410892

>  <SCORE.RESTR>
4.38395

>  <SCORE.RESTR.CAVITY>
4.38395

>  <SCORE.RESTR.norm>
0.136999

>  <SCORE.SYSTEM>
0

>  <SCORE.SYSTEM.CONST>
0

>  <SCORE.SYSTEM.DIHEDRAL>
0

>  <SCORE.SYSTEM.SOLV>
0

>  <SCORE.SYSTEM.norm>
0

>  <SCORE.heavy>
32

>  <SCORE.norm>
-1.46529

>  <RMSD>
8.581

$$$$
1lc4
 OpenBabel02141814113D
libRbt.so/2013.1/901 2013/11/27
 32 34  0  0  0  0  0  0  0  0999 V2000
  -16.6266    8.2659   14.3141 C   0  0  2  0  0  0  0  0  0  0  0  0
  -15.8940    7.5333   15.2642 O   0  0  0  0  0  0  0  0  0  0  0  0
  -17.8623    7.4337   13.9150 C   0  0  2  0  0  0  0  0  0  0  0  0
  -18.6772    7.1324   15.0961 N   0  3  0  0  0  0  0  0  0  0  0  0
  -17.4212    6.1409   13.1893 C   0  0  0  0  0  0  0  0  0  0  0  0
  -16.6108    6.5593   11.9500 C   0  0  2  0  0  0  0  0  0  0  0  0
  -16.2108    5.4059   11.2024 O   0  0  0  0  0  0  0  0  0  0  0  0
  -15.3840    7.3920   12.3984 C   0  0  2  0  0  0  0  0  0  0  0  0
  -15.8129    8.5586   13.1568 O   0  0  0  0  0  0  0  0  0  0  0  0
  -14.5381    7.9047   11.2356 C   0  0  0  0  0  0  0  0  0  0  0  0
  -13.7234    6.8131   10.6404 N   0  3  0  0  0  0  0  0  0  0  0  0
  -13.1510    8.1092   18.4429 C   0  0  2  0  0  0  0  0  0  0  0  0
  -12.0815    8.6530   19.2998 N   0  3  0  0  0  0  0  0  0  0  0  0
  -12.5772    7.7091   17.0905 C   0  0  0  0  0  0  0  0  0  0  0  0
  -13.6807    7.1453   16.1885 C   0  0  2  0  0  0  0  0  0  0  0  0
  -13.0572    6.6610   14.9318 N   0  3  0  0  0  0  0  0  0  0  0  0
  -14.8222    8.1841   15.9758 C   0  0  2  0  0  0  0  0  0  0  0  0
  -15.3699    8.6383   17.3533 C   0  0  2  0  0  0  0  0  0  0  0  0
  -16.2826    9.6932   17.1687 O   0  0  0  0  0  0  0  0  0  0  0  0
  -14.2358    9.1665   18.2467 C   0  0  1  0  0  0  0  0  0  0  0  0
  -14.7806    9.5412   19.5113 O   0  0  0  0  0  0  0  0  0  0  0  0
  -15.8229   10.4549   19.5077 C   0  0  2  0  0  0  0  0  0  0  0  0
  -15.2412   11.8706   19.3534 C   0  0  2  0  0  0  0  0  0  0  0  0
  -14.5173   11.9336   18.1311 O   0  0  0  0  0  0  0  0  0  0  0  0
  -14.3050   12.1713   20.5370 C   0  0  1  0  0  0  0  0  0  0  0  0
  -13.6924   13.5268   20.4306 N   0  3  0  0  0  0  0  0  0  0  0  0
  -15.0953   12.0324   21.8610 C   0  0  2  0  0  0  0  0  0  0  0  0
  -14.2459   12.2810   22.9788 O   0  0  0  0  0  0  0  0  0  0  0  0
  -15.7250   10.6305   21.9602 C   0  0  2  0  0  0  0  0  0  0  0  0
  -16.5392   10.3452   20.7651 O   0  0  0  0  0  0  0  0  0  0  0  0
  -16.6361   10.4980   23.1603 C   0  0  0  0  0  0  0  0  0  0  0  0
  -17.1295    9.1676   23.3016 O   0  0  0  0  0  0  0  0  0  0  0  0
  1  2  1  1  0  0  0
  1  3  1  0  0  0  0
  1  9  1  0  0  0  0
  3  4  1  1  0  0  0
  3  5  1  0  0  0  0
  5  6  1  0  0  0  0
  6  7  1  1  0  0  0
  6  8  1  0  0  0  0
  8  9  1  0  0  0  0
  8 10  1  6  0  0  0
 10 11  1  0  0  0  0
 12 13  1  1  0  0  0
 12 14  1  0  0  0  0
 12 20  1  0  0  0  0
 14 15  1  0  0  0  0
 15 16  1  6  0  0  0
 15 17  1  0  0  0  0
 17  2  1  6  0  0  0
 17 18  1  0  0  0  0
 18 19  1  6  0  0  0
 18 20  1  0  0  0  0
 20 21  1  1  0  0  0
 22 21  1  1  0  0  0
 22 23  1  0  0  0  0
 22 30  1  0  0  0  0
 23 24  1  6  0  0  0
 23 25  1  0  0  0  0
 25 26  1  6  0  0  0
 25 27  1  0  0  0  0
 27 28  1  1  0  0  0
 27 29  1  0  0  0  0
 29 30  1  0  0  0  0
 29 31  1  1  0  0  0
 31 32  1  0  0  0  0
M  CHG  5   4   1  11   1  13   1  16   1  26   1
M  END
>  <CHROM.1>
-169.09857906,-143.81490707,179.23570027,-61.59200375,-75.01358897,81.36753142
166.91485740,174.35742949,64.13833565,-177.28638624,-80.47019747,41.60497180
-174.77976502,49.73189374,-175.38388514,-56.87171304,-15.22978186,8.98839239
17.14604453,1.62932835,-0.20618833,-2.01039996

>  <Name>
1lc4

>  <RI>
0

>  <Rbt.Current_Directory>
/home/afrankz/demos/rdock_decoys_rna/rnas/1lc4

>  <Rbt.Executable>
rbdock ($Id: //depot/dev/client3/rdock/2013.1/src/exe/rbdock.cxx#4 $)

>  <Rbt.Library>
libRbt.so (2013.1, Build901 2013/11/27)

>  <Rbt.Parameter_File>
/export/apps/rDock/src/rDock_2013.1_src/data/scripts/dock_solv.prm

>  <Rbt.Receptor>
prm/pocket_docking_8.prm

>  <SCORE>
-45.9273

>  <SCORE.INTER>
-27.4173

>  <SCORE.INTER.CONST>
1

>  <SCORE.INTER.POLAR>
-4.59688

>  <SCORE.INTER.ROT>
6

>  <SCORE.INTER.SOLV>
19.7736

>  <SCORE.INTER.VDW>
-17.1465

>  <SCORE.INTER.norm>
-0.856791

>  <SCORE.INTRA>
-18.51

>  <SCORE.INTRA.DIHEDRAL>
-32.3186

>  <SCORE.INTRA.DIHEDRAL.0>
44.2576

>  <SCORE.INTRA.POLAR>
-0.456607

>  <SCORE.INTRA.POLAR.0>
-0.381556

>  <SCORE.INTRA.REPUL>
0

>  <SCORE.INTRA.REPUL.0>
0

>  <SCORE.INTRA.SOLV>
-0.838727

>  <SCORE.INTRA.SOLV.lig_0>
-134.592

>  <SCORE.INTRA.VDW>
-0.378911

>  <SCORE.INTRA.VDW.0>
-1.01417

>  <SCORE.INTRA.norm>
-0.578438

>  <SCORE.RESTR>
0

>  <SCORE.RESTR.CAVITY>
0

>  <SCORE.RESTR.norm>
0

>  <SCORE.SYSTEM>
0

>  <SCORE.SYSTEM.CONST>
0

>  <SCORE.SYSTEM.DIHEDRAL>
0

>  <SCORE.SYSTEM.SOLV>
0

>  <SCORE.SYSTEM.norm>
0

>  <SCORE.heavy>
32

>  <SCORE.norm>
-1.43523

>  <RMSD>
8.582

$$$$
1lc4
 OpenBabel02141814113D
libRbt.so/2013.1/901 2013/11/27
 32 34  0  0  0  0  0  0  0  0999 V2000
  -12.1223    2.9739   18.1727 C   0  0  2  0  0  0  0  0  0  0  0  0
  -10.9560    2.2966   17.7766 O   0  0  0  0  0  0  0  0  0  0  0  0
  -11.9002    3.5186   19.5985 C   0  0  2  0  0  0  0  0  0  0  0  0
  -10.7345    4.4072   19.6290 N   0  3  0  0  0  0  0  0  0  0  0  0
  -11.7432    2.3476   20.5969 C   0  0  0  0  0  0  0  0  0  0  0  0
  -13.0248    1.4994   20.5209 C   0  0  2  0  0  0  0  0  0  0  0  0
  -12.9657    0.4204   21.4597 O   0  0  0  0  0  0  0  0  0  0  0  0
  -13.2069    0.9767   19.0741 C   0  0  2  0  0  0  0  0  0  0  0  0
  -13.2639    2.0892   18.1364 O   0  0  0  0  0  0  0  0  0  0  0  0
  -14.4840    0.1638   18.8767 C   0  0  0  0  0  0  0  0  0  0  0  0
  -15.6930    1.0147   19.0314 N   0  3  0  0  0  0  0  0  0  0  0  0
   -8.7668    1.2253   14.3096 C   0  0  2  0  0  0  0  0  0  0  0  0
   -8.4044    0.8827   12.9221 N   0  3  0  0  0  0  0  0  0  0  0  0
   -9.7557    0.2032   14.8535 C   0  0  0  0  0  0  0  0  0  0  0  0
  -10.1434    0.5507   16.2951 C   0  0  2  0  0  0  0  0  0  0  0  0
  -11.0111   -0.5323   16.8212 N   0  3  0  0  0  0  0  0  0  0  0  0
  -10.7730    1.9730   16.3836 C   0  0  2  0  0  0  0  0  0  0  0  0
   -9.7929    3.0099   15.7770 C   0  0  2  0  0  0  0  0  0  0  0  0
  -10.4252    4.2650   15.7061 O   0  0  0  0  0  0  0  0  0  0  0  0
   -9.3965    2.6164   14.3447 C   0  0  1  0  0  0  0  0  0  0  0  0
   -8.4714    3.5792   13.8407 O   0  0  0  0  0  0  0  0  0  0  0  0
   -7.5500    4.1022   14.7343 C   0  0  2  0  0  0  0  0  0  0  0  0
   -7.3165    5.5845   14.3956 C   0  0  2  0  0  0  0  0  0  0  0  0
   -8.5561    6.2740   14.4952 O   0  0  0  0  0  0  0  0  0  0  0  0
   -6.7613    5.7016   12.9653 C   0  0  1  0  0  0  0  0  0  0  0  0
   -6.5344    7.1221   12.5718 N   0  3  0  0  0  0  0  0  0  0  0  0
   -5.4472    4.8900   12.8598 C   0  0  2  0  0  0  0  0  0  0  0  0
   -4.9216    4.9592   11.5362 O   0  0  0  0  0  0  0  0  0  0  0  0
   -5.6919    3.4258   13.2697 C   0  0  2  0  0  0  0  0  0  0  0  0
   -6.3089    3.3609   14.6067 O   0  0  0  0  0  0  0  0  0  0  0  0
   -4.4077    2.6292   13.3340 C   0  0  0  0  0  0  0  0  0  0  0  0
   -3.5699    3.0674   14.4014 O   0  0  0  0  0  0  0  0  0  0  0  0
  1  2  1  1  0  0  0
  1  3  1  0  0  0  0
  1  9  1  0  0  0  0
  3  4  1  6  0  0  0
  3  5  1  0  0  0  0
  5  6  1  0  0  0  0
  6  7  1  1  0  0  0
  6  8  1  0  0  0  0
  8  9  1  0  0  0  0
  8 10  1  1  0  0  0
 10 11  1  0  0  0  0
 12 13  1  6  0  0  0
 12 14  1  0  0  0  0
 12 20  1  0  0  0  0
 14 15  1  0  0  0  0
 15 16  1  6  0  0  0
 15 17  1  0  0  0  0
 17  2  1  1  0  0  0
 17 18  1  0  0  0  0
 18 19  1  6  0  0  0
 18 20  1  0  0  0  0
 20 21  1  1  0  0  0
 22 21  1  6  0  0  0
 22 23  1  0  0  0  0
 22 30  1  0  0  0  0
 23 24  1  6  0  0  0
 23 25  1  0  0  0  0
 25 26  1  1  0  0  0
 25 27  1  0  0  0  0
 27 28  1  6  0  0  0
 27 29  1  0  0  0  0
 29 30  1  0  0  0  0
 29 31  1  1  0  0  0
 31 32  1  0  0  0  0
M  CHG  5   4   1  11   1  13   1  16   1  26   1
M  END
>  <CHROM.1>
-165.15845183,-140.39887539,71.06163018,169.66338592,66.62707576,55.63741258
-74.22906183,65.63389283,173.17663358,-85.14550740,-143.73086083,-71.11812027
-81.34210633,69.69195974,67.79051470,-61.58152476,-9.49694530,2.85517681
16.02934700,2.99131921,-0.75497981,-2.90106870

>  <Name>
1lc4

>  <RI>
0

>  <Rbt.Current_Directory>
/home/afrankz/demos/rdock_decoys_rna/rnas/1lc4

>  <Rbt.Executable>
rbdock ($Id: //depot/dev/client3/rdock/2013.1/src/exe/rbdock.cxx#4 $)

>  <Rbt.Library>
libRbt.so (2013.1, Build901 2013/11/27)

>  <Rbt.Parameter_File>
/export/apps/rDock/src/rDock_2013.1_src/data/scripts/dock_solv.prm

>  <Rbt.Receptor>
prm/blind_docking_100.prm

>  <SCORE>
-47.4899

>  <SCORE.INTER>
-34.4604

>  <SCORE.INTER.CONST>
1

>  <SCORE.INTER.POLAR>
-5.71455

>  <SCORE.INTER.ROT>
6

>  <SCORE.INTER.SOLV>
28.0703

>  <SCORE.INTER.VDW>
-20.8819

>  <SCORE.INTER.norm>
-1.07689

>  <SCORE.INTRA>
-15.1797

>  <SCORE.INTRA.DIHEDRAL>
-26.2601

>  <SCORE.INTRA.DIHEDRAL.0>
44.2576

>  <SCORE.INTRA.POLAR>
-0.0907984

>  <SCORE.INTRA.POLAR.0>
-0.381556

>  <SCORE.INTRA.REPUL>
0

>  <SCORE.INTRA.REPUL.0>
0

>  <SCORE.INTRA.SOLV>
-0.288465

>  <SCORE.INTRA.SOLV.lig_0>
-134.592

>  <SCORE.INTRA.VDW>
-1.59676

>  <SCORE.INTRA.VDW.0>
-1.01417

>  <SCORE.INTRA.norm>
-0.474367

>  <SCORE.RESTR>
2.15032

>  <SCORE.RESTR.CAVITY>
2.15032

>  <SCORE.RESTR.norm>
0.0671976

>  <SCORE.SYSTEM>
0

>  <SCORE.SYSTEM.CONST>
0

>  <SCORE.SYSTEM.DIHEDRAL>
0

>  <SCORE.SYSTEM.SOLV>
0

>  <SCORE.SYSTEM.norm>
0

>  <SCORE.heavy>
32

>  <SCORE.norm>
-1.48406

>  <RMSD>
8.587

$$$$
1lc4
 OpenBabel02141814113D
libRbt.so/2013.1/901 2013/11/27
 32 34  0  0  0  0  0  0  0  0999 V2000
  -16.7737   15.6995   17.4473 C   0  0  2  0  0  0  0  0  0  0  0  0
  -15.8090   14.7330   17.1137 O   0  0  0  0  0  0  0  0  0  0  0  0
  -17.5968   16.0130   16.1811 C   0  0  2  0  0  0  0  0  0  0  0  0
  -18.2248   14.7923   15.6660 N   0  3  0  0  0  0  0  0  0  0  0  0
  -16.6973   16.6785   15.1131 C   0  0  0  0  0  0  0  0  0  0  0  0
  -16.1190   17.9637   15.7307 C   0  0  2  0  0  0  0  0  0  0  0  0
  -15.3111   18.6576   14.7740 O   0  0  0  0  0  0  0  0  0  0  0  0
  -15.3040   17.6007   16.9970 C   0  0  2  0  0  0  0  0  0  0  0  0
  -16.1434   16.8959   17.9555 O   0  0  0  0  0  0  0  0  0  0  0  0
  -14.7286   18.8160   17.7199 C   0  0  0  0  0  0  0  0  0  0  0  0
  -13.7733   18.4074   18.7829 N   0  3  0  0  0  0  0  0  0  0  0  0
  -13.7775   11.3764   18.7156 C   0  0  2  0  0  0  0  0  0  0  0  0
  -13.4351   10.1877   19.5178 N   0  3  0  0  0  0  0  0  0  0  0  0
  -13.9615   12.5811   19.6284 C   0  0  0  0  0  0  0  0  0  0  0  0
  -14.3217   13.8233   18.8060 C   0  0  2  0  0  0  0  0  0  0  0  0
  -14.3738   14.9916   19.7198 N   0  3  0  0  0  0  0  0  0  0  0  0
  -15.6253   13.5977   17.9832 C   0  0  2  0  0  0  0  0  0  0  0  0
  -15.4635   12.3371   17.0953 C   0  0  2  0  0  0  0  0  0  0  0  0
  -16.6927   12.0386   16.4789 O   0  0  0  0  0  0  0  0  0  0  0  0
  -15.0694   11.1167   17.9432 C   0  0  1  0  0  0  0  0  0  0  0  0
  -14.9005    9.9913   17.0820 O   0  0  0  0  0  0  0  0  0  0  0  0
  -13.8935   10.0645   16.1323 C   0  0  2  0  0  0  0  0  0  0  0  0
  -14.3568    9.3337   14.8605 C   0  0  2  0  0  0  0  0  0  0  0  0
  -15.5408    9.9597   14.3826 O   0  0  0  0  0  0  0  0  0  0  0  0
  -14.6376    7.8575   15.1917 C   0  0  1  0  0  0  0  0  0  0  0  0
  -15.1124    7.1006   13.9977 N   0  3  0  0  0  0  0  0  0  0  0  0
  -13.3558    7.2119   15.7724 C   0  0  2  0  0  0  0  0  0  0  0  0
  -13.5932    5.8479   16.1129 O   0  0  0  0  0  0  0  0  0  0  0  0
  -12.8731    8.0016   17.0032 C   0  0  2  0  0  0  0  0  0  0  0  0
  -12.7048    9.4270   16.6678 O   0  0  0  0  0  0  0  0  0  0  0  0
  -11.5384    7.5046   17.5124 C   0  0  0  0  0  0  0  0  0  0  0  0
  -11.1452    8.1812   18.7044 O   0  0  0  0  0  0  0  0  0  0  0  0
  1  2  1  6  0  0  0
  1  3  1  0  0  0  0
  1  9  1  0  0  0  0
  3  4  1  6  0  0  0
  3  5  1  0  0  0  0
  5  6  1  0  0  0  0
  6  7  1  6  0  0  0
  6  8  1  0  0  0  0
  8  9  1  0  0  0  0
  8 10  1  1  0  0  0
 10 11  1  0  0  0  0
 12 13  1  1  0  0  0
 12 14  1  0  0  0  0
 12 20  1  0  0  0  0
 14 15  1  0  0  0  0
 15 16  1  1  0  0  0
 15 17  1  0  0  0  0
 17  2  1  6  0  0  0
 17 18  1  0  0  0  0
 18 19  1  1  0  0  0
 18 20  1  0  0  0  0
 20 21  1  6  0  0  0
 22 21  1  1  0  0  0
 22 23  1  0  0  0  0
 22 30  1  0  0  0  0
 23 24  1  1  0  0  0
 23 25  1  0  0  0  0
 25 26  1  6  0  0  0
 25 27  1  0  0  0  0
 27 28  1  1  0  0  0
 27 29  1  0  0  0  0
 29 30  1  0  0  0  0
 29 31  1  6  0  0  0
 31 32  1  0  0  0  0
M  CHG  5   4   1  11   1  13   1  16   1  26   1
M  END
>  <CHROM.1>
-133.51678783,-103.80632757,-154.02880240,60.55992208,-170.36284325,53.25592758
-32.47241760,-54.51970223,171.94643333,-58.88641673,-145.10396053,66.26270020
59.47704353,-62.31672345,-176.01665836,-179.22163374,-14.77000815,12.44101788
16.96036249,1.96696323,-0.89646283,0.37285328

>  <Name>
1lc4

>  <RI>
0

>  <Rbt.Current_Directory>
/home/afrankz/demos/rdock_decoys_rna/rnas/1lc4

>  <Rbt.Executable>
rbdock ($Id: //depot/dev/client3/rdock/2013.1/src/exe/rbdock.cxx#4 $)

>  <Rbt.Library>
libRbt.so (2013.1, Build901 2013/11/27)

>  <Rbt.Parameter_File>
/export/apps/rDock/src/rDock_2013.1_src/data/scripts/dock_solv.prm

>  <Rbt.Receptor>
prm/blind_docking_40.prm

>  <SCORE>
-38.2179

>  <SCORE.INTER>
-23.89

>  <SCORE.INTER.CONST>
1

>  <SCORE.INTER.POLAR>
-3.59806

>  <SCORE.INTER.ROT>
6

>  <SCORE.INTER.SOLV>
21.7509

>  <SCORE.INTER.VDW>
-18.7835

>  <SCORE.INTER.norm>
-0.746564

>  <SCORE.INTRA>
-22.4357

>  <SCORE.INTRA.DIHEDRAL>
-23.2312

>  <SCORE.INTRA.DIHEDRAL.0>
44.2576

>  <SCORE.INTRA.POLAR>
-2.83229

>  <SCORE.INTRA.POLAR.0>
-0.381556

>  <SCORE.INTRA.REPUL>
0

>  <SCORE.INTRA.REPUL.0>
0

>  <SCORE.INTRA.SOLV>
4.68613

>  <SCORE.INTRA.SOLV.lig_0>
-134.592

>  <SCORE.INTRA.VDW>
-3.53332

>  <SCORE.INTRA.VDW.0>
-1.01417

>  <SCORE.INTRA.norm>
-0.701115

>  <SCORE.RESTR>
8.10784

>  <SCORE.RESTR.CAVITY>
8.10784

>  <SCORE.RESTR.norm>
0.25337

>  <SCORE.SYSTEM>
0

>  <SCORE.SYSTEM.CONST>
0

>  <SCORE.SYSTEM.DIHEDRAL>
0

>  <SCORE.SYSTEM.SOLV>
0

>  <SCORE.SYSTEM.norm>
0

>  <SCORE.heavy>
32

>  <SCORE.norm>
-1.19431

>  <RMSD>
8.607

$$$$
1lc4
 OpenBabel02141814113D
libRbt.so/2013.1/901 2013/11/27
 32 34  0  0  0  0  0  0  0  0999 V2000
  -14.2549    8.1944   14.8239 C   0  0  2  0  0  0  0  0  0  0  0  0
  -14.1459    7.1051   15.7057 O   0  0  0  0  0  0  0  0  0  0  0  0
  -15.7516    8.5254   14.6526 C   0  0  2  0  0  0  0  0  0  0  0  0
  -16.3579    8.8319   15.9519 N   0  3  0  0  0  0  0  0  0  0  0  0
  -16.4790    7.3532   13.9531 C   0  0  0  0  0  0  0  0  0  0  0  0
  -15.8000    7.1346   12.5897 C   0  0  2  0  0  0  0  0  0  0  0  0
  -16.4587    6.0899   11.8657 O   0  0  0  0  0  0  0  0  0  0  0  0
  -14.3022    6.8075   12.8109 C   0  0  2  0  0  0  0  0  0  0  0  0
  -13.6522    7.8814   13.5487 O   0  0  0  0  0  0  0  0  0  0  0  0
  -13.5206    6.6246   11.5123 C   0  0  0  0  0  0  0  0  0  0  0  0
  -13.9378    5.3867   10.8029 N   0  3  0  0  0  0  0  0  0  0  0  0
  -11.2613    4.6424   17.5961 C   0  0  2  0  0  0  0  0  0  0  0  0
  -10.0193    3.9111   17.9067 N   0  3  0  0  0  0  0  0  0  0  0  0
  -11.8277    4.1594   16.2679 C   0  0  0  0  0  0  0  0  0  0  0  0
  -13.1181    4.9152   15.9318 C   0  0  2  0  0  0  0  0  0  0  0  0
  -13.6949    4.3313   14.6952 N   0  3  0  0  0  0  0  0  0  0  0  0
  -12.8698    6.4514   15.8568 C   0  0  2  0  0  0  0  0  0  0  0  0
  -12.2385    6.9376   17.1868 C   0  0  2  0  0  0  0  0  0  0  0  0
  -11.8633    8.2879   17.0600 O   0  0  0  0  0  0  0  0  0  0  0  0
  -10.9663    6.1387   17.5136 C   0  0  1  0  0  0  0  0  0  0  0  0
  -10.4401    6.5975   18.7583 O   0  0  0  0  0  0  0  0  0  0  0  0
  -11.3221    6.6943   19.8232 C   0  0  2  0  0  0  0  0  0  0  0  0
  -10.8862    7.8627   20.7239 C   0  0  2  0  0  0  0  0  0  0  0  0
  -10.8986    9.0585   19.9546 O   0  0  0  0  0  0  0  0  0  0  0  0
   -9.4689    7.5950   21.2597 C   0  0  1  0  0  0  0  0  0  0  0  0
   -8.9826    8.7078   22.1253 N   0  3  0  0  0  0  0  0  0  0  0  0
   -9.4616    6.2562   22.0374 C   0  0  2  0  0  0  0  0  0  0  0  0
   -8.1531    5.9685   22.5253 O   0  0  0  0  0  0  0  0  0  0  0  0
   -9.9668    5.1146   21.1357 C   0  0  2  0  0  0  0  0  0  0  0  0
  -11.2855    5.4500   20.5692 O   0  0  0  0  0  0  0  0  0  0  0  0
  -10.1268    3.8162   21.8950 C   0  0  0  0  0  0  0  0  0  0  0  0
  -10.8873    2.8641   21.1543 O   0  0  0  0  0  0  0  0  0  0  0  0
  1  2  1  1  0  0  0
  1  3  1  0  0  0  0
  1  9  1  0  0  0  0
  3  4  1  1  0  0  0
  3  5  1  0  0  0  0
  5  6  1  0  0  0  0
  6  7  1  1  0  0  0
  6  8  1  0  0  0  0
  8  9  1  0  0  0  0
  8 10  1  6  0  0  0
 10 11  1  0  0  0  0
 12 13  1  6  0  0  0
 12 14  1  0  0  0  0
 12 20  1  0  0  0  0
 14 15  1  0  0  0  0
 15 16  1  6  0  0  0
 15 17  1  0  0  0  0
 17  2  1  1  0  0  0
 17 18  1  0  0  0  0
 18 19  1  6  0  0  0
 18 20  1  0  0  0  0
 20 21  1  1  0  0  0
 22 21  1  6  0  0  0
 22 23  1  0  0  0  0
 22 30  1  0  0  0  0
 23 24  1  6  0  0  0
 23 25  1  0  0  0  0
 25 26  1  1  0  0  0
 25 27  1  0  0  0  0
 27 28  1  6  0  0  0
 27 29  1  0  0  0  0
 29 30  1  0  0  0  0
 29 31  1  1  0  0  0
 31 32  1  0  0  0  0
M  CHG  5   4   1  11   1  13   1  16   1  26   1
M  END
>  <CHROM.1>
169.45619681,-139.40541989,-168.02975953,56.90061509,-68.87322987,147.36345314
175.55287322,179.57399653,-174.38882056,-72.51984992,-147.74379164,-176.71238151
-177.84309983,72.37835115,165.90485049,-49.90932277,-12.31679392,6.42454903
17.20349209,2.77596737,0.96245099,-2.62250811

>  <Name>
1lc4

>  <RI>
0

>  <Rbt.Current_Directory>
/home/afrankz/demos/rdock_decoys_rna/rnas/1lc4

>  <Rbt.Executable>
rbdock ($Id: //depot/dev/client3/rdock/2013.1/src/exe/rbdock.cxx#4 $)

>  <Rbt.Library>
libRbt.so (2013.1, Build901 2013/11/27)

>  <Rbt.Parameter_File>
/export/apps/rDock/src/rDock_2013.1_src/data/scripts/dock_solv.prm

>  <Rbt.Receptor>
prm/pocket_docking_3.prm

>  <SCORE>
-50.3059

>  <SCORE.INTER>
-29.9248

>  <SCORE.INTER.CONST>
1

>  <SCORE.INTER.POLAR>
-4.02254

>  <SCORE.INTER.ROT>
6

>  <SCORE.INTER.SOLV>
21.8896

>  <SCORE.INTER.VDW>
-21.4379

>  <SCORE.INTER.norm>
-0.935149

>  <SCORE.INTRA>
-20.9666

>  <SCORE.INTRA.DIHEDRAL>
-28.4786

>  <SCORE.INTRA.DIHEDRAL.0>
44.2576

>  <SCORE.INTRA.POLAR>
-1.62172

>  <SCORE.INTRA.POLAR.0>
-0.381556

>  <SCORE.INTRA.REPUL>
0

>  <SCORE.INTRA.REPUL.0>
0

>  <SCORE.INTRA.SOLV>
3.46594

>  <SCORE.INTRA.SOLV.lig_0>
-134.592

>  <SCORE.INTRA.VDW>
-2.94647

>  <SCORE.INTRA.VDW.0>
-1.01417

>  <SCORE.INTRA.norm>
-0.655207

>  <SCORE.RESTR>
0.585488

>  <SCORE.RESTR.CAVITY>
0.585488

>  <SCORE.RESTR.norm>
0.0182965

>  <SCORE.SYSTEM>
0

>  <SCORE.SYSTEM.CONST>
0

>  <SCORE.SYSTEM.DIHEDRAL>
0

>  <SCORE.SYSTEM.SOLV>
0

>  <SCORE.SYSTEM.norm>
0

>  <SCORE.heavy>
32

>  <SCORE.norm>
-1.57206

>  <RMSD>
8.614

$$$$
1lc4
 OpenBabel02141814113D
libRbt.so/2013.1/901 2013/11/27
 32 34  0  0  0  0  0  0  0  0999 V2000
  -14.1974    7.3136   13.9697 C   0  0  2  0  0  0  0  0  0  0  0  0
  -14.0919    6.0392   14.5535 O   0  0  0  0  0  0  0  0  0  0  0  0
  -15.6867    7.5842   13.6737 C   0  0  2  0  0  0  0  0  0  0  0  0
  -16.4753    7.4986   14.9068 N   0  3  0  0  0  0  0  0  0  0  0  0
  -16.2046    6.5952   12.6031 C   0  0  0  0  0  0  0  0  0  0  0  0
  -15.3449    6.7869   11.3414 C   0  0  2  0  0  0  0  0  0  0  0  0
  -15.8043    5.9313   10.2896 O   0  0  0  0  0  0  0  0  0  0  0  0
  -13.8610    6.5069   11.6863 C   0  0  2  0  0  0  0  0  0  0  0  0
  -13.4147    7.3863   12.7575 O   0  0  0  0  0  0  0  0  0  0  0  0
  -12.9114    6.7221   10.5104 C   0  0  0  0  0  0  0  0  0  0  0  0
  -11.5142    6.3697   10.8754 N   0  3  0  0  0  0  0  0  0  0  0  0
  -11.2131    4.1971   17.0592 C   0  0  2  0  0  0  0  0  0  0  0  0
   -9.9523    3.6446   17.5874 N   0  3  0  0  0  0  0  0  0  0  0  0
  -11.6138    3.4526   15.7929 C   0  0  0  0  0  0  0  0  0  0  0  0
  -12.9222    4.0205   15.2317 C   0  0  2  0  0  0  0  0  0  0  0  0
  -13.3339    3.1910   14.0719 N   0  3  0  0  0  0  0  0  0  0  0  0
  -12.7884    5.5400   14.9144 C   0  0  2  0  0  0  0  0  0  0  0  0
  -12.3237    6.2939   16.1870 C   0  0  2  0  0  0  0  0  0  0  0  0
  -12.0446    7.6339   15.8607 O   0  0  0  0  0  0  0  0  0  0  0  0
  -11.0292    5.6804   16.7450 C   0  0  1  0  0  0  0  0  0  0  0  0
  -10.6585    6.3837   17.9302 O   0  0  0  0  0  0  0  0  0  0  0  0
  -11.2596    5.9904   19.1157 C   0  0  2  0  0  0  0  0  0  0  0  0
  -11.9839    7.2004   19.7301 C   0  0  2  0  0  0  0  0  0  0  0  0
  -12.9595    7.6637   18.8051 O   0  0  0  0  0  0  0  0  0  0  0  0
  -10.9632    8.3141   20.0222 C   0  0  1  0  0  0  0  0  0  0  0  0
  -11.6127    9.5253   20.6013 N   0  3  0  0  0  0  0  0  0  0  0  0
   -9.8735    7.7700   20.9779 C   0  0  2  0  0  0  0  0  0  0  0  0
   -8.8978    8.7742   21.2471 O   0  0  0  0  0  0  0  0  0  0  0  0
   -9.2106    6.5192   20.3716 C   0  0  2  0  0  0  0  0  0  0  0  0
  -10.2301    5.5140   20.0209 O   0  0  0  0  0  0  0  0  0  0  0  0
   -8.2494    5.8592   21.3352 C   0  0  0  0  0  0  0  0  0  0  0  0
   -8.9143    5.4016   22.5107 O   0  0  0  0  0  0  0  0  0  0  0  0
  1  2  1  6  0  0  0
  1  3  1  0  0  0  0
  1  9  1  0  0  0  0
  3  4  1  1  0  0  0
  3  5  1  0  0  0  0
  5  6  1  0  0  0  0
  6  7  1  6  0  0  0
  6  8  1  0  0  0  0
  8  9  1  0  0  0  0
  8 10  1  6  0  0  0
 10 11  1  0  0  0  0
 12 13  1  6  0  0  0
 12 14  1  0  0  0  0
 12 20  1  0  0  0  0
 14 15  1  0  0  0  0
 15 16  1  6  0  0  0
 15 17  1  0  0  0  0
 17  2  1  1  0  0  0
 17 18  1  0  0  0  0
 18 19  1  6  0  0  0
 18 20  1  0  0  0  0
 20 21  1  1  0  0  0
 22 21  1  6  0  0  0
 22 23  1  0  0  0  0
 22 30  1  0  0  0  0
 23 24  1  6  0  0  0
 23 25  1  0  0  0  0
 25 26  1  1  0  0  0
 25 27  1  0  0  0  0
 27 28  1  6  0  0  0
 27 29  1  0  0  0  0
 29 30  1  0  0  0  0
 29 31  1  1  0  0  0
 31 32  1  0  0  0  0
M  CHG  5   4   1  11   1  13   1  16   1  26   1
M  END
>  <CHROM.1>
179.35255351,-167.54804117,-56.58693382,59.63130934,-176.93699106,62.54282337
63.38655407,60.42250987,83.49692781,-38.01214434,-122.27578834,66.43233347
-174.78680360,-70.25163711,62.03767606,-68.90468143,-12.22899679,6.36569186
16.36879921,2.34605338,0.82346075,-2.24982818

>  <Name>
1lc4

>  <RI>
0

>  <Rbt.Current_Directory>
/home/afrankz/demos/rdock_decoys_rna/rnas/1lc4

>  <Rbt.Executable>
rbdock ($Id: //depot/dev/client3/rdock/2013.1/src/exe/rbdock.cxx#4 $)

>  <Rbt.Library>
libRbt.so (2013.1, Build901 2013/11/27)

>  <Rbt.Parameter_File>
/export/apps/rDock/src/rDock_2013.1_src/data/scripts/dock_solv.prm

>  <Rbt.Receptor>
prm/pocket_docking_8.prm

>  <SCORE>
-59.2017

>  <SCORE.INTER>
-38.5785

>  <SCORE.INTER.CONST>
1

>  <SCORE.INTER.POLAR>
-5.57708

>  <SCORE.INTER.ROT>
6

>  <SCORE.INTER.SOLV>
23.8781

>  <SCORE.INTER.VDW>
-22.6881

>  <SCORE.INTER.norm>
-1.20558

>  <SCORE.INTRA>
-20.6232

>  <SCORE.INTRA.DIHEDRAL>
-30.4169

>  <SCORE.INTRA.DIHEDRAL.0>
44.2576

>  <SCORE.INTRA.POLAR>
-0.518357

>  <SCORE.INTRA.POLAR.0>
-0.381556

>  <SCORE.INTRA.REPUL>
0

>  <SCORE.INTRA.REPUL.0>
0

>  <SCORE.INTRA.SOLV>
-3.39352

>  <SCORE.INTRA.SOLV.lig_0>
-134.592

>  <SCORE.INTRA.VDW>
-1.95554

>  <SCORE.INTRA.VDW.0>
-1.01417

>  <SCORE.INTRA.norm>
-0.644474

>  <SCORE.RESTR>
0

>  <SCORE.RESTR.CAVITY>
0

>  <SCORE.RESTR.norm>
0

>  <SCORE.SYSTEM>
0

>  <SCORE.SYSTEM.CONST>
0

>  <SCORE.SYSTEM.DIHEDRAL>
0

>  <SCORE.SYSTEM.SOLV>
0

>  <SCORE.SYSTEM.norm>
0

>  <SCORE.heavy>
32

>  <SCORE.norm>
-1.85005

>  <RMSD>
8.624

$$$$
1lc4
 OpenBabel02141814113D
libRbt.so/2013.1/901 2013/11/27
 32 34  0  0  0  0  0  0  0  0999 V2000
  -13.8845    7.5549   14.0666 C   0  0  2  0  0  0  0  0  0  0  0  0
  -14.0828    6.3144   14.6974 O   0  0  0  0  0  0  0  0  0  0  0  0
  -15.2678    8.1549   13.7421 C   0  0  2  0  0  0  0  0  0  0  0  0
  -16.0593    8.3033   14.9673 N   0  3  0  0  0  0  0  0  0  0  0  0
  -15.9989    7.2744   12.7015 C   0  0  0  0  0  0  0  0  0  0  0  0
  -15.1133    7.2114   11.4447 C   0  0  2  0  0  0  0  0  0  0  0  0
  -15.7563    6.4475   10.4188 O   0  0  0  0  0  0  0  0  0  0  0  0
  -13.7376    6.6054   11.8184 C   0  0  2  0  0  0  0  0  0  0  0  0
  -13.1019    7.3962   12.8626 O   0  0  0  0  0  0  0  0  0  0  0  0
  -12.7595    6.5475   10.6476 C   0  0  0  0  0  0  0  0  0  0  0  0
  -11.4051    6.1322   11.0979 N   0  3  0  0  0  0  0  0  0  0  0  0
  -11.7875    3.9629   17.3735 C   0  0  2  0  0  0  0  0  0  0  0  0
  -10.7004    3.1680   17.9738 N   0  3  0  0  0  0  0  0  0  0  0  0
  -12.2761    3.2907   16.0976 C   0  0  0  0  0  0  0  0  0  0  0  0
  -13.4046    4.1100   15.4616 C   0  0  2  0  0  0  0  0  0  0  0  0
  -13.9273    3.3597   14.2926 N   0  3  0  0  0  0  0  0  0  0  0  0
  -12.9347    5.5585   15.1323 C   0  0  2  0  0  0  0  0  0  0  0  0
  -12.3819    6.2264   16.4176 C   0  0  2  0  0  0  0  0  0  0  0  0
  -11.8080    7.4685   16.0891 O   0  0  0  0  0  0  0  0  0  0  0  0
  -11.2765    5.3655   17.0503 C   0  0  1  0  0  0  0  0  0  0  0  0
  -10.8220    6.0019   18.2441 O   0  0  0  0  0  0  0  0  0  0  0  0
  -11.4274    5.6266   19.4332 C   0  0  2  0  0  0  0  0  0  0  0  0
  -12.1251    6.8541   20.0438 C   0  0  2  0  0  0  0  0  0  0  0  0
  -13.0937    7.3329   19.1194 O   0  0  0  0  0  0  0  0  0  0  0  0
  -11.0809    7.9481   20.3276 C   0  0  1  0  0  0  0  0  0  0  0  0
  -11.7036    9.1751   20.9027 N   0  3  0  0  0  0  0  0  0  0  0  0
   -9.9996    7.3864   21.2828 C   0  0  2  0  0  0  0  0  0  0  0  0
   -9.0028    8.3716   21.5442 O   0  0  0  0  0  0  0  0  0  0  0  0
   -9.3644    6.1193   20.6806 C   0  0  2  0  0  0  0  0  0  0  0  0
  -10.4053    5.1336   20.3377 O   0  0  0  0  0  0  0  0  0  0  0  0
   -8.4139    5.4444   21.6446 C   0  0  0  0  0  0  0  0  0  0  0  0
   -9.0950    4.9520   22.7965 O   0  0  0  0  0  0  0  0  0  0  0  0
  1  2  1  6  0  0  0
  1  3  1  0  0  0  0
  1  9  1  0  0  0  0
  3  4  1  1  0  0  0
  3  5  1  0  0  0  0
  5  6  1  0  0  0  0
  6  7  1  6  0  0  0
  6  8  1  0  0  0  0
  8  9  1  0  0  0  0
  8 10  1  6  0  0  0
 10 11  1  0  0  0  0
 12 13  1  6  0  0  0
 12 14  1  0  0  0  0
 12 20  1  0  0  0  0
 14 15  1  0  0  0  0
 15 16  1  6  0  0  0
 15 17  1  0  0  0  0
 17  2  1  1  0  0  0
 17 18  1  0  0  0  0
 18 19  1  6  0  0  0
 18 20  1  0  0  0  0
 20 21  1  1  0  0  0
 22 21  1  6  0  0  0
 22 23  1  0  0  0  0
 22 30  1  0  0  0  0
 23 24  1  6  0  0  0
 23 25  1  0  0  0  0
 25 26  1  1  0  0  0
 25 27  1  0  0  0  0
 27 28  1  6  0  0  0
 27 29  1  0  0  0  0
 29 30  1  0  0  0  0
 29 31  1  1  0  0  0
 31 32  1  0  0  0  0
M  CHG  5   4   1  11   1  13   1  16   1  26   1
M  END
>  <CHROM.1>
-178.62615235,-166.18864949,179.99830715,-175.31615117,172.33680933,73.72784267
-49.40608459,-173.97007039,-169.76442387,-29.00619125,-118.05855380,-70.89281953
-54.84279511,178.10629956,64.70491771,-65.09957889,-12.30346944,6.28591801
16.60378241,2.45751216,0.96704835,-2.33502845

>  <Name>
1lc4

>  <RI>
0

>  <Rbt.Current_Directory>
/home/afrankz/demos/rdock_decoys_rna/rnas/1lc4

>  <Rbt.Executable>
rbdock ($Id: //depot/dev/client3/rdock/2013.1/src/exe/rbdock.cxx#4 $)

>  <Rbt.Library>
libRbt.so (2013.1, Build901 2013/11/27)

>  <Rbt.Parameter_File>
/export/apps/rDock/src/rDock_2013.1_src/data/scripts/dock_solv.prm

>  <Rbt.Receptor>
prm/pocket_docking_5.prm

>  <SCORE>
-54.8074

>  <SCORE.INTER>
-35.6948

>  <SCORE.INTER.CONST>
1

>  <SCORE.INTER.POLAR>
-4.5469

>  <SCORE.INTER.ROT>
6

>  <SCORE.INTER.SOLV>
20.4441

>  <SCORE.INTER.VDW>
-23.0549

>  <SCORE.INTER.norm>
-1.11546

>  <SCORE.INTRA>
-19.1126

>  <SCORE.INTRA.DIHEDRAL>
-29.7918

>  <SCORE.INTRA.DIHEDRAL.0>
44.2576

>  <SCORE.INTRA.POLAR>
-0.864072

>  <SCORE.INTRA.POLAR.0>
-0.381556

>  <SCORE.INTRA.REPUL>
0

>  <SCORE.INTRA.REPUL.0>
0

>  <SCORE.INTRA.SOLV>
-3.14656

>  <SCORE.INTRA.SOLV.lig_0>
-134.592

>  <SCORE.INTRA.VDW>
0.294409

>  <SCORE.INTRA.VDW.0>
-1.01417

>  <SCORE.INTRA.norm>
-0.597269

>  <SCORE.RESTR>
0

>  <SCORE.RESTR.CAVITY>
0

>  <SCORE.RESTR.norm>
0

>  <SCORE.SYSTEM>
0

>  <SCORE.SYSTEM.CONST>
0

>  <SCORE.SYSTEM.DIHEDRAL>
0

>  <SCORE.SYSTEM.SOLV>
0

>  <SCORE.SYSTEM.norm>
0

>  <SCORE.heavy>
32

>  <SCORE.norm>
-1.71273

>  <RMSD>
8.629

$$$$
1lc4
 OpenBabel02141814113D
libRbt.so/2013.1/901 2013/11/27
 32 34  0  0  0  0  0  0  0  0999 V2000
   -9.5637    4.5256   14.5071 C   0  0  2  0  0  0  0  0  0  0  0  0
  -10.2065    3.2761   14.5470 O   0  0  0  0  0  0  0  0  0  0  0  0
  -10.1713    5.3411   13.3475 C   0  0  2  0  0  0  0  0  0  0  0  0
  -11.6174    5.4943   13.5349 N   0  3  0  0  0  0  0  0  0  0  0  0
   -9.8462    4.6658   11.9945 C   0  0  0  0  0  0  0  0  0  0  0  0
   -8.3143    4.5862   11.8731 C   0  0  2  0  0  0  0  0  0  0  0  0
   -7.9423    4.0122   10.6156 O   0  0  0  0  0  0  0  0  0  0  0  0
   -7.7498    3.7616   13.0567 C   0  0  2  0  0  0  0  0  0  0  0  0
   -8.1399    4.3617   14.3246 O   0  0  0  0  0  0  0  0  0  0  0  0
   -6.2261    3.6666   13.0606 C   0  0  0  0  0  0  0  0  0  0  0  0
   -5.6036    4.9897   12.7930 N   0  3  0  0  0  0  0  0  0  0  0  0
  -11.8442    1.1880   17.8512 C   0  0  2  0  0  0  0  0  0  0  0  0
  -11.9880    0.4124   19.0969 N   0  3  0  0  0  0  0  0  0  0  0  0
  -11.0821    0.3700   16.8175 C   0  0  0  0  0  0  0  0  0  0  0  0
  -10.9228    1.1673   15.5182 C   0  0  2  0  0  0  0  0  0  0  0  0
  -10.2825    0.2910   14.5060 N   0  3  0  0  0  0  0  0  0  0  0  0
  -10.1718    2.5094   15.7675 C   0  0  2  0  0  0  0  0  0  0  0  0
  -10.9126    3.3197   16.8621 C   0  0  2  0  0  0  0  0  0  0  0  0
  -10.1483    4.4506   17.2042 O   0  0  0  0  0  0  0  0  0  0  0  0
  -11.0869    2.4826   18.1397 C   0  0  1  0  0  0  0  0  0  0  0  0
  -11.8001    3.2556   19.1044 O   0  0  0  0  0  0  0  0  0  0  0  0
  -11.4669    3.0714   20.4372 C   0  0  2  0  0  0  0  0  0  0  0  0
  -12.5578    3.7095   21.3142 C   0  0  2  0  0  0  0  0  0  0  0  0
  -13.8008    3.0851   21.0191 O   0  0  0  0  0  0  0  0  0  0  0  0
  -12.6400    5.2163   21.0138 C   0  0  1  0  0  0  0  0  0  0  0  0
  -13.6989    5.8872   21.8218 N   0  3  0  0  0  0  0  0  0  0  0  0
  -11.2594    5.8655   21.2775 C   0  0  2  0  0  0  0  0  0  0  0  0
  -11.2981    7.2600   20.9830 O   0  0  0  0  0  0  0  0  0  0  0  0
  -10.1734    5.1648   20.4402 C   0  0  2  0  0  0  0  0  0  0  0  0
  -10.1889    3.7118   20.6877 O   0  0  0  0  0  0  0  0  0  0  0  0
   -8.7844    5.6583   20.7794 C   0  0  0  0  0  0  0  0  0  0  0  0
   -8.5340    6.9473   20.2234 O   0  0  0  0  0  0  0  0  0  0  0  0
  1  2  1  6  0  0  0
  1  3  1  0  0  0  0
  1  9  1  0  0  0  0
  3  4  1  1  0  0  0
  3  5  1  0  0  0  0
  5  6  1  0  0  0  0
  6  7  1  6  0  0  0
  6  8  1  0  0  0  0
  8  9  1  0  0  0  0
  8 10  1  6  0  0  0
 10 11  1  0  0  0  0
 12 13  1  1  0  0  0
 12 14  1  0  0  0  0
 12 20  1  0  0  0  0
 14 15  1  0  0  0  0
 15 16  1  6  0  0  0
 15 17  1  0  0  0  0
 17  2  1  6  0  0  0
 17 18  1  0  0  0  0
 18 19  1  1  0  0  0
 18 20  1  0  0  0  0
 20 21  1  1  0  0  0
 22 21  1  6  0  0  0
 22 23  1  0  0  0  0
 22 30  1  0  0  0  0
 23 24  1  6  0  0  0
 23 25  1  0  0  0  0
 25 26  1  1  0  0  0
 25 27  1  0  0  0  0
 27 28  1  6  0  0  0
 27 29  1  0  0  0  0
 29 30  1  0  0  0  0
 29 31  1  1  0  0  0
 31 32  1  0  0  0  0
M  CHG  5   4   1  11   1  13   1  16   1  26   1
M  END
>  <CHROM.1>
-159.08323325,-178.55202328,-166.14521840,65.69548890,45.11846593,45.16777892
67.41457935,163.92587323,173.73798045,92.26087887,-166.06151440,168.21217176
89.05169688,68.64099724,-75.57416658,53.19581138,-10.31939168,3.89942902
17.02688434,-0.84338887,0.94384706,0.87680207

>  <Name>
1lc4

>  <RI>
0

>  <Rbt.Current_Directory>
/home/afrankz/demos/rdock_decoys_rna/rnas/1lc4

>  <Rbt.Executable>
rbdock ($Id: //depot/dev/client3/rdock/2013.1/src/exe/rbdock.cxx#4 $)

>  <Rbt.Library>
libRbt.so (2013.1, Build901 2013/11/27)

>  <Rbt.Parameter_File>
/export/apps/rDock/src/rDock_2013.1_src/data/scripts/dock_solv.prm

>  <Rbt.Receptor>
prm/blind_docking_100.prm

>  <SCORE>
-43.3631

>  <SCORE.INTER>
-26.0956

>  <SCORE.INTER.CONST>
1

>  <SCORE.INTER.POLAR>
-4.10116

>  <SCORE.INTER.ROT>
6

>  <SCORE.INTER.SOLV>
20.6374

>  <SCORE.INTER.VDW>
-18.2056

>  <SCORE.INTER.norm>
-0.815486

>  <SCORE.INTRA>
-19.6627

>  <SCORE.INTRA.DIHEDRAL>
-30.681

>  <SCORE.INTRA.DIHEDRAL.0>
44.2576

>  <SCORE.INTRA.POLAR>
-0.286042

>  <SCORE.INTRA.POLAR.0>
-0.381556

>  <SCORE.INTRA.REPUL>
0

>  <SCORE.INTRA.REPUL.0>
0

>  <SCORE.INTRA.SOLV>
-1.50962

>  <SCORE.INTRA.SOLV.lig_0>
-134.592

>  <SCORE.INTRA.VDW>
-2.59488

>  <SCORE.INTRA.VDW.0>
-1.01417

>  <SCORE.INTRA.norm>
-0.614461

>  <SCORE.RESTR>
2.39521

>  <SCORE.RESTR.CAVITY>
2.39521

>  <SCORE.RESTR.norm>
0.0748504

>  <SCORE.SYSTEM>
0

>  <SCORE.SYSTEM.CONST>
0

>  <SCORE.SYSTEM.DIHEDRAL>
0

>  <SCORE.SYSTEM.SOLV>
0

>  <SCORE.SYSTEM.norm>
0

>  <SCORE.heavy>
32

>  <SCORE.norm>
-1.3551

>  <RMSD>
8.630

$$$$
1lc4
 OpenBabel02141814113D
libRbt.so/2013.1/901 2013/11/27
 32 34  0  0  0  0  0  0  0  0999 V2000
   -9.2033    4.0498   14.7694 C   0  0  2  0  0  0  0  0  0  0  0  0
  -10.1157    2.9852   14.8708 O   0  0  0  0  0  0  0  0  0  0  0  0
   -9.4583    4.7748   13.4321 C   0  0  2  0  0  0  0  0  0  0  0  0
  -10.8424    5.2544   13.3681 N   0  3  0  0  0  0  0  0  0  0  0  0
   -9.1313    3.8360   12.2471 C   0  0  0  0  0  0  0  0  0  0  0  0
   -7.6557    3.4201   12.3796 C   0  0  2  0  0  0  0  0  0  0  0  0
   -7.2720    2.5848   11.2822 O   0  0  0  0  0  0  0  0  0  0  0  0
   -7.4474    2.6992   13.7348 C   0  0  2  0  0  0  0  0  0  0  0  0
   -7.8439    3.5652   14.8361 O   0  0  0  0  0  0  0  0  0  0  0  0
   -5.9988    2.2905   13.9906 C   0  0  0  0  0  0  0  0  0  0  0  0
   -5.5282    1.3124   12.9750 N   0  3  0  0  0  0  0  0  0  0  0  0
  -12.1662    1.2874   18.1682 C   0  0  2  0  0  0  0  0  0  0  0  0
  -12.4683    0.6017   19.4380 N   0  3  0  0  0  0  0  0  0  0  0  0
  -11.4590    0.3300   17.2187 C   0  0  0  0  0  0  0  0  0  0  0  0
  -11.1360    1.0326   15.8953 C   0  0  2  0  0  0  0  0  0  0  0  0
  -10.5579    0.0332   14.9628 N   0  3  0  0  0  0  0  0  0  0  0  0
  -10.2386    2.2853   16.1252 C   0  0  2  0  0  0  0  0  0  0  0  0
  -10.9287    3.2358   17.1371 C   0  0  2  0  0  0  0  0  0  0  0  0
  -10.0490    4.2824   17.4700 O   0  0  0  0  0  0  0  0  0  0  0  0
  -11.2704    2.4944   18.4398 C   0  0  1  0  0  0  0  0  0  0  0  0
  -11.9311    3.3977   19.3254 O   0  0  0  0  0  0  0  0  0  0  0  0
  -11.5376    3.3852   20.6544 C   0  0  2  0  0  0  0  0  0  0  0  0
  -12.6334    4.0529   21.5027 C   0  0  2  0  0  0  0  0  0  0  0  0
  -13.8445    3.3272   21.3334 O   0  0  0  0  0  0  0  0  0  0  0  0
  -12.8221    5.5087   21.0416 C   0  0  1  0  0  0  0  0  0  0  0  0
  -13.8906    6.2031   21.8163 N   0  3  0  0  0  0  0  0  0  0  0  0
  -11.4766    6.2637   21.1710 C   0  0  2  0  0  0  0  0  0  0  0  0
  -11.6145    7.6112   20.7262 O   0  0  0  0  0  0  0  0  0  0  0  0
  -10.3802    5.5379   20.3692 C   0  0  2  0  0  0  0  0  0  0  0  0
  -10.2943    4.1239   20.7761 O   0  0  0  0  0  0  0  0  0  0  0  0
   -9.0137    6.1475   20.5904 C   0  0  0  0  0  0  0  0  0  0  0  0
   -8.6167    6.0665   21.9576 O   0  0  0  0  0  0  0  0  0  0  0  0
  1  2  1  6  0  0  0
  1  3  1  0  0  0  0
  1  9  1  0  0  0  0
  3  4  1  1  0  0  0
  3  5  1  0  0  0  0
  5  6  1  0  0  0  0
  6  7  1  6  0  0  0
  6  8  1  0  0  0  0
  8  9  1  0  0  0  0
  8 10  1  1  0  0  0
 10 11  1  0  0  0  0
 12 13  1  1  0  0  0
 12 14  1  0  0  0  0
 12 20  1  0  0  0  0
 14 15  1  0  0  0  0
 15 16  1  6  0  0  0
 15 17  1  0  0  0  0
 17  2  1  6  0  0  0
 17 18  1  0  0  0  0
 18 19  1  1  0  0  0
 18 20  1  0  0  0  0
 20 21  1  1  0  0  0
 22 21  1  6  0  0  0
 22 23  1  0  0  0  0
 22 30  1  0  0  0  0
 23 24  1  6  0  0  0
 23 25  1  0  0  0  0
 25 26  1  1  0  0  0
 25 27  1  0  0  0  0
 27 28  1  6  0  0  0
 27 29  1  0  0  0  0
 29 30  1  0  0  0  0
 29 31  1  1  0  0  0
 31 32  1  0  0  0  0
M  CHG  5   4   1  11   1  13   1  16   1  26   1
M  END
>  <CHROM.1>
-169.70242174,-171.22233604,174.57596170,-50.78371198,-62.60907046,57.09362437
81.73216961,-75.48413163,175.05874535,102.05159856,-161.71980885,73.08419231
-44.80058476,175.23270676,61.30890984,178.53055288,-10.27566519,3.56869785
17.32626895,-0.87829459,0.83624649,0.73692858

>  <Name>
1lc4

>  <RI>
0

>  <Rbt.Current_Directory>
/home/afrankz/demos/rdock_decoys_rna/rnas/1lc4

>  <Rbt.Executable>
rbdock ($Id: //depot/dev/client3/rdock/2013.1/src/exe/rbdock.cxx#4 $)

>  <Rbt.Library>
libRbt.so (2013.1, Build901 2013/11/27)

>  <Rbt.Parameter_File>
/export/apps/rDock/src/rDock_2013.1_src/data/scripts/dock_solv.prm

>  <Rbt.Receptor>
prm/blind_docking_100.prm

>  <SCORE>
-41.8742

>  <SCORE.INTER>
-24.8734

>  <SCORE.INTER.CONST>
1

>  <SCORE.INTER.POLAR>
-4.26017

>  <SCORE.INTER.ROT>
6

>  <SCORE.INTER.SOLV>
23.4339

>  <SCORE.INTER.VDW>
-17.793

>  <SCORE.INTER.norm>
-0.777293

>  <SCORE.INTRA>
-20.3741

>  <SCORE.INTRA.DIHEDRAL>
-32.3034

>  <SCORE.INTRA.DIHEDRAL.0>
44.2576

>  <SCORE.INTRA.POLAR>
-0.110192

>  <SCORE.INTRA.POLAR.0>
-0.381556

>  <SCORE.INTRA.REPUL>
0

>  <SCORE.INTRA.REPUL.0>
0

>  <SCORE.INTRA.SOLV>
-2.09716

>  <SCORE.INTRA.SOLV.lig_0>
-134.592

>  <SCORE.INTRA.VDW>
-2.79917

>  <SCORE.INTRA.VDW.0>
-1.01417

>  <SCORE.INTRA.norm>
-0.636691

>  <SCORE.RESTR>
3.37324

>  <SCORE.RESTR.CAVITY>
3.37324

>  <SCORE.RESTR.norm>
0.105414

>  <SCORE.SYSTEM>
0

>  <SCORE.SYSTEM.CONST>
0

>  <SCORE.SYSTEM.DIHEDRAL>
0

>  <SCORE.SYSTEM.SOLV>
0

>  <SCORE.SYSTEM.norm>
0

>  <SCORE.heavy>
32

>  <SCORE.norm>
-1.30857

>  <RMSD>
8.636

$$$$
1lc4
 OpenBabel02141814113D
libRbt.so/2013.1/901 2013/11/27
 32 34  0  0  0  0  0  0  0  0999 V2000
   -9.5023    4.3689   14.5474 C   0  0  2  0  0  0  0  0  0  0  0  0
  -10.2179    3.1630   14.6464 O   0  0  0  0  0  0  0  0  0  0  0  0
  -10.5124    5.5073   14.2971 C   0  0  2  0  0  0  0  0  0  0  0  0
  -11.4975    5.5624   15.3817 N   0  3  0  0  0  0  0  0  0  0  0  0
  -11.1966    5.3189   12.9227 C   0  0  0  0  0  0  0  0  0  0  0  0
  -10.0912    5.3133   11.8523 C   0  0  2  0  0  0  0  0  0  0  0  0
  -10.6624    5.1902   10.5455 O   0  0  0  0  0  0  0  0  0  0  0  0
   -9.1020    4.1576   12.1447 C   0  0  2  0  0  0  0  0  0  0  0  0
   -8.5337    4.3016   13.4776 O   0  0  0  0  0  0  0  0  0  0  0  0
   -7.9311    4.0963   11.1670 C   0  0  0  0  0  0  0  0  0  0  0  0
   -7.2494    5.4129   11.0604 N   0  3  0  0  0  0  0  0  0  0  0  0
  -11.9285    1.2875   18.0399 C   0  0  2  0  0  0  0  0  0  0  0  0
  -12.0997    0.5700   19.3165 N   0  3  0  0  0  0  0  0  0  0  0  0
  -11.2123    0.3941   17.0363 C   0  0  0  0  0  0  0  0  0  0  0  0
  -11.0249    1.1305   15.7052 C   0  0  2  0  0  0  0  0  0  0  0  0
  -10.4329    0.1854   14.7259 N   0  3  0  0  0  0  0  0  0  0  0  0
  -10.2105    2.4449   15.8965 C   0  0  2  0  0  0  0  0  0  0  0  0
  -10.9054    3.3322   16.9613 C   0  0  2  0  0  0  0  0  0  0  0  0
  -10.0871    4.4388   17.2538 O   0  0  0  0  0  0  0  0  0  0  0  0
  -11.1098    2.5559   18.2724 C   0  0  1  0  0  0  0  0  0  0  0  0
  -11.7797    3.3993   19.2086 O   0  0  0  0  0  0  0  0  0  0  0  0
  -11.3896    3.3099   20.5357 C   0  0  2  0  0  0  0  0  0  0  0  0
  -12.5224    3.8528   21.4236 C   0  0  2  0  0  0  0  0  0  0  0  0
  -13.6917    3.0771   21.1932 O   0  0  0  0  0  0  0  0  0  0  0  0
  -12.7888    5.3264   21.0698 C   0  0  1  0  0  0  0  0  0  0  0  0
  -13.8956    5.9027   21.8865 N   0  3  0  0  0  0  0  0  0  0  0  0
  -11.4868    6.1414   21.2634 C   0  0  2  0  0  0  0  0  0  0  0  0
  -11.6967    7.5087   20.9182 O   0  0  0  0  0  0  0  0  0  0  0  0
  -10.3504    5.5373   20.4176 C   0  0  2  0  0  0  0  0  0  0  0  0
  -10.1887    4.1037   20.7198 O   0  0  0  0  0  0  0  0  0  0  0  0
   -9.0197    6.2019   20.6922 C   0  0  0  0  0  0  0  0  0  0  0  0
   -8.1028    6.0069   19.6176 O   0  0  0  0  0  0  0  0  0  0  0  0
  1  2  1  6  0  0  0
  1  3  1  0  0  0  0
  1  9  1  0  0  0  0
  3  4  1  1  0  0  0
  3  5  1  0  0  0  0
  5  6  1  0  0  0  0
  6  7  1  6  0  0  0
  6  8  1  0  0  0  0
  8  9  1  0  0  0  0
  8 10  1  6  0  0  0
 10 11  1  0  0  0  0
 12 13  1  1  0  0  0
 12 14  1  0  0  0  0
 12 20  1  0  0  0  0
 14 15  1  0  0  0  0
 15 16  1  6  0  0  0
 15 17  1  0  0  0  0
 17  2  1  6  0  0  0
 17 18  1  0  0  0  0
 18 19  1  1  0  0  0
 18 20  1  0  0  0  0
 20 21  1  1  0  0  0
 22 21  1  6  0  0  0
 22 23  1  0  0  0  0
 22 30  1  0  0  0  0
 23 24  1  6  0  0  0
 23 25  1  0  0  0  0
 25 26  1  1  0  0  0
 25 27  1  0  0  0  0
 27 28  1  6  0  0  0
 27 29  1  0  0  0  0
 29 30  1  0  0  0  0
 29 31  1  1  0  0  0
 31 32  1  0  0  0  0
M  CHG  5   4   1  11   1  13   1  16   1  26   1
M  END
>  <CHROM.1>
-115.72085024,-177.65978001,170.25132943,64.07798731,52.03217153,-67.69251040
-168.01438671,49.44603721,-33.66283492,96.02241351,-158.92394997,84.24249968
90.18662433,75.68309845,-158.85183370,-172.86905603,-10.70027476,4.05778055
17.01445221,-0.74506699,1.17644742,0.75766155

>  <Name>
1lc4

>  <RI>
0

>  <Rbt.Current_Directory>
/home/afrankz/demos/rdock_decoys_rna/rnas/1lc4

>  <Rbt.Executable>
rbdock ($Id: //depot/dev/client3/rdock/2013.1/src/exe/rbdock.cxx#4 $)

>  <Rbt.Library>
libRbt.so (2013.1, Build901 2013/11/27)

>  <Rbt.Parameter_File>
/export/apps/rDock/src/rDock_2013.1_src/data/scripts/dock_solv.prm

>  <Rbt.Receptor>
prm/blind_docking_100.prm

>  <SCORE>
-38.9855

>  <SCORE.INTER>
-29.762

>  <SCORE.INTER.CONST>
1

>  <SCORE.INTER.POLAR>
-5.12888

>  <SCORE.INTER.ROT>
6

>  <SCORE.INTER.SOLV>
22.9113

>  <SCORE.INTER.VDW>
-17.9822

>  <SCORE.INTER.norm>
-0.930063

>  <SCORE.INTRA>
-11.6472

>  <SCORE.INTRA.DIHEDRAL>
-18.9432

>  <SCORE.INTRA.DIHEDRAL.0>
44.2576

>  <SCORE.INTRA.POLAR>
-0.494779

>  <SCORE.INTRA.POLAR.0>
-0.381556

>  <SCORE.INTRA.REPUL>
0.0666473

>  <SCORE.INTRA.REPUL.0>
0

>  <SCORE.INTRA.SOLV>
2.28978

>  <SCORE.INTRA.SOLV.lig_0>
-134.592

>  <SCORE.INTRA.VDW>
-1.97147

>  <SCORE.INTRA.VDW.0>
-1.01417

>  <SCORE.INTRA.norm>
-0.363975

>  <SCORE.RESTR>
2.42365

>  <SCORE.RESTR.CAVITY>
2.42365

>  <SCORE.RESTR.norm>
0.0757391

>  <SCORE.SYSTEM>
0

>  <SCORE.SYSTEM.CONST>
0

>  <SCORE.SYSTEM.DIHEDRAL>
0

>  <SCORE.SYSTEM.SOLV>
0

>  <SCORE.SYSTEM.norm>
0

>  <SCORE.heavy>
32

>  <SCORE.norm>
-1.2183

>  <RMSD>
8.641

$$$$
1lc4
 OpenBabel02141814113D
libRbt.so/2013.1/901 2013/11/27
 32 34  0  0  0  0  0  0  0  0999 V2000
  -14.5467    7.4732   14.3170 C   0  0  2  0  0  0  0  0  0  0  0  0
  -14.3124    6.2107   14.8891 O   0  0  0  0  0  0  0  0  0  0  0  0
  -16.0552    7.5922   14.0183 C   0  0  2  0  0  0  0  0  0  0  0  0
  -16.8340    7.4141   15.2476 N   0  3  0  0  0  0  0  0  0  0  0  0
  -16.4660    6.5658   12.9365 C   0  0  0  0  0  0  0  0  0  0  0  0
  -15.6272    6.8571   11.6797 C   0  0  2  0  0  0  0  0  0  0  0  0
  -15.9935    5.9692   10.6183 O   0  0  0  0  0  0  0  0  0  0  0  0
  -14.1233    6.7276   12.0274 C   0  0  2  0  0  0  0  0  0  0  0  0
  -13.7725    7.6377   13.1085 O   0  0  0  0  0  0  0  0  0  0  0  0
  -13.1978    7.0507   10.8570 C   0  0  0  0  0  0  0  0  0  0  0  0
  -12.5493    5.8220   10.3286 N   0  3  0  0  0  0  0  0  0  0  0  0
  -11.1656    4.5151   17.1656 C   0  0  2  0  0  0  0  0  0  0  0  0
   -9.8381    4.0480   17.6055 N   0  3  0  0  0  0  0  0  0  0  0  0
  -11.5726    3.7901   15.8900 C   0  0  0  0  0  0  0  0  0  0  0  0
  -12.9503    4.2700   15.4201 C   0  0  2  0  0  0  0  0  0  0  0  0
  -13.3558    3.4553   14.2478 N   0  3  0  0  0  0  0  0  0  0  0  0
  -12.9557    5.8066   15.1624 C   0  0  2  0  0  0  0  0  0  0  0  0
  -12.4854    6.5460   16.4414 C   0  0  2  0  0  0  0  0  0  0  0  0
  -12.3323    7.9161   16.1596 O   0  0  0  0  0  0  0  0  0  0  0  0
  -11.1180    6.0197   16.9068 C   0  0  1  0  0  0  0  0  0  0  0  0
  -10.7420    6.7044   18.1012 O   0  0  0  0  0  0  0  0  0  0  0  0
  -11.6668    6.7348   19.1332 C   0  0  2  0  0  0  0  0  0  0  0  0
  -11.2507    7.8203   20.1406 C   0  0  2  0  0  0  0  0  0  0  0  0
  -11.2108    9.0727   19.4684 O   0  0  0  0  0  0  0  0  0  0  0  0
   -9.8620    7.4837   20.7115 C   0  0  1  0  0  0  0  0  0  0  0  0
   -9.3949    8.5157   21.6816 N   0  3  0  0  0  0  0  0  0  0  0  0
   -9.9096    6.0883   21.3805 C   0  0  2  0  0  0  0  0  0  0  0  0
   -8.6281    5.7377   21.8976 O   0  0  0  0  0  0  0  0  0  0  0  0
  -10.3946    5.0309   20.3714 C   0  0  2  0  0  0  0  0  0  0  0  0
  -11.6824    5.4355   19.7794 O   0  0  0  0  0  0  0  0  0  0  0  0
  -10.6080    3.6805   21.0185 C   0  0  0  0  0  0  0  0  0  0  0  0
  -11.6128    3.7344   22.0289 O   0  0  0  0  0  0  0  0  0  0  0  0
  1  2  1  6  0  0  0
  1  3  1  0  0  0  0
  1  9  1  0  0  0  0
  3  4  1  1  0  0  0
  3  5  1  0  0  0  0
  5  6  1  0  0  0  0
  6  7  1  6  0  0  0
  6  8  1  0  0  0  0
  8  9  1  0  0  0  0
  8 10  1  6  0  0  0
 10 11  1  0  0  0  0
 12 13  1  6  0  0  0
 12 14  1  0  0  0  0
 12 20  1  0  0  0  0
 14 15  1  0  0  0  0
 15 16  1  6  0  0  0
 15 17  1  0  0  0  0
 17  2  1  1  0  0  0
 17 18  1  0  0  0  0
 18 19  1  6  0  0  0
 18 20  1  0  0  0  0
 20 21  1  1  0  0  0
 22 21  1  6  0  0  0
 22 23  1  0  0  0  0
 22 30  1  0  0  0  0
 23 24  1  6  0  0  0
 23 25  1  0  0  0  0
 25 26  1  1  0  0  0
 25 27  1  0  0  0  0
 27 28  1  6  0  0  0
 27 29  1  0  0  0  0
 29 30  1  0  0  0  0
 29 31  1  1  0  0  0
 31 32  1  0  0  0  0
M  CHG  5   4   1  11   1  13   1  16   1  26   1
M  END
>  <CHROM.1>
174.98699374,-165.02466040,-179.60027749,70.97506111,-108.30484647,-38.31963242
-83.20156993,177.40431119,75.40514178,-70.40293624,-164.32445734,-169.41457092
-72.48274675,-60.40764706,61.75368943,59.47529670,-12.43208719,6.17939196
16.59872410,2.57807863,0.97749083,-2.44081316

>  <Name>
1lc4

>  <RI>
0

>  <Rbt.Current_Directory>
/home/afrankz/demos/rdock_decoys_rna/rnas/1lc4

>  <Rbt.Executable>
rbdock ($Id: //depot/dev/client3/rdock/2013.1/src/exe/rbdock.cxx#4 $)

>  <Rbt.Library>
libRbt.so (2013.1, Build901 2013/11/27)

>  <Rbt.Parameter_File>
/export/apps/rDock/src/rDock_2013.1_src/data/scripts/dock_solv.prm

>  <Rbt.Receptor>
prm/pocket_docking_4.prm

>  <SCORE>
-54.9064

>  <SCORE.INTER>
-37.9138

>  <SCORE.INTER.CONST>
1

>  <SCORE.INTER.POLAR>
-4.92817

>  <SCORE.INTER.ROT>
6

>  <SCORE.INTER.SOLV>
23.5842

>  <SCORE.INTER.VDW>
-24.3101

>  <SCORE.INTER.norm>
-1.18481

>  <SCORE.INTRA>
-16.9925

>  <SCORE.INTRA.DIHEDRAL>
-31.6848

>  <SCORE.INTRA.DIHEDRAL.0>
44.2576

>  <SCORE.INTRA.POLAR>
0.343111

>  <SCORE.INTRA.POLAR.0>
-0.381556

>  <SCORE.INTRA.REPUL>
0

>  <SCORE.INTRA.REPUL.0>
0

>  <SCORE.INTRA.SOLV>
-1.58915

>  <SCORE.INTRA.SOLV.lig_0>
-134.592

>  <SCORE.INTRA.VDW>
-1.52212

>  <SCORE.INTRA.VDW.0>
-1.01417

>  <SCORE.INTRA.norm>
-0.531016

>  <SCORE.RESTR>
0

>  <SCORE.RESTR.CAVITY>
0

>  <SCORE.RESTR.norm>
0

>  <SCORE.SYSTEM>
0

>  <SCORE.SYSTEM.CONST>
0

>  <SCORE.SYSTEM.DIHEDRAL>
0

>  <SCORE.SYSTEM.SOLV>
0

>  <SCORE.SYSTEM.norm>
0

>  <SCORE.heavy>
32

>  <SCORE.norm>
-1.71582

>  <RMSD>
8.646

$$$$
1lc4
 OpenBabel02141814113D
libRbt.so/2013.1/901 2013/11/27
 32 34  0  0  0  0  0  0  0  0999 V2000
  -13.3391    7.8530   14.6428 C   0  0  2  0  0  0  0  0  0  0  0  0
  -13.8284    6.6995   15.2802 O   0  0  0  0  0  0  0  0  0  0  0  0
  -14.5448    8.6611   14.1212 C   0  0  2  0  0  0  0  0  0  0  0  0
  -15.4436    9.0067   15.2268 N   0  3  0  0  0  0  0  0  0  0  0  0
  -15.2842    7.8636   13.0214 C   0  0  0  0  0  0  0  0  0  0  0  0
  -14.2746    7.5843   11.8942 C   0  0  2  0  0  0  0  0  0  0  0  0
  -14.9094    6.8873   10.8169 O   0  0  0  0  0  0  0  0  0  0  0  0
  -13.0835    6.7741   12.4638 C   0  0  2  0  0  0  0  0  0  0  0  0
  -12.4533    7.4999   13.5575 O   0  0  0  0  0  0  0  0  0  0  0  0
  -11.9933    6.4888   11.4339 C   0  0  0  0  0  0  0  0  0  0  0  0
  -12.4259    5.4458   10.4670 N   0  3  0  0  0  0  0  0  0  0  0  0
  -11.9797    3.8725   17.8395 C   0  0  2  0  0  0  0  0  0  0  0  0
  -11.1031    2.8103   18.3660 N   0  3  0  0  0  0  0  0  0  0  0  0
  -12.8176    3.3293   16.6900 C   0  0  0  0  0  0  0  0  0  0  0  0
  -13.7312    4.4258   16.1313 C   0  0  2  0  0  0  0  0  0  0  0  0
  -14.6095    3.8229   15.0980 N   0  3  0  0  0  0  0  0  0  0  0  0
  -12.9056    5.6493   15.6325 C   0  0  2  0  0  0  0  0  0  0  0  0
  -12.0069    6.1694   16.7839 C   0  0  2  0  0  0  0  0  0  0  0  0
  -11.1437    7.1649   16.2899 O   0  0  0  0  0  0  0  0  0  0  0  0
  -11.1278    5.0401   17.3455 C   0  0  1  0  0  0  0  0  0  0  0  0
  -10.3443    5.5563   18.4208 O   0  0  0  0  0  0  0  0  0  0  0  0
  -11.0207    6.1875   19.4529 C   0  0  2  0  0  0  0  0  0  0  0  0
  -10.0793    7.2113   20.1101 C   0  0  2  0  0  0  0  0  0  0  0  0
   -9.6764    8.1553   19.1259 O   0  0  0  0  0  0  0  0  0  0  0  0
   -8.8482    6.4839   20.6784 C   0  0  1  0  0  0  0  0  0  0  0  0
   -7.8859    7.4313   21.3114 N   0  3  0  0  0  0  0  0  0  0  0  0
   -9.3122    5.4154   21.6982 C   0  0  2  0  0  0  0  0  0  0  0  0
   -8.1926    4.7064   22.2239 O   0  0  0  0  0  0  0  0  0  0  0  0
  -10.3063    4.4438   21.0354 C   0  0  2  0  0  0  0  0  0  0  0  0
  -11.4229    5.1863   20.4234 O   0  0  0  0  0  0  0  0  0  0  0  0
  -10.9084    3.4768   22.0305 C   0  0  0  0  0  0  0  0  0  0  0  0
  -11.5942    2.4101   21.3785 O   0  0  0  0  0  0  0  0  0  0  0  0
  1  2  1  6  0  0  0
  1  3  1  0  0  0  0
  1  9  1  0  0  0  0
  3  4  1  1  0  0  0
  3  5  1  0  0  0  0
  5  6  1  0  0  0  0
  6  7  1  6  0  0  0
  6  8  1  0  0  0  0
  8  9  1  0  0  0  0
  8 10  1  6  0  0  0
 10 11  1  0  0  0  0
 12 13  1  6  0  0  0
 12 14  1  0  0  0  0
 12 20  1  0  0  0  0
 14 15  1  0  0  0  0
 15 16  1  6  0  0  0
 15 17  1  0  0  0  0
 17  2  1  1  0  0  0
 17 18  1  0  0  0  0
 18 19  1  6  0  0  0
 18 20  1  0  0  0  0
 20 21  1  1  0  0  0
 22 21  1  6  0  0  0
 22 23  1  0  0  0  0
 22 30  1  0  0  0  0
 23 24  1  6  0  0  0
 23 25  1  0  0  0  0
 25 26  1  1  0  0  0
 25 27  1  0  0  0  0
 27 28  1  6  0  0  0
 27 29  1  0  0  0  0
 29 30  1  0  0  0  0
 29 31  1  1  0  0  0
 31 32  1  0  0  0  0
M  CHG  5   4   1  11   1  13   1  16   1  26   1
M  END
>  <CHROM.1>
168.32393986,-172.10322691,-45.58852970,-50.71966766,-73.66657312,-61.68934944
-101.87920749,-52.15254556,87.58146864,-67.49770748,-153.17517893,160.42897809
-61.94260722,63.72759994,-167.40339984,-173.90883044,-11.94430950,5.91865201
16.91209343,-2.47385270,0.98240062,2.59937528

>  <Name>
1lc4

>  <RI>
0

>  <Rbt.Current_Directory>
/home/afrankz/demos/rdock_decoys_rna/rnas/1lc4

>  <Rbt.Executable>
rbdock ($Id: //depot/dev/client3/rdock/2013.1/src/exe/rbdock.cxx#4 $)

>  <Rbt.Library>
libRbt.so (2013.1, Build901 2013/11/27)

>  <Rbt.Parameter_File>
/export/apps/rDock/src/rDock_2013.1_src/data/scripts/dock_solv.prm

>  <Rbt.Receptor>
prm/pocket_docking_5.prm

>  <SCORE>
-59.8738

>  <SCORE.INTER>
-39.1878

>  <SCORE.INTER.CONST>
1

>  <SCORE.INTER.POLAR>
-5.21959

>  <SCORE.INTER.ROT>
6

>  <SCORE.INTER.SOLV>
21.9065

>  <SCORE.INTER.VDW>
-23.6287

>  <SCORE.INTER.norm>
-1.22462

>  <SCORE.INTRA>
-20.6859

>  <SCORE.INTRA.DIHEDRAL>
-29.6723

>  <SCORE.INTRA.DIHEDRAL.0>
44.2576

>  <SCORE.INTRA.POLAR>
-1.28092

>  <SCORE.INTRA.POLAR.0>
-0.381556

>  <SCORE.INTRA.REPUL>
0

>  <SCORE.INTRA.REPUL.0>
0

>  <SCORE.INTRA.SOLV>
0.601989

>  <SCORE.INTRA.SOLV.lig_0>
-134.592

>  <SCORE.INTRA.VDW>
-1.79565

>  <SCORE.INTRA.VDW.0>
-1.01417

>  <SCORE.INTRA.norm>
-0.646435

>  <SCORE.RESTR>
0

>  <SCORE.RESTR.CAVITY>
0

>  <SCORE.RESTR.norm>
0

>  <SCORE.SYSTEM>
0

>  <SCORE.SYSTEM.CONST>
0

>  <SCORE.SYSTEM.DIHEDRAL>
0

>  <SCORE.SYSTEM.SOLV>
0

>  <SCORE.SYSTEM.norm>
0

>  <SCORE.heavy>
32

>  <SCORE.norm>
-1.87105

>  <RMSD>
8.673

$$$$
1lc4
 OpenBabel02141814113D
libRbt.so/2013.1/901 2013/11/27
 32 34  0  0  0  0  0  0  0  0999 V2000
   -9.1050    3.1738   13.9658 C   0  0  2  0  0  0  0  0  0  0  0  0
   -9.0232    3.3770   15.3543 O   0  0  0  0  0  0  0  0  0  0  0  0
   -7.6880    3.3215   13.3748 C   0  0  2  0  0  0  0  0  0  0  0  0
   -6.7728    2.3608   13.9985 N   0  3  0  0  0  0  0  0  0  0  0  0
   -7.1869    4.7742   13.5509 C   0  0  0  0  0  0  0  0  0  0  0  0
   -8.1859    5.6988   12.8334 C   0  0  2  0  0  0  0  0  0  0  0  0
   -7.7540    7.0610   12.9168 O   0  0  0  0  0  0  0  0  0  0  0  0
   -9.5916    5.5154   13.4578 C   0  0  2  0  0  0  0  0  0  0  0  0
  -10.0110    4.1242   13.3631 O   0  0  0  0  0  0  0  0  0  0  0  0
  -10.6732    6.3523   12.7792 C   0  0  0  0  0  0  0  0  0  0  0  0
  -11.9939    6.1574   13.4330 N   0  3  0  0  0  0  0  0  0  0  0  0
  -12.1088    1.1795   17.2543 C   0  0  2  0  0  0  0  0  0  0  0  0
  -12.8371    0.2251   18.1101 N   0  3  0  0  0  0  0  0  0  0  0  0
  -11.2091    0.4238   16.2859 C   0  0  0  0  0  0  0  0  0  0  0  0
  -10.4431    1.4057   15.3925 C   0  0  2  0  0  0  0  0  0  0  0  0
   -9.6739    0.6262   14.3909 N   0  3  0  0  0  0  0  0  0  0  0  0
   -9.5778    2.3847   16.2411 C   0  0  2  0  0  0  0  0  0  0  0  0
  -10.4812    3.1138   17.2687 C   0  0  2  0  0  0  0  0  0  0  0  0
   -9.6789    3.8718   18.1415 O   0  0  0  0  0  0  0  0  0  0  0  0
  -11.2611    2.1039   18.1261 C   0  0  1  0  0  0  0  0  0  0  0  0
  -12.1007    2.8186   19.0322 O   0  0  0  0  0  0  0  0  0  0  0  0
  -11.9714    2.5275   20.3812 C   0  0  2  0  0  0  0  0  0  0  0  0
  -13.0999    3.2340   21.1517 C   0  0  2  0  0  0  0  0  0  0  0  0
  -14.3488    2.7672   20.6573 O   0  0  0  0  0  0  0  0  0  0  0  0
  -12.9863    4.7547   20.9461 C   0  0  1  0  0  0  0  0  0  0  0  0
  -14.0706    5.4938   21.6547 N   0  3  0  0  0  0  0  0  0  0  0  0
  -11.5951    5.2325   21.4289 C   0  0  2  0  0  0  0  0  0  0  0  0
  -11.4509    6.6365   21.2271 O   0  0  0  0  0  0  0  0  0  0  0  0
  -10.4831    4.4623   20.6927 C   0  0  2  0  0  0  0  0  0  0  0  0
  -10.6803    3.0087   20.8370 O   0  0  0  0  0  0  0  0  0  0  0  0
   -9.1097    4.7808   21.2406 C   0  0  0  0  0  0  0  0  0  0  0  0
   -8.8969    4.1721   22.5125 O   0  0  0  0  0  0  0  0  0  0  0  0
  1  2  1  1  0  0  0
  1  3  1  0  0  0  0
  1  9  1  0  0  0  0
  3  4  1  1  0  0  0
  3  5  1  0  0  0  0
  5  6  1  0  0  0  0
  6  7  1  1  0  0  0
  6  8  1  0  0  0  0
  8  9  1  0  0  0  0
  8 10  1  6  0  0  0
 10 11  1  0  0  0  0
 12 13  1  1  0  0  0
 12 14  1  0  0  0  0
 12 20  1  0  0  0  0
 14 15  1  0  0  0  0
 15 16  1  6  0  0  0
 15 17  1  0  0  0  0
 17  2  1  6  0  0  0
 17 18  1  0  0  0  0
 18 19  1  1  0  0  0
 18 20  1  0  0  0  0
 20 21  1  1  0  0  0
 22 21  1  6  0  0  0
 22 23  1  0  0  0  0
 22 30  1  0  0  0  0
 23 24  1  6  0  0  0
 23 25  1  0  0  0  0
 25 26  1  1  0  0  0
 25 27  1  0  0  0  0
 27 28  1  6  0  0  0
 27 29  1  0  0  0  0
 29 30  1  0  0  0  0
 29 31  1  1  0  0  0
 31 32  1  0  0  0  0
M  CHG  5   4   1  11   1  13   1  16   1  26   1
M  END
>  <CHROM.1>
-127.33734608,-12.10301799,-160.28095916,-45.90149446,-178.93869540,174.19894669
-63.00744427,129.05510452,150.82816782,112.86246674,-171.33111300,176.99695190
22.70606921,-56.78546029,73.52412228,158.11634169,-10.51555279,3.67928459
17.27947565,0.52113851,-1.09729076,-2.52043799

>  <Name>
1lc4

>  <RI>
0

>  <Rbt.Current_Directory>
/home/afrankz/demos/rdock_decoys_rna/rnas/1lc4

>  <Rbt.Executable>
rbdock ($Id: //depot/dev/client3/rdock/2013.1/src/exe/rbdock.cxx#4 $)

>  <Rbt.Library>
libRbt.so (2013.1, Build901 2013/11/27)

>  <Rbt.Parameter_File>
/export/apps/rDock/src/rDock_2013.1_src/data/scripts/dock_solv.prm

>  <Rbt.Receptor>
prm/blind_docking_100.prm

>  <SCORE>
-26.1364

>  <SCORE.INTER>
-26.6783

>  <SCORE.INTER.CONST>
1

>  <SCORE.INTER.POLAR>
-3.32727

>  <SCORE.INTER.ROT>
6

>  <SCORE.INTER.SOLV>
19.915

>  <SCORE.INTER.VDW>
-20.933

>  <SCORE.INTER.norm>
-0.833698

>  <SCORE.INTRA>
0.316465

>  <SCORE.INTRA.DIHEDRAL>
-9.42798

>  <SCORE.INTRA.DIHEDRAL.0>
44.2576

>  <SCORE.INTRA.POLAR>
0.362356

>  <SCORE.INTRA.POLAR.0>
-0.381556

>  <SCORE.INTRA.REPUL>
0

>  <SCORE.INTRA.REPUL.0>
0

>  <SCORE.INTRA.SOLV>
1.51832

>  <SCORE.INTRA.SOLV.lig_0>
-134.592

>  <SCORE.INTRA.VDW>
3.03929

>  <SCORE.INTRA.VDW.0>
-1.01417

>  <SCORE.INTRA.norm>
0.00988952

>  <SCORE.RESTR>
0.225467

>  <SCORE.RESTR.CAVITY>
0.225467

>  <SCORE.RESTR.norm>
0.00704583

>  <SCORE.SYSTEM>
0

>  <SCORE.SYSTEM.CONST>
0

>  <SCORE.SYSTEM.DIHEDRAL>
0

>  <SCORE.SYSTEM.SOLV>
0

>  <SCORE.SYSTEM.norm>
0

>  <SCORE.heavy>
32

>  <SCORE.norm>
-0.816763

>  <RMSD>
8.677

$$$$
1lc4
 OpenBabel02141814113D
libRbt.so/2013.1/901 2013/11/27
 32 34  0  0  0  0  0  0  0  0999 V2000
  -12.2781    7.7927   16.6678 C   0  0  2  0  0  0  0  0  0  0  0  0
  -12.9872    7.0480   17.6262 O   0  0  0  0  0  0  0  0  0  0  0  0
  -13.0897    9.0658   16.3525 C   0  0  2  0  0  0  0  0  0  0  0  0
  -13.3094    9.8460   17.5742 N   0  3  0  0  0  0  0  0  0  0  0  0
  -14.4284    8.6892   15.6752 C   0  0  0  0  0  0  0  0  0  0  0  0
  -14.0943    7.9121   14.3898 C   0  0  2  0  0  0  0  0  0  0  0  0
  -15.2936    7.5732   13.6855 O   0  0  0  0  0  0  0  0  0  0  0  0
  -13.2796    6.6462   14.7547 C   0  0  2  0  0  0  0  0  0  0  0  0
  -12.0657    7.0131   15.4702 O   0  0  0  0  0  0  0  0  0  0  0  0
  -12.8489    5.8282   13.5398 C   0  0  0  0  0  0  0  0  0  0  0  0
  -12.2372    4.5369   13.9498 N   0  3  0  0  0  0  0  0  0  0  0  0
  -11.6437    4.5617   20.7842 C   0  0  2  0  0  0  0  0  0  0  0  0
  -11.0384    3.4527   21.5443 N   0  3  0  0  0  0  0  0  0  0  0  0
  -12.7795    4.0355   19.9173 C   0  0  0  0  0  0  0  0  0  0  0  0
  -13.4149    5.1791   19.1188 C   0  0  2  0  0  0  0  0  0  0  0  0
  -14.5870    4.6426   18.3833 N   0  3  0  0  0  0  0  0  0  0  0  0
  -12.3635    5.8886   18.2140 C   0  0  2  0  0  0  0  0  0  0  0  0
  -11.1768    6.3746   19.0853 C   0  0  2  0  0  0  0  0  0  0  0  0
  -10.1554    6.8663   18.2517 O   0  0  0  0  0  0  0  0  0  0  0  0
  -10.5830    5.2132   19.8990 C   0  0  1  0  0  0  0  0  0  0  0  0
   -9.5184    5.7129   20.7075 O   0  0  0  0  0  0  0  0  0  0  0  0
   -9.8634    6.3383   21.8954 C   0  0  2  0  0  0  0  0  0  0  0  0
   -9.4445    7.8164   21.8179 C   0  0  2  0  0  0  0  0  0  0  0  0
  -10.1166    8.4222   20.7208 O   0  0  0  0  0  0  0  0  0  0  0  0
   -7.9215    7.9072   21.6186 C   0  0  1  0  0  0  0  0  0  0  0  0
   -7.4579    9.3209   21.5145 N   0  3  0  0  0  0  0  0  0  0  0  0
   -7.2096    7.1847   22.7884 C   0  0  2  0  0  0  0  0  0  0  0  0
   -5.7949    7.2305   22.6176 O   0  0  0  0  0  0  0  0  0  0  0  0
   -7.6965    5.7271   22.8882 C   0  0  2  0  0  0  0  0  0  0  0  0
   -9.1665    5.6798   22.9848 O   0  0  0  0  0  0  0  0  0  0  0  0
   -7.1483    5.0251   24.1108 C   0  0  0  0  0  0  0  0  0  0  0  0
   -8.1486    4.8559   25.1128 O   0  0  0  0  0  0  0  0  0  0  0  0
  1  2  1  1  0  0  0
  1  3  1  0  0  0  0
  1  9  1  0  0  0  0
  3  4  1  1  0  0  0
  3  5  1  0  0  0  0
  5  6  1  0  0  0  0
  6  7  1  1  0  0  0
  6  8  1  0  0  0  0
  8  9  1  0  0  0  0
  8 10  1  6  0  0  0
 10 11  1  0  0  0  0
 12 13  1  6  0  0  0
 12 14  1  0  0  0  0
 12 20  1  0  0  0  0
 14 15  1  0  0  0  0
 15 16  1  6  0  0  0
 15 17  1  0  0  0  0
 17  2  1  1  0  0  0
 17 18  1  0  0  0  0
 18 19  1  6  0  0  0
 18 20  1  0  0  0  0
 20 21  1  1  0  0  0
 22 21  1  6  0  0  0
 22 23  1  0  0  0  0
 22 30  1  0  0  0  0
 23 24  1  6  0  0  0
 23 25  1  0  0  0  0
 25 26  1  1  0  0  0
 25 27  1  0  0  0  0
 27 28  1  6  0  0  0
 27 29  1  0  0  0  0
 29 30  1  0  0  0  0
 29 31  1  1  0  0  0
 31 32  1  0  0  0  0
M  CHG  5   4   1  11   1  13   1  16   1  26   1
M  END
>  <CHROM.1>
-172.49287275,-174.22937642,141.67021568,176.80798682,-172.20815895,-176.59384697
-177.14539174,-56.37983070,88.72089503,-40.89523215,-115.57837369,64.10867166
167.92894721,-46.81343960,106.22448072,-49.16325964,-11.02316029,6.54567490
19.18196225,-2.58547835,0.80646414,2.52801862

>  <Name>
1lc4

>  <RI>
0

>  <Rbt.Current_Directory>
/home/afrankz/demos/rdock_decoys_rna/rnas/1lc4

>  <Rbt.Executable>
rbdock ($Id: //depot/dev/client3/rdock/2013.1/src/exe/rbdock.cxx#4 $)

>  <Rbt.Library>
libRbt.so (2013.1, Build901 2013/11/27)

>  <Rbt.Parameter_File>
/export/apps/rDock/src/rDock_2013.1_src/data/scripts/dock_solv.prm

>  <Rbt.Receptor>
prm/pocket_docking_3.prm

>  <SCORE>
-51.3072

>  <SCORE.INTER>
-38.5664

>  <SCORE.INTER.CONST>
1

>  <SCORE.INTER.POLAR>
-5.77805

>  <SCORE.INTER.ROT>
6

>  <SCORE.INTER.SOLV>
23.9492

>  <SCORE.INTER.VDW>
-22.0338

>  <SCORE.INTER.norm>
-1.2052

>  <SCORE.INTRA>
-13.4383

>  <SCORE.INTRA.DIHEDRAL>
-22.2567

>  <SCORE.INTRA.DIHEDRAL.0>
44.2576

>  <SCORE.INTRA.POLAR>
-0.0210859

>  <SCORE.INTRA.POLAR.0>
-0.381556

>  <SCORE.INTRA.REPUL>
0

>  <SCORE.INTRA.REPUL.0>
0

>  <SCORE.INTRA.SOLV>
-3.82534

>  <SCORE.INTRA.SOLV.lig_0>
-134.592

>  <SCORE.INTRA.VDW>
-0.325627

>  <SCORE.INTRA.VDW.0>
-1.01417

>  <SCORE.INTRA.norm>
-0.419948

>  <SCORE.RESTR>
0.697535

>  <SCORE.RESTR.CAVITY>
0.697535

>  <SCORE.RESTR.norm>
0.021798

>  <SCORE.SYSTEM>
0

>  <SCORE.SYSTEM.CONST>
0

>  <SCORE.SYSTEM.DIHEDRAL>
0

>  <SCORE.SYSTEM.SOLV>
0

>  <SCORE.SYSTEM.norm>
0

>  <SCORE.heavy>
32

>  <SCORE.norm>
-1.60335

>  <RMSD>
8.678

$$$$
1lc4
 OpenBabel02141814113D
libRbt.so/2013.1/901 2013/11/27
 32 34  0  0  0  0  0  0  0  0999 V2000
  -14.5278    8.6542   13.7888 C   0  0  2  0  0  0  0  0  0  0  0  0
  -14.1964    7.9941   14.9848 O   0  0  0  0  0  0  0  0  0  0  0  0
  -15.8260    9.4527   14.0251 C   0  0  2  0  0  0  0  0  0  0  0  0
  -15.6454   10.4057   15.1246 N   0  3  0  0  0  0  0  0  0  0  0  0
  -17.0016    8.4868   14.3032 C   0  0  0  0  0  0  0  0  0  0  0  0
  -17.1362    7.5582   13.0837 C   0  0  2  0  0  0  0  0  0  0  0  0
  -18.2423    6.6658   13.2553 O   0  0  0  0  0  0  0  0  0  0  0  0
  -15.8115    6.7801   12.8848 C   0  0  2  0  0  0  0  0  0  0  0  0
  -14.7007    7.7056   12.7130 O   0  0  0  0  0  0  0  0  0  0  0  0
  -15.8204    5.8652   11.6627 C   0  0  0  0  0  0  0  0  0  0  0  0
  -15.9527    6.6476   10.4057 N   0  3  0  0  0  0  0  0  0  0  0  0
  -11.1198    5.7053   16.7892 C   0  0  2  0  0  0  0  0  0  0  0  0
   -9.8071    5.1192   17.1165 N   0  3  0  0  0  0  0  0  0  0  0  0
  -11.4992    5.3569   15.3564 C   0  0  0  0  0  0  0  0  0  0  0  0
  -12.8613    5.9641   15.0026 C   0  0  2  0  0  0  0  0  0  0  0  0
  -13.2425    5.5015   13.6449 N   0  3  0  0  0  0  0  0  0  0  0  0
  -12.8498    7.5131   15.1694 C   0  0  2  0  0  0  0  0  0  0  0  0
  -12.4071    7.8737   16.6108 C   0  0  2  0  0  0  0  0  0  0  0  0
  -12.2376    9.2668   16.7130 O   0  0  0  0  0  0  0  0  0  0  0  0
  -11.0555    7.2232   16.9476 C   0  0  1  0  0  0  0  0  0  0  0  0
  -10.7052    7.5551   18.2906 O   0  0  0  0  0  0  0  0  0  0  0  0
  -11.6298    7.2575   19.2796 C   0  0  2  0  0  0  0  0  0  0  0  0
  -11.5082    8.3015   20.4028 C   0  0  2  0  0  0  0  0  0  0  0  0
  -11.7596    9.5895   19.8551 O   0  0  0  0  0  0  0  0  0  0  0  0
  -10.0907    8.2495   20.9991 C   0  0  1  0  0  0  0  0  0  0  0  0
   -9.9060    9.2578   22.0823 N   0  3  0  0  0  0  0  0  0  0  0  0
   -9.8122    6.8219   21.5297 C   0  0  2  0  0  0  0  0  0  0  0  0
   -8.4941    6.7363   22.0664 O   0  0  0  0  0  0  0  0  0  0  0  0
  -10.0073    5.7888   20.4045 C   0  0  2  0  0  0  0  0  0  0  0  0
  -11.3430    5.9327   19.7980 O   0  0  0  0  0  0  0  0  0  0  0  0
   -9.9000    4.3673   20.9103 C   0  0  0  0  0  0  0  0  0  0  0  0
  -10.7226    4.1531   22.0552 O   0  0  0  0  0  0  0  0  0  0  0  0
  1  2  1  1  0  0  0
  1  3  1  0  0  0  0
  1  9  1  0  0  0  0
  3  4  1  1  0  0  0
  3  5  1  0  0  0  0
  5  6  1  0  0  0  0
  6  7  1  1  0  0  0
  6  8  1  0  0  0  0
  8  9  1  0  0  0  0
  8 10  1  6  0  0  0
 10 11  1  0  0  0  0
 12 13  1  6  0  0  0
 12 14  1  0  0  0  0
 12 20  1  0  0  0  0
 14 15  1  0  0  0  0
 15 16  1  6  0  0  0
 15 17  1  0  0  0  0
 17  2  1  1  0  0  0
 17 18  1  0  0  0  0
 18 19  1  6  0  0  0
 18 20  1  0  0  0  0
 20 21  1  1  0  0  0
 22 21  1  6  0  0  0
 22 23  1  0  0  0  0
 22 30  1  0  0  0  0
 23 24  1  6  0  0  0
 23 25  1  0  0  0  0
 25 26  1  1  0  0  0
 25 27  1  0  0  0  0
 27 28  1  6  0  0  0
 27 29  1  0  0  0  0
 29 30  1  0  0  0  0
 29 31  1  1  0  0  0
 31 32  1  0  0  0  0
M  CHG  5   4   1  11   1  13   1  16   1  26   1
M  END
>  <CHROM.1>
-161.56845242,-105.56861991,-0.90046177,175.99800696,63.88026146,28.71965436
-67.78455682,-125.64597258,92.34598585,-67.30877087,-148.39780898,-98.31230895
-159.62602529,71.90513791,50.12668720,-178.86192929,-12.73716084,7.18812079
16.80810788,2.67602464,0.85559997,-2.47196291

>  <Name>
1lc4

>  <RI>
0

>  <Rbt.Current_Directory>
/home/afrankz/demos/rdock_decoys_rna/rnas/1lc4

>  <Rbt.Executable>
rbdock ($Id: //depot/dev/client3/rdock/2013.1/src/exe/rbdock.cxx#4 $)

>  <Rbt.Library>
libRbt.so (2013.1, Build901 2013/11/27)

>  <Rbt.Parameter_File>
/export/apps/rDock/src/rDock_2013.1_src/data/scripts/dock_solv.prm

>  <Rbt.Receptor>
prm/blind_docking_80.prm

>  <SCORE>
-34.1024

>  <SCORE.INTER>
-35.7032

>  <SCORE.INTER.CONST>
1

>  <SCORE.INTER.POLAR>
-5.403

>  <SCORE.INTER.ROT>
6

>  <SCORE.INTER.SOLV>
36.0706

>  <SCORE.INTER.VDW>
-25.4157

>  <SCORE.INTER.norm>
-1.11572

>  <SCORE.INTRA>
-5.98045

>  <SCORE.INTRA.DIHEDRAL>
-11.8863

>  <SCORE.INTRA.DIHEDRAL.0>
44.2576

>  <SCORE.INTRA.POLAR>
-0.373046

>  <SCORE.INTRA.POLAR.0>
-0.381556

>  <SCORE.INTRA.REPUL>
0

>  <SCORE.INTRA.REPUL.0>
0

>  <SCORE.INTRA.SOLV>
4.45503

>  <SCORE.INTRA.SOLV.lig_0>
-134.592

>  <SCORE.INTRA.VDW>
-0.99645

>  <SCORE.INTRA.VDW.0>
-1.01417

>  <SCORE.INTRA.norm>
-0.186889

>  <SCORE.RESTR>
7.58126

>  <SCORE.RESTR.CAVITY>
7.58126

>  <SCORE.RESTR.norm>
0.236914

>  <SCORE.SYSTEM>
0

>  <SCORE.SYSTEM.CONST>
0

>  <SCORE.SYSTEM.DIHEDRAL>
0

>  <SCORE.SYSTEM.SOLV>
0

>  <SCORE.SYSTEM.norm>
0

>  <SCORE.heavy>
32

>  <SCORE.norm>
-1.0657

>  <RMSD>
8.692

$$$$
1lc4
 OpenBabel02141814113D
libRbt.so/2013.1/901 2013/11/27
 32 34  0  0  0  0  0  0  0  0999 V2000
  -14.4501    8.0562   14.8700 C   0  0  2  0  0  0  0  0  0  0  0  0
  -14.3041    6.8814   15.6280 O   0  0  0  0  0  0  0  0  0  0  0  0
  -15.8048    8.6972   15.2345 C   0  0  2  0  0  0  0  0  0  0  0  0
  -15.8638    8.9822   16.6715 N   0  3  0  0  0  0  0  0  0  0  0  0
  -16.9656    7.7745   14.7943 C   0  0  0  0  0  0  0  0  0  0  0  0
  -16.8413    7.5672   13.2747 C   0  0  2  0  0  0  0  0  0  0  0  0
  -17.9185    6.7574   12.7916 O   0  0  0  0  0  0  0  0  0  0  0  0
  -15.4682    6.9245   12.9568 C   0  0  2  0  0  0  0  0  0  0  0  0
  -14.3880    7.7630   13.4568 O   0  0  0  0  0  0  0  0  0  0  0  0
  -15.2206    6.7245   11.4637 C   0  0  0  0  0  0  0  0  0  0  0  0
  -16.0296    5.5974   10.9302 N   0  3  0  0  0  0  0  0  0  0  0  0
  -11.2728    4.5246   17.4216 C   0  0  2  0  0  0  0  0  0  0  0  0
   -9.9949    3.8409   17.6925 N   0  3  0  0  0  0  0  0  0  0  0  0
  -11.8582    4.0256   16.1076 C   0  0  0  0  0  0  0  0  0  0  0  0
  -13.1860    4.7321   15.8128 C   0  0  2  0  0  0  0  0  0  0  0  0
  -13.7753    4.1315   14.5902 N   0  3  0  0  0  0  0  0  0  0  0  0
  -12.9997    6.2772   15.7390 C   0  0  2  0  0  0  0  0  0  0  0  0
  -12.3496    6.7819   17.0529 C   0  0  2  0  0  0  0  0  0  0  0  0
  -12.0308    8.1462   16.9225 O   0  0  0  0  0  0  0  0  0  0  0  0
  -11.0385    6.0317   17.3387 C   0  0  1  0  0  0  0  0  0  0  0  0
  -10.4946    6.5053   18.5702 O   0  0  0  0  0  0  0  0  0  0  0  0
  -11.3690    6.6505   19.6359 C   0  0  2  0  0  0  0  0  0  0  0  0
  -10.8847    7.8123   20.5202 C   0  0  2  0  0  0  0  0  0  0  0  0
  -10.8522    8.9977   19.7354 O   0  0  0  0  0  0  0  0  0  0  0  0
   -9.4774    7.4958   21.0561 C   0  0  1  0  0  0  0  0  0  0  0  0
   -8.9451    8.5997   21.9059 N   0  3  0  0  0  0  0  0  0  0  0  0
   -9.5206    6.1680   21.8510 C   0  0  2  0  0  0  0  0  0  0  0  0
   -8.2231    5.8352   22.3394 O   0  0  0  0  0  0  0  0  0  0  0  0
  -10.0731    5.0356   20.9655 C   0  0  2  0  0  0  0  0  0  0  0  0
  -11.3793    5.4155   20.3979 O   0  0  0  0  0  0  0  0  0  0  0  0
  -10.2820    3.7545   21.7421 C   0  0  0  0  0  0  0  0  0  0  0  0
  -10.9921    2.7845   20.9751 O   0  0  0  0  0  0  0  0  0  0  0  0
  1  2  1  1  0  0  0
  1  3  1  0  0  0  0
  1  9  1  0  0  0  0
  3  4  1  1  0  0  0
  3  5  1  0  0  0  0
  5  6  1  0  0  0  0
  6  7  1  1  0  0  0
  6  8  1  0  0  0  0
  8  9  1  0  0  0  0
  8 10  1  6  0  0  0
 10 11  1  0  0  0  0
 12 13  1  6  0  0  0
 12 14  1  0  0  0  0
 12 20  1  0  0  0  0
 14 15  1  0  0  0  0
 15 16  1  6  0  0  0
 15 17  1  0  0  0  0
 17  2  1  1  0  0  0
 17 18  1  0  0  0  0
 18 19  1  6  0  0  0
 18 20  1  0  0  0  0
 20 21  1  1  0  0  0
 22 21  1  6  0  0  0
 22 23  1  0  0  0  0
 22 30  1  0  0  0  0
 23 24  1  6  0  0  0
 23 25  1  0  0  0  0
 25 26  1  1  0  0  0
 25 27  1  0  0  0  0
 27 28  1  6  0  0  0
 27 29  1  0  0  0  0
 29 30  1  0  0  0  0
 29 31  1  1  0  0  0
 31 32  1  0  0  0  0
M  CHG  5   4   1  11   1  13   1  16   1  26   1
M  END
>  <CHROM.1>
-164.22791966,-146.25777477,-173.23210850,69.19344076,-73.78936588,173.69516604
166.99822734,175.10860282,-175.74668774,-76.84640285,-148.69667022,179.05616750
63.77749597,-176.92908062,170.48017232,-51.68787259,-12.62847278,6.41012606
17.21247302,2.87924543,0.88209628,-2.68455685

>  <Name>
1lc4

>  <RI>
0

>  <Rbt.Current_Directory>
/home/afrankz/demos/rdock_decoys_rna/rnas/1lc4

>  <Rbt.Executable>
rbdock ($Id: //depot/dev/client3/rdock/2013.1/src/exe/rbdock.cxx#4 $)

>  <Rbt.Library>
libRbt.so (2013.1, Build901 2013/11/27)

>  <Rbt.Parameter_File>
/export/apps/rDock/src/rDock_2013.1_src/data/scripts/dock_solv.prm

>  <Rbt.Receptor>
prm/pocket_docking_5.prm

>  <SCORE>
-56.328

>  <SCORE.INTER>
-33.4237

>  <SCORE.INTER.CONST>
1

>  <SCORE.INTER.POLAR>
-4.22155

>  <SCORE.INTER.ROT>
6

>  <SCORE.INTER.SOLV>
24.3891

>  <SCORE.INTER.VDW>
-23.9403

>  <SCORE.INTER.norm>
-1.04449

>  <SCORE.INTRA>
-22.9043

>  <SCORE.INTRA.DIHEDRAL>
-30.9854

>  <SCORE.INTRA.DIHEDRAL.0>
44.2576

>  <SCORE.INTRA.POLAR>
-1.43356

>  <SCORE.INTRA.POLAR.0>
-0.381556

>  <SCORE.INTRA.REPUL>
0

>  <SCORE.INTRA.REPUL.0>
0

>  <SCORE.INTRA.SOLV>
0.5659

>  <SCORE.INTRA.SOLV.lig_0>
-134.592

>  <SCORE.INTRA.VDW>
-2.82041

>  <SCORE.INTRA.VDW.0>
-1.01417

>  <SCORE.INTRA.norm>
-0.715758

>  <SCORE.RESTR>
0

>  <SCORE.RESTR.CAVITY>
0

>  <SCORE.RESTR.norm>
0

>  <SCORE.SYSTEM>
0

>  <SCORE.SYSTEM.CONST>
0

>  <SCORE.SYSTEM.DIHEDRAL>
0

>  <SCORE.SYSTEM.SOLV>
0

>  <SCORE.SYSTEM.norm>
0

>  <SCORE.heavy>
32

>  <SCORE.norm>
-1.76025

>  <RMSD>
8.710

$$$$
1lc4
 OpenBabel02141814113D
libRbt.so/2013.1/901 2013/11/27
 32 34  0  0  0  0  0  0  0  0999 V2000
   -9.3730    4.4463   14.4119 C   0  0  2  0  0  0  0  0  0  0  0  0
  -10.1437    3.2708   14.4042 O   0  0  0  0  0  0  0  0  0  0  0  0
   -9.8941    5.3693   13.2914 C   0  0  2  0  0  0  0  0  0  0  0  0
  -11.3155    5.6655   13.4948 N   0  3  0  0  0  0  0  0  0  0  0  0
   -9.6451    4.7210   11.9093 C   0  0  0  0  0  0  0  0  0  0  0  0
   -8.1304    4.4860   11.7744 C   0  0  2  0  0  0  0  0  0  0  0  0
   -7.8238    3.9294   10.4916 O   0  0  0  0  0  0  0  0  0  0  0  0
   -7.6530    3.5576   12.9188 C   0  0  2  0  0  0  0  0  0  0  0  0
   -7.9748    4.1415   14.2132 O   0  0  0  0  0  0  0  0  0  0  0  0
   -6.1478    3.3029   12.9085 C   0  0  0  0  0  0  0  0  0  0  0  0
   -5.6997    2.6735   14.1784 N   0  3  0  0  0  0  0  0  0  0  0  0
  -11.9872    1.2961   17.6695 C   0  0  2  0  0  0  0  0  0  0  0  0
  -12.2118    0.4970   18.8881 N   0  3  0  0  0  0  0  0  0  0  0  0
  -11.3704    0.4234   16.5850 C   0  0  0  0  0  0  0  0  0  0  0  0
  -11.1285    1.2441   15.3133 C   0  0  2  0  0  0  0  0  0  0  0  0
  -10.6400    0.3299   14.2511 N   0  3  0  0  0  0  0  0  0  0  0  0
  -10.1908    2.4565   15.5931 C   0  0  2  0  0  0  0  0  0  0  0  0
  -10.7864    3.3161   16.7377 C   0  0  2  0  0  0  0  0  0  0  0  0
   -9.8633    4.3138   17.1018 O   0  0  0  0  0  0  0  0  0  0  0  0
  -11.0492    2.4591   17.9866 C   0  0  1  0  0  0  0  0  0  0  0  0
  -11.6254    3.2832   18.9992 O   0  0  0  0  0  0  0  0  0  0  0  0
  -10.9337    3.3966   20.1950 C   0  0  2  0  0  0  0  0  0  0  0  0
  -11.8856    3.0528   21.3535 C   0  0  2  0  0  0  0  0  0  0  0  0
  -12.3585    1.7238   21.1738 O   0  0  0  0  0  0  0  0  0  0  0  0
  -13.0679    4.0377   21.3542 C   0  0  1  0  0  0  0  0  0  0  0  0
  -14.0388    3.7397   22.4462 N   0  3  0  0  0  0  0  0  0  0  0  0
  -12.5282    5.4830   21.4837 C   0  0  2  0  0  0  0  0  0  0  0  0
  -13.6014    6.4213   21.4618 O   0  0  0  0  0  0  0  0  0  0  0  0
  -11.5257    5.7798   20.3530 C   0  0  2  0  0  0  0  0  0  0  0  0
  -10.4600    4.7618   20.3283 O   0  0  0  0  0  0  0  0  0  0  0  0
  -10.8526    7.1233   20.5255 C   0  0  0  0  0  0  0  0  0  0  0  0
   -9.8972    7.1009   21.5838 O   0  0  0  0  0  0  0  0  0  0  0  0
  1  2  1  6  0  0  0
  1  3  1  0  0  0  0
  1  9  1  0  0  0  0
  3  4  1  1  0  0  0
  3  5  1  0  0  0  0
  5  6  1  0  0  0  0
  6  7  1  6  0  0  0
  6  8  1  0  0  0  0
  8  9  1  0  0  0  0
  8 10  1  1  0  0  0
 10 11  1  0  0  0  0
 12 13  1  1  0  0  0
 12 14  1  0  0  0  0
 12 20  1  0  0  0  0
 14 15  1  0  0  0  0
 15 16  1  6  0  0  0
 15 17  1  0  0  0  0
 17  2  1  6  0  0  0
 17 18  1  0  0  0  0
 18 19  1  1  0  0  0
 18 20  1  0  0  0  0
 20 21  1  1  0  0  0
 22 21  1  6  0  0  0
 22 23  1  0  0  0  0
 22 30  1  0  0  0  0
 23 24  1  6  0  0  0
 23 25  1  0  0  0  0
 25 26  1  1  0  0  0
 25 27  1  0  0  0  0
 27 28  1  6  0  0  0
 27 29  1  0  0  0  0
 29 30  1  0  0  0  0
 29 31  1  1  0  0  0
 31 32  1  0  0  0  0
M  CHG  5   4   1  11   1  13   1  16   1  26   1
M  END
>  <CHROM.1>
-158.86321561,179.02161527,177.81822196,64.29037083,167.15446785,170.64776438
-62.24393202,37.42379490,-38.34178252,117.99803812,-127.08729738,171.66026122
138.14746267,-57.24736246,73.05591073,57.95836335,-10.49727236,3.67870747
17.06938960,-0.59242152,1.04016674,0.57349835

>  <Name>
1lc4

>  <RI>
0

>  <Rbt.Current_Directory>
/home/afrankz/demos/rdock_decoys_rna/rnas/1lc4

>  <Rbt.Executable>
rbdock ($Id: //depot/dev/client3/rdock/2013.1/src/exe/rbdock.cxx#4 $)

>  <Rbt.Library>
libRbt.so (2013.1, Build901 2013/11/27)

>  <Rbt.Parameter_File>
/export/apps/rDock/src/rDock_2013.1_src/data/scripts/dock_solv.prm

>  <Rbt.Receptor>
prm/blind_docking_100.prm

>  <SCORE>
-37.4794

>  <SCORE.INTER>
-25.4813

>  <SCORE.INTER.CONST>
1

>  <SCORE.INTER.POLAR>
-4.16199

>  <SCORE.INTER.ROT>
6

>  <SCORE.INTER.SOLV>
24.5779

>  <SCORE.INTER.VDW>
-18.9069

>  <SCORE.INTER.norm>
-0.796291

>  <SCORE.INTRA>
-15.6421

>  <SCORE.INTRA.DIHEDRAL>
-20.1417

>  <SCORE.INTRA.DIHEDRAL.0>
44.2576

>  <SCORE.INTRA.POLAR>
-0.707742

>  <SCORE.INTRA.POLAR.0>
-0.381556

>  <SCORE.INTRA.REPUL>
0

>  <SCORE.INTRA.REPUL.0>
0

>  <SCORE.INTRA.SOLV>
-1.82788

>  <SCORE.INTRA.SOLV.lig_0>
-134.592

>  <SCORE.INTRA.VDW>
-2.25094

>  <SCORE.INTRA.VDW.0>
-1.01417

>  <SCORE.INTRA.norm>
-0.488815

>  <SCORE.RESTR>
3.64403

>  <SCORE.RESTR.CAVITY>
3.64403

>  <SCORE.RESTR.norm>
0.113876

>  <SCORE.SYSTEM>
0

>  <SCORE.SYSTEM.CONST>
0

>  <SCORE.SYSTEM.DIHEDRAL>
0

>  <SCORE.SYSTEM.SOLV>
0

>  <SCORE.SYSTEM.norm>
0

>  <SCORE.heavy>
32

>  <SCORE.norm>
-1.17123

>  <RMSD>
8.740

$$$$
1lc4
 OpenBabel02141814113D
libRbt.so/2013.1/901 2013/11/27
 32 34  0  0  0  0  0  0  0  0999 V2000
  -15.5203    8.1671   15.1744 C   0  0  2  0  0  0  0  0  0  0  0  0
  -15.5602    6.9607   15.8948 O   0  0  0  0  0  0  0  0  0  0  0  0
  -16.9118    8.8263   15.2648 C   0  0  2  0  0  0  0  0  0  0  0  0
  -17.2766    9.0569   16.6660 N   0  3  0  0  0  0  0  0  0  0  0  0
  -17.9635    7.9498   14.5450 C   0  0  0  0  0  0  0  0  0  0  0  0
  -17.5159    7.7984   13.0806 C   0  0  2  0  0  0  0  0  0  0  0  0
  -18.4750    7.0343   12.3419 O   0  0  0  0  0  0  0  0  0  0  0  0
  -16.1166    7.1353   13.0396 C   0  0  2  0  0  0  0  0  0  0  0  0
  -15.1577    7.9274   13.7967 O   0  0  0  0  0  0  0  0  0  0  0  0
  -15.5541    6.9873   11.6280 C   0  0  0  0  0  0  0  0  0  0  0  0
  -16.2746    5.9312   10.8696 N   0  3  0  0  0  0  0  0  0  0  0  0
  -12.7122    4.3413   17.6232 C   0  0  2  0  0  0  0  0  0  0  0  0
  -11.5501    3.4555   17.8206 N   0  3  0  0  0  0  0  0  0  0  0  0
  -13.6217    3.7689   16.5446 C   0  0  0  0  0  0  0  0  0  0  0  0
  -14.8325    4.6832   16.3273 C   0  0  2  0  0  0  0  0  0  0  0  0
  -15.7462    4.0288   15.3580 N   0  3  0  0  0  0  0  0  0  0  0  0
  -14.3894    6.1196   15.9175 C   0  0  2  0  0  0  0  0  0  0  0  0
  -13.4164    6.6837   16.9846 C   0  0  2  0  0  0  0  0  0  0  0  0
  -12.8891    7.9085   16.5354 O   0  0  0  0  0  0  0  0  0  0  0  0
  -12.2314    5.7293   17.2045 C   0  0  1  0  0  0  0  0  0  0  0  0
  -11.3826    6.2725   18.2150 O   0  0  0  0  0  0  0  0  0  0  0  0
  -11.9435    6.4952   19.4628 C   0  0  2  0  0  0  0  0  0  0  0  0
  -11.2053    7.6641   20.1373 C   0  0  2  0  0  0  0  0  0  0  0  0
  -11.3369    8.8183   19.3172 O   0  0  0  0  0  0  0  0  0  0  0  0
   -9.7190    7.3028   20.3046 C   0  0  1  0  0  0  0  0  0  0  0  0
   -8.9453    8.4105   20.9360 N   0  3  0  0  0  0  0  0  0  0  0  0
   -9.6000    6.0072   21.1439 C   0  0  2  0  0  0  0  0  0  0  0  0
   -8.2325    5.6329   21.2946 O   0  0  0  0  0  0  0  0  0  0  0  0
  -10.4033    4.8707   20.4846 C   0  0  2  0  0  0  0  0  0  0  0  0
  -11.7982    5.2896   20.2576 O   0  0  0  0  0  0  0  0  0  0  0  0
  -10.4474    3.6287   21.3469 C   0  0  0  0  0  0  0  0  0  0  0  0
  -11.2861    2.6244   20.7800 O   0  0  0  0  0  0  0  0  0  0  0  0
  1  2  1  1  0  0  0
  1  3  1  0  0  0  0
  1  9  1  0  0  0  0
  3  4  1  1  0  0  0
  3  5  1  0  0  0  0
  5  6  1  0  0  0  0
  6  7  1  6  0  0  0
  6  8  1  0  0  0  0
  8  9  1  0  0  0  0
  8 10  1  6  0  0  0
 10 11  1  0  0  0  0
 12 13  1  6  0  0  0
 12 14  1  0  0  0  0
 12 20  1  0  0  0  0
 14 15  1  0  0  0  0
 15 16  1  6  0  0  0
 15 17  1  0  0  0  0
 17  2  1  1  0  0  0
 17 18  1  0  0  0  0
 18 19  1  6  0  0  0
 18 20  1  0  0  0  0
 20 21  1  1  0  0  0
 22 21  1  6  0  0  0
 22 23  1  0  0  0  0
 22 30  1  0  0  0  0
 23 24  1  6  0  0  0
 23 25  1  0  0  0  0
 25 26  1  1  0  0  0
 25 27  1  0  0  0  0
 27 28  1  6  0  0  0
 27 29  1  0  0  0  0
 29 30  1  0  0  0  0
 29 31  1  1  0  0  0
 31 32  1  0  0  0  0
M  CHG  5   4   1  11   1  13   1  16   1  26   1
M  END
>  <CHROM.1>
177.40055726,-160.47920167,67.81300350,62.46332616,-71.96667986,-176.46741922
94.04197759,-63.96787199,73.02815893,-62.71985905,-151.20361319,-73.12706490
-20.73842817,-177.18174813,175.05544515,178.60603762,-13.42937347,6.35039574
17.07344865,-3.08671108,0.83025349,-3.00724335

>  <Name>
1lc4

>  <RI>
0

>  <Rbt.Current_Directory>
/home/afrankz/demos/rdock_decoys_rna/rnas/1lc4

>  <Rbt.Executable>
rbdock ($Id: //depot/dev/client3/rdock/2013.1/src/exe/rbdock.cxx#4 $)

>  <Rbt.Library>
libRbt.so (2013.1, Build901 2013/11/27)

>  <Rbt.Parameter_File>
/export/apps/rDock/src/rDock_2013.1_src/data/scripts/dock_solv.prm

>  <Rbt.Receptor>
prm/pocket_docking_6.prm

>  <SCORE>
-56.2812

>  <SCORE.INTER>
-34.8602

>  <SCORE.INTER.CONST>
1

>  <SCORE.INTER.POLAR>
-4.6488

>  <SCORE.INTER.ROT>
6

>  <SCORE.INTER.SOLV>
22.6196

>  <SCORE.INTER.VDW>
-22.884

>  <SCORE.INTER.norm>
-1.08938

>  <SCORE.INTRA>
-21.421

>  <SCORE.INTRA.DIHEDRAL>
-31.673

>  <SCORE.INTRA.DIHEDRAL.0>
44.2576

>  <SCORE.INTRA.POLAR>
-1.36544

>  <SCORE.INTRA.POLAR.0>
-0.381556

>  <SCORE.INTRA.REPUL>
0

>  <SCORE.INTRA.REPUL.0>
0

>  <SCORE.INTRA.SOLV>
0.247663

>  <SCORE.INTRA.SOLV.lig_0>
-134.592

>  <SCORE.INTRA.VDW>
-1.06583

>  <SCORE.INTRA.VDW.0>
-1.01417

>  <SCORE.INTRA.norm>
-0.669406

>  <SCORE.RESTR>
0

>  <SCORE.RESTR.CAVITY>
0

>  <SCORE.RESTR.norm>
0

>  <SCORE.SYSTEM>
0

>  <SCORE.SYSTEM.CONST>
0

>  <SCORE.SYSTEM.DIHEDRAL>
0

>  <SCORE.SYSTEM.SOLV>
0

>  <SCORE.SYSTEM.norm>
0

>  <SCORE.heavy>
32

>  <SCORE.norm>
-1.75879

>  <RMSD>
8.748

$$$$
1lc4
 OpenBabel02141814113D
libRbt.so/2013.1/901 2013/11/27
 32 34  0  0  0  0  0  0  0  0999 V2000
   -9.1040    3.8590   15.7494 C   0  0  2  0  0  0  0  0  0  0  0  0
  -10.1766    3.0534   15.3292 O   0  0  0  0  0  0  0  0  0  0  0  0
   -9.3908    5.3087   15.3077 C   0  0  2  0  0  0  0  0  0  0  0  0
  -10.6589    5.7739   15.8779 N   0  3  0  0  0  0  0  0  0  0  0  0
   -9.3982    5.4029   13.7638 C   0  0  0  0  0  0  0  0  0  0  0  0
   -8.0204    4.9337   13.2648 C   0  0  2  0  0  0  0  0  0  0  0  0
   -7.9422    5.0419   11.8395 O   0  0  0  0  0  0  0  0  0  0  0  0
   -7.7759    3.4773   13.7324 C   0  0  2  0  0  0  0  0  0  0  0  0
   -7.8604    3.3896   15.1834 O   0  0  0  0  0  0  0  0  0  0  0  0
   -6.4072    2.9313   13.3336 C   0  0  0  0  0  0  0  0  0  0  0  0
   -6.3397    1.4583   13.5213 N   0  3  0  0  0  0  0  0  0  0  0  0
  -13.0847    0.7427   17.3697 C   0  0  2  0  0  0  0  0  0  0  0  0
  -13.7358   -0.2621   18.2301 N   0  3  0  0  0  0  0  0  0  0  0  0
  -12.2811    0.0474   16.2792 C   0  0  0  0  0  0  0  0  0  0  0  0
  -11.5959    1.0820   15.3796 C   0  0  2  0  0  0  0  0  0  0  0  0
  -10.9254    0.3648   14.2666 N   0  3  0  0  0  0  0  0  0  0  0  0
  -10.6519    2.0091   16.2022 C   0  0  2  0  0  0  0  0  0  0  0  0
  -11.4539    2.6743   17.3503 C   0  0  2  0  0  0  0  0  0  0  0  0
  -10.5714    3.3792   18.1896 O   0  0  0  0  0  0  0  0  0  0  0  0
  -12.1564    1.6139   18.2137 C   0  0  1  0  0  0  0  0  0  0  0  0
  -12.9060    2.2721   19.2343 O   0  0  0  0  0  0  0  0  0  0  0  0
  -12.7113    1.8466   20.5390 C   0  0  2  0  0  0  0  0  0  0  0  0
  -14.0414    1.9640   21.3029 C   0  0  2  0  0  0  0  0  0  0  0  0
  -15.0119    1.1533   20.6525 O   0  0  0  0  0  0  0  0  0  0  0  0
  -14.5001    3.4328   21.3096 C   0  0  1  0  0  0  0  0  0  0  0  0
  -15.7998    3.6058   22.0202 N   0  3  0  0  0  0  0  0  0  0  0  0
  -13.4016    4.3076   21.9615 C   0  0  2  0  0  0  0  0  0  0  0  0
  -13.7883    5.6799   21.9590 O   0  0  0  0  0  0  0  0  0  0  0  0
  -12.0639    4.1204   21.2218 C   0  0  2  0  0  0  0  0  0  0  0  0
  -11.7062    2.6919   21.1566 O   0  0  0  0  0  0  0  0  0  0  0  0
  -10.9239    4.8324   21.9155 C   0  0  0  0  0  0  0  0  0  0  0  0
  -10.8119    4.4393   23.2816 O   0  0  0  0  0  0  0  0  0  0  0  0
  1  2  1  6  0  0  0
  1  3  1  0  0  0  0
  1  9  1  0  0  0  0
  3  4  1  6  0  0  0
  3  5  1  0  0  0  0
  5  6  1  0  0  0  0
  6  7  1  6  0  0  0
  6  8  1  0  0  0  0
  8  9  1  0  0  0  0
  8 10  1  1  0  0  0
 10 11  1  0  0  0  0
 12 13  1  1  0  0  0
 12 14  1  0  0  0  0
 12 20  1  0  0  0  0
 14 15  1  0  0  0  0
 15 16  1  6  0  0  0
 15 17  1  0  0  0  0
 17  2  1  6  0  0  0
 17 18  1  0  0  0  0
 18 19  1  1  0  0  0
 18 20  1  0  0  0  0
 20 21  1  1  0  0  0
 22 21  1  6  0  0  0
 22 23  1  0  0  0  0
 22 30  1  0  0  0  0
 23 24  1  6  0  0  0
 23 25  1  0  0  0  0
 25 26  1  1  0  0  0
 25 27  1  0  0  0  0
 27 28  1  6  0  0  0
 27 29  1  0  0  0  0
 29 30  1  0  0  0  0
 29 31  1  1  0  0  0
 31 32  1  0  0  0  0
M  CHG  5   4   1  11   1  13   1  16   1  26   1
M  END
>  <CHROM.1>
-140.57946564,-167.19267686,27.26792694,-58.65197266,-166.90544338,69.69437807
-53.32538408,-107.64376625,-171.21747611,109.21163623,-145.88957132,-79.37291886
-172.95806737,175.71309774,54.69592963,-162.49991462,-11.17569648,3.02068068
17.67546090,-0.61821247,0.80435475,0.81354288

>  <Name>
1lc4

>  <RI>
0

>  <Rbt.Current_Directory>
/home/afrankz/demos/rdock_decoys_rna/rnas/1lc4

>  <Rbt.Executable>
rbdock ($Id: //depot/dev/client3/rdock/2013.1/src/exe/rbdock.cxx#4 $)

>  <Rbt.Library>
libRbt.so (2013.1, Build901 2013/11/27)

>  <Rbt.Parameter_File>
/export/apps/rDock/src/rDock_2013.1_src/data/scripts/dock_solv.prm

>  <Rbt.Receptor>
prm/blind_docking_100.prm

>  <SCORE>
-42.1784

>  <SCORE.INTER>
-31.9288

>  <SCORE.INTER.CONST>
1

>  <SCORE.INTER.POLAR>
-4.70846

>  <SCORE.INTER.ROT>
6

>  <SCORE.INTER.SOLV>
20.9278

>  <SCORE.INTER.VDW>
-20.167

>  <SCORE.INTER.norm>
-0.997776

>  <SCORE.INTRA>
-12.7533

>  <SCORE.INTRA.DIHEDRAL>
-17.1226

>  <SCORE.INTRA.DIHEDRAL.0>
44.2576

>  <SCORE.INTRA.POLAR>
-0.358701

>  <SCORE.INTRA.POLAR.0>
-0.381556

>  <SCORE.INTRA.REPUL>
0

>  <SCORE.INTRA.REPUL.0>
0

>  <SCORE.INTRA.SOLV>
-1.46349

>  <SCORE.INTRA.SOLV.lig_0>
-134.592

>  <SCORE.INTRA.VDW>
-2.2407

>  <SCORE.INTRA.VDW.0>
-1.01417

>  <SCORE.INTRA.norm>
-0.398541

>  <SCORE.RESTR>
2.50371

>  <SCORE.RESTR.CAVITY>
2.50371

>  <SCORE.RESTR.norm>
0.078241

>  <SCORE.SYSTEM>
0

>  <SCORE.SYSTEM.CONST>
0

>  <SCORE.SYSTEM.DIHEDRAL>
0

>  <SCORE.SYSTEM.SOLV>
0

>  <SCORE.SYSTEM.norm>
0

>  <SCORE.heavy>
32

>  <SCORE.norm>
-1.31808

>  <RMSD>
8.754

$$$$
1lc4
 OpenBabel02141814113D
libRbt.so/2013.1/901 2013/11/27
 32 34  0  0  0  0  0  0  0  0999 V2000
  -10.4407    5.5379   14.3093 C   0  0  2  0  0  0  0  0  0  0  0  0
  -10.9996    4.2486   14.3462 O   0  0  0  0  0  0  0  0  0  0  0  0
  -10.9110    6.2278   13.0125 C   0  0  2  0  0  0  0  0  0  0  0  0
  -12.3754    6.2829   12.9664 N   0  3  0  0  0  0  0  0  0  0  0  0
  -10.3351    5.4924   11.7796 C   0  0  0  0  0  0  0  0  0  0  0  0
   -8.8012    5.5212   11.8981 C   0  0  2  0  0  0  0  0  0  0  0  0
   -8.2006    4.8964   10.7587 O   0  0  0  0  0  0  0  0  0  0  0  0
   -8.3766    4.8205   13.2127 C   0  0  2  0  0  0  0  0  0  0  0  0
   -8.9984    5.4707   14.3576 O   0  0  0  0  0  0  0  0  0  0  0  0
   -6.8694    4.8416   13.4546 C   0  0  0  0  0  0  0  0  0  0  0  0
   -6.2969    6.1831   13.1674 N   0  3  0  0  0  0  0  0  0  0  0  0
  -11.2401    0.8762   16.9015 C   0  0  2  0  0  0  0  0  0  0  0  0
  -10.9200   -0.1614   17.8988 N   0  3  0  0  0  0  0  0  0  0  0  0
  -10.2499    0.8071   15.7469 C   0  0  0  0  0  0  0  0  0  0  0  0
  -10.5701    1.8841   14.7044 C   0  0  2  0  0  0  0  0  0  0  0  0
   -9.6581    1.7028   13.5477 N   0  3  0  0  0  0  0  0  0  0  0  0
  -10.5284    3.3090   15.3331 C   0  0  2  0  0  0  0  0  0  0  0  0
  -11.4923    3.3664   16.5460 C   0  0  2  0  0  0  0  0  0  0  0  0
  -11.3331    4.5957   17.2119 O   0  0  0  0  0  0  0  0  0  0  0  0
  -11.1679    2.2542   17.5566 C   0  0  1  0  0  0  0  0  0  0  0  0
  -12.0982    2.3259   18.6365 O   0  0  0  0  0  0  0  0  0  0  0  0
  -11.6799    1.8452   19.8674 C   0  0  2  0  0  0  0  0  0  0  0  0
  -12.9113    1.6505   20.7686 C   0  0  2  0  0  0  0  0  0  0  0  0
  -13.7902    0.7242   20.1429 O   0  0  0  0  0  0  0  0  0  0  0  0
  -13.6213    3.0015   20.9644 C   0  0  1  0  0  0  0  0  0  0  0  0
  -14.8392    2.8712   21.8152 N   0  3  0  0  0  0  0  0  0  0  0  0
  -12.6285    4.0146   21.5849 C   0  0  2  0  0  0  0  0  0  0  0  0
  -13.2520    5.2855   21.7550 O   0  0  0  0  0  0  0  0  0  0  0  0
  -11.3744    4.1405   20.7001 C   0  0  2  0  0  0  0  0  0  0  0  0
  -10.7771    2.8144   20.4605 O   0  0  0  0  0  0  0  0  0  0  0  0
  -10.3071    4.9988   21.3421 C   0  0  0  0  0  0  0  0  0  0  0  0
  -10.6498    6.3823   21.3011 O   0  0  0  0  0  0  0  0  0  0  0  0
  1  2  1  6  0  0  0
  1  3  1  0  0  0  0
  1  9  1  0  0  0  0
  3  4  1  6  0  0  0
  3  5  1  0  0  0  0
  5  6  1  0  0  0  0
  6  7  1  6  0  0  0
  6  8  1  0  0  0  0
  8  9  1  0  0  0  0
  8 10  1  1  0  0  0
 10 11  1  0  0  0  0
 12 13  1  1  0  0  0
 12 14  1  0  0  0  0
 12 20  1  0  0  0  0
 14 15  1  0  0  0  0
 15 16  1  6  0  0  0
 15 17  1  0  0  0  0
 17  2  1  6  0  0  0
 17 18  1  0  0  0  0
 18 19  1  1  0  0  0
 18 20  1  0  0  0  0
 20 21  1  1  0  0  0
 22 21  1  6  0  0  0
 22 23  1  0  0  0  0
 22 30  1  0  0  0  0
 23 24  1  6  0  0  0
 23 25  1  0  0  0  0
 25 26  1  1  0  0  0
 25 27  1  0  0  0  0
 27 28  1  6  0  0  0
 27 29  1  0  0  0  0
 29 30  1  0  0  0  0
 29 31  1  1  0  0  0
 31 32  1  0  0  0  0
M  CHG  5   4   1  11   1  13   1  16   1  26   1
M  END
>  <CHROM.1>
169.02442262,-145.88410517,179.89514051,-60.98278399,44.37531499,-45.76976001
-47.60754775,-178.61112407,-58.15417849,84.99590547,-164.53489870,172.95079575
61.13855906,-57.68417690,-73.87922812,62.46605078,-10.87609811,3.71158797
16.82882323,-0.27769221,1.14580334,0.53992723

>  <Name>
1lc4

>  <RI>
0

>  <Rbt.Current_Directory>
/home/afrankz/demos/rdock_decoys_rna/rnas/1lc4

>  <Rbt.Executable>
rbdock ($Id: //depot/dev/client3/rdock/2013.1/src/exe/rbdock.cxx#4 $)

>  <Rbt.Library>
libRbt.so (2013.1, Build901 2013/11/27)

>  <Rbt.Parameter_File>
/export/apps/rDock/src/rDock_2013.1_src/data/scripts/dock_solv.prm

>  <Rbt.Receptor>
prm/blind_docking_100.prm

>  <SCORE>
-43.8974

>  <SCORE.INTER>
-26.8162

>  <SCORE.INTER.CONST>
1

>  <SCORE.INTER.POLAR>
-4.12804

>  <SCORE.INTER.ROT>
6

>  <SCORE.INTER.SOLV>
20.2461

>  <SCORE.INTER.VDW>
-18.466

>  <SCORE.INTER.norm>
-0.838005

>  <SCORE.INTRA>
-19.4463

>  <SCORE.INTRA.DIHEDRAL>
-32.77

>  <SCORE.INTRA.DIHEDRAL.0>
44.2576

>  <SCORE.INTRA.POLAR>
0.0793098

>  <SCORE.INTRA.POLAR.0>
-0.381556

>  <SCORE.INTRA.REPUL>
0

>  <SCORE.INTRA.REPUL.0>
0

>  <SCORE.INTRA.SOLV>
0.209598

>  <SCORE.INTRA.SOLV.lig_0>
-134.592

>  <SCORE.INTRA.VDW>
-3.4357

>  <SCORE.INTRA.VDW.0>
-1.01417

>  <SCORE.INTRA.norm>
-0.607695

>  <SCORE.RESTR>
2.365

>  <SCORE.RESTR.CAVITY>
2.365

>  <SCORE.RESTR.norm>
0.0739064

>  <SCORE.SYSTEM>
0

>  <SCORE.SYSTEM.CONST>
0

>  <SCORE.SYSTEM.DIHEDRAL>
0

>  <SCORE.SYSTEM.SOLV>
0

>  <SCORE.SYSTEM.norm>
0

>  <SCORE.heavy>
32

>  <SCORE.norm>
-1.37179

>  <RMSD>
8.777

$$$$
1lc4
 OpenBabel02141814113D
libRbt.so/2013.1/901 2013/11/27
 32 34  0  0  0  0  0  0  0  0999 V2000
  -13.2059    7.1896   14.0416 C   0  0  2  0  0  0  0  0  0  0  0  0
  -13.7646    6.0692   14.6810 O   0  0  0  0  0  0  0  0  0  0  0  0
  -14.3422    8.1896   13.7458 C   0  0  2  0  0  0  0  0  0  0  0  0
  -15.0215    8.5715   14.9877 N   0  3  0  0  0  0  0  0  0  0  0  0
  -15.3328    7.5826   12.7247 C   0  0  0  0  0  0  0  0  0  0  0  0
  -14.5383    7.2528   11.4488 C   0  0  2  0  0  0  0  0  0  0  0  0
  -15.4088    6.7294   10.4400 O   0  0  0  0  0  0  0  0  0  0  0  0
  -13.4100    6.2492   11.7940 C   0  0  2  0  0  0  0  0  0  0  0  0
  -12.5377    6.8006   12.8212 O   0  0  0  0  0  0  0  0  0  0  0  0
  -12.5241    5.8955   10.6021 C   0  0  0  0  0  0  0  0  0  0  0  0
  -11.3933    6.8512   10.4696 N   0  3  0  0  0  0  0  0  0  0  0  0
  -12.2590    3.3724   17.5828 C   0  0  2  0  0  0  0  0  0  0  0  0
  -11.4520    2.3462   18.2680 N   0  3  0  0  0  0  0  0  0  0  0  0
  -12.9205    2.7722   16.3496 C   0  0  0  0  0  0  0  0  0  0  0  0
  -13.7600    3.8308   15.6260 C   0  0  2  0  0  0  0  0  0  0  0  0
  -14.4769    3.1744   14.5045 N   0  3  0  0  0  0  0  0  0  0  0  0
  -12.8876    5.0493   15.1999 C   0  0  2  0  0  0  0  0  0  0  0  0
  -12.1659    5.6276   16.4443 C   0  0  2  0  0  0  0  0  0  0  0  0
  -11.2543    6.6192   16.0372 O   0  0  0  0  0  0  0  0  0  0  0  0
  -11.3606    4.5357   17.1673 C   0  0  1  0  0  0  0  0  0  0  0  0
  -10.7422    5.1053   18.3204 O   0  0  0  0  0  0  0  0  0  0  0  0
  -11.5631    5.7717   19.2168 C   0  0  2  0  0  0  0  0  0  0  0  0
  -10.9117    7.1169   19.5806 C   0  0  2  0  0  0  0  0  0  0  0  0
  -10.7482    7.8789   18.3913 O   0  0  0  0  0  0  0  0  0  0  0  0
   -9.5430    6.8624   20.2362 C   0  0  1  0  0  0  0  0  0  0  0  0
   -8.8522    8.1351   20.5926 N   0  3  0  0  0  0  0  0  0  0  0  0
   -9.7350    5.9762   21.4912 C   0  0  2  0  0  0  0  0  0  0  0  0
   -8.4785    5.7021   22.1067 O   0  0  0  0  0  0  0  0  0  0  0  0
  -10.4503    4.6660   21.1128 C   0  0  2  0  0  0  0  0  0  0  0  0
  -11.7115    4.9527   20.4057 O   0  0  0  0  0  0  0  0  0  0  0  0
  -10.8011    3.8362   22.3278 C   0  0  0  0  0  0  0  0  0  0  0  0
  -11.9508    4.3468   22.9993 O   0  0  0  0  0  0  0  0  0  0  0  0
  1  2  1  6  0  0  0
  1  3  1  0  0  0  0
  1  9  1  0  0  0  0
  3  4  1  1  0  0  0
  3  5  1  0  0  0  0
  5  6  1  0  0  0  0
  6  7  1  6  0  0  0
  6  8  1  0  0  0  0
  8  9  1  0  0  0  0
  8 10  1  6  0  0  0
 10 11  1  0  0  0  0
 12 13  1  6  0  0  0
 12 14  1  0  0  0  0
 12 20  1  0  0  0  0
 14 15  1  0  0  0  0
 15 16  1  6  0  0  0
 15 17  1  0  0  0  0
 17  2  1  1  0  0  0
 17 18  1  0  0  0  0
 18 19  1  6  0  0  0
 18 20  1  0  0  0  0
 20 21  1  1  0  0  0
 22 21  1  6  0  0  0
 22 23  1  0  0  0  0
 22 30  1  0  0  0  0
 23 24  1  6  0  0  0
 23 25  1  0  0  0  0
 25 26  1  1  0  0  0
 25 27  1  0  0  0  0
 27 28  1  6  0  0  0
 27 29  1  0  0  0  0
 29 30  1  0  0  0  0
 29 31  1  1  0  0  0
 31 32  1  0  0  0  0
M  CHG  5   4   1  11   1  13   1  16   1  26   1
M  END
>  <CHROM.1>
-173.11752168,-170.41555317,57.92062684,-176.08111768,88.20941771,45.58818739
28.55307023,-53.98933942,179.48530146,-68.00008292,-133.18918649,179.16866879
-116.69002014,72.00910089,77.59471037,141.40566332,-12.15151506,5.80032390
16.63094028,-2.37127488,1.04100671,2.43625213

>  <Name>
1lc4

>  <RI>
0

>  <Rbt.Current_Directory>
/home/afrankz/demos/rdock_decoys_rna/rnas/1lc4

>  <Rbt.Executable>
rbdock ($Id: //depot/dev/client3/rdock/2013.1/src/exe/rbdock.cxx#4 $)

>  <Rbt.Library>
libRbt.so (2013.1, Build901 2013/11/27)

>  <Rbt.Parameter_File>
/export/apps/rDock/src/rDock_2013.1_src/data/scripts/dock_solv.prm

>  <Rbt.Receptor>
prm/pocket_docking_8.prm

>  <SCORE>
-56.1229

>  <SCORE.INTER>
-40.7474

>  <SCORE.INTER.CONST>
1

>  <SCORE.INTER.POLAR>
-5.73136

>  <SCORE.INTER.ROT>
6

>  <SCORE.INTER.SOLV>
27.8874

>  <SCORE.INTER.VDW>
-24.9562

>  <SCORE.INTER.norm>
-1.27336

>  <SCORE.INTRA>
-15.3755

>  <SCORE.INTRA.DIHEDRAL>
-21.32

>  <SCORE.INTRA.DIHEDRAL.0>
44.2576

>  <SCORE.INTRA.POLAR>
-0.801106

>  <SCORE.INTRA.POLAR.0>
-0.381556

>  <SCORE.INTRA.REPUL>
0

>  <SCORE.INTRA.REPUL.0>
0

>  <SCORE.INTRA.SOLV>
-2.12501

>  <SCORE.INTRA.SOLV.lig_0>
-134.592

>  <SCORE.INTRA.VDW>
-0.929246

>  <SCORE.INTRA.VDW.0>
-1.01417

>  <SCORE.INTRA.norm>
-0.480485

>  <SCORE.RESTR>
0

>  <SCORE.RESTR.CAVITY>
0

>  <SCORE.RESTR.norm>
0

>  <SCORE.SYSTEM>
0

>  <SCORE.SYSTEM.CONST>
0

>  <SCORE.SYSTEM.DIHEDRAL>
0

>  <SCORE.SYSTEM.SOLV>
0

>  <SCORE.SYSTEM.norm>
0

>  <SCORE.heavy>
32

>  <SCORE.norm>
-1.75384

>  <RMSD>
8.781

$$$$
1lc4
 OpenBabel02141814113D
libRbt.so/2013.1/901 2013/11/27
 32 34  0  0  0  0  0  0  0  0999 V2000
   -8.9085    3.5004   15.5382 C   0  0  2  0  0  0  0  0  0  0  0  0
  -10.1392    2.8798   15.2621 O   0  0  0  0  0  0  0  0  0  0  0  0
   -9.0480    5.0040   15.2240 C   0  0  2  0  0  0  0  0  0  0  0  0
  -10.1296    5.5929   16.0197 N   0  3  0  0  0  0  0  0  0  0  0  0
   -9.2846    5.2113   13.7096 C   0  0  0  0  0  0  0  0  0  0  0  0
   -8.0852    4.5985   12.9655 C   0  0  2  0  0  0  0  0  0  0  0  0
   -8.2175    4.7994   11.5544 O   0  0  0  0  0  0  0  0  0  0  0  0
   -7.9840    3.0921   13.3120 C   0  0  2  0  0  0  0  0  0  0  0  0
   -7.8509    2.9104   14.7505 O   0  0  0  0  0  0  0  0  0  0  0  0
   -6.7889    2.3973   12.6642 C   0  0  0  0  0  0  0  0  0  0  0  0
   -6.3413    1.2321   13.4715 N   0  3  0  0  0  0  0  0  0  0  0  0
  -13.1099    0.7037   17.3596 C   0  0  2  0  0  0  0  0  0  0  0  0
  -13.7878   -0.2509   18.2557 N   0  3  0  0  0  0  0  0  0  0  0  0
  -12.2962   -0.0526   16.3183 C   0  0  0  0  0  0  0  0  0  0  0  0
  -11.5832    0.9294   15.3821 C   0  0  2  0  0  0  0  0  0  0  0  0
  -10.9025    0.1516   14.3171 N   0  3  0  0  0  0  0  0  0  0  0  0
  -10.6421    1.8844   16.1758 C   0  0  2  0  0  0  0  0  0  0  0  0
  -11.4555    2.6134   17.2761 C   0  0  2  0  0  0  0  0  0  0  0  0
  -10.5790    3.3480   18.0959 O   0  0  0  0  0  0  0  0  0  0  0  0
  -12.1856    1.6040   18.1770 C   0  0  1  0  0  0  0  0  0  0  0  0
  -12.9445    2.3193   19.1513 O   0  0  0  0  0  0  0  0  0  0  0  0
  -12.9238    1.8374   20.4507 C   0  0  2  0  0  0  0  0  0  0  0  0
  -14.3022    2.0762   21.0905 C   0  0  2  0  0  0  0  0  0  0  0  0
  -15.2846    1.3949   20.3205 O   0  0  0  0  0  0  0  0  0  0  0  0
  -14.6023    3.5852   21.1120 C   0  0  1  0  0  0  0  0  0  0  0  0
  -15.9396    3.8776   21.7038 N   0  3  0  0  0  0  0  0  0  0  0  0
  -13.4866    4.3163   21.8980 C   0  0  2  0  0  0  0  0  0  0  0  0
  -13.7246    5.7220   21.9134 O   0  0  0  0  0  0  0  0  0  0  0  0
  -12.1103    4.0066   21.2803 C   0  0  2  0  0  0  0  0  0  0  0  0
  -11.9004    2.5503   21.1927 O   0  0  0  0  0  0  0  0  0  0  0  0
  -10.9748    4.5701   22.1054 C   0  0  0  0  0  0  0  0  0  0  0  0
   -9.7045    4.2260   21.5565 O   0  0  0  0  0  0  0  0  0  0  0  0
  1  2  1  6  0  0  0
  1  3  1  0  0  0  0
  1  9  1  0  0  0  0
  3  4  1  1  0  0  0
  3  5  1  0  0  0  0
  5  6  1  0  0  0  0
  6  7  1  6  0  0  0
  6  8  1  0  0  0  0
  8  9  1  0  0  0  0
  8 10  1  6  0  0  0
 10 11  1  0  0  0  0
 12 13  1  1  0  0  0
 12 14  1  0  0  0  0
 12 20  1  0  0  0  0
 14 15  1  0  0  0  0
 15 16  1  6  0  0  0
 15 17  1  0  0  0  0
 17  2  1  6  0  0  0
 17 18  1  0  0  0  0
 18 19  1  1  0  0  0
 18 20  1  0  0  0  0
 20 21  1  1  0  0  0
 22 21  1  6  0  0  0
 22 23  1  0  0  0  0
 22 30  1  0  0  0  0
 23 24  1  6  0  0  0
 23 25  1  0  0  0  0
 25 26  1  1  0  0  0
 25 27  1  0  0  0  0
 27 28  1  6  0  0  0
 27 29  1  0  0  0  0
 29 30  1  0  0  0  0
 29 31  1  1  0  0  0
 31 32  1  0  0  0  0
M  CHG  5   4   1  11   1  13   1  16   1  26   1
M  END
>  <CHROM.1>
-138.21680641,-154.27276602,151.62066740,-62.57880510,152.61257223,-20.95555824
66.44725119,-100.81478763,-61.78943307,100.37050140,-145.13861191,173.71575602
-178.25664530,-179.51492128,177.37563420,65.42953767,-11.16891639,2.89629319
17.50215580,-0.62492353,0.77538652,0.79814955

>  <Name>
1lc4

>  <RI>
0

>  <Rbt.Current_Directory>
/home/afrankz/demos/rdock_decoys_rna/rnas/1lc4

>  <Rbt.Executable>
rbdock ($Id: //depot/dev/client3/rdock/2013.1/src/exe/rbdock.cxx#4 $)

>  <Rbt.Library>
libRbt.so (2013.1, Build901 2013/11/27)

>  <Rbt.Parameter_File>
/export/apps/rDock/src/rDock_2013.1_src/data/scripts/dock_solv.prm

>  <Rbt.Receptor>
prm/blind_docking_100.prm

>  <SCORE>
-53.5214

>  <SCORE.INTER>
-37.6984

>  <SCORE.INTER.CONST>
1

>  <SCORE.INTER.POLAR>
-5.95379

>  <SCORE.INTER.ROT>
6

>  <SCORE.INTER.SOLV>
22.0095

>  <SCORE.INTER.VDW>
-20.2228

>  <SCORE.INTER.norm>
-1.17808

>  <SCORE.INTRA>
-18.6584

>  <SCORE.INTRA.DIHEDRAL>
-15.9718

>  <SCORE.INTRA.DIHEDRAL.0>
44.2576

>  <SCORE.INTRA.POLAR>
-2.29587

>  <SCORE.INTRA.POLAR.0>
-0.381556

>  <SCORE.INTRA.REPUL>
0

>  <SCORE.INTRA.REPUL.0>
0

>  <SCORE.INTRA.SOLV>
-0.0862337

>  <SCORE.INTRA.SOLV.lig_0>
-134.592

>  <SCORE.INTRA.VDW>
-2.82344

>  <SCORE.INTRA.VDW.0>
-1.01417

>  <SCORE.INTRA.norm>
-0.583075

>  <SCORE.RESTR>
2.83541

>  <SCORE.RESTR.CAVITY>
2.83541

>  <SCORE.RESTR.norm>
0.0886066

>  <SCORE.SYSTEM>
0

>  <SCORE.SYSTEM.CONST>
0

>  <SCORE.SYSTEM.DIHEDRAL>
0

>  <SCORE.SYSTEM.SOLV>
0

>  <SCORE.SYSTEM.norm>
0

>  <SCORE.heavy>
32

>  <SCORE.norm>
-1.67254

>  <RMSD>
8.782

$$$$
1lc4
 OpenBabel02141814113D
libRbt.so/2013.1/901 2013/11/27
 32 34  0  0  0  0  0  0  0  0999 V2000
  -14.3847    5.4558   13.2401 C   0  0  2  0  0  0  0  0  0  0  0  0
  -13.7292    5.6501   14.4683 O   0  0  0  0  0  0  0  0  0  0  0  0
  -14.2528    6.7523   12.4151 C   0  0  2  0  0  0  0  0  0  0  0  0
  -12.8395    7.0875   12.2149 N   0  3  0  0  0  0  0  0  0  0  0  0
  -15.0130    7.9055   13.1112 C   0  0  0  0  0  0  0  0  0  0  0  0
  -16.4855    7.4779   13.2401 C   0  0  2  0  0  0  0  0  0  0  0  0
  -17.2591    8.5248   13.8356 O   0  0  0  0  0  0  0  0  0  0  0  0
  -16.5684    6.1742   14.0725 C   0  0  2  0  0  0  0  0  0  0  0  0
  -15.7750    5.1238   13.4502 O   0  0  0  0  0  0  0  0  0  0  0  0
  -17.9885    5.6323   14.2155 C   0  0  0  0  0  0  0  0  0  0  0  0
  -18.0054    4.3652   14.9926 N   0  3  0  0  0  0  0  0  0  0  0  0
  -10.7958    3.2659   16.3841 C   0  0  2  0  0  0  0  0  0  0  0  0
   -9.5253    2.6020   16.7293 N   0  3  0  0  0  0  0  0  0  0  0  0
  -11.2413    2.8388   14.9922 C   0  0  0  0  0  0  0  0  0  0  0  0
  -12.5600    3.5256   14.6200 C   0  0  2  0  0  0  0  0  0  0  0  0
  -13.0142    2.9910   13.3122 N   0  3  0  0  0  0  0  0  0  0  0  0
  -12.4206    5.0768   14.6620 C   0  0  2  0  0  0  0  0  0  0  0  0
  -11.9108    5.5115   16.0602 C   0  0  2  0  0  0  0  0  0  0  0  0
  -11.6282    6.8899   16.0469 O   0  0  0  0  0  0  0  0  0  0  0  0
  -10.6064    4.7812   16.4191 C   0  0  1  0  0  0  0  0  0  0  0  0
  -10.1938    5.1873   17.7235 O   0  0  0  0  0  0  0  0  0  0  0  0
  -11.1340    5.8273   18.5159 C   0  0  2  0  0  0  0  0  0  0  0  0
  -10.4799    6.2026   19.8567 C   0  0  2  0  0  0  0  0  0  0  0  0
   -9.3760    7.0611   19.5991 O   0  0  0  0  0  0  0  0  0  0  0  0
   -9.9999    4.9252   20.5677 C   0  0  1  0  0  0  0  0  0  0  0  0
   -9.3358    5.2290   21.8680 N   0  3  0  0  0  0  0  0  0  0  0  0
  -11.2043    3.9755   20.7792 C   0  0  2  0  0  0  0  0  0  0  0  0
  -10.7849    2.7700   21.4145 O   0  0  0  0  0  0  0  0  0  0  0  0
  -11.8836    3.6697   19.4314 C   0  0  2  0  0  0  0  0  0  0  0  0
  -12.2447    4.9206   18.7403 O   0  0  0  0  0  0  0  0  0  0  0  0
  -13.1580    2.8732   19.6027 C   0  0  0  0  0  0  0  0  0  0  0  0
  -13.4957    2.1594   18.4154 O   0  0  0  0  0  0  0  0  0  0  0  0
  1  2  1  1  0  0  0
  1  3  1  0  0  0  0
  1  9  1  0  0  0  0
  3  4  1  1  0  0  0
  3  5  1  0  0  0  0
  5  6  1  0  0  0  0
  6  7  1  1  0  0  0
  6  8  1  0  0  0  0
  8  9  1  0  0  0  0
  8 10  1  6  0  0  0
 10 11  1  0  0  0  0
 12 13  1  6  0  0  0
 12 14  1  0  0  0  0
 12 20  1  0  0  0  0
 14 15  1  0  0  0  0
 15 16  1  6  0  0  0
 15 17  1  0  0  0  0
 17  2  1  1  0  0  0
 17 18  1  0  0  0  0
 18 19  1  6  0  0  0
 18 20  1  0  0  0  0
 20 21  1  1  0  0  0
 22 21  1  6  0  0  0
 22 23  1  0  0  0  0
 22 30  1  0  0  0  0
 23 24  1  6  0  0  0
 23 25  1  0  0  0  0
 25 26  1  1  0  0  0
 25 27  1  0  0  0  0
 27 28  1  6  0  0  0
 27 29  1  0  0  0  0
 29 30  1  0  0  0  0
 29 31  1  1  0  0  0
 31 32  1  0  0  0  0
M  CHG  5   4   1  11   1  13   1  16   1  26   1
M  END
>  <CHROM.1>
-102.32461013,-64.77556492,62.22545561,70.64168712,178.57526082,-49.27000156
99.18641008,-80.48728061,148.50063738,-106.09229530,-178.82135515,63.89965770
67.56212867,159.70708841,-157.18658520,-54.90476835,-12.78517879,5.07024996
16.42738733,-2.26669295,0.26888397,2.07398626

>  <Name>
1lc4

>  <RI>
0

>  <Rbt.Current_Directory>
/home/afrankz/demos/rdock_decoys_rna/rnas/1lc4

>  <Rbt.Executable>
rbdock ($Id: //depot/dev/client3/rdock/2013.1/src/exe/rbdock.cxx#4 $)

>  <Rbt.Library>
libRbt.so (2013.1, Build901 2013/11/27)

>  <Rbt.Parameter_File>
/export/apps/rDock/src/rDock_2013.1_src/data/scripts/dock_solv.prm

>  <Rbt.Receptor>
prm/pocket_docking_7.prm

>  <SCORE>
-38.7377

>  <SCORE.INTER>
-32.4265

>  <SCORE.INTER.CONST>
1

>  <SCORE.INTER.POLAR>
-5.16245

>  <SCORE.INTER.ROT>
6

>  <SCORE.INTER.SOLV>
20.7138

>  <SCORE.INTER.VDW>
-18.9141

>  <SCORE.INTER.norm>
-1.01333

>  <SCORE.INTRA>
-6.31118

>  <SCORE.INTRA.DIHEDRAL>
-19.8673

>  <SCORE.INTRA.DIHEDRAL.0>
44.2576

>  <SCORE.INTRA.POLAR>
0.343653

>  <SCORE.INTRA.POLAR.0>
-0.381556

>  <SCORE.INTRA.REPUL>
0

>  <SCORE.INTRA.REPUL.0>
0

>  <SCORE.INTRA.SOLV>
-2.35611

>  <SCORE.INTRA.SOLV.lig_0>
-134.592

>  <SCORE.INTRA.VDW>
3.63209

>  <SCORE.INTRA.VDW.0>
-1.01417

>  <SCORE.INTRA.norm>
-0.197224

>  <SCORE.RESTR>
0

>  <SCORE.RESTR.CAVITY>
0

>  <SCORE.RESTR.norm>
0

>  <SCORE.SYSTEM>
0

>  <SCORE.SYSTEM.CONST>
0

>  <SCORE.SYSTEM.DIHEDRAL>
0

>  <SCORE.SYSTEM.SOLV>
0

>  <SCORE.SYSTEM.norm>
0

>  <SCORE.heavy>
32

>  <SCORE.norm>
-1.21055

>  <RMSD>
8.806

$$$$
1lc4
 OpenBabel02141814113D
libRbt.so/2013.1/901 2013/11/27
 32 34  0  0  0  0  0  0  0  0999 V2000
   -8.9034    3.2320   13.6092 C   0  0  2  0  0  0  0  0  0  0  0  0
   -9.5193    3.5178   14.8401 O   0  0  0  0  0  0  0  0  0  0  0  0
   -7.4106    3.6032   13.7219 C   0  0  2  0  0  0  0  0  0  0  0  0
   -6.7809    2.8575   14.8160 N   0  3  0  0  0  0  0  0  0  0  0  0
   -7.2553    5.1297   13.9170 C   0  0  0  0  0  0  0  0  0  0  0  0
   -7.9084    5.8199   12.7067 C   0  0  2  0  0  0  0  0  0  0  0  0
   -7.7569    7.2404   12.8003 O   0  0  0  0  0  0  0  0  0  0  0  0
   -9.4024    5.4174   12.6332 C   0  0  2  0  0  0  0  0  0  0  0  0
   -9.5336    3.9703   12.5393 O   0  0  0  0  0  0  0  0  0  0  0  0
  -10.1339    6.0086   11.4307 C   0  0  0  0  0  0  0  0  0  0  0  0
  -11.5880    5.7045   11.4825 N   0  3  0  0  0  0  0  0  0  0  0  0
  -12.0866    0.9323   17.0044 C   0  0  2  0  0  0  0  0  0  0  0  0
  -12.5944   -0.1328   17.8885 N   0  3  0  0  0  0  0  0  0  0  0  0
  -11.2749    0.3204   15.8707 C   0  0  0  0  0  0  0  0  0  0  0  0
  -10.7380    1.4185   14.9460 C   0  0  2  0  0  0  0  0  0  0  0  0
  -10.0576    0.7720   13.7963 N   0  3  0  0  0  0  0  0  0  0  0  0
   -9.8480    2.4303   15.7279 C   0  0  2  0  0  0  0  0  0  0  0  0
  -10.6524    3.0122   16.9187 C   0  0  2  0  0  0  0  0  0  0  0  0
   -9.8013    3.7970   17.7186 O   0  0  0  0  0  0  0  0  0  0  0  0
  -11.2058    1.8869   17.8080 C   0  0  1  0  0  0  0  0  0  0  0  0
  -11.9637    2.4673   18.8689 O   0  0  0  0  0  0  0  0  0  0  0  0
  -11.4644    2.3296   20.1546 C   0  0  2  0  0  0  0  0  0  0  0  0
  -12.6437    2.2509   21.1391 C   0  0  2  0  0  0  0  0  0  0  0  0
  -13.4498    1.1316   20.7938 O   0  0  0  0  0  0  0  0  0  0  0  0
  -13.4718    3.5447   21.0506 C   0  0  1  0  0  0  0  0  0  0  0  0
  -14.6454    3.5174   21.9705 N   0  3  0  0  0  0  0  0  0  0  0  0
  -12.5608    4.7565   21.3648 C   0  0  2  0  0  0  0  0  0  0  0  0
  -13.2961    5.9739   21.2655 O   0  0  0  0  0  0  0  0  0  0  0  0
  -11.3518    4.7744   20.4110 C   0  0  2  0  0  0  0  0  0  0  0  0
  -10.6395    3.4848   20.4570 O   0  0  0  0  0  0  0  0  0  0  0  0
  -10.3513    5.8477   20.7783 C   0  0  0  0  0  0  0  0  0  0  0  0
   -9.5149    6.1869   19.6744 O   0  0  0  0  0  0  0  0  0  0  0  0
  1  2  1  1  0  0  0
  1  3  1  0  0  0  0
  1  9  1  0  0  0  0
  3  4  1  1  0  0  0
  3  5  1  0  0  0  0
  5  6  1  0  0  0  0
  6  7  1  1  0  0  0
  6  8  1  0  0  0  0
  8  9  1  0  0  0  0
  8 10  1  6  0  0  0
 10 11  1  0  0  0  0
 12 13  1  1  0  0  0
 12 14  1  0  0  0  0
 12 20  1  0  0  0  0
 14 15  1  0  0  0  0
 15 16  1  6  0  0  0
 15 17  1  0  0  0  0
 17  2  1  6  0  0  0
 17 18  1  0  0  0  0
 18 19  1  1  0  0  0
 18 20  1  0  0  0  0
 20 21  1  1  0  0  0
 22 21  1  6  0  0  0
 22 23  1  0  0  0  0
 22 30  1  0  0  0  0
 23 24  1  6  0  0  0
 23 25  1  0  0  0  0
 25 26  1  1  0  0  0
 25 27  1  0  0  0  0
 27 28  1  6  0  0  0
 27 29  1  0  0  0  0
 29 30  1  0  0  0  0
 29 31  1  1  0  0  0
 31 32  1  0  0  0  0
M  CHG  5   4   1  11   1  13   1  16   1  26   1
M  END
>  <CHROM.1>
-104.36378645,-55.35376224,-59.36995240,155.74850117,-174.30611335,-57.72387973
-58.24597038,150.03281145,62.85197815,124.89635691,-148.09869682,174.73111462
39.40830394,-58.57228014,-158.99313866,-40.05760117,-10.63824437,3.55028114
16.88797521,0.46168026,-1.07108485,-2.46012306

>  <Name>
1lc4

>  <RI>
0

>  <Rbt.Current_Directory>
/home/afrankz/demos/rdock_decoys_rna/rnas/1lc4

>  <Rbt.Executable>
rbdock ($Id: //depot/dev/client3/rdock/2013.1/src/exe/rbdock.cxx#4 $)

>  <Rbt.Library>
libRbt.so (2013.1, Build901 2013/11/27)

>  <Rbt.Parameter_File>
/export/apps/rDock/src/rDock_2013.1_src/data/scripts/dock_solv.prm

>  <Rbt.Receptor>
prm/blind_docking_100.prm

>  <SCORE>
-30.6132

>  <SCORE.INTER>
-17.6154

>  <SCORE.INTER.CONST>
1

>  <SCORE.INTER.POLAR>
-2.61136

>  <SCORE.INTER.ROT>
6

>  <SCORE.INTER.SOLV>
21.6328

>  <SCORE.INTER.VDW>
-17.85

>  <SCORE.INTER.norm>
-0.550481

>  <SCORE.INTRA>
-14.7912

>  <SCORE.INTRA.DIHEDRAL>
-18.1657

>  <SCORE.INTRA.DIHEDRAL.0>
44.2576

>  <SCORE.INTRA.POLAR>
-1.0856

>  <SCORE.INTRA.POLAR.0>
-0.381556

>  <SCORE.INTRA.REPUL>
0.0187928

>  <SCORE.INTRA.REPUL.0>
0

>  <SCORE.INTRA.SOLV>
0.604153

>  <SCORE.INTRA.SOLV.lig_0>
-134.592

>  <SCORE.INTRA.VDW>
-2.41339

>  <SCORE.INTRA.VDW.0>
-1.01417

>  <SCORE.INTRA.norm>
-0.462226

>  <SCORE.RESTR>
1.79346

>  <SCORE.RESTR.CAVITY>
1.79346

>  <SCORE.RESTR.norm>
0.0560458

>  <SCORE.SYSTEM>
0

>  <SCORE.SYSTEM.CONST>
0

>  <SCORE.SYSTEM.DIHEDRAL>
0

>  <SCORE.SYSTEM.SOLV>
0

>  <SCORE.SYSTEM.norm>
0

>  <SCORE.heavy>
32

>  <SCORE.norm>
-0.956661

>  <RMSD>
8.811

$$$$
1lc4
 OpenBabel02141814113D
libRbt.so/2013.1/901 2013/11/27
 32 34  0  0  0  0  0  0  0  0999 V2000
  -12.2257    2.9693   18.1269 C   0  0  2  0  0  0  0  0  0  0  0  0
  -11.1647    3.5900   18.8089 O   0  0  0  0  0  0  0  0  0  0  0  0
  -12.8919    1.9643   19.0887 C   0  0  2  0  0  0  0  0  0  0  0  0
  -13.3655    2.6502   20.2948 N   0  3  0  0  0  0  0  0  0  0  0  0
  -11.9036    0.8268   19.4379 C   0  0  0  0  0  0  0  0  0  0  0  0
  -11.4968    0.1460   18.1193 C   0  0  2  0  0  0  0  0  0  0  0  0
  -10.6157   -0.9527   18.3758 O   0  0  0  0  0  0  0  0  0  0  0  0
  -10.8354    1.1914   17.1869 C   0  0  2  0  0  0  0  0  0  0  0  0
  -11.7472    2.2993   16.9397 O   0  0  0  0  0  0  0  0  0  0  0  0
  -10.4410    0.6283   15.8238 C   0  0  0  0  0  0  0  0  0  0  0  0
   -9.7058    1.6373   15.0169 N   0  3  0  0  0  0  0  0  0  0  0  0
  -10.3625    7.3638   20.5624 C   0  0  2  0  0  0  0  0  0  0  0  0
  -10.4782    8.6040   21.3512 N   0  3  0  0  0  0  0  0  0  0  0  0
  -11.4864    7.2958   19.5374 C   0  0  0  0  0  0  0  0  0  0  0  0
  -11.3792    6.0083   18.7128 C   0  0  2  0  0  0  0  0  0  0  0  0
  -12.4183    6.0420   17.6537 N   0  3  0  0  0  0  0  0  0  0  0  0
  -11.4381    4.7466   19.6250 C   0  0  2  0  0  0  0  0  0  0  0  0
  -10.3317    4.8401   20.7071 C   0  0  2  0  0  0  0  0  0  0  0  0
  -10.4884    3.7877   21.6279 O   0  0  0  0  0  0  0  0  0  0  0  0
  -10.4448    6.1561   21.4938 C   0  0  1  0  0  0  0  0  0  0  0  0
   -9.3899    6.2124   22.4534 O   0  0  0  0  0  0  0  0  0  0  0  0
   -8.0975    6.0294   21.9871 C   0  0  2  0  0  0  0  0  0  0  0  0
   -7.2373    5.4506   23.1235 C   0  0  2  0  0  0  0  0  0  0  0  0
   -7.8006    4.2111   23.5337 O   0  0  0  0  0  0  0  0  0  0  0  0
   -7.2174    6.4372   24.3042 C   0  0  1  0  0  0  0  0  0  0  0  0
   -6.4135    5.9188   25.4483 N   0  3  0  0  0  0  0  0  0  0  0  0
   -6.6632    7.7999   23.8214 C   0  0  2  0  0  0  0  0  0  0  0  0
   -6.6566    8.7438   24.8899 O   0  0  0  0  0  0  0  0  0  0  0  0
   -7.4989    8.3253   22.6394 C   0  0  2  0  0  0  0  0  0  0  0  0
   -7.5699    7.3149   21.5686 O   0  0  0  0  0  0  0  0  0  0  0  0
   -6.9036    9.5758   22.0312 C   0  0  0  0  0  0  0  0  0  0  0  0
   -6.8703   10.6512   22.9671 O   0  0  0  0  0  0  0  0  0  0  0  0
  1  2  1  1  0  0  0
  1  3  1  0  0  0  0
  1  9  1  0  0  0  0
  3  4  1  1  0  0  0
  3  5  1  0  0  0  0
  5  6  1  0  0  0  0
  6  7  1  1  0  0  0
  6  8  1  0  0  0  0
  8  9  1  0  0  0  0
  8 10  1  6  0  0  0
 10 11  1  0  0  0  0
 12 13  1  1  0  0  0
 12 14  1  0  0  0  0
 12 20  1  0  0  0  0
 14 15  1  0  0  0  0
 15 16  1  6  0  0  0
 15 17  1  0  0  0  0
 17  2  1  6  0  0  0
 17 18  1  0  0  0  0
 18 19  1  1  0  0  0
 18 20  1  0  0  0  0
 20 21  1  1  0  0  0
 22 21  1  1  0  0  0
 22 23  1  0  0  0  0
 22 30  1  0  0  0  0
 23 24  1  1  0  0  0
 23 25  1  0  0  0  0
 25 26  1  1  0  0  0
 25 27  1  0  0  0  0
 27 28  1  1  0  0  0
 27 29  1  0  0  0  0
 29 30  1  0  0  0  0
 29 31  1  6  0  0  0
 31 32  1  0  0  0  0
M  CHG  5   4   1  11   1  13   1  16   1  26   1
M  END
>  <CHROM.1>
-85.62906509,-86.61205149,173.15076589,146.44313125,-175.00179807,-55.82162107
179.76519721,-65.36799499,65.26843731,-68.52332128,-152.66088415,173.38753964
60.52510621,-176.76645037,-62.45077339,176.21846543,-9.77625953,4.96424620
20.56065247,2.35562166,0.91274379,-3.07869640

>  <Name>
1lc4

>  <RI>
0

>  <Rbt.Current_Directory>
/home/afrankz/demos/rdock_decoys_rna/rnas/1lc4

>  <Rbt.Executable>
rbdock ($Id: //depot/dev/client3/rdock/2013.1/src/exe/rbdock.cxx#4 $)

>  <Rbt.Library>
libRbt.so (2013.1, Build901 2013/11/27)

>  <Rbt.Parameter_File>
/export/apps/rDock/src/rDock_2013.1_src/data/scripts/dock_solv.prm

>  <Rbt.Receptor>
prm/pocket_docking_8.prm

>  <SCORE>
-46.8328

>  <SCORE.INTER>
-29.6078

>  <SCORE.INTER.CONST>
1

>  <SCORE.INTER.POLAR>
-2.53798

>  <SCORE.INTER.ROT>
6

>  <SCORE.INTER.SOLV>
19.7774

>  <SCORE.INTER.VDW>
-25.4711

>  <SCORE.INTER.norm>
-0.925244

>  <SCORE.INTRA>
-17.225

>  <SCORE.INTRA.DIHEDRAL>
-29.8804

>  <SCORE.INTRA.DIHEDRAL.0>
44.2576

>  <SCORE.INTRA.POLAR>
-0.279054

>  <SCORE.INTRA.POLAR.0>
-0.381556

>  <SCORE.INTRA.REPUL>
0

>  <SCORE.INTRA.REPUL.0>
0

>  <SCORE.INTRA.SOLV>
1.11196

>  <SCORE.INTRA.SOLV.lig_0>
-134.592

>  <SCORE.INTRA.VDW>
-1.89202

>  <SCORE.INTRA.VDW.0>
-1.01417

>  <SCORE.INTRA.norm>
-0.538281

>  <SCORE.RESTR>
0

>  <SCORE.RESTR.CAVITY>
0

>  <SCORE.RESTR.norm>
0

>  <SCORE.SYSTEM>
0

>  <SCORE.SYSTEM.CONST>
0

>  <SCORE.SYSTEM.DIHEDRAL>
0

>  <SCORE.SYSTEM.SOLV>
0

>  <SCORE.SYSTEM.norm>
0

>  <SCORE.heavy>
32

>  <SCORE.norm>
-1.46353

>  <RMSD>
8.826

$$$$
1lc4
 OpenBabel02141814113D
libRbt.so/2013.1/901 2013/11/27
 32 34  0  0  0  0  0  0  0  0999 V2000
  -12.5212    9.6724   18.4992 C   0  0  2  0  0  0  0  0  0  0  0  0
  -13.1255    8.4772   18.9263 O   0  0  0  0  0  0  0  0  0  0  0  0
  -13.3590   10.8516   19.0344 C   0  0  2  0  0  0  0  0  0  0  0  0
  -13.4450   10.7937   20.4969 N   0  3  0  0  0  0  0  0  0  0  0  0
  -14.7633   10.8440   18.3860 C   0  0  0  0  0  0  0  0  0  0  0  0
  -14.5704   10.9471   16.8628 C   0  0  2  0  0  0  0  0  0  0  0  0
  -15.8390   10.9941   16.2011 O   0  0  0  0  0  0  0  0  0  0  0  0
  -13.7243    9.7461   16.3721 C   0  0  2  0  0  0  0  0  0  0  0  0
  -12.4400    9.7168   17.0575 O   0  0  0  0  0  0  0  0  0  0  0  0
  -13.4278    9.7814   14.8749 C   0  0  0  0  0  0  0  0  0  0  0  0
  -14.6756    9.6596   14.0762 N   0  3  0  0  0  0  0  0  0  0  0  0
  -11.3446    4.8685   20.2550 C   0  0  2  0  0  0  0  0  0  0  0  0
  -10.6203    3.5847   20.2914 N   0  3  0  0  0  0  0  0  0  0  0  0
  -12.5573    4.7526   19.3417 C   0  0  0  0  0  0  0  0  0  0  0  0
  -13.3171    6.0829   19.2925 C   0  0  2  0  0  0  0  0  0  0  0  0
  -14.5501    5.8891   18.4896 N   0  3  0  0  0  0  0  0  0  0  0  0
  -12.4016    7.2380   18.7877 C   0  0  2  0  0  0  0  0  0  0  0  0
  -11.1365    7.3214   19.6802 C   0  0  2  0  0  0  0  0  0  0  0  0
  -10.2356    8.2508   19.1283 O   0  0  0  0  0  0  0  0  0  0  0  0
  -10.4157    5.9647   19.7369 C   0  0  1  0  0  0  0  0  0  0  0  0
   -9.2797    6.0809   20.5928 O   0  0  0  0  0  0  0  0  0  0  0  0
   -9.4112    6.8813   21.7168 C   0  0  2  0  0  0  0  0  0  0  0  0
   -8.0618    7.5629   22.0012 C   0  0  2  0  0  0  0  0  0  0  0  0
   -7.7008    8.3454   20.8700 O   0  0  0  0  0  0  0  0  0  0  0  0
   -6.9911    6.4894   22.2634 C   0  0  1  0  0  0  0  0  0  0  0  0
   -5.6522    7.0921   22.5251 N   0  3  0  0  0  0  0  0  0  0  0  0
   -7.4343    5.6069   23.4557 C   0  0  2  0  0  0  0  0  0  0  0  0
   -6.4719    4.5853   23.7066 O   0  0  0  0  0  0  0  0  0  0  0  0
   -8.8179    4.9911   23.1763 C   0  0  2  0  0  0  0  0  0  0  0  0
   -9.7925    6.0442   22.8393 O   0  0  0  0  0  0  0  0  0  0  0  0
   -9.3640    4.2476   24.3750 C   0  0  0  0  0  0  0  0  0  0  0  0
   -9.0663    4.9247   25.5941 O   0  0  0  0  0  0  0  0  0  0  0  0
  1  2  1  6  0  0  0
  1  3  1  0  0  0  0
  1  9  1  0  0  0  0
  3  4  1  1  0  0  0
  3  5  1  0  0  0  0
  5  6  1  0  0  0  0
  6  7  1  6  0  0  0
  6  8  1  0  0  0  0
  8  9  1  0  0  0  0
  8 10  1  6  0  0  0
 10 11  1  0  0  0  0
 12 13  1  6  0  0  0
 12 14  1  0  0  0  0
 12 20  1  0  0  0  0
 14 15  1  0  0  0  0
 15 16  1  6  0  0  0
 15 17  1  0  0  0  0
 17  2  1  1  0  0  0
 17 18  1  0  0  0  0
 18 19  1  6  0  0  0
 18 20  1  0  0  0  0
 20 21  1  1  0  0  0
 22 21  1  6  0  0  0
 22 23  1  0  0  0  0
 22 30  1  0  0  0  0
 23 24  1  6  0  0  0
 23 25  1  0  0  0  0
 25 26  1  1  0  0  0
 25 27  1  0  0  0  0
 27 28  1  6  0  0  0
 27 29  1  0  0  0  0
 29 30  1  0  0  0  0
 29 31  1  1  0  0  0
 31 32  1  0  0  0  0
M  CHG  5   4   1  11   1  13   1  16   1  26   1
M  END
>  <CHROM.1>
-167.82812806,-178.21420697,178.81399882,63.54328674,-64.41129482,-57.05593301
63.39074601,64.07451743,177.70942619,-84.95419636,-145.98748198,176.86132029
-93.89039018,-84.17782619,38.72173439,58.18749766,-11.12630150,7.44842764
19.97239511,-2.44827724,0.61097916,2.78160222

>  <Name>
1lc4

>  <RI>
0

>  <Rbt.Current_Directory>
/home/afrankz/demos/rdock_decoys_rna/rnas/1lc4

>  <Rbt.Executable>
rbdock ($Id: //depot/dev/client3/rdock/2013.1/src/exe/rbdock.cxx#4 $)

>  <Rbt.Library>
libRbt.so (2013.1, Build901 2013/11/27)

>  <Rbt.Parameter_File>
/export/apps/rDock/src/rDock_2013.1_src/data/scripts/dock_solv.prm

>  <Rbt.Receptor>
prm/blind_docking_60.prm

>  <SCORE>
-31.8722

>  <SCORE.INTER>
-16.2506

>  <SCORE.INTER.CONST>
1

>  <SCORE.INTER.POLAR>
-3.31674

>  <SCORE.INTER.ROT>
6

>  <SCORE.INTER.SOLV>
31.1681

>  <SCORE.INTER.VDW>
-17.7673

>  <SCORE.INTER.norm>
-0.507831

>  <SCORE.INTRA>
-20.5829

>  <SCORE.INTRA.DIHEDRAL>
-29.9719

>  <SCORE.INTRA.DIHEDRAL.0>
44.2576

>  <SCORE.INTRA.POLAR>
-1.16085

>  <SCORE.INTRA.POLAR.0>
-0.381556

>  <SCORE.INTRA.REPUL>
0

>  <SCORE.INTRA.REPUL.0>
0

>  <SCORE.INTRA.SOLV>
-2.20537

>  <SCORE.INTRA.SOLV.lig_0>
-134.592

>  <SCORE.INTRA.VDW>
-0.547414

>  <SCORE.INTRA.VDW.0>
-1.01417

>  <SCORE.INTRA.norm>
-0.643217

>  <SCORE.RESTR>
4.96138

>  <SCORE.RESTR.CAVITY>
4.96138

>  <SCORE.RESTR.norm>
0.155043

>  <SCORE.SYSTEM>
0

>  <SCORE.SYSTEM.CONST>
0

>  <SCORE.SYSTEM.DIHEDRAL>
0

>  <SCORE.SYSTEM.SOLV>
0

>  <SCORE.SYSTEM.norm>
0

>  <SCORE.heavy>
32

>  <SCORE.norm>
-0.996005

>  <RMSD>
8.834

$$$$
1lc4
 OpenBabel02141814113D
libRbt.so/2013.1/901 2013/11/27
 32 34  0  0  0  0  0  0  0  0999 V2000
   -9.1466    3.4231   15.7347 C   0  0  2  0  0  0  0  0  0  0  0  0
  -10.4466    2.9303   15.5268 O   0  0  0  0  0  0  0  0  0  0  0  0
   -9.1048    4.8867   15.2500 C   0  0  2  0  0  0  0  0  0  0  0  0
  -10.0982    5.6904   15.9691 N   0  3  0  0  0  0  0  0  0  0  0  0
   -9.3300    4.9474   13.7209 C   0  0  0  0  0  0  0  0  0  0  0  0
   -8.2221    4.1115   13.0564 C   0  0  2  0  0  0  0  0  0  0  0  0
   -8.3434    4.1649   11.6310 O   0  0  0  0  0  0  0  0  0  0  0  0
   -8.3019    2.6534   13.5733 C   0  0  2  0  0  0  0  0  0  0  0  0
   -8.1771    2.6221   15.0237 O   0  0  0  0  0  0  0  0  0  0  0  0
   -7.2072    1.7483   13.0138 C   0  0  0  0  0  0  0  0  0  0  0  0
   -5.9846    1.7973   13.8579 N   0  3  0  0  0  0  0  0  0  0  0  0
  -13.3944    0.6071   17.4947 C   0  0  2  0  0  0  0  0  0  0  0  0
  -14.0625   -0.4076   18.3301 N   0  3  0  0  0  0  0  0  0  0  0  0
  -12.5846   -0.0752   16.4005 C   0  0  0  0  0  0  0  0  0  0  0  0
  -11.8818    0.9698   15.5269 C   0  0  2  0  0  0  0  0  0  0  0  0
  -11.2050    0.2671   14.4085 N   0  3  0  0  0  0  0  0  0  0  0  0
  -10.9394    1.8745   16.3759 C   0  0  2  0  0  0  0  0  0  0  0  0
  -11.7485    2.5255   17.5271 C   0  0  2  0  0  0  0  0  0  0  0  0
  -10.8696    3.2083   18.3881 O   0  0  0  0  0  0  0  0  0  0  0  0
  -12.4685    1.4556   18.3639 C   0  0  1  0  0  0  0  0  0  0  0  0
  -13.2238    2.1016   19.3881 O   0  0  0  0  0  0  0  0  0  0  0  0
  -13.0618    1.6379   20.6843 C   0  0  2  0  0  0  0  0  0  0  0  0
  -14.3837    1.8272   21.4478 C   0  0  2  0  0  0  0  0  0  0  0  0
  -15.4034    1.0956   20.7792 O   0  0  0  0  0  0  0  0  0  0  0  0
  -14.7447    3.3226   21.4837 C   0  0  1  0  0  0  0  0  0  0  0  0
  -16.0325    3.5666   22.1952 N   0  3  0  0  0  0  0  0  0  0  0  0
  -13.5930    4.1098   22.1553 C   0  0  2  0  0  0  0  0  0  0  0  0
  -13.8885    5.5043   22.1802 O   0  0  0  0  0  0  0  0  0  0  0  0
  -12.2682    3.8497   21.4145 C   0  0  2  0  0  0  0  0  0  0  0  0
  -12.0052    2.4024   21.3209 O   0  0  0  0  0  0  0  0  0  0  0  0
  -11.0860    4.4708   22.1248 C   0  0  0  0  0  0  0  0  0  0  0  0
   -9.8873    4.3406   21.3635 O   0  0  0  0  0  0  0  0  0  0  0  0
  1  2  1  6  0  0  0
  1  3  1  0  0  0  0
  1  9  1  0  0  0  0
  3  4  1  1  0  0  0
  3  5  1  0  0  0  0
  5  6  1  0  0  0  0
  6  7  1  6  0  0  0
  6  8  1  0  0  0  0
  8  9  1  0  0  0  0
  8 10  1  6  0  0  0
 10 11  1  0  0  0  0
 12 13  1  1  0  0  0
 12 14  1  0  0  0  0
 12 20  1  0  0  0  0
 14 15  1  0  0  0  0
 15 16  1  6  0  0  0
 15 17  1  0  0  0  0
 17  2  1  6  0  0  0
 17 18  1  0  0  0  0
 18 19  1  1  0  0  0
 18 20  1  0  0  0  0
 20 21  1  1  0  0  0
 22 21  1  6  0  0  0
 22 23  1  0  0  0  0
 22 30  1  0  0  0  0
 23 24  1  6  0  0  0
 23 25  1  0  0  0  0
 25 26  1  1  0  0  0
 25 27  1  0  0  0  0
 27 28  1  6  0  0  0
 27 29  1  0  0  0  0
 29 30  1  0  0  0  0
 29 31  1  1  0  0  0
 31 32  1  0  0  0  0
M  CHG  5   4   1  11   1  13   1  16   1  26   1
M  END
>  <CHROM.1>
-152.69041532,-146.45976712,-76.12609132,-60.56474843,88.10390330,55.68667565
-63.21849497,-109.21215627,-54.66575435,108.25164256,-148.70207387,179.39152952
58.20139705,60.42723193,-174.10032339,63.79227418,-11.35139816,2.74706177
17.69306065,-0.66295731,0.74261782,0.86489923

>  <Name>
1lc4

>  <RI>
0

>  <Rbt.Current_Directory>
/home/afrankz/demos/rdock_decoys_rna/rnas/1lc4

>  <Rbt.Executable>
rbdock ($Id: //depot/dev/client3/rdock/2013.1/src/exe/rbdock.cxx#4 $)

>  <Rbt.Library>
libRbt.so (2013.1, Build901 2013/11/27)

>  <Rbt.Parameter_File>
/export/apps/rDock/src/rDock_2013.1_src/data/scripts/dock_solv.prm

>  <Rbt.Receptor>
prm/blind_docking_100.prm

>  <SCORE>
-43.6793

>  <SCORE.INTER>
-29.853

>  <SCORE.INTER.CONST>
1

>  <SCORE.INTER.POLAR>
-4.55773

>  <SCORE.INTER.ROT>
6

>  <SCORE.INTER.SOLV>
21.336

>  <SCORE.INTER.VDW>
-19.4216

>  <SCORE.INTER.norm>
-0.932907

>  <SCORE.INTRA>
-15.7157

>  <SCORE.INTRA.DIHEDRAL>
-19.7727

>  <SCORE.INTRA.DIHEDRAL.0>
44.2576

>  <SCORE.INTRA.POLAR>
-0.786602

>  <SCORE.INTRA.POLAR.0>
-0.381556

>  <SCORE.INTRA.REPUL>
0

>  <SCORE.INTRA.REPUL.0>
0

>  <SCORE.INTRA.SOLV>
0.323846

>  <SCORE.INTRA.SOLV.lig_0>
-134.592

>  <SCORE.INTRA.VDW>
-3.31683

>  <SCORE.INTRA.VDW.0>
-1.01417

>  <SCORE.INTRA.norm>
-0.491115

>  <SCORE.RESTR>
1.88936

>  <SCORE.RESTR.CAVITY>
1.88936

>  <SCORE.RESTR.norm>
0.0590426

>  <SCORE.SYSTEM>
0

>  <SCORE.SYSTEM.CONST>
0

>  <SCORE.SYSTEM.DIHEDRAL>
0

>  <SCORE.SYSTEM.SOLV>
0

>  <SCORE.SYSTEM.norm>
0

>  <SCORE.heavy>
32

>  <SCORE.norm>
-1.36498

>  <RMSD>
8.841

$$$$
1lc4
 OpenBabel02141814113D
libRbt.so/2013.1/901 2013/11/27
 32 34  0  0  0  0  0  0  0  0999 V2000
  -11.2578    1.8750   11.8829 C   0  0  2  0  0  0  0  0  0  0  0  0
   -9.9671    1.7604   12.4280 O   0  0  0  0  0  0  0  0  0  0  0  0
  -11.2721    1.1434   10.5252 C   0  0  2  0  0  0  0  0  0  0  0  0
  -10.8927   -0.2621   10.6994 N   0  3  0  0  0  0  0  0  0  0  0  0
  -10.3358    1.8605    9.5244 C   0  0  0  0  0  0  0  0  0  0  0  0
  -10.8355    3.3086    9.3791 C   0  0  2  0  0  0  0  0  0  0  0  0
  -10.0381    4.0185    8.4254 O   0  0  0  0  0  0  0  0  0  0  0  0
  -10.8052    4.0014   10.7642 C   0  0  2  0  0  0  0  0  0  0  0  0
  -11.6210    3.2636   11.7182 O   0  0  0  0  0  0  0  0  0  0  0  0
  -11.3349    5.4330   10.7407 C   0  0  0  0  0  0  0  0  0  0  0  0
  -12.8210    5.4567   10.7189 N   0  3  0  0  0  0  0  0  0  0  0  0
  -11.2460    1.8972   16.4660 C   0  0  2  0  0  0  0  0  0  0  0  0
  -11.2572    1.9671   17.9387 N   0  3  0  0  0  0  0  0  0  0  0  0
  -10.4990    0.6501   16.0129 C   0  0  0  0  0  0  0  0  0  0  0  0
  -10.4771    0.5679   14.4826 C   0  0  2  0  0  0  0  0  0  0  0  0
   -9.8462   -0.7171   14.0911 N   0  3  0  0  0  0  0  0  0  0  0  0
   -9.8028    1.8264   13.8588 C   0  0  2  0  0  0  0  0  0  0  0  0
  -10.5242    3.1023   14.3642 C   0  0  2  0  0  0  0  0  0  0  0  0
   -9.8167    4.2403   13.9348 O   0  0  0  0  0  0  0  0  0  0  0  0
  -10.5598    3.1392   15.9007 C   0  0  1  0  0  0  0  0  0  0  0  0
  -11.2595    4.3108   16.3183 O   0  0  0  0  0  0  0  0  0  0  0  0
  -10.6451    5.5322   16.0897 C   0  0  2  0  0  0  0  0  0  0  0  0
  -10.5423    6.2930   17.4227 C   0  0  2  0  0  0  0  0  0  0  0  0
   -9.7789    5.5124   18.3337 O   0  0  0  0  0  0  0  0  0  0  0  0
  -11.9540    6.5312   17.9866 C   0  0  1  0  0  0  0  0  0  0  0  0
  -11.9168    7.2486   19.2935 N   0  3  0  0  0  0  0  0  0  0  0  0
  -12.7896    7.3247   16.9525 C   0  0  2  0  0  0  0  0  0  0  0  0
  -14.1130    7.5389   17.4376 O   0  0  0  0  0  0  0  0  0  0  0  0
  -12.8202    6.5765   15.6068 C   0  0  2  0  0  0  0  0  0  0  0  0
  -11.4503    6.2863   15.1468 O   0  0  0  0  0  0  0  0  0  0  0  0
  -13.4918    7.3856   14.5195 C   0  0  0  0  0  0  0  0  0  0  0  0
  -12.7814    8.5915   14.2466 O   0  0  0  0  0  0  0  0  0  0  0  0
  1  2  1  6  0  0  0
  1  3  1  0  0  0  0
  1  9  1  0  0  0  0
  3  4  1  1  0  0  0
  3  5  1  0  0  0  0
  5  6  1  0  0  0  0
  6  7  1  6  0  0  0
  6  8  1  0  0  0  0
  8  9  1  0  0  0  0
  8 10  1  6  0  0  0
 10 11  1  0  0  0  0
 12 13  1  1  0  0  0
 12 14  1  0  0  0  0
 12 20  1  0  0  0  0
 14 15  1  0  0  0  0
 15 16  1  1  0  0  0
 15 17  1  0  0  0  0
 17  2  1  6  0  0  0
 17 18  1  0  0  0  0
 18 19  1  1  0  0  0
 18 20  1  0  0  0  0
 20 21  1  6  0  0  0
 22 21  1  1  0  0  0
 22 23  1  0  0  0  0
 22 30  1  0  0  0  0
 23 24  1  1  0  0  0
 23 25  1  0  0  0  0
 25 26  1  1  0  0  0
 25 27  1  0  0  0  0
 27 28  1  1  0  0  0
 27 29  1  0  0  0  0
 29 30  1  0  0  0  0
 29 31  1  6  0  0  0
 31 32  1  0  0  0  0
M  CHG  5   4   1  11   1  13   1  16   1  26   1
M  END
>  <CHROM.1>
-153.77966290,66.79922929,-178.47952094,-163.90895654,78.53446785,-81.42883280
-54.43397333,49.17909967,157.25580410,169.13384080,-124.70920636,-58.15641538
67.05587631,67.07613367,62.86856544,-174.82015235,-11.22344455,4.01862789
14.17786439,-1.01391923,-1.24192335,1.48525092

>  <Name>
1lc4

>  <RI>
0

>  <Rbt.Current_Directory>
/home/afrankz/demos/rdock_decoys_rna/rnas/1lc4

>  <Rbt.Executable>
rbdock ($Id: //depot/dev/client3/rdock/2013.1/src/exe/rbdock.cxx#4 $)

>  <Rbt.Library>
libRbt.so (2013.1, Build901 2013/11/27)

>  <Rbt.Parameter_File>
/export/apps/rDock/src/rDock_2013.1_src/data/scripts/dock_solv.prm

>  <Rbt.Receptor>
prm/pocket_docking_8.prm

>  <SCORE>
-46.4765

>  <SCORE.INTER>
-30.3714

>  <SCORE.INTER.CONST>
1

>  <SCORE.INTER.POLAR>
-5.40424

>  <SCORE.INTER.ROT>
6

>  <SCORE.INTER.SOLV>
20.6575

>  <SCORE.INTER.VDW>
-16.7193

>  <SCORE.INTER.norm>
-0.949105

>  <SCORE.INTRA>
-16.1051

>  <SCORE.INTRA.DIHEDRAL>
-26.827

>  <SCORE.INTRA.DIHEDRAL.0>
44.2576

>  <SCORE.INTRA.POLAR>
-0.663656

>  <SCORE.INTRA.POLAR.0>
-0.381556

>  <SCORE.INTRA.REPUL>
0

>  <SCORE.INTRA.REPUL.0>
0

>  <SCORE.INTRA.SOLV>
1.16669

>  <SCORE.INTRA.SOLV.lig_0>
-134.592

>  <SCORE.INTRA.VDW>
-1.01855

>  <SCORE.INTRA.VDW.0>
-1.01417

>  <SCORE.INTRA.norm>
-0.503285

>  <SCORE.RESTR>
0

>  <SCORE.RESTR.CAVITY>
0

>  <SCORE.RESTR.norm>
0

>  <SCORE.SYSTEM>
0

>  <SCORE.SYSTEM.CONST>
0

>  <SCORE.SYSTEM.DIHEDRAL>
0

>  <SCORE.SYSTEM.SOLV>
0

>  <SCORE.SYSTEM.norm>
0

>  <SCORE.heavy>
32

>  <SCORE.norm>
-1.45239

>  <RMSD>
8.852

$$$$
1lc4
 OpenBabel02141814113D
libRbt.so/2013.1/901 2013/11/27
 32 34  0  0  0  0  0  0  0  0999 V2000
  -12.0986    7.1982   16.5394 C   0  0  2  0  0  0  0  0  0  0  0  0
  -12.9364    6.4111   17.3485 O   0  0  0  0  0  0  0  0  0  0  0  0
  -12.6330    8.6449   16.5594 C   0  0  2  0  0  0  0  0  0  0  0  0
  -12.6745    9.1541   17.9337 N   0  3  0  0  0  0  0  0  0  0  0  0
  -14.0275    8.7062   15.8928 C   0  0  0  0  0  0  0  0  0  0  0  0
  -13.8742    8.1917   14.4508 C   0  0  2  0  0  0  0  0  0  0  0  0
  -15.1247    8.2674   13.7582 O   0  0  0  0  0  0  0  0  0  0  0  0
  -13.3347    6.7399   14.4804 C   0  0  2  0  0  0  0  0  0  0  0  0
  -12.0640    6.6855   15.1892 O   0  0  0  0  0  0  0  0  0  0  0  0
  -13.0946    6.1511   13.0925 C   0  0  0  0  0  0  0  0  0  0  0  0
  -14.3751    5.9469   12.3656 N   0  3  0  0  0  0  0  0  0  0  0  0
  -11.9257    3.8172   20.5437 C   0  0  2  0  0  0  0  0  0  0  0  0
  -11.4215    2.6714   21.3227 N   0  3  0  0  0  0  0  0  0  0  0  0
  -13.0148    3.3528   19.5863 C   0  0  0  0  0  0  0  0  0  0  0  0
  -13.5448    4.5350   18.7675 C   0  0  2  0  0  0  0  0  0  0  0  0
  -14.6801    4.0595   17.9383 N   0  3  0  0  0  0  0  0  0  0  0  0
  -12.4032    5.2172   17.9559 C   0  0  2  0  0  0  0  0  0  0  0  0
  -11.2653    5.6393   18.9207 C   0  0  2  0  0  0  0  0  0  0  0  0
  -10.1672    6.1039   18.1734 O   0  0  0  0  0  0  0  0  0  0  0  0
  -10.7785    4.4407   19.7512 C   0  0  1  0  0  0  0  0  0  0  0  0
   -9.7572    4.8825   20.6447 O   0  0  0  0  0  0  0  0  0  0  0  0
  -10.0676    5.9335   21.4935 C   0  0  2  0  0  0  0  0  0  0  0  0
   -9.0517    7.0670   21.2719 C   0  0  2  0  0  0  0  0  0  0  0  0
   -9.1243    7.4832   19.9141 O   0  0  0  0  0  0  0  0  0  0  0  0
   -7.6361    6.5557   21.5918 C   0  0  1  0  0  0  0  0  0  0  0  0
   -6.6024    7.6085   21.3738 N   0  3  0  0  0  0  0  0  0  0  0  0
   -7.5955    6.0460   23.0531 C   0  0  2  0  0  0  0  0  0  0  0  0
   -6.3004    5.5416   23.3710 O   0  0  0  0  0  0  0  0  0  0  0  0
   -8.6672    4.9611   23.2679 C   0  0  2  0  0  0  0  0  0  0  0  0
   -9.9940    5.4596   22.8633 O   0  0  0  0  0  0  0  0  0  0  0  0
   -8.7731    4.5431   24.7177 C   0  0  0  0  0  0  0  0  0  0  0  0
   -7.5154    4.1136   25.2344 O   0  0  0  0  0  0  0  0  0  0  0  0
  1  2  1  1  0  0  0
  1  3  1  0  0  0  0
  1  9  1  0  0  0  0
  3  4  1  1  0  0  0
  3  5  1  0  0  0  0
  5  6  1  0  0  0  0
  6  7  1  1  0  0  0
  6  8  1  0  0  0  0
  8  9  1  0  0  0  0
  8 10  1  6  0  0  0
 10 11  1  0  0  0  0
 12 13  1  6  0  0  0
 12 14  1  0  0  0  0
 12 20  1  0  0  0  0
 14 15  1  0  0  0  0
 15 16  1  6  0  0  0
 15 17  1  0  0  0  0
 17  2  1  1  0  0  0
 17 18  1  0  0  0  0
 18 19  1  6  0  0  0
 18 20  1  0  0  0  0
 20 21  1  1  0  0  0
 22 21  1  6  0  0  0
 22 23  1  0  0  0  0
 22 30  1  0  0  0  0
 23 24  1  6  0  0  0
 23 25  1  0  0  0  0
 25 26  1  1  0  0  0
 25 27  1  0  0  0  0
 27 28  1  6  0  0  0
 27 29  1  0  0  0  0
 29 30  1  0  0  0  0
 29 31  1  1  0  0  0
 31 32  1  0  0  0  0
M  CHG  5   4   1  11   1  13   1  16   1  26   1
M  END
>  <CHROM.1>
-154.25289425,-178.99513801,-46.96868445,66.02609956,-67.65814308,161.27839609
-75.24923646,50.56796582,-76.88456731,-66.64008313,-123.37245597,-179.19692683
71.77333623,66.94660697,-55.29114596,-179.11722477,-11.12123916,6.00798857
19.04491542,-2.37178187,0.69884672,2.36388008

>  <Name>
1lc4

>  <RI>
0

>  <Rbt.Current_Directory>
/home/afrankz/demos/rdock_decoys_rna/rnas/1lc4

>  <Rbt.Executable>
rbdock ($Id: //depot/dev/client3/rdock/2013.1/src/exe/rbdock.cxx#4 $)

>  <Rbt.Library>
libRbt.so (2013.1, Build901 2013/11/27)

>  <Rbt.Parameter_File>
/export/apps/rDock/src/rDock_2013.1_src/data/scripts/dock_solv.prm

>  <Rbt.Receptor>
prm/pocket_docking_7.prm

>  <SCORE>
-62.3563

>  <SCORE.INTER>
-45.0455

>  <SCORE.INTER.CONST>
1

>  <SCORE.INTER.POLAR>
-6.66737

>  <SCORE.INTER.ROT>
6

>  <SCORE.INTER.SOLV>
27.1284

>  <SCORE.INTER.VDW>
-24.4486

>  <SCORE.INTER.norm>
-1.40767

>  <SCORE.INTRA>
-17.3108

>  <SCORE.INTRA.DIHEDRAL>
-29.6675

>  <SCORE.INTRA.DIHEDRAL.0>
44.2576

>  <SCORE.INTRA.POLAR>
-0.557735

>  <SCORE.INTRA.POLAR.0>
-0.381556

>  <SCORE.INTRA.REPUL>
0

>  <SCORE.INTRA.REPUL.0>
0

>  <SCORE.INTRA.SOLV>
-0.858609

>  <SCORE.INTRA.SOLV.lig_0>
-134.592

>  <SCORE.INTRA.VDW>
-0.151446

>  <SCORE.INTRA.VDW.0>
-1.01417

>  <SCORE.INTRA.norm>
-0.540962

>  <SCORE.RESTR>
0

>  <SCORE.RESTR.CAVITY>
0

>  <SCORE.RESTR.norm>
0

>  <SCORE.SYSTEM>
0

>  <SCORE.SYSTEM.CONST>
0

>  <SCORE.SYSTEM.DIHEDRAL>
0

>  <SCORE.SYSTEM.SOLV>
0

>  <SCORE.SYSTEM.norm>
0

>  <SCORE.heavy>
32

>  <SCORE.norm>
-1.94863

>  <RMSD>
8.896

$$$$
1lc4
 OpenBabel02141814113D
libRbt.so/2013.1/901 2013/11/27
 32 34  0  0  0  0  0  0  0  0999 V2000
   -9.0176    1.6928   13.6116 C   0  0  2  0  0  0  0  0  0  0  0  0
   -9.0865    0.9509   14.8036 O   0  0  0  0  0  0  0  0  0  0  0  0
   -7.5654    2.1809   13.4334 C   0  0  2  0  0  0  0  0  0  0  0  0
   -6.6443    1.0405   13.4027 N   0  3  0  0  0  0  0  0  0  0  0  0
   -7.1959    3.1742   14.5602 C   0  0  0  0  0  0  0  0  0  0  0  0
   -8.1883    4.3478   14.4864 C   0  0  2  0  0  0  0  0  0  0  0  0
   -7.8717    5.3323   15.4763 O   0  0  0  0  0  0  0  0  0  0  0  0
   -9.6298    3.8108   14.6683 C   0  0  2  0  0  0  0  0  0  0  0  0
   -9.9306    2.8116   13.6529 O   0  0  0  0  0  0  0  0  0  0  0  0
  -10.7011    4.8928   14.5576 C   0  0  0  0  0  0  0  0  0  0  0  0
  -12.0623    4.3227   14.7363 N   0  3  0  0  0  0  0  0  0  0  0  0
  -13.2618    0.5998   15.4394 C   0  0  2  0  0  0  0  0  0  0  0  0
  -14.5984    0.0649   15.7573 N   0  3  0  0  0  0  0  0  0  0  0  0
  -12.6707   -0.1545   14.2561 C   0  0  0  0  0  0  0  0  0  0  0  0
  -11.2785    0.3902   13.9179 C   0  0  2  0  0  0  0  0  0  0  0  0
  -10.7941   -0.2904   12.6912 N   0  3  0  0  0  0  0  0  0  0  0  0
  -10.3145    0.2726   15.1362 C   0  0  2  0  0  0  0  0  0  0  0  0
  -10.9400    0.9898   16.3603 C   0  0  2  0  0  0  0  0  0  0  0  0
  -10.1512    0.7440   17.4994 O   0  0  0  0  0  0  0  0  0  0  0  0
  -12.3477    0.4459   16.6534 C   0  0  1  0  0  0  0  0  0  0  0  0
  -12.8949    1.1557   17.7640 O   0  0  0  0  0  0  0  0  0  0  0  0
  -12.3814    0.8650   19.0183 C   0  0  2  0  0  0  0  0  0  0  0  0
  -13.5406    0.8073   20.0278 C   0  0  2  0  0  0  0  0  0  0  0  0
  -14.4528   -0.2025   19.6150 O   0  0  0  0  0  0  0  0  0  0  0  0
  -14.2496    2.1722   20.0721 C   0  0  1  0  0  0  0  0  0  0  0  0
  -15.3998    2.1706   21.0213 N   0  3  0  0  0  0  0  0  0  0  0  0
  -13.2253    3.2671   20.4583 C   0  0  2  0  0  0  0  0  0  0  0  0
  -13.8490    4.5490   20.4828 O   0  0  0  0  0  0  0  0  0  0  0  0
  -12.0414    3.2592   19.4735 C   0  0  2  0  0  0  0  0  0  0  0  0
  -11.4485    1.9123   19.3908 O   0  0  0  0  0  0  0  0  0  0  0  0
  -10.9395    4.2043   19.8985 C   0  0  0  0  0  0  0  0  0  0  0  0
  -10.0371    4.4751   18.8282 O   0  0  0  0  0  0  0  0  0  0  0  0
  1  2  1  1  0  0  0
  1  3  1  0  0  0  0
  1  9  1  0  0  0  0
  3  4  1  1  0  0  0
  3  5  1  0  0  0  0
  5  6  1  0  0  0  0
  6  7  1  1  0  0  0
  6  8  1  0  0  0  0
  8  9  1  0  0  0  0
  8 10  1  6  0  0  0
 10 11  1  0  0  0  0
 12 13  1  1  0  0  0
 12 14  1  0  0  0  0
 12 20  1  0  0  0  0
 14 15  1  0  0  0  0
 15 16  1  6  0  0  0
 15 17  1  0  0  0  0
 17  2  1  6  0  0  0
 17 18  1  0  0  0  0
 18 19  1  1  0  0  0
 18 20  1  0  0  0  0
 20 21  1  1  0  0  0
 22 21  1  6  0  0  0
 22 23  1  0  0  0  0
 22 30  1  0  0  0  0
 23 24  1  6  0  0  0
 23 25  1  0  0  0  0
 25 26  1  1  0  0  0
 25 27  1  0  0  0  0
 27 28  1  6  0  0  0
 27 29  1  0  0  0  0
 29 30  1  0  0  0  0
 29 31  1  1  0  0  0
 31 32  1  0  0  0  0
M  CHG  5   4   1  11   1  13   1  16   1  26   1
M  END
>  <CHROM.1>
-174.11101764,7.49102972,41.04991972,-62.81988916,179.85544550,175.09296343
-54.03049648,84.43619735,160.98808094,164.71511033,-138.81320935,54.98722907
-59.87202572,-61.90144018,-163.75062095,-58.10050146,-11.22828693,2.07497426
16.61721974,0.59156867,-0.68476976,-2.29125983

>  <Name>
1lc4

>  <RI>
0

>  <Rbt.Current_Directory>
/home/afrankz/demos/rdock_decoys_rna/rnas/1lc4

>  <Rbt.Executable>
rbdock ($Id: //depot/dev/client3/rdock/2013.1/src/exe/rbdock.cxx#4 $)

>  <Rbt.Library>
libRbt.so (2013.1, Build901 2013/11/27)

>  <Rbt.Parameter_File>
/export/apps/rDock/src/rDock_2013.1_src/data/scripts/dock_solv.prm

>  <Rbt.Receptor>
prm/blind_docking_100.prm

>  <SCORE>
-27.0105

>  <SCORE.INTER>
-21.6888

>  <SCORE.INTER.CONST>
1

>  <SCORE.INTER.POLAR>
-3.83587

>  <SCORE.INTER.ROT>
6

>  <SCORE.INTER.SOLV>
17.1138

>  <SCORE.INTER.VDW>
-14.9776

>  <SCORE.INTER.norm>
-0.677776

>  <SCORE.INTRA>
-12.7106

>  <SCORE.INTRA.DIHEDRAL>
-25.4212

>  <SCORE.INTRA.DIHEDRAL.0>
44.2576

>  <SCORE.INTRA.POLAR>
-0.512849

>  <SCORE.INTRA.POLAR.0>
-0.381556

>  <SCORE.INTRA.REPUL>
0.0987883

>  <SCORE.INTRA.REPUL.0>
0

>  <SCORE.INTRA.SOLV>
-1.14254

>  <SCORE.INTRA.SOLV.lig_0>
-134.592

>  <SCORE.INTRA.VDW>
1.82106

>  <SCORE.INTRA.VDW.0>
-1.01417

>  <SCORE.INTRA.norm>
-0.397205

>  <SCORE.RESTR>
7.38893

>  <SCORE.RESTR.CAVITY>
7.38893

>  <SCORE.RESTR.norm>
0.230904

>  <SCORE.SYSTEM>
0

>  <SCORE.SYSTEM.CONST>
0

>  <SCORE.SYSTEM.DIHEDRAL>
0

>  <SCORE.SYSTEM.SOLV>
0

>  <SCORE.SYSTEM.norm>
0

>  <SCORE.heavy>
32

>  <SCORE.norm>
-0.844077

>  <RMSD>
8.906

$$$$
1lc4
 OpenBabel02141814113D
libRbt.so/2013.1/901 2013/11/27
 32 34  0  0  0  0  0  0  0  0999 V2000
  -13.5357    1.0886   13.5855 C   0  0  2  0  0  0  0  0  0  0  0  0
  -13.5362    2.4395   13.1969 O   0  0  0  0  0  0  0  0  0  0  0  0
  -12.1101    0.7223   14.0464 C   0  0  2  0  0  0  0  0  0  0  0  0
  -11.6918    1.5920   15.1502 N   0  3  0  0  0  0  0  0  0  0  0  0
  -11.1269    0.8100   12.8554 C   0  0  0  0  0  0  0  0  0  0  0  0
  -11.6257   -0.1610   11.7710 C   0  0  2  0  0  0  0  0  0  0  0  0
  -10.7299   -0.1652   10.6544 O   0  0  0  0  0  0  0  0  0  0  0  0
  -13.0578    0.2439   11.3415 C   0  0  2  0  0  0  0  0  0  0  0  0
  -13.9515    0.2423   12.4910 O   0  0  0  0  0  0  0  0  0  0  0  0
  -13.6694   -0.6924   10.3022 C   0  0  0  0  0  0  0  0  0  0  0  0
  -12.9670   -0.5800    8.9970 N   0  3  0  0  0  0  0  0  0  0  0  0
  -16.1782    5.7527   13.1410 C   0  0  2  0  0  0  0  0  0  0  0  0
  -17.3827    6.5920   13.0055 N   0  3  0  0  0  0  0  0  0  0  0  0
  -15.8489    5.1007   11.8050 C   0  0  0  0  0  0  0  0  0  0  0  0
  -14.5997    4.2219   11.9338 C   0  0  2  0  0  0  0  0  0  0  0  0
  -14.2496    3.7047   10.5875 N   0  3  0  0  0  0  0  0  0  0  0  0
  -14.7967    3.1145   13.0119 C   0  0  2  0  0  0  0  0  0  0  0  0
  -15.1896    3.7711   14.3603 C   0  0  2  0  0  0  0  0  0  0  0  0
  -15.5273    2.7680   15.2877 O   0  0  0  0  0  0  0  0  0  0  0  0
  -16.4240    4.6718   14.1919 C   0  0  1  0  0  0  0  0  0  0  0  0
  -16.7279    5.2780   15.4476 O   0  0  0  0  0  0  0  0  0  0  0  0
  -17.8796    4.8566   16.0936 C   0  0  2  0  0  0  0  0  0  0  0  0
  -18.5741    6.0791   16.7176 C   0  0  2  0  0  0  0  0  0  0  0  0
  -18.8910    6.9997   15.6813 O   0  0  0  0  0  0  0  0  0  0  0  0
  -17.6304    6.7385   17.7385 C   0  0  1  0  0  0  0  0  0  0  0  0
  -18.2435    7.9461   18.3629 N   0  3  0  0  0  0  0  0  0  0  0  0
  -17.2445    5.7012   18.8211 C   0  0  2  0  0  0  0  0  0  0  0  0
  -16.3486    6.2773   19.7689 O   0  0  0  0  0  0  0  0  0  0  0  0
  -16.6142    4.4581   18.1661 C   0  0  2  0  0  0  0  0  0  0  0  0
  -17.5092    3.9112   17.1305 O   0  0  0  0  0  0  0  0  0  0  0  0
  -16.3638    3.3513   19.1662 C   0  0  0  0  0  0  0  0  0  0  0  0
  -15.7399    2.2231   18.5569 O   0  0  0  0  0  0  0  0  0  0  0  0
  1  2  1  6  0  0  0
  1  3  1  0  0  0  0
  1  9  1  0  0  0  0
  3  4  1  1  0  0  0
  3  5  1  0  0  0  0
  5  6  1  0  0  0  0
  6  7  1  6  0  0  0
  6  8  1  0  0  0  0
  8  9  1  0  0  0  0
  8 10  1  6  0  0  0
 10 11  1  0  0  0  0
 12 13  1  6  0  0  0
 12 14  1  0  0  0  0
 12 20  1  0  0  0  0
 14 15  1  0  0  0  0
 15 16  1  6  0  0  0
 15 17  1  0  0  0  0
 17  2  1  1  0  0  0
 17 18  1  0  0  0  0
 18 19  1  1  0  0  0
 18 20  1  0  0  0  0
 20 21  1  1  0  0  0
 22 21  1  1  0  0  0
 22 23  1  0  0  0  0
 22 30  1  0  0  0  0
 23 24  1  6  0  0  0
 23 25  1  0  0  0  0
 25 26  1  1  0  0  0
 25 27  1  0  0  0  0
 27 28  1  1  0  0  0
 27 29  1  0  0  0  0
 29 30  1  0  0  0  0
 29 31  1  1  0  0  0
 31 32  1  0  0  0  0
M  CHG  5   4   1  11   1  13   1  16   1  26   1
M  END
>  <CHROM.1>
-166.12591006,-150.52674598,57.42138153,-53.60936475,-68.15801596,-65.38099455
174.29866861,55.25221363,63.57626575,127.94497792,-139.82671032,80.44565162
67.62478897,61.67961010,-178.06938894,60.61425009,-15.18311102,3.42010103
14.48185988,-0.63744692,-0.86830394,1.65067738

>  <Name>
1lc4

>  <RI>
0

>  <Rbt.Current_Directory>
/home/afrankz/demos/rdock_decoys_rna/rnas/1lc4

>  <Rbt.Executable>
rbdock ($Id: //depot/dev/client3/rdock/2013.1/src/exe/rbdock.cxx#4 $)

>  <Rbt.Library>
libRbt.so (2013.1, Build901 2013/11/27)

>  <Rbt.Parameter_File>
/export/apps/rDock/src/rDock_2013.1_src/data/scripts/dock_solv.prm

>  <Rbt.Receptor>
prm/pocket_docking_8.prm

>  <SCORE>
-30.9411

>  <SCORE.INTER>
-9.75638

>  <SCORE.INTER.CONST>
1

>  <SCORE.INTER.POLAR>
-2.65973

>  <SCORE.INTER.ROT>
6

>  <SCORE.INTER.SOLV>
7.009

>  <SCORE.INTER.VDW>
-7.57481

>  <SCORE.INTER.norm>
-0.304887

>  <SCORE.INTRA>
-21.1971

>  <SCORE.INTRA.DIHEDRAL>
-24.6799

>  <SCORE.INTRA.DIHEDRAL.0>
44.2576

>  <SCORE.INTRA.POLAR>
-1.24675

>  <SCORE.INTRA.POLAR.0>
-0.381556

>  <SCORE.INTRA.REPUL>
0

>  <SCORE.INTRA.REPUL.0>
0

>  <SCORE.INTRA.SOLV>
0.4358

>  <SCORE.INTRA.SOLV.lig_0>
-134.592

>  <SCORE.INTRA.VDW>
-4.83613

>  <SCORE.INTRA.VDW.0>
-1.01417

>  <SCORE.INTRA.norm>
-0.662411

>  <SCORE.RESTR>
0.0124221

>  <SCORE.RESTR.CAVITY>
0.0124221

>  <SCORE.RESTR.norm>
0.00038819

>  <SCORE.SYSTEM>
0

>  <SCORE.SYSTEM.CONST>
0

>  <SCORE.SYSTEM.DIHEDRAL>
0

>  <SCORE.SYSTEM.SOLV>
0

>  <SCORE.SYSTEM.norm>
0

>  <SCORE.heavy>
32

>  <SCORE.norm>
-0.966909

>  <RMSD>
8.916

$$$$
1lc4
 OpenBabel02141814113D
libRbt.so/2013.1/901 2013/11/27
 32 34  0  0  0  0  0  0  0  0999 V2000
  -12.9235    4.4466   13.3470 C   0  0  2  0  0  0  0  0  0  0  0  0
  -13.0357    3.0891   13.6944 O   0  0  0  0  0  0  0  0  0  0  0  0
  -13.8890    4.7239   12.1766 C   0  0  2  0  0  0  0  0  0  0  0  0
  -15.2636    4.3859   12.5586 N   0  3  0  0  0  0  0  0  0  0  0  0
  -13.4430    3.9379   10.9213 C   0  0  0  0  0  0  0  0  0  0  0  0
  -12.0120    4.3875   10.5779 C   0  0  2  0  0  0  0  0  0  0  0  0
  -11.5536    3.7307    9.3913 O   0  0  0  0  0  0  0  0  0  0  0  0
  -11.0808    4.0916   11.7798 C   0  0  2  0  0  0  0  0  0  0  0  0
  -11.5650    4.7678   12.9750 O   0  0  0  0  0  0  0  0  0  0  0  0
   -9.6412    4.5510   11.5622 C   0  0  0  0  0  0  0  0  0  0  0  0
   -9.0715    3.9659   10.3201 N   0  3  0  0  0  0  0  0  0  0  0  0
  -12.2102    1.2200   17.4072 C   0  0  2  0  0  0  0  0  0  0  0  0
  -11.5096    0.6460   18.5706 N   0  3  0  0  0  0  0  0  0  0  0  0
  -11.8209    0.4641   16.1441 C   0  0  0  0  0  0  0  0  0  0  0  0
  -12.5404    1.0542   14.9262 C   0  0  2  0  0  0  0  0  0  0  0  0
  -12.2247    0.2154   13.7433 N   0  3  0  0  0  0  0  0  0  0  0  0
  -12.2016    2.5643   14.7468 C   0  0  2  0  0  0  0  0  0  0  0  0
  -12.5421    3.3282   16.0522 C   0  0  2  0  0  0  0  0  0  0  0  0
  -12.0853    4.6552   15.9499 O   0  0  0  0  0  0  0  0  0  0  0  0
  -11.8334    2.6929   17.2595 C   0  0  1  0  0  0  0  0  0  0  0  0
  -12.2011    3.4070   18.4391 O   0  0  0  0  0  0  0  0  0  0  0  0
  -11.1749    3.9306   19.2097 C   0  0  2  0  0  0  0  0  0  0  0  0
  -11.5833    3.8639   20.6913 C   0  0  2  0  0  0  0  0  0  0  0  0
  -11.8235    2.5053   21.0356 O   0  0  0  0  0  0  0  0  0  0  0  0
  -12.8588    4.6966   20.9089 C   0  0  1  0  0  0  0  0  0  0  0  0
  -13.3164    4.6521   22.3276 N   0  3  0  0  0  0  0  0  0  0  0  0
  -12.5968    6.1569   20.4660 C   0  0  2  0  0  0  0  0  0  0  0  0
  -13.7711    6.9482   20.6326 O   0  0  0  0  0  0  0  0  0  0  0  0
  -12.1234    6.1915   19.0009 C   0  0  2  0  0  0  0  0  0  0  0  0
  -10.9568    5.3100   18.8150 O   0  0  0  0  0  0  0  0  0  0  0  0
  -11.7046    7.5795   18.5695 C   0  0  0  0  0  0  0  0  0  0  0  0
  -12.7962    8.4958   18.6138 O   0  0  0  0  0  0  0  0  0  0  0  0
  1  2  1  6  0  0  0
  1  3  1  0  0  0  0
  1  9  1  0  0  0  0
  3  4  1  1  0  0  0
  3  5  1  0  0  0  0
  5  6  1  0  0  0  0
  6  7  1  6  0  0  0
  6  8  1  0  0  0  0
  8  9  1  0  0  0  0
  8 10  1  6  0  0  0
 10 11  1  0  0  0  0
 12 13  1  1  0  0  0
 12 14  1  0  0  0  0
 12 20  1  0  0  0  0
 14 15  1  0  0  0  0
 15 16  1  6  0  0  0
 15 17  1  0  0  0  0
 17  2  1  6  0  0  0
 17 18  1  0  0  0  0
 18 19  1  6  0  0  0
 18 20  1  0  0  0  0
 20 21  1  1  0  0  0
 22 21  1  6  0  0  0
 22 23  1  0  0  0  0
 22 30  1  0  0  0  0
 23 24  1  6  0  0  0
 23 25  1  0  0  0  0
 25 26  1  1  0  0  0
 25 27  1  0  0  0  0
 27 28  1  6  0  0  0
 27 29  1  0  0  0  0
 29 30  1  0  0  0  0
 29 31  1  1  0  0  0
 31 32  1  0  0  0  0
M  CHG  5   4   1  11   1  13   1  16   1  26   1
M  END
>  <CHROM.1>
178.28318380,179.56380883,-64.19549297,61.35483218,-55.24912014,-96.40566776
176.99929629,-79.73511747,-56.83099854,113.82562773,-145.69327591,170.95449944
-31.76762696,-64.91667624,-63.10074451,-61.71179532,-12.17484569,3.96456819
16.03197612,1.07453888,1.44570747,-1.21247178

>  <Name>
1lc4

>  <RI>
0

>  <Rbt.Current_Directory>
/home/afrankz/demos/rdock_decoys_rna/rnas/1lc4

>  <Rbt.Executable>
rbdock ($Id: //depot/dev/client3/rdock/2013.1/src/exe/rbdock.cxx#4 $)

>  <Rbt.Library>
libRbt.so (2013.1, Build901 2013/11/27)

>  <Rbt.Parameter_File>
/export/apps/rDock/src/rDock_2013.1_src/data/scripts/dock_solv.prm

>  <Rbt.Receptor>
prm/pocket_docking_7.prm

>  <SCORE>
-51.046

>  <SCORE.INTER>
-28.9276

>  <SCORE.INTER.CONST>
1

>  <SCORE.INTER.POLAR>
-5.46431

>  <SCORE.INTER.ROT>
6

>  <SCORE.INTER.SOLV>
14.1647

>  <SCORE.INTER.VDW>
-13.3923

>  <SCORE.INTER.norm>
-0.903988

>  <SCORE.INTRA>
-22.1183

>  <SCORE.INTRA.DIHEDRAL>
-27.0743

>  <SCORE.INTRA.DIHEDRAL.0>
44.2576

>  <SCORE.INTRA.POLAR>
-1.86487

>  <SCORE.INTRA.POLAR.0>
-0.381556

>  <SCORE.INTRA.REPUL>
0

>  <SCORE.INTRA.REPUL.0>
0

>  <SCORE.INTRA.SOLV>
-0.996659

>  <SCORE.INTRA.SOLV.lig_0>
-134.592

>  <SCORE.INTRA.VDW>
-1.7423

>  <SCORE.INTRA.VDW.0>
-1.01417

>  <SCORE.INTRA.norm>
-0.691198

>  <SCORE.RESTR>
0

>  <SCORE.RESTR.CAVITY>
0

>  <SCORE.RESTR.norm>
0

>  <SCORE.SYSTEM>
0

>  <SCORE.SYSTEM.CONST>
0

>  <SCORE.SYSTEM.DIHEDRAL>
0

>  <SCORE.SYSTEM.SOLV>
0

>  <SCORE.SYSTEM.norm>
0

>  <SCORE.heavy>
32

>  <SCORE.norm>
-1.59519

>  <RMSD>
8.927

$$$$
1lc4
 OpenBabel02141814113D
libRbt.so/2013.1/901 2013/11/27
 32 34  0  0  0  0  0  0  0  0999 V2000
  -17.1930    7.9121   16.1674 C   0  0  2  0  0  0  0  0  0  0  0  0
  -18.5254    8.3582   16.1282 O   0  0  0  0  0  0  0  0  0  0  0  0
  -16.6243    7.9725   14.7349 C   0  0  2  0  0  0  0  0  0  0  0  0
  -16.7113    9.3384   14.2091 N   0  3  0  0  0  0  0  0  0  0  0  0
  -17.3695    6.9688   13.8239 C   0  0  0  0  0  0  0  0  0  0  0  0
  -17.1884    5.5677   14.4336 C   0  0  2  0  0  0  0  0  0  0  0  0
  -17.8161    4.5797   13.6094 O   0  0  0  0  0  0  0  0  0  0  0  0
  -17.7711    5.5553   15.8688 C   0  0  2  0  0  0  0  0  0  0  0  0
  -17.1200    6.5669   16.6891 O   0  0  0  0  0  0  0  0  0  0  0  0
  -17.5934    4.2197   16.5866 C   0  0  0  0  0  0  0  0  0  0  0  0
  -16.1549    3.9045   16.7888 N   0  3  0  0  0  0  0  0  0  0  0  0
  -20.4766   11.7038   17.8487 C   0  0  2  0  0  0  0  0  0  0  0  0
  -21.0360   12.6638   18.8178 N   0  3  0  0  0  0  0  0  0  0  0  0
  -21.1360   10.3432   18.0288 C   0  0  0  0  0  0  0  0  0  0  0  0
  -20.5599    9.3347   17.0287 C   0  0  2  0  0  0  0  0  0  0  0  0
  -21.3121    8.0621   17.1603 N   0  3  0  0  0  0  0  0  0  0  0  0
  -19.0186    9.1860   17.2007 C   0  0  2  0  0  0  0  0  0  0  0  0
  -18.3487   10.5786   17.0762 C   0  0  2  0  0  0  0  0  0  0  0  0
  -16.9822   10.4701   17.3940 O   0  0  0  0  0  0  0  0  0  0  0  0
  -18.9703   11.5761   18.0672 C   0  0  1  0  0  0  0  0  0  0  0  0
  -18.3468   12.8480   17.8943 O   0  0  0  0  0  0  0  0  0  0  0  0
  -18.1833   13.6336   19.0246 C   0  0  2  0  0  0  0  0  0  0  0  0
  -17.9833   15.0951   18.5884 C   0  0  2  0  0  0  0  0  0  0  0  0
  -19.1272   15.5102   17.8526 O   0  0  0  0  0  0  0  0  0  0  0  0
  -16.7245   15.1996   17.7097 C   0  0  1  0  0  0  0  0  0  0  0  0
  -16.4905   16.5947   17.2375 N   0  3  0  0  0  0  0  0  0  0  0  0
  -15.5019   14.6810   18.5056 C   0  0  2  0  0  0  0  0  0  0  0  0
  -14.3227   14.7421   17.7067 O   0  0  0  0  0  0  0  0  0  0  0  0
  -15.7544   13.2411   18.9899 C   0  0  2  0  0  0  0  0  0  0  0  0
  -17.0158   13.1659   19.7486 O   0  0  0  0  0  0  0  0  0  0  0  0
  -14.6559   12.7460   19.9043 C   0  0  0  0  0  0  0  0  0  0  0  0
  -14.5064   13.5840   21.0483 O   0  0  0  0  0  0  0  0  0  0  0  0
  1  2  1  6  0  0  0
  1  3  1  0  0  0  0
  1  9  1  0  0  0  0
  3  4  1  6  0  0  0
  3  5  1  0  0  0  0
  5  6  1  0  0  0  0
  6  7  1  6  0  0  0
  6  8  1  0  0  0  0
  8  9  1  0  0  0  0
  8 10  1  1  0  0  0
 10 11  1  0  0  0  0
 12 13  1  1  0  0  0
 12 14  1  0  0  0  0
 12 20  1  0  0  0  0
 14 15  1  0  0  0  0
 15 16  1  1  0  0  0
 15 17  1  0  0  0  0
 17  2  1  6  0  0  0
 17 18  1  0  0  0  0
 18 19  1  1  0  0  0
 18 20  1  0  0  0  0
 20 21  1  6  0  0  0
 22 21  1  6  0  0  0
 22 23  1  0  0  0  0
 22 30  1  0  0  0  0
 23 24  1  6  0  0  0
 23 25  1  0  0  0  0
 25 26  1  1  0  0  0
 25 27  1  0  0  0  0
 27 28  1  6  0  0  0
 27 29  1  0  0  0  0
 29 30  1  0  0  0  0
 29 31  1  1  0  0  0
 31 32  1  0  0  0  0
M  CHG  5   4   1  11   1  13   1  16   1  26   1
M  END
>  <CHROM.1>
-140.75626980,-170.78209937,-41.83712592,177.24977531,63.55220915,-178.24772380
66.02424159,166.51623674,-58.34976043,92.07885689,-159.90730624,66.59610690
-176.50481625,73.25799672,58.21400711,-174.81678549,-17.68165388,10.51352787
17.25414033,-1.66064990,0.01882499,0.35369017

>  <Name>
1lc4

>  <RI>
0

>  <Rbt.Current_Directory>
/home/afrankz/demos/rdock_decoys_rna/rnas/1lc4

>  <Rbt.Executable>
rbdock ($Id: //depot/dev/client3/rdock/2013.1/src/exe/rbdock.cxx#4 $)

>  <Rbt.Library>
libRbt.so (2013.1, Build901 2013/11/27)

>  <Rbt.Parameter_File>
/export/apps/rDock/src/rDock_2013.1_src/data/scripts/dock_solv.prm

>  <Rbt.Receptor>
prm/pocket_docking_8.prm

>  <SCORE>
-45.5385

>  <SCORE.INTER>
-27.9078

>  <SCORE.INTER.CONST>
1

>  <SCORE.INTER.POLAR>
-4.91166

>  <SCORE.INTER.ROT>
6

>  <SCORE.INTER.SOLV>
21.6303

>  <SCORE.INTER.VDW>
-17.0431

>  <SCORE.INTER.norm>
-0.87212

>  <SCORE.INTRA>
-17.6307

>  <SCORE.INTRA.DIHEDRAL>
-30.0868

>  <SCORE.INTRA.DIHEDRAL.0>
44.2576

>  <SCORE.INTRA.POLAR>
0.350314

>  <SCORE.INTRA.POLAR.0>
-0.381556

>  <SCORE.INTRA.REPUL>
0

>  <SCORE.INTRA.REPUL.0>
0

>  <SCORE.INTRA.SOLV>
-0.316063

>  <SCORE.INTRA.SOLV.lig_0>
-134.592

>  <SCORE.INTRA.VDW>
-3.62031

>  <SCORE.INTRA.VDW.0>
-1.01417

>  <SCORE.INTRA.norm>
-0.550959

>  <SCORE.RESTR>
0

>  <SCORE.RESTR.CAVITY>
0

>  <SCORE.RESTR.norm>
0

>  <SCORE.SYSTEM>
0

>  <SCORE.SYSTEM.CONST>
0

>  <SCORE.SYSTEM.DIHEDRAL>
0

>  <SCORE.SYSTEM.SOLV>
0

>  <SCORE.SYSTEM.norm>
0

>  <SCORE.heavy>
32

>  <SCORE.norm>
-1.42308

>  <RMSD>
8.975

$$$$
1lc4
 OpenBabel02141814113D
libRbt.so/2013.1/901 2013/11/27
 32 34  0  0  0  0  0  0  0  0999 V2000
   -9.0337    2.8069   13.6787 C   0  0  2  0  0  0  0  0  0  0  0  0
   -9.7879    3.1791   14.8051 O   0  0  0  0  0  0  0  0  0  0  0  0
   -7.6398    3.4562   13.7985 C   0  0  2  0  0  0  0  0  0  0  0  0
   -6.9846    3.0317   15.0396 N   0  3  0  0  0  0  0  0  0  0  0  0
   -7.7621    4.9963   13.7233 C   0  0  0  0  0  0  0  0  0  0  0  0
   -8.4214    5.3432   12.3770 C   0  0  2  0  0  0  0  0  0  0  0  0
   -8.5211    6.7627   12.2210 O   0  0  0  0  0  0  0  0  0  0  0  0
   -9.8143    4.6699   12.3012 C   0  0  2  0  0  0  0  0  0  0  0  0
   -9.6902    3.2281   12.4627 O   0  0  0  0  0  0  0  0  0  0  0  0
  -10.5344    4.9079   10.9763 C   0  0  0  0  0  0  0  0  0  0  0  0
  -11.8085    5.6458   11.1811 N   0  3  0  0  0  0  0  0  0  0  0  0
  -12.5065    0.8683   17.0918 C   0  0  2  0  0  0  0  0  0  0  0  0
  -13.0774   -0.1143   18.0312 N   0  3  0  0  0  0  0  0  0  0  0  0
  -11.7238    0.1481   16.0022 C   0  0  0  0  0  0  0  0  0  0  0  0
  -11.1218    1.1597   15.0207 C   0  0  2  0  0  0  0  0  0  0  0  0
  -10.4721    0.4114   13.9159 N   0  3  0  0  0  0  0  0  0  0  0  0
  -10.1813    2.1645   15.7509 C   0  0  2  0  0  0  0  0  0  0  0  0
  -10.9586    2.8576   16.8994 C   0  0  2  0  0  0  0  0  0  0  0  0
  -10.0697    3.6392   17.6603 O   0  0  0  0  0  0  0  0  0  0  0  0
  -11.5785    1.8177   17.8469 C   0  0  1  0  0  0  0  0  0  0  0  0
  -12.3088    2.4993   18.8662 O   0  0  0  0  0  0  0  0  0  0  0  0
  -12.3210    1.9270   20.1286 C   0  0  2  0  0  0  0  0  0  0  0  0
  -13.7539    1.9841   20.6854 C   0  0  2  0  0  0  0  0  0  0  0  0
  -14.6123    1.2702   19.8048 O   0  0  0  0  0  0  0  0  0  0  0  0
  -14.2054    3.4516   20.7875 C   0  0  1  0  0  0  0  0  0  0  0  0
  -15.5999    3.5694   21.3030 N   0  3  0  0  0  0  0  0  0  0  0  0
  -13.2206    4.2266   21.6966 C   0  0  2  0  0  0  0  0  0  0  0  0
  -13.5998    5.5978   21.7899 O   0  0  0  0  0  0  0  0  0  0  0  0
  -11.7842    4.0972   21.1568 C   0  0  2  0  0  0  0  0  0  0  0  0
  -11.4233    2.6783   20.9863 O   0  0  0  0  0  0  0  0  0  0  0  0
  -10.7653    4.7049   22.0951 C   0  0  0  0  0  0  0  0  0  0  0  0
   -9.5233    4.9468   21.4375 O   0  0  0  0  0  0  0  0  0  0  0  0
  1  2  1  1  0  0  0
  1  3  1  0  0  0  0
  1  9  1  0  0  0  0
  3  4  1  1  0  0  0
  3  5  1  0  0  0  0
  5  6  1  0  0  0  0
  6  7  1  1  0  0  0
  6  8  1  0  0  0  0
  8  9  1  0  0  0  0
  8 10  1  6  0  0  0
 10 11  1  0  0  0  0
 12 13  1  1  0  0  0
 12 14  1  0  0  0  0
 12 20  1  0  0  0  0
 14 15  1  0  0  0  0
 15 16  1  6  0  0  0
 15 17  1  0  0  0  0
 17  2  1  6  0  0  0
 17 18  1  0  0  0  0
 18 19  1  1  0  0  0
 18 20  1  0  0  0  0
 20 21  1  1  0  0  0
 22 21  1  6  0  0  0
 22 23  1  0  0  0  0
 22 30  1  0  0  0  0
 23 24  1  6  0  0  0
 23 25  1  0  0  0  0
 25 26  1  1  0  0  0
 25 27  1  0  0  0  0
 27 28  1  6  0  0  0
 27 29  1  0  0  0  0
 29 30  1  0  0  0  0
 29 31  1  1  0  0  0
 31 32  1  0  0  0  0
M  CHG  5   4   1  11   1  13   1  16   1  26   1
M  END
>  <CHROM.1>
-114.21371999,-63.28186631,173.72866984,169.77984805,-118.19629024,-179.33013307
72.62106360,163.20915637,-61.03837890,92.26000663,-135.98732828,-79.81406640
-178.92121576,175.84349169,-162.42971226,-54.88849543,-11.10198732,3.20445322
16.93519125,0.81916723,-0.91243361,-2.08617708

>  <Name>
1lc4

>  <RI>
0

>  <Rbt.Current_Directory>
/home/afrankz/demos/rdock_decoys_rna/rnas/1lc4

>  <Rbt.Executable>
rbdock ($Id: //depot/dev/client3/rdock/2013.1/src/exe/rbdock.cxx#4 $)

>  <Rbt.Library>
libRbt.so (2013.1, Build901 2013/11/27)

>  <Rbt.Parameter_File>
/export/apps/rDock/src/rDock_2013.1_src/data/scripts/dock_solv.prm

>  <Rbt.Receptor>
prm/blind_docking_100.prm

>  <SCORE>
-40.1174

>  <SCORE.INTER>
-29.8408

>  <SCORE.INTER.CONST>
1

>  <SCORE.INTER.POLAR>
-4.33923

>  <SCORE.INTER.ROT>
6

>  <SCORE.INTER.SOLV>
19.2404

>  <SCORE.INTER.VDW>
-19.4432

>  <SCORE.INTER.norm>
-0.932526

>  <SCORE.INTRA>
-12.7896

>  <SCORE.INTRA.DIHEDRAL>
-17.136

>  <SCORE.INTRA.DIHEDRAL.0>
44.2576

>  <SCORE.INTRA.POLAR>
-0.844355

>  <SCORE.INTRA.POLAR.0>
-0.381556

>  <SCORE.INTRA.REPUL>
0

>  <SCORE.INTRA.REPUL.0>
0

>  <SCORE.INTRA.SOLV>
0.0312394

>  <SCORE.INTRA.SOLV.lig_0>
-134.592

>  <SCORE.INTRA.VDW>
-1.36639

>  <SCORE.INTRA.VDW.0>
-1.01417

>  <SCORE.INTRA.norm>
-0.399674

>  <SCORE.RESTR>
2.51298

>  <SCORE.RESTR.CAVITY>
2.51298

>  <SCORE.RESTR.norm>
0.0785307

>  <SCORE.SYSTEM>
0

>  <SCORE.SYSTEM.CONST>
0

>  <SCORE.SYSTEM.DIHEDRAL>
0

>  <SCORE.SYSTEM.SOLV>
0

>  <SCORE.SYSTEM.norm>
0

>  <SCORE.heavy>
32

>  <SCORE.norm>
-1.25367

>  <RMSD>
8.995

$$$$
1lc4
 OpenBabel02141814113D
libRbt.so/2013.1/901 2013/11/27
 32 34  0  0  0  0  0  0  0  0999 V2000
  -12.3190    9.3195   18.6248 C   0  0  2  0  0  0  0  0  0  0  0  0
  -13.0091    8.1977   19.1159 O   0  0  0  0  0  0  0  0  0  0  0  0
  -12.5065   10.4755   19.6285 C   0  0  2  0  0  0  0  0  0  0  0  0
  -12.0120   10.0862   20.9527 N   0  3  0  0  0  0  0  0  0  0  0  0
  -13.9938   10.8967   19.6832 C   0  0  0  0  0  0  0  0  0  0  0  0
  -14.4068   11.3228   18.2634 C   0  0  2  0  0  0  0  0  0  0  0  0
  -15.7658   11.7726   18.2527 O   0  0  0  0  0  0  0  0  0  0  0  0
  -14.2004   10.1337   17.2923 C   0  0  2  0  0  0  0  0  0  0  0  0
  -12.8132    9.6919   17.3193 O   0  0  0  0  0  0  0  0  0  0  0  0
  -14.5315   10.4689   15.8402 C   0  0  0  0  0  0  0  0  0  0  0  0
  -14.5970    9.2405   15.0058 N   0  3  0  0  0  0  0  0  0  0  0  0
  -11.6795    4.8288   21.3165 C   0  0  2  0  0  0  0  0  0  0  0  0
  -11.0023    3.5786   21.7067 N   0  3  0  0  0  0  0  0  0  0  0  0
  -12.6045    4.5693   20.1353 C   0  0  0  0  0  0  0  0  0  0  0  0
  -13.3121    5.8632   19.7176 C   0  0  2  0  0  0  0  0  0  0  0  0
  -14.2870    5.5396   18.6464 N   0  3  0  0  0  0  0  0  0  0  0  0
  -12.2851    6.9699   19.3331 C   0  0  2  0  0  0  0  0  0  0  0  0
  -11.3043    7.1960   20.5124 C   0  0  2  0  0  0  0  0  0  0  0  0
  -10.2807    8.0725   20.1076 O   0  0  0  0  0  0  0  0  0  0  0  0
  -10.6366    5.8758   20.9303 C   0  0  1  0  0  0  0  0  0  0  0  0
   -9.7700    6.1265   22.0362 O   0  0  0  0  0  0  0  0  0  0  0  0
   -8.4193    6.2758   21.7629 C   0  0  2  0  0  0  0  0  0  0  0  0
   -7.6103    5.5291   22.8372 C   0  0  2  0  0  0  0  0  0  0  0  0
   -7.9768    4.1555   22.8090 O   0  0  0  0  0  0  0  0  0  0  0  0
   -7.9191    6.1291   24.2201 C   0  0  1  0  0  0  0  0  0  0  0  0
   -7.1770    5.4291   25.3079 N   0  3  0  0  0  0  0  0  0  0  0  0
   -7.5757    7.6387   24.2097 C   0  0  2  0  0  0  0  0  0  0  0  0
   -7.8757    8.2284   25.4727 O   0  0  0  0  0  0  0  0  0  0  0  0
   -8.3454    8.3516   23.0823 C   0  0  2  0  0  0  0  0  0  0  0  0
   -8.0953    7.6902   21.7890 O   0  0  0  0  0  0  0  0  0  0  0  0
   -7.9257    9.7969   22.9305 C   0  0  0  0  0  0  0  0  0  0  0  0
   -8.3484   10.5865   24.0401 O   0  0  0  0  0  0  0  0  0  0  0  0
  1  2  1  1  0  0  0
  1  3  1  0  0  0  0
  1  9  1  0  0  0  0
  3  4  1  1  0  0  0
  3  5  1  0  0  0  0
  5  6  1  0  0  0  0
  6  7  1  1  0  0  0
  6  8  1  0  0  0  0
  8  9  1  0  0  0  0
  8 10  1  6  0  0  0
 10 11  1  0  0  0  0
 12 13  1  6  0  0  0
 12 14  1  0  0  0  0
 12 20  1  0  0  0  0
 14 15  1  0  0  0  0
 15 16  1  6  0  0  0
 15 17  1  0  0  0  0
 17  2  1  1  0  0  0
 17 18  1  0  0  0  0
 18 19  1  6  0  0  0
 18 20  1  0  0  0  0
 20 21  1  1  0  0  0
 22 21  1  1  0  0  0
 22 23  1  0  0  0  0
 22 30  1  0  0  0  0
 23 24  1  1  0  0  0
 23 25  1  0  0  0  0
 25 26  1  1  0  0  0
 25 27  1  0  0  0  0
 27 28  1  1  0  0  0
 27 29  1  0  0  0  0
 29 30  1  0  0  0  0
 29 31  1  6  0  0  0
 31 32  1  0  0  0  0
M  CHG  5   4   1  11   1  13   1  16   1  26   1
M  END
>  <CHROM.1>
-122.80359564,-173.64653657,63.15300030,173.93282233,-167.95590200,-48.27342460
41.57613140,-174.08918566,-174.55070195,139.27215605,-138.22325597,171.01489299
-178.28858791,-54.97003491,-69.30646384,-157.44118239,-11.07307206,7.80935079
20.73511314,-2.79375821,0.78773897,-3.12500617

>  <Name>
1lc4

>  <RI>
0

>  <Rbt.Current_Directory>
/home/afrankz/demos/rdock_decoys_rna/rnas/1lc4

>  <Rbt.Executable>
rbdock ($Id: //depot/dev/client3/rdock/2013.1/src/exe/rbdock.cxx#4 $)

>  <Rbt.Library>
libRbt.so (2013.1, Build901 2013/11/27)

>  <Rbt.Parameter_File>
/export/apps/rDock/src/rDock_2013.1_src/data/scripts/dock_solv.prm

>  <Rbt.Receptor>
prm/blind_docking_60.prm

>  <SCORE>
-32.2882

>  <SCORE.INTER>
-25.4924

>  <SCORE.INTER.CONST>
1

>  <SCORE.INTER.POLAR>
-3.25749

>  <SCORE.INTER.ROT>
6

>  <SCORE.INTER.SOLV>
24.4216

>  <SCORE.INTER.VDW>
-21.8772

>  <SCORE.INTER.norm>
-0.796637

>  <SCORE.INTRA>
-16.981

>  <SCORE.INTRA.DIHEDRAL>
-20.5027

>  <SCORE.INTRA.DIHEDRAL.0>
44.2576

>  <SCORE.INTRA.POLAR>
-1.12614

>  <SCORE.INTRA.POLAR.0>
-0.381556

>  <SCORE.INTRA.REPUL>
0

>  <SCORE.INTRA.REPUL.0>
0

>  <SCORE.INTRA.SOLV>
-0.0416723

>  <SCORE.INTRA.SOLV.lig_0>
-134.592

>  <SCORE.INTRA.VDW>
-2.87989

>  <SCORE.INTRA.VDW.0>
-1.01417

>  <SCORE.INTRA.norm>
-0.530655

>  <SCORE.RESTR>
10.1852

>  <SCORE.RESTR.CAVITY>
10.1852

>  <SCORE.RESTR.norm>
0.318286

>  <SCORE.SYSTEM>
0

>  <SCORE.SYSTEM.CONST>
0

>  <SCORE.SYSTEM.DIHEDRAL>
0

>  <SCORE.SYSTEM.SOLV>
0

>  <SCORE.SYSTEM.norm>
0

>  <SCORE.heavy>
32

>  <SCORE.norm>
-1.00901

>  <RMSD>
9.030

$$$$
1lc4
 OpenBabel02141814113D
libRbt.so/2013.1/901 2013/11/27
 32 34  0  0  0  0  0  0  0  0999 V2000
   -8.9048    2.8037   13.6567 C   0  0  2  0  0  0  0  0  0  0  0  0
   -9.6312    3.1861   14.7978 O   0  0  0  0  0  0  0  0  0  0  0  0
   -7.4990    3.4315   13.7499 C   0  0  2  0  0  0  0  0  0  0  0  0
   -6.8265    2.9958   14.9777 N   0  3  0  0  0  0  0  0  0  0  0  0
   -7.5992    4.9734   13.6784 C   0  0  0  0  0  0  0  0  0  0  0  0
   -8.2790    5.3318   12.3454 C   0  0  2  0  0  0  0  0  0  0  0  0
   -8.3601    6.7528   12.1925 O   0  0  0  0  0  0  0  0  0  0  0  0
   -9.6834    4.6800   12.2961 C   0  0  2  0  0  0  0  0  0  0  0  0
   -9.5782    3.2363   12.4539 O   0  0  0  0  0  0  0  0  0  0  0  0
  -10.4253    4.9305   10.9856 C   0  0  0  0  0  0  0  0  0  0  0  0
  -11.8201    5.3805   11.2342 N   0  3  0  0  0  0  0  0  0  0  0  0
  -12.5602    1.1155   17.0545 C   0  0  2  0  0  0  0  0  0  0  0  0
  -13.2293    0.1524   17.9483 N   0  3  0  0  0  0  0  0  0  0  0  0
  -11.9438    0.3814   15.8715 C   0  0  0  0  0  0  0  0  0  0  0  0
  -11.2416    1.3720   14.9362 C   0  0  2  0  0  0  0  0  0  0  0  0
  -10.7614    0.6309   13.7434 N   0  3  0  0  0  0  0  0  0  0  0  0
  -10.1294    2.1651   15.6855 C   0  0  2  0  0  0  0  0  0  0  0  0
  -10.7419    2.8669   16.9249 C   0  0  2  0  0  0  0  0  0  0  0  0
   -9.7127    3.4450   17.6908 O   0  0  0  0  0  0  0  0  0  0  0  0
  -11.4675    1.8538   17.8251 C   0  0  1  0  0  0  0  0  0  0  0  0
  -12.0411    2.5480   18.9323 O   0  0  0  0  0  0  0  0  0  0  0  0
  -11.7122    2.0994   20.2019 C   0  0  2  0  0  0  0  0  0  0  0  0
  -13.0072    1.8926   21.0060 C   0  0  2  0  0  0  0  0  0  0  0  0
  -13.8132    0.9351   20.3310 O   0  0  0  0  0  0  0  0  0  0  0  0
  -13.7595    3.2302   21.1180 C   0  0  1  0  0  0  0  0  0  0  0  0
  -15.0384    3.0872   21.8717 N   0  3  0  0  0  0  0  0  0  0  0  0
  -12.8416    4.2770   21.7952 C   0  0  2  0  0  0  0  0  0  0  0  0
  -13.5039    5.5360   21.8900 O   0  0  0  0  0  0  0  0  0  0  0  0
  -11.5238    4.4158   21.0105 C   0  0  2  0  0  0  0  0  0  0  0  0
  -10.8809    3.0997   20.8455 O   0  0  0  0  0  0  0  0  0  0  0  0
  -10.5300    5.3099   21.7182 C   0  0  0  0  0  0  0  0  0  0  0  0
   -9.2625    5.3080   21.0648 O   0  0  0  0  0  0  0  0  0  0  0  0
  1  2  1  1  0  0  0
  1  3  1  0  0  0  0
  1  9  1  0  0  0  0
  3  4  1  1  0  0  0
  3  5  1  0  0  0  0
  5  6  1  0  0  0  0
  6  7  1  1  0  0  0
  6  8  1  0  0  0  0
  8  9  1  0  0  0  0
  8 10  1  6  0  0  0
 10 11  1  0  0  0  0
 12 13  1  1  0  0  0
 12 14  1  0  0  0  0
 12 20  1  0  0  0  0
 14 15  1  0  0  0  0
 15 16  1  6  0  0  0
 15 17  1  0  0  0  0
 17  2  1  6  0  0  0
 17 18  1  0  0  0  0
 18 19  1  1  0  0  0
 18 20  1  0  0  0  0
 20 21  1  1  0  0  0
 22 21  1  6  0  0  0
 22 23  1  0  0  0  0
 22 30  1  0  0  0  0
 23 24  1  6  0  0  0
 23 25  1  0  0  0  0
 25 26  1  1  0  0  0
 25 27  1  0  0  0  0
 27 28  1  6  0  0  0
 27 29  1  0  0  0  0
 29 30  1  0  0  0  0
 29 31  1  1  0  0  0
 31 32  1  0  0  0  0
M  CHG  5   4   1  11   1  13   1  16   1  26   1
M  END
>  <CHROM.1>
-119.95671874,-68.01058203,-62.62828921,170.11560525,-132.13877762,-48.07305381
-51.11149663,49.29346420,68.73498612,112.50730136,-129.10837994,73.20538597
50.39453762,-179.43369308,173.22789180,64.74873259,-10.89983125,3.24794983
16.94547504,0.90955161,-0.88425447,-1.99546986

>  <Name>
1lc4

>  <RI>
0

>  <Rbt.Current_Directory>
/home/afrankz/demos/rdock_decoys_rna/rnas/1lc4

>  <Rbt.Executable>
rbdock ($Id: //depot/dev/client3/rdock/2013.1/src/exe/rbdock.cxx#4 $)

>  <Rbt.Library>
libRbt.so (2013.1, Build901 2013/11/27)

>  <Rbt.Parameter_File>
/export/apps/rDock/src/rDock_2013.1_src/data/scripts/dock_solv.prm

>  <Rbt.Receptor>
prm/blind_docking_100.prm

>  <SCORE>
-41.2891

>  <SCORE.INTER>
-28.3768

>  <SCORE.INTER.CONST>
1

>  <SCORE.INTER.POLAR>
-4.05016

>  <SCORE.INTER.ROT>
6

>  <SCORE.INTER.SOLV>
19.8194

>  <SCORE.INTER.VDW>
-19.6238

>  <SCORE.INTER.norm>
-0.886774

>  <SCORE.INTRA>
-15.0584

>  <SCORE.INTRA.DIHEDRAL>
-15.2003

>  <SCORE.INTRA.DIHEDRAL.0>
44.2576

>  <SCORE.INTRA.POLAR>
-1.591

>  <SCORE.INTRA.POLAR.0>
-0.381556

>  <SCORE.INTRA.REPUL>
0

>  <SCORE.INTRA.REPUL.0>
0

>  <SCORE.INTRA.SOLV>
0.0714698

>  <SCORE.INTRA.SOLV.lig_0>
-134.592

>  <SCORE.INTRA.VDW>
-2.0846

>  <SCORE.INTRA.VDW.0>
-1.01417

>  <SCORE.INTRA.norm>
-0.470576

>  <SCORE.RESTR>
2.14614

>  <SCORE.RESTR.CAVITY>
2.14614

>  <SCORE.RESTR.norm>
0.0670669

>  <SCORE.SYSTEM>
0

>  <SCORE.SYSTEM.CONST>
0

>  <SCORE.SYSTEM.DIHEDRAL>
0

>  <SCORE.SYSTEM.SOLV>
0

>  <SCORE.SYSTEM.norm>
0

>  <SCORE.heavy>
32

>  <SCORE.norm>
-1.29028

>  <RMSD>
9.038

$$$$
1lc4
 OpenBabel02141814113D
libRbt.so/2013.1/901 2013/11/27
 32 34  0  0  0  0  0  0  0  0999 V2000
  -12.9036    7.9597   13.4348 C   0  0  2  0  0  0  0  0  0  0  0  0
  -12.6575    7.2352   14.6140 O   0  0  0  0  0  0  0  0  0  0  0  0
  -13.6970    9.2286   13.8079 C   0  0  2  0  0  0  0  0  0  0  0  0
  -12.9466   10.0325   14.7776 N   0  3  0  0  0  0  0  0  0  0  0  0
  -15.0917    8.8427   14.3542 C   0  0  0  0  0  0  0  0  0  0  0  0
  -15.8129    8.0404   13.2569 C   0  0  2  0  0  0  0  0  0  0  0  0
  -17.1348    7.6913   13.6810 O   0  0  0  0  0  0  0  0  0  0  0  0
  -14.9807    6.7796   12.9146 C   0  0  2  0  0  0  0  0  0  0  0  0
  -13.6411    7.1569   12.4867 O   0  0  0  0  0  0  0  0  0  0  0  0
  -15.5843    5.9375   11.7934 C   0  0  0  0  0  0  0  0  0  0  0  0
  -15.8015    6.7498   10.5675 N   0  3  0  0  0  0  0  0  0  0  0  0
   -9.4968    4.4491   15.0692 C   0  0  2  0  0  0  0  0  0  0  0  0
   -8.6937    3.2129   15.0432 N   0  3  0  0  0  0  0  0  0  0  0  0
  -10.7381    4.2417   15.9263 C   0  0  0  0  0  0  0  0  0  0  0  0
  -11.5839    5.5195   15.9583 C   0  0  2  0  0  0  0  0  0  0  0  0
  -12.7148    5.3098   16.8961 N   0  3  0  0  0  0  0  0  0  0  0  0
  -12.0151    5.9477   14.5237 C   0  0  2  0  0  0  0  0  0  0  0  0
  -10.7567    6.1031   13.6314 C   0  0  2  0  0  0  0  0  0  0  0  0
  -11.1527    6.3275   12.2999 O   0  0  0  0  0  0  0  0  0  0  0  0
   -9.9123    4.8186   13.6466 C   0  0  1  0  0  0  0  0  0  0  0  0
   -8.7520    5.0193   12.8404 O   0  0  0  0  0  0  0  0  0  0  0  0
   -7.7357    5.7968   13.3732 C   0  0  2  0  0  0  0  0  0  0  0  0
   -7.0829    6.6054   12.2391 C   0  0  2  0  0  0  0  0  0  0  0  0
   -8.0758    7.4256   11.6361 O   0  0  0  0  0  0  0  0  0  0  0  0
   -6.4919    5.6401   11.1966 C   0  0  1  0  0  0  0  0  0  0  0  0
   -5.8620    6.3692   10.0583 N   0  3  0  0  0  0  0  0  0  0  0  0
   -5.4623    4.7120   11.8862 C   0  0  2  0  0  0  0  0  0  0  0  0
   -4.9153    3.7879   10.9484 O   0  0  0  0  0  0  0  0  0  0  0  0
   -6.1221    3.9655   13.0606 C   0  0  2  0  0  0  0  0  0  0  0  0
   -6.7558    4.9203   13.9877 O   0  0  0  0  0  0  0  0  0  0  0  0
   -5.1200    3.1657   13.8632 C   0  0  0  0  0  0  0  0  0  0  0  0
   -5.4443    1.7772   13.8754 O   0  0  0  0  0  0  0  0  0  0  0  0
  1  2  1  1  0  0  0
  1  3  1  0  0  0  0
  1  9  1  0  0  0  0
  3  4  1  1  0  0  0
  3  5  1  0  0  0  0
  5  6  1  0  0  0  0
  6  7  1  1  0  0  0
  6  8  1  0  0  0  0
  8  9  1  0  0  0  0
  8 10  1  6  0  0  0
 10 11  1  0  0  0  0
 12 13  1  6  0  0  0
 12 14  1  0  0  0  0
 12 20  1  0  0  0  0
 14 15  1  0  0  0  0
 15 16  1  1  0  0  0
 15 17  1  0  0  0  0
 17  2  1  1  0  0  0
 17 18  1  0  0  0  0
 18 19  1  6  0  0  0
 18 20  1  0  0  0  0
 20 21  1  6  0  0  0
 22 21  1  6  0  0  0
 22 23  1  0  0  0  0
 22 30  1  0  0  0  0
 23 24  1  6  0  0  0
 23 25  1  0  0  0  0
 25 26  1  6  0  0  0
 25 27  1  0  0  0  0
 27 28  1  6  0  0  0
 27 29  1  0  0  0  0
 29 30  1  0  0  0  0
 29 31  1  1  0  0  0
 31 32  1  0  0  0  0
M  CHG  5   4   1  11   1  13   1  16   1  26   1
M  END
>  <CHROM.1>
175.32622286,167.62169717,-157.75848812,-51.99717830,55.39285668,116.46681525
167.25466871,-161.04384554,-169.15384730,-46.37903260,-144.82126353,-76.85183308
85.08712148,-173.49776352,-120.49140828,-76.53107832,-10.46430681,5.95044293
13.34085881,-3.03282204,-0.35829771,2.12506653

>  <Name>
1lc4

>  <RI>
0

>  <Rbt.Current_Directory>
/home/afrankz/demos/rdock_decoys_rna/rnas/1lc4

>  <Rbt.Executable>
rbdock ($Id: //depot/dev/client3/rdock/2013.1/src/exe/rbdock.cxx#4 $)

>  <Rbt.Library>
libRbt.so (2013.1, Build901 2013/11/27)

>  <Rbt.Parameter_File>
/export/apps/rDock/src/rDock_2013.1_src/data/scripts/dock_solv.prm

>  <Rbt.Receptor>
prm/blind_docking_80.prm

>  <SCORE>
-36.3825

>  <SCORE.INTER>
-37.3878

>  <SCORE.INTER.CONST>
1

>  <SCORE.INTER.POLAR>
-6.73066

>  <SCORE.INTER.ROT>
6

>  <SCORE.INTER.SOLV>
37.1154

>  <SCORE.INTER.VDW>
-22.4615

>  <SCORE.INTER.norm>
-1.16837

>  <SCORE.INTRA>
-8.30777

>  <SCORE.INTRA.DIHEDRAL>
-21.6836

>  <SCORE.INTRA.DIHEDRAL.0>
44.2576

>  <SCORE.INTRA.POLAR>
0.138066

>  <SCORE.INTRA.POLAR.0>
-0.381556

>  <SCORE.INTRA.REPUL>
0.0261412

>  <SCORE.INTRA.REPUL.0>
0

>  <SCORE.INTRA.SOLV>
0.0200558

>  <SCORE.INTRA.SOLV.lig_0>
-134.592

>  <SCORE.INTRA.VDW>
1.92389

>  <SCORE.INTRA.VDW.0>
-1.01417

>  <SCORE.INTRA.norm>
-0.259618

>  <SCORE.RESTR>
9.31311

>  <SCORE.RESTR.CAVITY>
9.31311

>  <SCORE.RESTR.norm>
0.291035

>  <SCORE.SYSTEM>
0

>  <SCORE.SYSTEM.CONST>
0

>  <SCORE.SYSTEM.DIHEDRAL>
0

>  <SCORE.SYSTEM.SOLV>
0

>  <SCORE.SYSTEM.norm>
0

>  <SCORE.heavy>
32

>  <SCORE.norm>
-1.13695

>  <RMSD>
9.051

$$$$
1lc4
 OpenBabel02141814113D
libRbt.so/2013.1/901 2013/11/27
 32 34  0  0  0  0  0  0  0  0999 V2000
  -11.0116    7.0942   17.1704 C   0  0  2  0  0  0  0  0  0  0  0  0
  -11.3815    6.2117   18.2002 O   0  0  0  0  0  0  0  0  0  0  0  0
  -12.2736    7.4294   16.3493 C   0  0  2  0  0  0  0  0  0  0  0  0
  -13.3007    8.0214   17.2119 N   0  3  0  0  0  0  0  0  0  0  0  0
  -12.7977    6.1601   15.6374 C   0  0  0  0  0  0  0  0  0  0  0  0
  -11.6691    5.6382   14.7311 C   0  0  2  0  0  0  0  0  0  0  0  0
  -12.1063    4.4862   14.0024 O   0  0  0  0  0  0  0  0  0  0  0  0
  -10.4252    5.3173   15.5967 C   0  0  2  0  0  0  0  0  0  0  0  0
   -9.9980    6.5010   16.3291 O   0  0  0  0  0  0  0  0  0  0  0  0
   -9.2242    4.8406   14.7838 C   0  0  0  0  0  0  0  0  0  0  0  0
   -8.7233    5.9129   13.8843 N   0  3  0  0  0  0  0  0  0  0  0  0
   -9.8805    5.3867   22.0766 C   0  0  2  0  0  0  0  0  0  0  0  0
   -8.9938    5.0157   23.1946 N   0  3  0  0  0  0  0  0  0  0  0  0
  -10.0279    4.2105   21.1209 C   0  0  0  0  0  0  0  0  0  0  0  0
  -10.9452    4.5851   19.9515 C   0  0  2  0  0  0  0  0  0  0  0  0
  -11.1539    3.3777   19.1141 N   0  3  0  0  0  0  0  0  0  0  0  0
  -10.3925    5.8154   19.1716 C   0  0  2  0  0  0  0  0  0  0  0  0
  -10.1856    6.9979   20.1527 C   0  0  2  0  0  0  0  0  0  0  0  0
   -9.5347    8.0513   19.4843 O   0  0  0  0  0  0  0  0  0  0  0  0
   -9.2901    6.5819   21.3310 C   0  0  1  0  0  0  0  0  0  0  0  0
   -9.1549    7.6889   22.2214 O   0  0  0  0  0  0  0  0  0  0  0  0
   -8.3214    8.7234   21.8258 C   0  0  2  0  0  0  0  0  0  0  0  0
   -6.8646    8.2313   21.8696 C   0  0  2  0  0  0  0  0  0  0  0  0
   -6.7337    7.1205   20.9915 O   0  0  0  0  0  0  0  0  0  0  0  0
   -6.5087    7.8123   23.3068 C   0  0  1  0  0  0  0  0  0  0  0  0
   -5.1101    7.3044   23.4075 N   0  3  0  0  0  0  0  0  0  0  0  0
   -6.7215    9.0161   24.2570 C   0  0  2  0  0  0  0  0  0  0  0  0
   -6.4232    8.6500   25.6023 O   0  0  0  0  0  0  0  0  0  0  0  0
   -8.1675    9.5337   24.1441 C   0  0  2  0  0  0  0  0  0  0  0  0
   -8.4988    9.8363   22.7401 O   0  0  0  0  0  0  0  0  0  0  0  0
   -8.3815   10.8052   24.9349 C   0  0  0  0  0  0  0  0  0  0  0  0
   -7.4760   11.8317   24.5353 O   0  0  0  0  0  0  0  0  0  0  0  0
  1  2  1  1  0  0  0
  1  3  1  0  0  0  0
  1  9  1  0  0  0  0
  3  4  1  1  0  0  0
  3  5  1  0  0  0  0
  5  6  1  0  0  0  0
  6  7  1  1  0  0  0
  6  8  1  0  0  0  0
  8  9  1  0  0  0  0
  8 10  1  6  0  0  0
 10 11  1  0  0  0  0
 12 13  1  1  0  0  0
 12 14  1  0  0  0  0
 12 20  1  0  0  0  0
 14 15  1  0  0  0  0
 15 16  1  6  0  0  0
 15 17  1  0  0  0  0
 17  2  1  6  0  0  0
 17 18  1  0  0  0  0
 18 19  1  6  0  0  0
 18 20  1  0  0  0  0
 20 21  1  1  0  0  0
 22 21  1  1  0  0  0
 22 23  1  0  0  0  0
 22 30  1  0  0  0  0
 23 24  1  6  0  0  0
 23 25  1  0  0  0  0
 25 26  1  6  0  0  0
 25 27  1  0  0  0  0
 27 28  1  1  0  0  0
 27 29  1  0  0  0  0
 29 30  1  0  0  0  0
 29 31  1  1  0  0  0
 31 32  1  0  0  0  0
M  CHG  5   4   1  11   1  13   1  16   1  26   1
M  END
>  <CHROM.1>
-175.77239028,-165.61349741,56.36254085,172.55528593,64.98851279,56.37870483
-172.49078154,64.92631929,158.32174099,163.15692972,-69.96527858,172.37004177
67.25604361,64.76330431,56.68675408,83.26889257,-9.39485419,7.01360014,19.98106922
2.68549339,1.10046538,-3.01772388

>  <Name>
1lc4

>  <RI>
0

>  <Rbt.Current_Directory>
/home/afrankz/demos/rdock_decoys_rna/rnas/1lc4

>  <Rbt.Executable>
rbdock ($Id: //depot/dev/client3/rdock/2013.1/src/exe/rbdock.cxx#4 $)

>  <Rbt.Library>
libRbt.so (2013.1, Build901 2013/11/27)

>  <Rbt.Parameter_File>
/export/apps/rDock/src/rDock_2013.1_src/data/scripts/dock_solv.prm

>  <Rbt.Receptor>
prm/pocket_docking_6.prm

>  <SCORE>
-65.0305

>  <SCORE.INTER>
-46.222

>  <SCORE.INTER.CONST>
1

>  <SCORE.INTER.POLAR>
-5.37864

>  <SCORE.INTER.ROT>
6

>  <SCORE.INTER.SOLV>
27.7165

>  <SCORE.INTER.VDW>
-29.7247

>  <SCORE.INTER.norm>
-1.44444

>  <SCORE.INTRA>
-18.8085

>  <SCORE.INTRA.DIHEDRAL>
-35.6704

>  <SCORE.INTRA.DIHEDRAL.0>
44.2576

>  <SCORE.INTRA.POLAR>
0.374331

>  <SCORE.INTRA.POLAR.0>
-0.381556

>  <SCORE.INTRA.REPUL>
0

>  <SCORE.INTRA.REPUL.0>
0

>  <SCORE.INTRA.SOLV>
-1.25183

>  <SCORE.INTRA.SOLV.lig_0>
-134.592

>  <SCORE.INTRA.VDW>
-1.62011

>  <SCORE.INTRA.VDW.0>
-1.01417

>  <SCORE.INTRA.norm>
-0.587765

>  <SCORE.RESTR>
0

>  <SCORE.RESTR.CAVITY>
0

>  <SCORE.RESTR.norm>
0

>  <SCORE.SYSTEM>
0

>  <SCORE.SYSTEM.CONST>
0

>  <SCORE.SYSTEM.DIHEDRAL>
0

>  <SCORE.SYSTEM.SOLV>
0

>  <SCORE.SYSTEM.norm>
0

>  <SCORE.heavy>
32

>  <SCORE.norm>
-2.0322

>  <RMSD>
9.052

$$$$
1lc4
 OpenBabel02141814113D
libRbt.so/2013.1/901 2013/11/27
 32 34  0  0  0  0  0  0  0  0999 V2000
  -16.8066   15.5560   17.5145 C   0  0  2  0  0  0  0  0  0  0  0  0
  -15.5950   14.8457   17.4553 O   0  0  0  0  0  0  0  0  0  0  0  0
  -17.4356   15.5505   16.1063 C   0  0  2  0  0  0  0  0  0  0  0  0
  -17.6495   14.1740   15.6488 N   0  3  0  0  0  0  0  0  0  0  0  0
  -16.5417   16.3398   15.1212 C   0  0  0  0  0  0  0  0  0  0  0  0
  -16.4092   17.7737   15.6635 C   0  0  2  0  0  0  0  0  0  0  0  0
  -15.6298   18.5755   14.7697 O   0  0  0  0  0  0  0  0  0  0  0  0
  -15.7762   17.7295   17.0766 C   0  0  2  0  0  0  0  0  0  0  0  0
  -16.5835   16.9093   17.9685 O   0  0  0  0  0  0  0  0  0  0  0  0
  -15.6491   19.1034   17.7301 C   0  0  0  0  0  0  0  0  0  0  0  0
  -15.1029   20.1045   16.7767 N   0  3  0  0  0  0  0  0  0  0  0  0
  -13.0690   12.2926   19.7048 C   0  0  2  0  0  0  0  0  0  0  0  0
  -12.5510   11.3756   20.7366 N   0  3  0  0  0  0  0  0  0  0  0  0
  -13.4693   13.6160   20.3426 C   0  0  0  0  0  0  0  0  0  0  0  0
  -14.0133   14.5773   19.2799 C   0  0  2  0  0  0  0  0  0  0  0  0
  -14.2777   15.8877   19.9245 N   0  3  0  0  0  0  0  0  0  0  0  0
  -15.2439   13.9680   18.5438 C   0  0  2  0  0  0  0  0  0  0  0  0
  -14.8565   12.5924   17.9426 C   0  0  2  0  0  0  0  0  0  0  0  0
  -16.0059   11.9693   17.4224 O   0  0  0  0  0  0  0  0  0  0  0  0
  -14.2834   11.6633   19.0250 C   0  0  1  0  0  0  0  0  0  0  0  0
  -13.9120   10.4248   18.4209 O   0  0  0  0  0  0  0  0  0  0  0  0
  -12.6395   10.3400   17.8779 C   0  0  2  0  0  0  0  0  0  0  0  0
  -12.7030    9.4937   16.5949 C   0  0  2  0  0  0  0  0  0  0  0  0
  -13.5954   10.1194   15.6815 O   0  0  0  0  0  0  0  0  0  0  0  0
  -13.2050    8.0802   16.9382 C   0  0  1  0  0  0  0  0  0  0  0  0
  -13.3079    7.2173   15.7262 N   0  3  0  0  0  0  0  0  0  0  0  0
  -12.2577    7.4418   17.9832 C   0  0  2  0  0  0  0  0  0  0  0  0
  -12.7126    6.1387   18.3403 O   0  0  0  0  0  0  0  0  0  0  0  0
  -12.1571    8.3410   19.2294 C   0  0  2  0  0  0  0  0  0  0  0  0
  -11.7633    9.7092   18.8477 O   0  0  0  0  0  0  0  0  0  0  0  0
  -11.1232    7.8394   20.2129 C   0  0  0  0  0  0  0  0  0  0  0  0
   -9.9143    7.4613   19.5579 O   0  0  0  0  0  0  0  0  0  0  0  0
  1  2  1  6  0  0  0
  1  3  1  0  0  0  0
  1  9  1  0  0  0  0
  3  4  1  6  0  0  0
  3  5  1  0  0  0  0
  5  6  1  0  0  0  0
  6  7  1  6  0  0  0
  6  8  1  0  0  0  0
  8  9  1  0  0  0  0
  8 10  1  1  0  0  0
 10 11  1  0  0  0  0
 12 13  1  1  0  0  0
 12 14  1  0  0  0  0
 12 20  1  0  0  0  0
 14 15  1  0  0  0  0
 15 16  1  1  0  0  0
 15 17  1  0  0  0  0
 17  2  1  6  0  0  0
 17 18  1  0  0  0  0
 18 19  1  1  0  0  0
 18 20  1  0  0  0  0
 20 21  1  6  0  0  0
 22 21  1  1  0  0  0
 22 23  1  0  0  0  0
 22 30  1  0  0  0  0
 23 24  1  6  0  0  0
 23 25  1  0  0  0  0
 25 26  1  6  0  0  0
 25 27  1  0  0  0  0
 27 28  1  1  0  0  0
 27 29  1  0  0  0  0
 29 30  1  0  0  0  0
 29 31  1  1  0  0  0
 31 32  1  0  0  0  0
M  CHG  5   4   1  11   1  13   1  16   1  26   1
M  END
>  <CHROM.1>
-139.89556748,-112.07041371,-29.92545326,-56.03279341,-45.55369196,170.73720839
-87.38655053,74.26820254,-170.65119767,-34.95143612,-143.00037322,59.10427570
-55.58246773,-58.90724269,44.85798910,-53.37318633,-14.24544730,12.70533634
17.79734854,2.28473805,-0.96019845,0.44410187

>  <Name>
1lc4

>  <RI>
0

>  <Rbt.Current_Directory>
/home/afrankz/demos/rdock_decoys_rna/rnas/1lc4

>  <Rbt.Executable>
rbdock ($Id: //depot/dev/client3/rdock/2013.1/src/exe/rbdock.cxx#4 $)

>  <Rbt.Library>
libRbt.so (2013.1, Build901 2013/11/27)

>  <Rbt.Parameter_File>
/export/apps/rDock/src/rDock_2013.1_src/data/scripts/dock_solv.prm

>  <Rbt.Receptor>
prm/blind_docking_40.prm

>  <SCORE>
-35.1871

>  <SCORE.INTER>
-33.0543

>  <SCORE.INTER.CONST>
1

>  <SCORE.INTER.POLAR>
-5.98098

>  <SCORE.INTER.ROT>
6

>  <SCORE.INTER.SOLV>
26.0045

>  <SCORE.INTER.VDW>
-18.3678

>  <SCORE.INTER.norm>
-1.03295

>  <SCORE.INTRA>
-11.3341

>  <SCORE.INTRA.DIHEDRAL>
-17.9894

>  <SCORE.INTRA.DIHEDRAL.0>
44.2576

>  <SCORE.INTRA.POLAR>
-1.41926

>  <SCORE.INTRA.POLAR.0>
-0.381556

>  <SCORE.INTRA.REPUL>
0

>  <SCORE.INTRA.REPUL.0>
0

>  <SCORE.INTRA.SOLV>
4.19912

>  <SCORE.INTRA.SOLV.lig_0>
-134.592

>  <SCORE.INTRA.VDW>
0.386524

>  <SCORE.INTRA.VDW.0>
-1.01417

>  <SCORE.INTRA.norm>
-0.35419

>  <SCORE.RESTR>
9.20134

>  <SCORE.RESTR.CAVITY>
9.20134

>  <SCORE.RESTR.norm>
0.287542

>  <SCORE.SYSTEM>
0

>  <SCORE.SYSTEM.CONST>
0

>  <SCORE.SYSTEM.DIHEDRAL>
0

>  <SCORE.SYSTEM.SOLV>
0

>  <SCORE.SYSTEM.norm>
0

>  <SCORE.heavy>
32

>  <SCORE.norm>
-1.0996

>  <RMSD>
9.074

$$$$
1lc4
 OpenBabel02141814113D
libRbt.so/2013.1/901 2013/11/27
 32 34  0  0  0  0  0  0  0  0999 V2000
  -12.9807    8.6970   19.1237 C   0  0  2  0  0  0  0  0  0  0  0  0
  -11.5768    8.6554   19.0663 O   0  0  0  0  0  0  0  0  0  0  0  0
  -13.4678    9.8018   18.1639 C   0  0  2  0  0  0  0  0  0  0  0  0
  -13.0003    9.5348   16.8002 N   0  3  0  0  0  0  0  0  0  0  0  0
  -12.9926   11.1869   18.6621 C   0  0  0  0  0  0  0  0  0  0  0  0
  -13.5628   11.3906   20.0768 C   0  0  2  0  0  0  0  0  0  0  0  0
  -13.1991   12.6802   20.5806 O   0  0  0  0  0  0  0  0  0  0  0  0
  -13.0494   10.2599   21.0027 C   0  0  2  0  0  0  0  0  0  0  0  0
  -13.4291    8.9582   20.4720 O   0  0  0  0  0  0  0  0  0  0  0  0
  -13.6019   10.3385   22.4237 C   0  0  0  0  0  0  0  0  0  0  0  0
  -15.0401    9.9646   22.4633 N   0  3  0  0  0  0  0  0  0  0  0  0
  -10.7783    4.9896   21.0371 C   0  0  2  0  0  0  0  0  0  0  0  0
  -10.1946    3.6875   21.4083 N   0  3  0  0  0  0  0  0  0  0  0  0
  -11.3612    4.9136   19.6325 C   0  0  0  0  0  0  0  0  0  0  0  0
  -11.9682    6.2632   19.2332 C   0  0  2  0  0  0  0  0  0  0  0  0
  -12.6260    6.1088   17.9118 N   0  3  0  0  0  0  0  0  0  0  0  0
  -10.9038    7.3997   19.2876 C   0  0  2  0  0  0  0  0  0  0  0  0
  -10.2659    7.4420   20.7001 C   0  0  2  0  0  0  0  0  0  0  0  0
   -9.1939    8.3536   20.7016 O   0  0  0  0  0  0  0  0  0  0  0  0
   -9.6967    6.0669   21.0855 C   0  0  1  0  0  0  0  0  0  0  0  0
   -9.1507    6.1457   22.4017 O   0  0  0  0  0  0  0  0  0  0  0  0
   -7.7697    6.1838   22.5147 C   0  0  2  0  0  0  0  0  0  0  0  0
   -7.3472    5.3329   23.7245 C   0  0  2  0  0  0  0  0  0  0  0  0
   -7.7951    3.9988   23.5202 O   0  0  0  0  0  0  0  0  0  0  0  0
   -7.9785    5.9113   25.0030 C   0  0  1  0  0  0  0  0  0  0  0  0
   -7.6204    5.1123   26.2102 N   0  3  0  0  0  0  0  0  0  0  0  0
   -7.5319    7.3841   25.1716 C   0  0  2  0  0  0  0  0  0  0  0  0
   -8.1226    7.9555   26.3366 O   0  0  0  0  0  0  0  0  0  0  0  0
   -7.9046    8.1996   23.9195 C   0  0  2  0  0  0  0  0  0  0  0  0
   -7.3589    7.5623   22.7077 O   0  0  0  0  0  0  0  0  0  0  0  0
   -7.3508    9.6063   23.9693 C   0  0  0  0  0  0  0  0  0  0  0  0
   -8.0298   10.4712   23.0614 O   0  0  0  0  0  0  0  0  0  0  0  0
  1  2  1  1  0  0  0
  1  3  1  0  0  0  0
  1  9  1  0  0  0  0
  3  4  1  6  0  0  0
  3  5  1  0  0  0  0
  5  6  1  0  0  0  0
  6  7  1  1  0  0  0
  6  8  1  0  0  0  0
  8  9  1  0  0  0  0
  8 10  1  1  0  0  0
 10 11  1  0  0  0  0
 12 13  1  6  0  0  0
 12 14  1  0  0  0  0
 12 20  1  0  0  0  0
 14 15  1  0  0  0  0
 15 16  1  6  0  0  0
 15 17  1  0  0  0  0
 17  2  1  1  0  0  0
 17 18  1  0  0  0  0
 18 19  1  6  0  0  0
 18 20  1  0  0  0  0
 20 21  1  1  0  0  0
 22 21  1  1  0  0  0
 22 23  1  0  0  0  0
 22 30  1  0  0  0  0
 23 24  1  6  0  0  0
 23 25  1  0  0  0  0
 25 26  1  1  0  0  0
 25 27  1  0  0  0  0
 27 28  1  1  0  0  0
 27 29  1  0  0  0  0
 29 30  1  0  0  0  0
 29 31  1  1  0  0  0
 31 32  1  0  0  0  0
M  CHG  5   4   1  11   1  13   1  16   1  26   1
M  END
>  <CHROM.1>
-149.47899308,12.73233399,-50.84286382,-168.36794630,71.90379359,-70.64721821
158.18135042,-178.32758104,-49.91725635,133.17913665,-140.81016178,88.92226010
-55.61592338,70.14534134,-161.21142467,56.25565764,-10.52604104,7.82942430
21.53251980,3.06382887,-0.83775576,0.52105158

>  <Name>
1lc4

>  <RI>
0

>  <Rbt.Current_Directory>
/home/afrankz/demos/rdock_decoys_rna/rnas/1lc4

>  <Rbt.Executable>
rbdock ($Id: //depot/dev/client3/rdock/2013.1/src/exe/rbdock.cxx#4 $)

>  <Rbt.Library>
libRbt.so (2013.1, Build901 2013/11/27)

>  <Rbt.Parameter_File>
/export/apps/rDock/src/rDock_2013.1_src/data/scripts/dock_solv.prm

>  <Rbt.Receptor>
prm/blind_docking_60.prm

>  <SCORE>
-19.8719

>  <SCORE.INTER>
-18.6973

>  <SCORE.INTER.CONST>
1

>  <SCORE.INTER.POLAR>
-2.83346

>  <SCORE.INTER.ROT>
6

>  <SCORE.INTER.SOLV>
26.7261

>  <SCORE.INTER.VDW>
-19.5287

>  <SCORE.INTER.norm>
-0.584291

>  <SCORE.INTRA>
-8.89422

>  <SCORE.INTRA.DIHEDRAL>
-14.0504

>  <SCORE.INTRA.DIHEDRAL.0>
44.2576

>  <SCORE.INTRA.POLAR>
-0.748535

>  <SCORE.INTRA.POLAR.0>
-0.381556

>  <SCORE.INTRA.REPUL>
0

>  <SCORE.INTRA.REPUL.0>
0

>  <SCORE.INTRA.SOLV>
1.66344

>  <SCORE.INTRA.SOLV.lig_0>
-134.592

>  <SCORE.INTRA.VDW>
-0.155733

>  <SCORE.INTRA.VDW.0>
-1.01417

>  <SCORE.INTRA.norm>
-0.277944

>  <SCORE.RESTR>
7.71966

>  <SCORE.RESTR.CAVITY>
7.71966

>  <SCORE.RESTR.norm>
0.24124

>  <SCORE.SYSTEM>
0

>  <SCORE.SYSTEM.CONST>
0

>  <SCORE.SYSTEM.DIHEDRAL>
0

>  <SCORE.SYSTEM.SOLV>
0

>  <SCORE.SYSTEM.norm>
0

>  <SCORE.heavy>
32

>  <SCORE.norm>
-0.620996

>  <RMSD>
9.074

$$$$
1lc4
 OpenBabel02141814113D
libRbt.so/2013.1/901 2013/11/27
 32 34  0  0  0  0  0  0  0  0999 V2000
  -17.0016   15.4026   17.6229 C   0  0  2  0  0  0  0  0  0  0  0  0
  -15.8813   14.5792   17.4155 O   0  0  0  0  0  0  0  0  0  0  0  0
  -17.9058   15.3055   16.3772 C   0  0  2  0  0  0  0  0  0  0  0  0
  -18.3057   13.9142   16.1447 N   0  3  0  0  0  0  0  0  0  0  0  0
  -17.1805   15.8973   15.1459 C   0  0  0  0  0  0  0  0  0  0  0  0
  -16.8385   17.3621   15.4698 C   0  0  2  0  0  0  0  0  0  0  0  0
  -16.2053   17.9867   14.3482 O   0  0  0  0  0  0  0  0  0  0  0  0
  -15.9328   17.4101   16.7256 C   0  0  2  0  0  0  0  0  0  0  0  0
  -16.5949   16.7696   17.8531 O   0  0  0  0  0  0  0  0  0  0  0  0
  -15.5774   18.8279   17.1662 C   0  0  0  0  0  0  0  0  0  0  0  0
  -14.9780   19.6043   16.0492 N   0  3  0  0  0  0  0  0  0  0  0  0
  -12.8043   12.7359   19.6726 C   0  0  2  0  0  0  0  0  0  0  0  0
  -12.0702   12.0166   20.7297 N   0  3  0  0  0  0  0  0  0  0  0  0
  -13.4250   14.0033   20.2444 C   0  0  0  0  0  0  0  0  0  0  0  0
  -14.1947   14.7586   19.1552 C   0  0  2  0  0  0  0  0  0  0  0  0
  -14.6793   16.0398   19.7265 N   0  3  0  0  0  0  0  0  0  0  0  0
  -15.3156   13.8708   18.5366 C   0  0  2  0  0  0  0  0  0  0  0  0
  -14.6958   12.5527   18.0054 C   0  0  2  0  0  0  0  0  0  0  0  0
  -15.7245   11.6834   17.5979 O   0  0  0  0  0  0  0  0  0  0  0  0
  -13.9029   11.8359   19.1104 C   0  0  1  0  0  0  0  0  0  0  0  0
  -13.3256   10.6487   18.5683 O   0  0  0  0  0  0  0  0  0  0  0  0
  -14.0090    9.4602   18.7726 C   0  0  2  0  0  0  0  0  0  0  0  0
  -13.3093    8.6718   19.8929 C   0  0  2  0  0  0  0  0  0  0  0  0
  -13.3149    9.4611   21.0757 O   0  0  0  0  0  0  0  0  0  0  0  0
  -11.8619    8.3608   19.4733 C   0  0  1  0  0  0  0  0  0  0  0  0
  -11.1245    7.6136   20.5325 N   0  3  0  0  0  0  0  0  0  0  0  0
  -11.8756    7.5587   18.1491 C   0  0  2  0  0  0  0  0  0  0  0  0
  -10.5450    7.2772   17.7213 O   0  0  0  0  0  0  0  0  0  0  0  0
  -12.6405    8.3378   17.0631 C   0  0  2  0  0  0  0  0  0  0  0  0
  -13.9887    8.6964   17.5388 O   0  0  0  0  0  0  0  0  0  0  0  0
  -12.8169    7.5281   15.7976 C   0  0  0  0  0  0  0  0  0  0  0  0
  -13.2617    8.3390   14.7123 O   0  0  0  0  0  0  0  0  0  0  0  0
  1  2  1  6  0  0  0
  1  3  1  0  0  0  0
  1  9  1  0  0  0  0
  3  4  1  6  0  0  0
  3  5  1  0  0  0  0
  5  6  1  0  0  0  0
  6  7  1  6  0  0  0
  6  8  1  0  0  0  0
  8  9  1  0  0  0  0
  8 10  1  1  0  0  0
 10 11  1  0  0  0  0
 12 13  1  1  0  0  0
 12 14  1  0  0  0  0
 12 20  1  0  0  0  0
 14 15  1  0  0  0  0
 15 16  1  1  0  0  0
 15 17  1  0  0  0  0
 17  2  1  6  0  0  0
 17 18  1  0  0  0  0
 18 19  1  1  0  0  0
 18 20  1  0  0  0  0
 20 21  1  6  0  0  0
 22 21  1  6  0  0  0
 22 23  1  0  0  0  0
 22 30  1  0  0  0  0
 23 24  1  1  0  0  0
 23 25  1  0  0  0  0
 25 26  1  1  0  0  0
 25 27  1  0  0  0  0
 27 28  1  6  0  0  0
 27 29  1  0  0  0  0
 29 30  1  0  0  0  0
 29 31  1  6  0  0  0
 31 32  1  0  0  0  0
M  CHG  5   4   1  11   1  13   1  16   1  26   1
M  END
>  <CHROM.1>
-144.46246926,-92.06422384,38.49277347,40.05653864,-54.06896082,-91.30721822
-154.91249327,176.84672294,60.04242616,141.03974216,-102.77358693,175.71024464
89.76296398,-46.50313162,-167.45045399,53.13177983,-14.39518322,12.63478703
17.87771160,2.46062028,-1.02303420,0.58132435

>  <Name>
1lc4

>  <RI>
0

>  <Rbt.Current_Directory>
/home/afrankz/demos/rdock_decoys_rna/rnas/1lc4

>  <Rbt.Executable>
rbdock ($Id: //depot/dev/client3/rdock/2013.1/src/exe/rbdock.cxx#4 $)

>  <Rbt.Library>
libRbt.so (2013.1, Build901 2013/11/27)

>  <Rbt.Parameter_File>
/export/apps/rDock/src/rDock_2013.1_src/data/scripts/dock_solv.prm

>  <Rbt.Receptor>
prm/blind_docking_40.prm

>  <SCORE>
-47.0965

>  <SCORE.INTER>
-38.8893

>  <SCORE.INTER.CONST>
1

>  <SCORE.INTER.POLAR>
-6.65742

>  <SCORE.INTER.ROT>
6

>  <SCORE.INTER.SOLV>
29.1158

>  <SCORE.INTER.VDW>
-21.04

>  <SCORE.INTER.norm>
-1.21529

>  <SCORE.INTRA>
-15.4408

>  <SCORE.INTRA.DIHEDRAL>
-14.7664

>  <SCORE.INTRA.DIHEDRAL.0>
44.2576

>  <SCORE.INTRA.POLAR>
-2.37483

>  <SCORE.INTRA.POLAR.0>
-0.381556

>  <SCORE.INTRA.REPUL>
0

>  <SCORE.INTRA.REPUL.0>
0

>  <SCORE.INTRA.SOLV>
3.99857

>  <SCORE.INTRA.SOLV.lig_0>
-134.592

>  <SCORE.INTRA.VDW>
-1.98242

>  <SCORE.INTRA.VDW.0>
-1.01417

>  <SCORE.INTRA.norm>
-0.482524

>  <SCORE.RESTR>
7.23355

>  <SCORE.RESTR.CAVITY>
7.23355

>  <SCORE.RESTR.norm>
0.226048

>  <SCORE.SYSTEM>
0

>  <SCORE.SYSTEM.CONST>
0

>  <SCORE.SYSTEM.DIHEDRAL>
0

>  <SCORE.SYSTEM.SOLV>
0

>  <SCORE.SYSTEM.norm>
0

>  <SCORE.heavy>
32

>  <SCORE.norm>
-1.47177

>  <RMSD>
9.137

$$$$
1lc4
 OpenBabel02141814113D
libRbt.so/2013.1/901 2013/11/27
 32 34  0  0  0  0  0  0  0  0999 V2000
  -16.8136   15.6611   17.4665 C   0  0  2  0  0  0  0  0  0  0  0  0
  -15.7257   14.7830   17.3197 O   0  0  0  0  0  0  0  0  0  0  0  0
  -17.6547   15.6033   16.1750 C   0  0  2  0  0  0  0  0  0  0  0  0
  -18.1097   14.2324   15.9238 N   0  3  0  0  0  0  0  0  0  0  0  0
  -16.8375   16.1539   14.9828 C   0  0  0  0  0  0  0  0  0  0  0  0
  -16.4414   17.6015   15.3222 C   0  0  2  0  0  0  0  0  0  0  0  0
  -15.7201   18.1898   14.2345 O   0  0  0  0  0  0  0  0  0  0  0  0
  -15.6018   17.6102   16.6238 C   0  0  2  0  0  0  0  0  0  0  0  0
  -16.3530   17.0075   17.7159 O   0  0  0  0  0  0  0  0  0  0  0  0
  -15.2008   19.0107   17.0805 C   0  0  0  0  0  0  0  0  0  0  0  0
  -14.9962   19.9171   15.9202 N   0  3  0  0  0  0  0  0  0  0  0  0
  -12.9571   12.7192   19.7763 C   0  0  2  0  0  0  0  0  0  0  0  0
  -12.3589   11.9209   20.8621 N   0  3  0  0  0  0  0  0  0  0  0  0
  -13.5970   13.9759   20.3503 C   0  0  0  0  0  0  0  0  0  0  0  0
  -14.2261   14.8131   19.2311 C   0  0  2  0  0  0  0  0  0  0  0  0
  -14.7303   16.0789   19.8194 N   0  3  0  0  0  0  0  0  0  0  0  0
  -15.3014   13.9981   18.4522 C   0  0  2  0  0  0  0  0  0  0  0  0
  -14.6681   12.6886   17.9156 C   0  0  2  0  0  0  0  0  0  0  0  0
  -15.6734   11.8779   17.3569 O   0  0  0  0  0  0  0  0  0  0  0  0
  -14.0165   11.8883   19.0551 C   0  0  1  0  0  0  0  0  0  0  0  0
  -13.4204   10.7115   18.5106 O   0  0  0  0  0  0  0  0  0  0  0  0
  -14.0973    9.5155   18.6912 C   0  0  2  0  0  0  0  0  0  0  0  0
  -13.3940    8.7094   19.7966 C   0  0  2  0  0  0  0  0  0  0  0  0
  -13.4050    9.4756   20.9945 O   0  0  0  0  0  0  0  0  0  0  0  0
  -11.9446    8.4148   19.3723 C   0  0  1  0  0  0  0  0  0  0  0  0
  -11.2038    7.6513   20.4174 N   0  3  0  0  0  0  0  0  0  0  0  0
  -11.9527    7.6384   18.0328 C   0  0  2  0  0  0  0  0  0  0  0  0
  -10.6202    7.3728   17.6008 O   0  0  0  0  0  0  0  0  0  0  0  0
  -12.7212    8.4341   16.9614 C   0  0  2  0  0  0  0  0  0  0  0  0
  -14.0718    8.7759   17.4428 O   0  0  0  0  0  0  0  0  0  0  0  0
  -12.8920    7.6482   15.6804 C   0  0  0  0  0  0  0  0  0  0  0  0
  -13.7367    8.3287   14.7546 O   0  0  0  0  0  0  0  0  0  0  0  0
  1  2  1  6  0  0  0
  1  3  1  0  0  0  0
  1  9  1  0  0  0  0
  3  4  1  6  0  0  0
  3  5  1  0  0  0  0
  5  6  1  0  0  0  0
  6  7  1  6  0  0  0
  6  8  1  0  0  0  0
  8  9  1  0  0  0  0
  8 10  1  1  0  0  0
 10 11  1  0  0  0  0
 12 13  1  1  0  0  0
 12 14  1  0  0  0  0
 12 20  1  0  0  0  0
 14 15  1  0  0  0  0
 15 16  1  1  0  0  0
 15 17  1  0  0  0  0
 17  2  1  6  0  0  0
 17 18  1  0  0  0  0
 18 19  1  1  0  0  0
 18 20  1  0  0  0  0
 20 21  1  6  0  0  0
 22 21  1  6  0  0  0
 22 23  1  0  0  0  0
 22 30  1  0  0  0  0
 23 24  1  1  0  0  0
 23 25  1  0  0  0  0
 25 26  1  1  0  0  0
 25 27  1  0  0  0  0
 27 28  1  6  0  0  0
 27 29  1  0  0  0  0
 29 30  1  0  0  0  0
 29 31  1  6  0  0  0
 31 32  1  0  0  0  0
M  CHG  5   4   1  11   1  13   1  16   1  26   1
M  END
>  <CHROM.1>
-141.12472067,-90.28040626,62.54631512,48.43061329,-32.33431739,-139.62270739
127.66169770,57.33762188,173.11304877,134.99235777,-103.83097914,175.47330539
-130.08871361,176.32250849,173.13341370,-178.40591754,-14.37420403,12.74800506
17.79494448,2.47631793,-1.09085695,0.61725632

>  <Name>
1lc4

>  <RI>
0

>  <Rbt.Current_Directory>
/home/afrankz/demos/rdock_decoys_rna/rnas/1lc4

>  <Rbt.Executable>
rbdock ($Id: //depot/dev/client3/rdock/2013.1/src/exe/rbdock.cxx#4 $)

>  <Rbt.Library>
libRbt.so (2013.1, Build901 2013/11/27)

>  <Rbt.Parameter_File>
/export/apps/rDock/src/rDock_2013.1_src/data/scripts/dock_solv.prm

>  <Rbt.Receptor>
prm/blind_docking_40.prm

>  <SCORE>
-37.3498

>  <SCORE.INTER>
-31.9987

>  <SCORE.INTER.CONST>
1

>  <SCORE.INTER.POLAR>
-5.36276

>  <SCORE.INTER.ROT>
6

>  <SCORE.INTER.SOLV>
27.9513

>  <SCORE.INTER.VDW>
-20.3737

>  <SCORE.INTER.norm>
-0.999961

>  <SCORE.INTRA>
-12.1511

>  <SCORE.INTRA.DIHEDRAL>
-10.078

>  <SCORE.INTRA.DIHEDRAL.0>
44.2576

>  <SCORE.INTRA.POLAR>
-2.60147

>  <SCORE.INTRA.POLAR.0>
-0.381556

>  <SCORE.INTRA.REPUL>
0

>  <SCORE.INTRA.REPUL.0>
0

>  <SCORE.INTRA.SOLV>
4.22825

>  <SCORE.INTRA.SOLV.lig_0>
-134.592

>  <SCORE.INTRA.VDW>
-0.381219

>  <SCORE.INTRA.VDW.0>
-1.01417

>  <SCORE.INTRA.norm>
-0.379721

>  <SCORE.RESTR>
6.79998

>  <SCORE.RESTR.CAVITY>
6.79998

>  <SCORE.RESTR.norm>
0.212499

>  <SCORE.SYSTEM>
0

>  <SCORE.SYSTEM.CONST>
0

>  <SCORE.SYSTEM.DIHEDRAL>
0

>  <SCORE.SYSTEM.SOLV>
0

>  <SCORE.SYSTEM.norm>
0

>  <SCORE.heavy>
32

>  <SCORE.norm>
-1.16718

>  <RMSD>
9.178

$$$$
1lc4
 OpenBabel02141814113D
libRbt.so/2013.1/901 2013/11/27
 32 34  0  0  0  0  0  0  0  0999 V2000
  -11.4043    2.7619   20.1568 C   0  0  2  0  0  0  0  0  0  0  0  0
  -10.7089    3.8647   19.6312 O   0  0  0  0  0  0  0  0  0  0  0  0
  -12.3323    2.2104   19.0552 C   0  0  2  0  0  0  0  0  0  0  0  0
  -11.5517    1.8312   17.8735 N   0  3  0  0  0  0  0  0  0  0  0  0
  -13.4184    3.2538   18.7028 C   0  0  0  0  0  0  0  0  0  0  0  0
  -14.2049    3.5562   19.9903 C   0  0  2  0  0  0  0  0  0  0  0  0
  -15.2622    4.4836   19.7233 O   0  0  0  0  0  0  0  0  0  0  0  0
  -13.2342    4.1046   21.0657 C   0  0  2  0  0  0  0  0  0  0  0  0
  -12.1674    3.1472   21.3214 O   0  0  0  0  0  0  0  0  0  0  0  0
  -13.9075    4.3877   22.4063 C   0  0  0  0  0  0  0  0  0  0  0  0
  -14.6887    5.6515   22.3600 N   0  3  0  0  0  0  0  0  0  0  0  0
   -9.1113    7.4841   21.1504 C   0  0  2  0  0  0  0  0  0  0  0  0
   -8.9618    8.7770   21.8431 N   0  3  0  0  0  0  0  0  0  0  0  0
  -10.1882    7.5924   20.0795 C   0  0  0  0  0  0  0  0  0  0  0  0
  -10.3559    6.2526   19.3541 C   0  0  2  0  0  0  0  0  0  0  0  0
  -11.3258    6.4376   18.2461 N   0  3  0  0  0  0  0  0  0  0  0  0
  -10.7328    5.1147   20.3493 C   0  0  2  0  0  0  0  0  0  0  0  0
   -9.6689    5.0397   21.4745 C   0  0  2  0  0  0  0  0  0  0  0  0
  -10.0929    4.1278   22.4587 O   0  0  0  0  0  0  0  0  0  0  0  0
   -9.4992    6.4054   22.1599 C   0  0  1  0  0  0  0  0  0  0  0  0
   -8.4902    6.2962   23.1631 O   0  0  0  0  0  0  0  0  0  0  0  0
   -7.2919    5.7038   22.7962 C   0  0  2  0  0  0  0  0  0  0  0  0
   -6.6940    4.9929   24.0223 C   0  0  2  0  0  0  0  0  0  0  0  0
   -7.6187    4.0117   24.4743 O   0  0  0  0  0  0  0  0  0  0  0  0
   -6.4326    6.0233   25.1348 C   0  0  1  0  0  0  0  0  0  0  0  0
   -5.8706    5.3870   26.3609 N   0  3  0  0  0  0  0  0  0  0  0  0
   -5.4767    7.1185   24.6018 C   0  0  2  0  0  0  0  0  0  0  0  0
   -5.2357    8.1030   25.6045 O   0  0  0  0  0  0  0  0  0  0  0  0
   -6.0652    7.7677   23.3354 C   0  0  2  0  0  0  0  0  0  0  0  0
   -6.3873    6.7387   22.3305 O   0  0  0  0  0  0  0  0  0  0  0  0
   -5.0982    8.7337   22.6876 C   0  0  0  0  0  0  0  0  0  0  0  0
   -5.6360    9.2934   21.4914 O   0  0  0  0  0  0  0  0  0  0  0  0
  1  2  1  6  0  0  0
  1  3  1  0  0  0  0
  1  9  1  0  0  0  0
  3  4  1  6  0  0  0
  3  5  1  0  0  0  0
  5  6  1  0  0  0  0
  6  7  1  6  0  0  0
  6  8  1  0  0  0  0
  8  9  1  0  0  0  0
  8 10  1  1  0  0  0
 10 11  1  0  0  0  0
 12 13  1  1  0  0  0
 12 14  1  0  0  0  0
 12 20  1  0  0  0  0
 14 15  1  0  0  0  0
 15 16  1  6  0  0  0
 15 17  1  0  0  0  0
 17  2  1  6  0  0  0
 17 18  1  0  0  0  0
 18 19  1  1  0  0  0
 18 20  1  0  0  0  0
 20 21  1  1  0  0  0
 22 21  1  1  0  0  0
 22 23  1  0  0  0  0
 22 30  1  0  0  0  0
 23 24  1  1  0  0  0
 23 25  1  0  0  0  0
 25 26  1  1  0  0  0
 25 27  1  0  0  0  0
 27 28  1  1  0  0  0
 27 29  1  0  0  0  0
 29 30  1  0  0  0  0
 29 31  1  6  0  0  0
 31 32  1  0  0  0  0
M  CHG  5   4   1  11   1  13   1  16   1  26   1
M  END
>  <CHROM.1>
127.40320911,-159.95587127,35.26443209,58.01285659,-76.85756128,-77.85617315
-51.54005512,59.43467661,64.27932588,-72.76333899,-149.19993513,-60.68603147
61.42101885,64.79690536,177.98672241,69.10468301,-9.66420632,5.53724502,21.74785700
3.06133310,-0.64871089,-0.81146569

>  <Name>
1lc4

>  <RI>
0

>  <Rbt.Current_Directory>
/home/afrankz/demos/rdock_decoys_rna/rnas/1lc4

>  <Rbt.Executable>
rbdock ($Id: //depot/dev/client3/rdock/2013.1/src/exe/rbdock.cxx#4 $)

>  <Rbt.Library>
libRbt.so (2013.1, Build901 2013/11/27)

>  <Rbt.Parameter_File>
/export/apps/rDock/src/rDock_2013.1_src/data/scripts/dock_solv.prm

>  <Rbt.Receptor>
prm/pocket_docking_6.prm

>  <SCORE>
-41.5609

>  <SCORE.INTER>
-26.71

>  <SCORE.INTER.CONST>
1

>  <SCORE.INTER.POLAR>
-3.10675

>  <SCORE.INTER.ROT>
6

>  <SCORE.INTER.SOLV>
18.442

>  <SCORE.INTER.VDW>
-21.1982

>  <SCORE.INTER.norm>
-0.834689

>  <SCORE.INTRA>
-14.8508

>  <SCORE.INTRA.DIHEDRAL>
-27.0883

>  <SCORE.INTRA.DIHEDRAL.0>
44.2576

>  <SCORE.INTRA.POLAR>
-0.431228

>  <SCORE.INTRA.POLAR.0>
-0.381556

>  <SCORE.INTRA.REPUL>
0

>  <SCORE.INTRA.REPUL.0>
0

>  <SCORE.INTRA.SOLV>
0.970284

>  <SCORE.INTRA.SOLV.lig_0>
-134.592

>  <SCORE.INTRA.VDW>
-0.325663

>  <SCORE.INTRA.VDW.0>
-1.01417

>  <SCORE.INTRA.norm>
-0.464088

>  <SCORE.RESTR>
0

>  <SCORE.RESTR.CAVITY>
0

>  <SCORE.RESTR.norm>
0

>  <SCORE.SYSTEM>
0

>  <SCORE.SYSTEM.CONST>
0

>  <SCORE.SYSTEM.DIHEDRAL>
0

>  <SCORE.SYSTEM.SOLV>
0

>  <SCORE.SYSTEM.norm>
0

>  <SCORE.heavy>
32

>  <SCORE.norm>
-1.29878

>  <RMSD>
9.191

$$$$
1lc4
 OpenBabel02141814113D
libRbt.so/2013.1/901 2013/11/27
 32 34  0  0  0  0  0  0  0  0999 V2000
  -15.8521   16.7181   17.6387 C   0  0  2  0  0  0  0  0  0  0  0  0
  -15.2560   15.4798   17.3431 O   0  0  0  0  0  0  0  0  0  0  0  0
  -17.3799   16.5143   17.6936 C   0  0  2  0  0  0  0  0  0  0  0  0
  -17.7239   15.5060   18.7009 N   0  3  0  0  0  0  0  0  0  0  0  0
  -17.9148   16.1213   16.2964 C   0  0  0  0  0  0  0  0  0  0  0  0
  -17.5410   17.2525   15.3226 C   0  0  2  0  0  0  0  0  0  0  0  0
  -18.0509   16.9738   14.0143 O   0  0  0  0  0  0  0  0  0  0  0  0
  -16.0014   17.4215   15.3019 C   0  0  2  0  0  0  0  0  0  0  0  0
  -15.5041   17.7034   16.6410 O   0  0  0  0  0  0  0  0  0  0  0  0
  -15.5258   18.5601   14.4028 C   0  0  0  0  0  0  0  0  0  0  0  0
  -14.5198   19.4079   15.0947 N   0  3  0  0  0  0  0  0  0  0  0  0
  -13.0258   12.8106   19.7643 C   0  0  2  0  0  0  0  0  0  0  0  0
  -12.6430   11.8294   20.7960 N   0  3  0  0  0  0  0  0  0  0  0  0
  -13.5522   14.0774   20.4250 C   0  0  0  0  0  0  0  0  0  0  0  0
  -13.9573   15.1047   19.3621 C   0  0  2  0  0  0  0  0  0  0  0  0
  -14.3499   16.3602   20.0492 N   0  3  0  0  0  0  0  0  0  0  0  0
  -15.0476   14.5309   18.4084 C   0  0  2  0  0  0  0  0  0  0  0  0
  -14.5381   13.2092   17.7781 C   0  0  2  0  0  0  0  0  0  0  0  0
  -15.5800   12.6072   17.0486 O   0  0  0  0  0  0  0  0  0  0  0  0
  -14.1080   12.2130   18.8671 C   0  0  1  0  0  0  0  0  0  0  0  0
  -13.6176   11.0280   18.2412 O   0  0  0  0  0  0  0  0  0  0  0  0
  -14.3657    9.8716   18.3974 C   0  0  2  0  0  0  0  0  0  0  0  0
  -13.4080    8.6745   18.5250 C   0  0  2  0  0  0  0  0  0  0  0  0
  -12.5683    8.8827   19.6535 O   0  0  0  0  0  0  0  0  0  0  0  0
  -12.5569    8.5613   17.2481 C   0  0  1  0  0  0  0  0  0  0  0  0
  -11.5912    7.4274   17.3225 N   0  3  0  0  0  0  0  0  0  0  0  0
  -13.4916    8.4021   16.0241 C   0  0  2  0  0  0  0  0  0  0  0  0
  -12.7306    8.3200   14.8212 O   0  0  0  0  0  0  0  0  0  0  0  0
  -14.4855    9.5766   15.9574 C   0  0  2  0  0  0  0  0  0  0  0  0
  -15.2145    9.7082   17.2317 O   0  0  0  0  0  0  0  0  0  0  0  0
  -15.5207    9.3869   14.8710 C   0  0  0  0  0  0  0  0  0  0  0  0
  -14.9371    9.4508   13.5716 O   0  0  0  0  0  0  0  0  0  0  0  0
  1  2  1  6  0  0  0
  1  3  1  0  0  0  0
  1  9  1  0  0  0  0
  3  4  1  1  0  0  0
  3  5  1  0  0  0  0
  5  6  1  0  0  0  0
  6  7  1  6  0  0  0
  6  8  1  0  0  0  0
  8  9  1  0  0  0  0
  8 10  1  6  0  0  0
 10 11  1  0  0  0  0
 12 13  1  1  0  0  0
 12 14  1  0  0  0  0
 12 20  1  0  0  0  0
 14 15  1  0  0  0  0
 15 16  1  1  0  0  0
 15 17  1  0  0  0  0
 17  2  1  6  0  0  0
 17 18  1  0  0  0  0
 18 19  1  1  0  0  0
 18 20  1  0  0  0  0
 20 21  1  6  0  0  0
 22 21  1  6  0  0  0
 22 23  1  0  0  0  0
 22 30  1  0  0  0  0
 23 24  1  1  0  0  0
 23 25  1  0  0  0  0
 25 26  1  1  0  0  0
 25 27  1  0  0  0  0
 27 28  1  6  0  0  0
 27 29  1  0  0  0  0
 29 30  1  0  0  0  0
 29 31  1  6  0  0  0
 31 32  1  0  0  0  0
M  CHG  5   4   1  11   1  13   1  16   1  26   1
M  END
>  <CHROM.1>
-81.61035057,-68.28022590,-70.70736064,-161.76356899,133.12115280,9.00936755
-73.95100864,-67.79201066,-171.49041112,125.63860590,-143.45534282,-176.45207183
43.18130965,-81.85547142,-67.49351020,176.99441004,-14.74827963,13.09757519
17.25816120,-2.39808707,1.10385056,-2.48147553

>  <Name>
1lc4

>  <RI>
0

>  <Rbt.Current_Directory>
/home/afrankz/demos/rdock_decoys_rna/rnas/1lc4

>  <Rbt.Executable>
rbdock ($Id: //depot/dev/client3/rdock/2013.1/src/exe/rbdock.cxx#4 $)

>  <Rbt.Library>
libRbt.so (2013.1, Build901 2013/11/27)

>  <Rbt.Parameter_File>
/export/apps/rDock/src/rDock_2013.1_src/data/scripts/dock_solv.prm

>  <Rbt.Receptor>
prm/blind_docking_40.prm

>  <SCORE>
-36.0209

>  <SCORE.INTER>
-31.8596

>  <SCORE.INTER.CONST>
1

>  <SCORE.INTER.POLAR>
-4.95014

>  <SCORE.INTER.ROT>
6

>  <SCORE.INTER.SOLV>
30.5538

>  <SCORE.INTER.VDW>
-22.5238

>  <SCORE.INTER.norm>
-0.995612

>  <SCORE.INTRA>
-10.1153

>  <SCORE.INTRA.DIHEDRAL>
-16.0459

>  <SCORE.INTRA.DIHEDRAL.0>
44.2576

>  <SCORE.INTRA.POLAR>
-1.36852

>  <SCORE.INTRA.POLAR.0>
-0.381556

>  <SCORE.INTRA.REPUL>
0.0643572

>  <SCORE.INTRA.REPUL.0>
0

>  <SCORE.INTRA.SOLV>
3.39652

>  <SCORE.INTRA.SOLV.lig_0>
-134.592

>  <SCORE.INTRA.VDW>
0.540508

>  <SCORE.INTRA.VDW.0>
-1.01417

>  <SCORE.INTRA.norm>
-0.316105

>  <SCORE.RESTR>
5.95402

>  <SCORE.RESTR.CAVITY>
5.95402

>  <SCORE.RESTR.norm>
0.186063

>  <SCORE.SYSTEM>
0

>  <SCORE.SYSTEM.CONST>
0

>  <SCORE.SYSTEM.DIHEDRAL>
0

>  <SCORE.SYSTEM.SOLV>
0

>  <SCORE.SYSTEM.norm>
0

>  <SCORE.heavy>
32

>  <SCORE.norm>
-1.12565

>  <RMSD>
9.195

$$$$
1lc4
 OpenBabel02141814113D
libRbt.so/2013.1/901 2013/11/27
 32 34  0  0  0  0  0  0  0  0999 V2000
   -9.8052    4.5312   18.9063 C   0  0  2  0  0  0  0  0  0  0  0  0
   -9.7833    5.9309   19.0346 O   0  0  0  0  0  0  0  0  0  0  0  0
  -10.3889    4.1854   17.5211 C   0  0  2  0  0  0  0  0  0  0  0  0
   -9.5861    4.8029   16.4610 N   0  3  0  0  0  0  0  0  0  0  0  0
  -11.8680    4.6308   17.4408 C   0  0  0  0  0  0  0  0  0  0  0  0
  -12.6319    3.9040   18.5615 C   0  0  2  0  0  0  0  0  0  0  0  0
  -14.0236    4.2359   18.5135 O   0  0  0  0  0  0  0  0  0  0  0  0
  -12.0111    4.2794   19.9301 C   0  0  2  0  0  0  0  0  0  0  0  0
  -10.5967    3.9344   19.9572 O   0  0  0  0  0  0  0  0  0  0  0  0
  -12.6647    3.5664   21.1113 C   0  0  0  0  0  0  0  0  0  0  0  0
  -12.4602    2.0961   21.0325 N   0  3  0  0  0  0  0  0  0  0  0  0
   -8.9729    8.5571   22.2605 C   0  0  2  0  0  0  0  0  0  0  0  0
   -9.0332    9.2569   23.5568 N   0  3  0  0  0  0  0  0  0  0  0  0
  -10.2717    8.7722   21.4955 C   0  0  0  0  0  0  0  0  0  0  0  0
  -10.2229    8.0460   20.1466 C   0  0  2  0  0  0  0  0  0  0  0  0
  -11.4548    8.3802   19.3894 N   0  3  0  0  0  0  0  0  0  0  0  0
   -9.9845    6.5180   20.3360 C   0  0  2  0  0  0  0  0  0  0  0  0
   -8.6934    6.2960   21.1651 C   0  0  2  0  0  0  0  0  0  0  0  0
   -8.5670    4.9295   21.4762 O   0  0  0  0  0  0  0  0  0  0  0  0
   -8.7582    7.0633   22.4957 C   0  0  1  0  0  0  0  0  0  0  0  0
   -7.5390    6.8559   23.2080 O   0  0  0  0  0  0  0  0  0  0  0  0
   -6.3599    6.9314   22.4833 C   0  0  2  0  0  0  0  0  0  0  0  0
   -5.1770    6.6728   23.4319 C   0  0  2  0  0  0  0  0  0  0  0  0
   -5.3289    5.3806   24.0058 O   0  0  0  0  0  0  0  0  0  0  0  0
   -5.1640    7.7427   24.5377 C   0  0  1  0  0  0  0  0  0  0  0  0
   -4.0475    7.5304   25.5034 N   0  3  0  0  0  0  0  0  0  0  0  0
   -5.0651    9.1454   23.8897 C   0  0  2  0  0  0  0  0  0  0  0  0
   -5.0765   10.1605   24.8908 O   0  0  0  0  0  0  0  0  0  0  0  0
   -6.2209    9.3537   22.8935 C   0  0  2  0  0  0  0  0  0  0  0  0
   -6.2549    8.2592   21.9069 O   0  0  0  0  0  0  0  0  0  0  0  0
   -6.0806   10.6455   22.1192 C   0  0  0  0  0  0  0  0  0  0  0  0
   -5.9461   11.7678   22.9885 O   0  0  0  0  0  0  0  0  0  0  0  0
  1  2  1  1  0  0  0
  1  3  1  0  0  0  0
  1  9  1  0  0  0  0
  3  4  1  6  0  0  0
  3  5  1  0  0  0  0
  5  6  1  0  0  0  0
  6  7  1  1  0  0  0
  6  8  1  0  0  0  0
  8  9  1  0  0  0  0
  8 10  1  1  0  0  0
 10 11  1  0  0  0  0
 12 13  1  1  0  0  0
 12 14  1  0  0  0  0
 12 20  1  0  0  0  0
 14 15  1  0  0  0  0
 15 16  1  1  0  0  0
 15 17  1  0  0  0  0
 17  2  1  6  0  0  0
 17 18  1  0  0  0  0
 18 19  1  1  0  0  0
 18 20  1  0  0  0  0
 20 21  1  6  0  0  0
 22 21  1  1  0  0  0
 22 23  1  0  0  0  0
 22 30  1  0  0  0  0
 23 24  1  1  0  0  0
 23 25  1  0  0  0  0
 25 26  1  1  0  0  0
 25 27  1  0  0  0  0
 27 28  1  1  0  0  0
 27 29  1  0  0  0  0
 29 30  1  0  0  0  0
 29 31  1  6  0  0  0
 31 32  1  0  0  0  0
M  CHG  5   4   1  11   1  13   1  16   1  26   1
M  END
>  <CHROM.1>
147.15677296,-167.78616616,60.06906333,-59.47017744,63.92641692,-74.93698849
19.79039504,100.77404263,-38.08481040,-78.31317222,-179.72331348,-179.39622653
174.67231173,-46.38747334,-54.67378987,-110.41396188,-8.74460554,6.70390909
21.36013750,-2.70144196,-0.72692472,-0.13066037

>  <Name>
1lc4

>  <RI>
0

>  <Rbt.Current_Directory>
/home/afrankz/demos/rdock_decoys_rna/rnas/1lc4

>  <Rbt.Executable>
rbdock ($Id: //depot/dev/client3/rdock/2013.1/src/exe/rbdock.cxx#4 $)

>  <Rbt.Library>
libRbt.so (2013.1, Build901 2013/11/27)

>  <Rbt.Parameter_File>
/export/apps/rDock/src/rDock_2013.1_src/data/scripts/dock_solv.prm

>  <Rbt.Receptor>
prm/pocket_docking_7.prm

>  <SCORE>
-52.1479

>  <SCORE.INTER>
-42.5882

>  <SCORE.INTER.CONST>
1

>  <SCORE.INTER.POLAR>
-6.40525

>  <SCORE.INTER.ROT>
6

>  <SCORE.INTER.SOLV>
27.5303

>  <SCORE.INTER.VDW>
-23.818

>  <SCORE.INTER.norm>
-1.33088

>  <SCORE.INTRA>
-9.55975

>  <SCORE.INTRA.DIHEDRAL>
-21.8411

>  <SCORE.INTRA.DIHEDRAL.0>
44.2576

>  <SCORE.INTRA.POLAR>
0.00105177

>  <SCORE.INTRA.POLAR.0>
-0.381556

>  <SCORE.INTRA.REPUL>
0.00848086

>  <SCORE.INTRA.REPUL.0>
0

>  <SCORE.INTRA.SOLV>
0.791195

>  <SCORE.INTRA.SOLV.lig_0>
-134.592

>  <SCORE.INTRA.VDW>
0.919215

>  <SCORE.INTRA.VDW.0>
-1.01417

>  <SCORE.INTRA.norm>
-0.298742

>  <SCORE.RESTR>
0

>  <SCORE.RESTR.CAVITY>
0

>  <SCORE.RESTR.norm>
0

>  <SCORE.SYSTEM>
0

>  <SCORE.SYSTEM.CONST>
0

>  <SCORE.SYSTEM.DIHEDRAL>
0

>  <SCORE.SYSTEM.SOLV>
0

>  <SCORE.SYSTEM.norm>
0

>  <SCORE.heavy>
32

>  <SCORE.norm>
-1.62962

>  <RMSD>
9.216

$$$$
1lc4
 OpenBabel02141814113D
libRbt.so/2013.1/901 2013/11/27
 32 34  0  0  0  0  0  0  0  0999 V2000
  -12.4732    9.3800   18.8056 C   0  0  2  0  0  0  0  0  0  0  0  0
  -12.7560    8.1339   19.3913 O   0  0  0  0  0  0  0  0  0  0  0  0
  -12.9503   10.4837   19.7716 C   0  0  2  0  0  0  0  0  0  0  0  0
  -12.2864   10.3456   21.0715 N   0  3  0  0  0  0  0  0  0  0  0  0
  -14.4895   10.4351   19.9164 C   0  0  0  0  0  0  0  0  0  0  0  0
  -15.0927   10.6271   18.5138 C   0  0  2  0  0  0  0  0  0  0  0  0
  -16.5225   10.6407   18.5829 O   0  0  0  0  0  0  0  0  0  0  0  0
  -14.5855    9.4998   17.5804 C   0  0  2  0  0  0  0  0  0  0  0  0
  -13.1305    9.5034   17.5251 O   0  0  0  0  0  0  0  0  0  0  0  0
  -15.0848    9.6283   16.1434 C   0  0  0  0  0  0  0  0  0  0  0  0
  -14.8545   10.9982   15.6142 N   0  3  0  0  0  0  0  0  0  0  0  0
  -10.4615    5.2604   21.4982 C   0  0  2  0  0  0  0  0  0  0  0  0
   -9.4286    4.2724   21.8598 N   0  3  0  0  0  0  0  0  0  0  0  0
  -11.2355    4.7772   20.2793 C   0  0  0  0  0  0  0  0  0  0  0  0
  -12.3107    5.7981   19.8909 C   0  0  2  0  0  0  0  0  0  0  0  0
  -13.1134    5.2331   18.7778 N   0  3  0  0  0  0  0  0  0  0  0  0
  -11.6828    7.1903   19.5827 C   0  0  2  0  0  0  0  0  0  0  0  0
  -10.8453    7.6596   20.8001 C   0  0  2  0  0  0  0  0  0  0  0  0
  -10.1470    8.8336   20.4623 O   0  0  0  0  0  0  0  0  0  0  0  0
   -9.7994    6.6011   21.1863 C   0  0  1  0  0  0  0  0  0  0  0  0
   -9.0768    7.0610   22.3278 O   0  0  0  0  0  0  0  0  0  0  0  0
   -7.7215    6.7752   22.3784 C   0  0  2  0  0  0  0  0  0  0  0  0
   -7.3327    6.4700   23.8351 C   0  0  2  0  0  0  0  0  0  0  0  0
   -8.0952    5.3572   24.2851 O   0  0  0  0  0  0  0  0  0  0  0  0
   -7.6265    7.6998   24.7119 C   0  0  1  0  0  0  0  0  0  0  0  0
   -7.2885    7.4552   26.1437 N   0  3  0  0  0  0  0  0  0  0  0  0
   -6.8391    8.9159   24.1658 C   0  0  2  0  0  0  0  0  0  0  0  0
   -7.1116   10.0787   24.9446 O   0  0  0  0  0  0  0  0  0  0  0  0
   -7.1939    9.1588   22.6871 C   0  0  2  0  0  0  0  0  0  0  0  0
   -6.9864    7.9309   21.8986 O   0  0  0  0  0  0  0  0  0  0  0  0
   -6.3352   10.2370   22.0641 C   0  0  0  0  0  0  0  0  0  0  0  0
   -4.9810    9.8139   21.9214 O   0  0  0  0  0  0  0  0  0  0  0  0
  1  2  1  1  0  0  0
  1  3  1  0  0  0  0
  1  9  1  0  0  0  0
  3  4  1  1  0  0  0
  3  5  1  0  0  0  0
  5  6  1  0  0  0  0
  6  7  1  1  0  0  0
  6  8  1  0  0  0  0
  8  9  1  0  0  0  0
  8 10  1  6  0  0  0
 10 11  1  0  0  0  0
 12 13  1  6  0  0  0
 12 14  1  0  0  0  0
 12 20  1  0  0  0  0
 14 15  1  0  0  0  0
 15 16  1  6  0  0  0
 15 17  1  0  0  0  0
 17  2  1  1  0  0  0
 17 18  1  0  0  0  0
 18 19  1  6  0  0  0
 18 20  1  0  0  0  0
 20 21  1  1  0  0  0
 22 21  1  1  0  0  0
 22 23  1  0  0  0  0
 22 30  1  0  0  0  0
 23 24  1  1  0  0  0
 23 25  1  0  0  0  0
 25 26  1  1  0  0  0
 25 27  1  0  0  0  0
 27 28  1  1  0  0  0
 27 29  1  0  0  0  0
 29 30  1  0  0  0  0
 29 31  1  6  0  0  0
 31 32  1  0  0  0  0
M  CHG  5   4   1  11   1  13   1  16   1  26   1
M  END
>  <CHROM.1>
-123.98534671,-165.57868019,-65.68763000,60.37880157,49.97051130,71.44300858
-41.93936460,66.58276032,-171.00240373,95.50121059,-143.19186126,-80.10881774
-167.56116242,59.26430291,68.99895734,66.03676174,-10.60511147,8.20830562
20.91393018,-2.87387388,0.65074028,3.03825764

>  <Name>
1lc4

>  <RI>
0

>  <Rbt.Current_Directory>
/home/afrankz/demos/rdock_decoys_rna/rnas/1lc4

>  <Rbt.Executable>
rbdock ($Id: //depot/dev/client3/rdock/2013.1/src/exe/rbdock.cxx#4 $)

>  <Rbt.Library>
libRbt.so (2013.1, Build901 2013/11/27)

>  <Rbt.Parameter_File>
/export/apps/rDock/src/rDock_2013.1_src/data/scripts/dock_solv.prm

>  <Rbt.Receptor>
prm/pocket_docking_5.prm

>  <SCORE>
-49.2562

>  <SCORE.INTER>
-33.315

>  <SCORE.INTER.CONST>
1

>  <SCORE.INTER.POLAR>
-4.67714

>  <SCORE.INTER.ROT>
6

>  <SCORE.INTER.SOLV>
27.6158

>  <SCORE.INTER.VDW>
-23.4248

>  <SCORE.INTER.norm>
-1.04109

>  <SCORE.INTRA>
-15.9412

>  <SCORE.INTRA.DIHEDRAL>
-21.947

>  <SCORE.INTRA.DIHEDRAL.0>
44.2576

>  <SCORE.INTRA.POLAR>
-0.903293

>  <SCORE.INTRA.POLAR.0>
-0.381556

>  <SCORE.INTRA.REPUL>
0

>  <SCORE.INTRA.REPUL.0>
0

>  <SCORE.INTRA.SOLV>
3.20542

>  <SCORE.INTRA.SOLV.lig_0>
-134.592

>  <SCORE.INTRA.VDW>
-3.49924

>  <SCORE.INTRA.VDW.0>
-1.01417

>  <SCORE.INTRA.norm>
-0.498164

>  <SCORE.RESTR>
0

>  <SCORE.RESTR.CAVITY>
0

>  <SCORE.RESTR.norm>
0

>  <SCORE.SYSTEM>
0

>  <SCORE.SYSTEM.CONST>
0

>  <SCORE.SYSTEM.DIHEDRAL>
0

>  <SCORE.SYSTEM.SOLV>
0

>  <SCORE.SYSTEM.norm>
0

>  <SCORE.heavy>
32

>  <SCORE.norm>
-1.53926

>  <RMSD>
9.228

$$$$
1lc4
 OpenBabel02141814113D
libRbt.so/2013.1/901 2013/11/27
 32 34  0  0  0  0  0  0  0  0999 V2000
  -13.3055    3.3323   20.3973 C   0  0  2  0  0  0  0  0  0  0  0  0
  -12.1567    3.8669   19.7886 O   0  0  0  0  0  0  0  0  0  0  0  0
  -13.1718    1.7958   20.4083 C   0  0  2  0  0  0  0  0  0  0  0  0
  -11.9567    1.3948   21.1241 N   0  3  0  0  0  0  0  0  0  0  0  0
  -13.1796    1.2507   18.9607 C   0  0  0  0  0  0  0  0  0  0  0  0
  -14.5032    1.6874   18.3088 C   0  0  2  0  0  0  0  0  0  0  0  0
  -14.5971    1.1724   16.9764 O   0  0  0  0  0  0  0  0  0  0  0  0
  -14.5939    3.2337   18.3218 C   0  0  2  0  0  0  0  0  0  0  0  0
  -14.4957    3.7360   19.6849 O   0  0  0  0  0  0  0  0  0  0  0  0
  -15.9002    3.7719   17.7432 C   0  0  0  0  0  0  0  0  0  0  0  0
  -16.0402    3.4148   16.3071 N   0  3  0  0  0  0  0  0  0  0  0  0
   -9.4676    7.0991   20.3193 C   0  0  2  0  0  0  0  0  0  0  0  0
   -8.9061    8.4329   20.6013 N   0  3  0  0  0  0  0  0  0  0  0  0
  -10.4355    7.1826   19.1469 C   0  0  0  0  0  0  0  0  0  0  0  0
  -11.0293    5.8019   18.8461 C   0  0  2  0  0  0  0  0  0  0  0  0
  -11.8704    5.9086   17.6280 N   0  3  0  0  0  0  0  0  0  0  0  0
  -11.7734    5.2244   20.0871 C   0  0  2  0  0  0  0  0  0  0  0  0
  -10.8073    5.1924   21.2993 C   0  0  2  0  0  0  0  0  0  0  0  0
  -11.5207    4.8278   22.4561 O   0  0  0  0  0  0  0  0  0  0  0  0
  -10.2025    6.5825   21.5547 C   0  0  1  0  0  0  0  0  0  0  0  0
   -9.2981    6.4975   22.6554 O   0  0  0  0  0  0  0  0  0  0  0  0
   -8.2599    5.5847   22.5545 C   0  0  2  0  0  0  0  0  0  0  0  0
   -8.0569    4.9110   23.9225 C   0  0  2  0  0  0  0  0  0  0  0  0
   -9.2643    4.2558   24.2898 O   0  0  0  0  0  0  0  0  0  0  0  0
   -7.6962    5.9783   24.9705 C   0  0  1  0  0  0  0  0  0  0  0  0
   -7.5077    5.3852   26.3257 N   0  3  0  0  0  0  0  0  0  0  0  0
   -6.4171    6.7249   24.5193 C   0  0  2  0  0  0  0  0  0  0  0  0
   -6.0720    7.7391   25.4600 O   0  0  0  0  0  0  0  0  0  0  0  0
   -6.6215    7.3318   23.1187 C   0  0  2  0  0  0  0  0  0  0  0  0
   -7.0554    6.2946   22.1656 O   0  0  0  0  0  0  0  0  0  0  0  0
   -5.3493    7.9369   22.5680 C   0  0  0  0  0  0  0  0  0  0  0  0
   -4.2490    7.0363   22.6760 O   0  0  0  0  0  0  0  0  0  0  0  0
  1  2  1  6  0  0  0
  1  3  1  0  0  0  0
  1  9  1  0  0  0  0
  3  4  1  6  0  0  0
  3  5  1  0  0  0  0
  5  6  1  0  0  0  0
  6  7  1  6  0  0  0
  6  8  1  0  0  0  0
  8  9  1  0  0  0  0
  8 10  1  1  0  0  0
 10 11  1  0  0  0  0
 12 13  1  1  0  0  0
 12 14  1  0  0  0  0
 12 20  1  0  0  0  0
 14 15  1  0  0  0  0
 15 16  1  6  0  0  0
 15 17  1  0  0  0  0
 17  2  1  6  0  0  0
 17 18  1  0  0  0  0
 18 19  1  1  0  0  0
 18 20  1  0  0  0  0
 20 21  1  1  0  0  0
 22 21  1  1  0  0  0
 22 23  1  0  0  0  0
 22 30  1  0  0  0  0
 23 24  1  1  0  0  0
 23 25  1  0  0  0  0
 25 26  1  1  0  0  0
 25 27  1  0  0  0  0
 27 28  1  1  0  0  0
 27 29  1  0  0  0  0
 29 30  1  0  0  0  0
 29 31  1  6  0  0  0
 31 32  1  0  0  0  0
M  CHG  5   4   1  11   1  13   1  16   1  26   1
M  END
>  <CHROM.1>
-156.57870173,-150.78998852,59.51054740,-50.27220575,-63.09734032,53.43245886
-77.98261979,64.90597916,178.70615635,-65.13385503,-140.34540110,-174.69035752
53.61643213,-58.84763449,49.48298999,-179.67818479,-10.47555645,5.01731581
21.11161004,2.96887794,-0.71603678,-0.87165349

>  <Name>
1lc4

>  <RI>
0

>  <Rbt.Current_Directory>
/home/afrankz/demos/rdock_decoys_rna/rnas/1lc4

>  <Rbt.Executable>
rbdock ($Id: //depot/dev/client3/rdock/2013.1/src/exe/rbdock.cxx#4 $)

>  <Rbt.Library>
libRbt.so (2013.1, Build901 2013/11/27)

>  <Rbt.Parameter_File>
/export/apps/rDock/src/rDock_2013.1_src/data/scripts/dock_solv.prm

>  <Rbt.Receptor>
prm/pocket_docking_6.prm

>  <SCORE>
-48.251

>  <SCORE.INTER>
-26.1547

>  <SCORE.INTER.CONST>
1

>  <SCORE.INTER.POLAR>
-3.95832

>  <SCORE.INTER.ROT>
6

>  <SCORE.INTER.SOLV>
26.9283

>  <SCORE.INTER.VDW>
-20.8182

>  <SCORE.INTER.norm>
-0.817333

>  <SCORE.INTRA>
-22.0963

>  <SCORE.INTRA.DIHEDRAL>
-30.8107

>  <SCORE.INTRA.DIHEDRAL.0>
44.2576

>  <SCORE.INTRA.POLAR>
-1.17714

>  <SCORE.INTRA.POLAR.0>
-0.381556

>  <SCORE.INTRA.REPUL>
0

>  <SCORE.INTRA.REPUL.0>
0

>  <SCORE.INTRA.SOLV>
0.771315

>  <SCORE.INTRA.SOLV.lig_0>
-134.592

>  <SCORE.INTRA.VDW>
-3.07438

>  <SCORE.INTRA.VDW.0>
-1.01417

>  <SCORE.INTRA.norm>
-0.69051

>  <SCORE.RESTR>
0

>  <SCORE.RESTR.CAVITY>
0

>  <SCORE.RESTR.norm>
0

>  <SCORE.SYSTEM>
0

>  <SCORE.SYSTEM.CONST>
0

>  <SCORE.SYSTEM.DIHEDRAL>
0

>  <SCORE.SYSTEM.SOLV>
0

>  <SCORE.SYSTEM.norm>
0

>  <SCORE.heavy>
32

>  <SCORE.norm>
-1.50784

>  <RMSD>
9.250

$$$$
1lc4
 OpenBabel02141814113D
libRbt.so/2013.1/901 2013/11/27
 32 34  0  0  0  0  0  0  0  0999 V2000
   -9.2577    4.1671   14.1032 C   0  0  2  0  0  0  0  0  0  0  0  0
  -10.3250    3.3243   14.4592 O   0  0  0  0  0  0  0  0  0  0  0  0
   -9.6796    5.6227   14.3896 C   0  0  2  0  0  0  0  0  0  0  0  0
  -10.0328    5.7824   15.8036 N   0  3  0  0  0  0  0  0  0  0  0  0
  -10.8521    6.0284   13.4660 C   0  0  0  0  0  0  0  0  0  0  0  0
  -10.3742    5.8655   12.0125 C   0  0  2  0  0  0  0  0  0  0  0  0
  -11.4004    6.2723   11.1010 O   0  0  0  0  0  0  0  0  0  0  0  0
   -9.9605    4.3922   11.7723 C   0  0  2  0  0  0  0  0  0  0  0  0
   -8.9175    3.9992   12.7093 O   0  0  0  0  0  0  0  0  0  0  0  0
   -9.4175    4.1332   10.3692 C   0  0  0  0  0  0  0  0  0  0  0  0
   -9.4441    2.6836   10.0409 N   0  3  0  0  0  0  0  0  0  0  0  0
  -11.4387    0.1832   17.0771 C   0  0  2  0  0  0  0  0  0  0  0  0
  -11.4196   -0.8392   18.1392 N   0  3  0  0  0  0  0  0  0  0  0  0
  -10.3526   -0.1150   16.0524 C   0  0  0  0  0  0  0  0  0  0  0  0
  -10.3598    0.9437   14.9441 C   0  0  2  0  0  0  0  0  0  0  0  0
   -9.3696    0.5483   13.9117 N   0  3  0  0  0  0  0  0  0  0  0  0
  -10.1397    2.3722   15.5259 C   0  0  2  0  0  0  0  0  0  0  0  0
  -11.2087    2.6574   16.6120 C   0  0  2  0  0  0  0  0  0  0  0  0
  -10.9122    3.8754   17.2511 O   0  0  0  0  0  0  0  0  0  0  0  0
  -11.2000    1.5616   17.6903 C   0  0  1  0  0  0  0  0  0  0  0  0
  -12.2186    1.8482   18.6479 O   0  0  0  0  0  0  0  0  0  0  0  0
  -12.0300    1.3734   19.9364 C   0  0  2  0  0  0  0  0  0  0  0  0
  -13.3883    1.3422   20.6576 C   0  0  2  0  0  0  0  0  0  0  0  0
  -14.2671    0.4896   19.9346 O   0  0  0  0  0  0  0  0  0  0  0  0
  -13.9679    2.7663   20.7197 C   0  0  1  0  0  0  0  0  0  0  0  0
  -15.2990    2.7958   21.3915 N   0  3  0  0  0  0  0  0  0  0  0  0
  -12.9669    3.6932   21.4518 C   0  0  2  0  0  0  0  0  0  0  0  0
  -13.4664    5.0276   21.5027 O   0  0  0  0  0  0  0  0  0  0  0  0
  -11.5959    3.6542   20.7516 C   0  0  2  0  0  0  0  0  0  0  0  0
  -11.1186    2.2650   20.6295 O   0  0  0  0  0  0  0  0  0  0  0  0
  -10.5414    4.4203   21.5191 C   0  0  0  0  0  0  0  0  0  0  0  0
  -10.8800    5.7998   21.6438 O   0  0  0  0  0  0  0  0  0  0  0  0
  1  2  1  6  0  0  0
  1  3  1  0  0  0  0
  1  9  1  0  0  0  0
  3  4  1  1  0  0  0
  3  5  1  0  0  0  0
  5  6  1  0  0  0  0
  6  7  1  6  0  0  0
  6  8  1  0  0  0  0
  8  9  1  0  0  0  0
  8 10  1  6  0  0  0
 10 11  1  0  0  0  0
 12 13  1  1  0  0  0
 12 14  1  0  0  0  0
 12 20  1  0  0  0  0
 14 15  1  0  0  0  0
 15 16  1  6  0  0  0
 15 17  1  0  0  0  0
 17  2  1  6  0  0  0
 17 18  1  0  0  0  0
 18 19  1  1  0  0  0
 18 20  1  0  0  0  0
 20 21  1  1  0  0  0
 22 21  1  6  0  0  0
 22 23  1  0  0  0  0
 22 30  1  0  0  0  0
 23 24  1  6  0  0  0
 23 25  1  0  0  0  0
 25 26  1  1  0  0  0
 25 27  1  0  0  0  0
 27 28  1  6  0  0  0
 27 29  1  0  0  0  0
 29 30  1  0  0  0  0
 29 31  1  1  0  0  0
 31 32  1  0  0  0  0
M  CHG  5   4   1  11   1  13   1  16   1  26   1
M  END
>  <CHROM.1>
-116.44120888,-119.67611087,174.06307788,-56.60456049,-161.90387334,60.30763866
-161.65407786,-172.74034195,-55.69525566,85.20610772,-160.47473702,67.21240410
-173.04456721,-178.67555748,-61.19427928,-177.94147574,-11.19669482,3.09797935
16.77357770,0.02935230,1.24936966,0.12662776

>  <Name>
1lc4

>  <RI>
0

>  <Rbt.Current_Directory>
/home/afrankz/demos/rdock_decoys_rna/rnas/1lc4

>  <Rbt.Executable>
rbdock ($Id: //depot/dev/client3/rdock/2013.1/src/exe/rbdock.cxx#4 $)

>  <Rbt.Library>
libRbt.so (2013.1, Build901 2013/11/27)

>  <Rbt.Parameter_File>
/export/apps/rDock/src/rDock_2013.1_src/data/scripts/dock_solv.prm

>  <Rbt.Receptor>
prm/blind_docking_100.prm

>  <SCORE>
-28.841

>  <SCORE.INTER>
-14.1965

>  <SCORE.INTER.CONST>
1

>  <SCORE.INTER.POLAR>
-2.64326

>  <SCORE.INTER.ROT>
6

>  <SCORE.INTER.SOLV>
22.5332

>  <SCORE.INTER.VDW>
-15.7645

>  <SCORE.INTER.norm>
-0.443641

>  <SCORE.INTRA>
-16.343

>  <SCORE.INTRA.DIHEDRAL>
-22.7722

>  <SCORE.INTRA.DIHEDRAL.0>
44.2576

>  <SCORE.INTRA.POLAR>
-0.737101

>  <SCORE.INTRA.POLAR.0>
-0.381556

>  <SCORE.INTRA.REPUL>
0.0187077

>  <SCORE.INTRA.REPUL.0>
0

>  <SCORE.INTRA.SOLV>
1.51255

>  <SCORE.INTRA.SOLV.lig_0>
-134.592

>  <SCORE.INTRA.VDW>
-3.30052

>  <SCORE.INTRA.VDW.0>
-1.01417

>  <SCORE.INTRA.norm>
-0.510717

>  <SCORE.RESTR>
1.69847

>  <SCORE.RESTR.CAVITY>
1.69847

>  <SCORE.RESTR.norm>
0.0530772

>  <SCORE.SYSTEM>
0

>  <SCORE.SYSTEM.CONST>
0

>  <SCORE.SYSTEM.DIHEDRAL>
0

>  <SCORE.SYSTEM.SOLV>
0

>  <SCORE.SYSTEM.norm>
0

>  <SCORE.heavy>
32

>  <SCORE.norm>
-0.901281

>  <RMSD>
9.251

$$$$
1lc4
 OpenBabel02141814113D
libRbt.so/2013.1/901 2013/11/27
 32 34  0  0  0  0  0  0  0  0999 V2000
  -11.8239    4.4264   18.3692 C   0  0  2  0  0  0  0  0  0  0  0  0
  -10.7918    4.5181   19.3191 O   0  0  0  0  0  0  0  0  0  0  0  0
  -12.5142    3.0579   18.5413 C   0  0  2  0  0  0  0  0  0  0  0  0
  -13.0341    2.9169   19.9049 N   0  3  0  0  0  0  0  0  0  0  0  0
  -11.5291    1.9175   18.1924 C   0  0  0  0  0  0  0  0  0  0  0  0
  -11.0722    2.1291   16.7384 C   0  0  2  0  0  0  0  0  0  0  0  0
  -10.1915    1.0757   16.3335 O   0  0  0  0  0  0  0  0  0  0  0  0
  -10.3881    3.5133   16.6136 C   0  0  2  0  0  0  0  0  0  0  0  0
  -11.3000    4.5691   17.0305 O   0  0  0  0  0  0  0  0  0  0  0  0
   -9.9431    3.8466   15.1918 C   0  0  0  0  0  0  0  0  0  0  0  0
   -8.5565    3.3751   14.9373 N   0  3  0  0  0  0  0  0  0  0  0  0
   -9.1263    7.7783   21.4540 C   0  0  2  0  0  0  0  0  0  0  0  0
   -8.9523    8.9236   22.3660 N   0  3  0  0  0  0  0  0  0  0  0  0
  -10.2022    8.0956   20.4244 C   0  0  0  0  0  0  0  0  0  0  0  0
  -10.3953    6.9104   19.4719 C   0  0  2  0  0  0  0  0  0  0  0  0
  -11.3628    7.3078   18.4190 N   0  3  0  0  0  0  0  0  0  0  0  0
  -10.7920    5.6198   20.2492 C   0  0  2  0  0  0  0  0  0  0  0  0
   -9.7283    5.3258   21.3382 C   0  0  2  0  0  0  0  0  0  0  0  0
  -10.1679    4.2602   22.1454 O   0  0  0  0  0  0  0  0  0  0  0  0
   -9.5328    6.5436   22.2559 C   0  0  1  0  0  0  0  0  0  0  0  0
   -8.5248    6.2387   23.2191 O   0  0  0  0  0  0  0  0  0  0  0  0
   -7.3695    5.6279   22.7570 C   0  0  2  0  0  0  0  0  0  0  0  0
   -6.6510    4.9632   23.9436 C   0  0  2  0  0  0  0  0  0  0  0  0
   -7.5252    4.0039   24.5246 O   0  0  0  0  0  0  0  0  0  0  0  0
   -6.2790    6.0354   24.9828 C   0  0  1  0  0  0  0  0  0  0  0  0
   -5.5962    5.4453   26.1701 N   0  3  0  0  0  0  0  0  0  0  0  0
   -5.3819    7.1052   24.3137 C   0  0  2  0  0  0  0  0  0  0  0  0
   -5.0413    8.1272   25.2476 O   0  0  0  0  0  0  0  0  0  0  0  0
   -6.0951    7.7066   23.0884 C   0  0  2  0  0  0  0  0  0  0  0  0
   -6.5166    6.6403   22.1622 O   0  0  0  0  0  0  0  0  0  0  0  0
   -5.1984    8.6429   22.3091 C   0  0  0  0  0  0  0  0  0  0  0  0
   -4.5983    9.6217   23.1548 O   0  0  0  0  0  0  0  0  0  0  0  0
  1  2  1  1  0  0  0
  1  3  1  0  0  0  0
  1  9  1  0  0  0  0
  3  4  1  1  0  0  0
  3  5  1  0  0  0  0
  5  6  1  0  0  0  0
  6  7  1  1  0  0  0
  6  8  1  0  0  0  0
  8  9  1  0  0  0  0
  8 10  1  6  0  0  0
 10 11  1  0  0  0  0
 12 13  1  1  0  0  0
 12 14  1  0  0  0  0
 12 20  1  0  0  0  0
 14 15  1  0  0  0  0
 15 16  1  6  0  0  0
 15 17  1  0  0  0  0
 17  2  1  6  0  0  0
 17 18  1  0  0  0  0
 18 19  1  1  0  0  0
 18 20  1  0  0  0  0
 20 21  1  1  0  0  0
 22 21  1  1  0  0  0
 22 23  1  0  0  0  0
 22 30  1  0  0  0  0
 23 24  1  1  0  0  0
 23 25  1  0  0  0  0
 25 26  1  1  0  0  0
 25 27  1  0  0  0  0
 27 28  1  1  0  0  0
 27 29  1  0  0  0  0
 29 30  1  0  0  0  0
 29 31  1  6  0  0  0
 31 32  1  0  0  0  0
M  CHG  5   4   1  11   1  13   1  16   1  26   1
M  END
>  <CHROM.1>
-123.19421731,-72.68951028,-63.05090122,173.69864716,-89.86328562,-162.13885271
97.56062058,48.26629355,-59.24245361,-76.45766777,-160.89571954,-64.20388742
178.79663583,-172.28373655,-51.34068874,-168.15176132,-8.91718861,5.51425288
20.80814050,-2.96943148,1.00393518,2.42193857

>  <Name>
1lc4

>  <RI>
0

>  <Rbt.Current_Directory>
/home/afrankz/demos/rdock_decoys_rna/rnas/1lc4

>  <Rbt.Executable>
rbdock ($Id: //depot/dev/client3/rdock/2013.1/src/exe/rbdock.cxx#4 $)

>  <Rbt.Library>
libRbt.so (2013.1, Build901 2013/11/27)

>  <Rbt.Parameter_File>
/export/apps/rDock/src/rDock_2013.1_src/data/scripts/dock_solv.prm

>  <Rbt.Receptor>
prm/pocket_docking_6.prm

>  <SCORE>
-43.4936

>  <SCORE.INTER>
-26.5705

>  <SCORE.INTER.CONST>
1

>  <SCORE.INTER.POLAR>
-3.57222

>  <SCORE.INTER.ROT>
6

>  <SCORE.INTER.SOLV>
18.5417

>  <SCORE.INTER.VDW>
-19.5868

>  <SCORE.INTER.norm>
-0.830327

>  <SCORE.INTRA>
-16.9231

>  <SCORE.INTRA.DIHEDRAL>
-25.6413

>  <SCORE.INTRA.DIHEDRAL.0>
44.2576

>  <SCORE.INTRA.POLAR>
-1.52082

>  <SCORE.INTRA.POLAR.0>
-0.381556

>  <SCORE.INTRA.REPUL>
0

>  <SCORE.INTRA.REPUL.0>
0

>  <SCORE.INTRA.SOLV>
1.06914

>  <SCORE.INTRA.SOLV.lig_0>
-134.592

>  <SCORE.INTRA.VDW>
0.533753

>  <SCORE.INTRA.VDW.0>
-1.01417

>  <SCORE.INTRA.norm>
-0.528848

>  <SCORE.RESTR>
0

>  <SCORE.RESTR.CAVITY>
0

>  <SCORE.RESTR.norm>
0

>  <SCORE.SYSTEM>
0

>  <SCORE.SYSTEM.CONST>
0

>  <SCORE.SYSTEM.DIHEDRAL>
0

>  <SCORE.SYSTEM.SOLV>
0

>  <SCORE.SYSTEM.norm>
0

>  <SCORE.heavy>
32

>  <SCORE.norm>
-1.35917

>  <RMSD>
9.258

$$$$
1lc4
 OpenBabel02141814113D
libRbt.so/2013.1/901 2013/11/27
 32 34  0  0  0  0  0  0  0  0999 V2000
  -12.7024    6.2021   20.2279 C   0  0  2  0  0  0  0  0  0  0  0  0
  -11.7810    6.6286   21.2001 O   0  0  0  0  0  0  0  0  0  0  0  0
  -14.1220    6.5224   20.7389 C   0  0  2  0  0  0  0  0  0  0  0  0
  -14.2566    7.9581   21.0038 N   0  3  0  0  0  0  0  0  0  0  0  0
  -14.4350    5.6842   22.0006 C   0  0  0  0  0  0  0  0  0  0  0  0
  -14.3065    4.2003   21.6142 C   0  0  2  0  0  0  0  0  0  0  0  0
  -14.6319    3.3640   22.7296 O   0  0  0  0  0  0  0  0  0  0  0  0
  -12.8688    3.9267   21.1067 C   0  0  2  0  0  0  0  0  0  0  0  0
  -12.5585    4.7872   19.9739 O   0  0  0  0  0  0  0  0  0  0  0  0
  -12.6496    2.4882   20.6447 C   0  0  0  0  0  0  0  0  0  0  0  0
  -13.3259    2.2310   19.3462 N   0  3  0  0  0  0  0  0  0  0  0  0
   -7.5948    7.1525   21.6015 C   0  0  2  0  0  0  0  0  0  0  0  0
   -6.1877    7.5064   21.3396 N   0  3  0  0  0  0  0  0  0  0  0  0
   -8.0753    6.1430   20.5678 C   0  0  0  0  0  0  0  0  0  0  0  0
   -9.5390    5.7695   20.8273 C   0  0  2  0  0  0  0  0  0  0  0  0
   -9.9261    4.7003   19.8736 N   0  3  0  0  0  0  0  0  0  0  0  0
  -10.4588    7.0263   20.7850 C   0  0  2  0  0  0  0  0  0  0  0  0
   -9.9380    8.0811   21.7950 C   0  0  2  0  0  0  0  0  0  0  0  0
  -10.6658    9.2755   21.6405 O   0  0  0  0  0  0  0  0  0  0  0  0
   -8.4596    8.4094   21.5307 C   0  0  1  0  0  0  0  0  0  0  0  0
   -8.0164    9.3569   22.5016 O   0  0  0  0  0  0  0  0  0  0  0  0
   -7.7169    8.8763   23.7668 C   0  0  2  0  0  0  0  0  0  0  0  0
   -7.9804    9.9892   24.7955 C   0  0  2  0  0  0  0  0  0  0  0  0
   -9.3490   10.3671   24.7156 O   0  0  0  0  0  0  0  0  0  0  0  0
   -7.0805   11.1979   24.4841 C   0  0  1  0  0  0  0  0  0  0  0  0
   -7.3078   12.3207   25.4390 N   0  3  0  0  0  0  0  0  0  0  0  0
   -5.5984   10.7511   24.5106 C   0  0  2  0  0  0  0  0  0  0  0  0
   -4.7403   11.8466   24.2001 O   0  0  0  0  0  0  0  0  0  0  0  0
   -5.3749    9.5909   23.5228 C   0  0  2  0  0  0  0  0  0  0  0  0
   -6.3179    8.4916   23.7967 O   0  0  0  0  0  0  0  0  0  0  0  0
   -3.9799    9.0152   23.6253 C   0  0  0  0  0  0  0  0  0  0  0  0
   -3.8224    7.8673   22.7941 O   0  0  0  0  0  0  0  0  0  0  0  0
  1  2  1  1  0  0  0
  1  3  1  0  0  0  0
  1  9  1  0  0  0  0
  3  4  1  1  0  0  0
  3  5  1  0  0  0  0
  5  6  1  0  0  0  0
  6  7  1  1  0  0  0
  6  8  1  0  0  0  0
  8  9  1  0  0  0  0
  8 10  1  6  0  0  0
 10 11  1  0  0  0  0
 12 13  1  6  0  0  0
 12 14  1  0  0  0  0
 12 20  1  0  0  0  0
 14 15  1  0  0  0  0
 15 16  1  6  0  0  0
 15 17  1  0  0  0  0
 17  2  1  1  0  0  0
 17 18  1  0  0  0  0
 18 19  1  6  0  0  0
 18 20  1  0  0  0  0
 20 21  1  1  0  0  0
 22 21  1  6  0  0  0
 22 23  1  0  0  0  0
 22 30  1  0  0  0  0
 23 24  1  6  0  0  0
 23 25  1  0  0  0  0
 25 26  1  1  0  0  0
 25 27  1  0  0  0  0
 27 28  1  6  0  0  0
 27 29  1  0  0  0  0
 29 30  1  0  0  0  0
 29 31  1  1  0  0  0
 31 32  1  0  0  0  0
M  CHG  5   4   1  11   1  13   1  16   1  26   1
M  END
>  <CHROM.1>
-151.63957077,-90.68033117,58.17798325,68.53392588,73.00211478,-48.26686923
-149.56106310,-146.32431269,-75.33799926,-43.65148884,-150.77609179,65.31600437
48.15882078,80.18762782,174.75821426,77.48270580,-9.55115003,7.44274421,22.14657586
2.42369402,-0.03332675,-2.59876291

>  <Name>
1lc4

>  <RI>
0

>  <Rbt.Current_Directory>
/home/afrankz/demos/rdock_decoys_rna/rnas/1lc4

>  <Rbt.Executable>
rbdock ($Id: //depot/dev/client3/rdock/2013.1/src/exe/rbdock.cxx#4 $)

>  <Rbt.Library>
libRbt.so (2013.1, Build901 2013/11/27)

>  <Rbt.Parameter_File>
/export/apps/rDock/src/rDock_2013.1_src/data/scripts/dock_solv.prm

>  <Rbt.Receptor>
prm/pocket_docking_8.prm

>  <SCORE>
-48.1566

>  <SCORE.INTER>
-35.4909

>  <SCORE.INTER.CONST>
1

>  <SCORE.INTER.POLAR>
-5.3026

>  <SCORE.INTER.ROT>
6

>  <SCORE.INTER.SOLV>
27.3356

>  <SCORE.INTER.VDW>
-22.6971

>  <SCORE.INTER.norm>
-1.10909

>  <SCORE.INTRA>
-12.6657

>  <SCORE.INTRA.DIHEDRAL>
-22.3191

>  <SCORE.INTRA.DIHEDRAL.0>
44.2576

>  <SCORE.INTRA.POLAR>
-1.47801

>  <SCORE.INTRA.POLAR.0>
-0.381556

>  <SCORE.INTRA.REPUL>
0

>  <SCORE.INTRA.REPUL.0>
0

>  <SCORE.INTRA.SOLV>
6.88638

>  <SCORE.INTRA.SOLV.lig_0>
-134.592

>  <SCORE.INTRA.VDW>
0.0758689

>  <SCORE.INTRA.VDW.0>
-1.01417

>  <SCORE.INTRA.norm>
-0.395804

>  <SCORE.RESTR>
0

>  <SCORE.RESTR.CAVITY>
0

>  <SCORE.RESTR.norm>
0

>  <SCORE.SYSTEM>
0

>  <SCORE.SYSTEM.CONST>
0

>  <SCORE.SYSTEM.DIHEDRAL>
0

>  <SCORE.SYSTEM.SOLV>
0

>  <SCORE.SYSTEM.norm>
0

>  <SCORE.heavy>
32

>  <SCORE.norm>
-1.50489

>  <RMSD>
9.259

$$$$
1lc4
 OpenBabel02141814113D
libRbt.so/2013.1/901 2013/11/27
 32 34  0  0  0  0  0  0  0  0999 V2000
  -11.4243    7.0928   19.0000 C   0  0  2  0  0  0  0  0  0  0  0  0
  -11.5361    6.5476   20.2909 O   0  0  0  0  0  0  0  0  0  0  0  0
  -12.7934    7.6857   18.6092 C   0  0  2  0  0  0  0  0  0  0  0  0
  -13.2045    8.7035   19.5812 N   0  3  0  0  0  0  0  0  0  0  0  0
  -13.8471    6.5594   18.4920 C   0  0  0  0  0  0  0  0  0  0  0  0
  -13.3480    5.5676   17.4267 C   0  0  2  0  0  0  0  0  0  0  0  0
  -14.3042    4.5201   17.2329 O   0  0  0  0  0  0  0  0  0  0  0  0
  -11.9731    5.0007   17.8601 C   0  0  2  0  0  0  0  0  0  0  0  0
  -11.0166    6.0816   18.0522 O   0  0  0  0  0  0  0  0  0  0  0  0
  -11.3612    4.0421   16.8415 C   0  0  0  0  0  0  0  0  0  0  0  0
   -9.9253    3.7917   17.1331 N   0  3  0  0  0  0  0  0  0  0  0  0
   -8.6399    5.2729   23.1099 C   0  0  2  0  0  0  0  0  0  0  0  0
   -7.5470    4.5380   23.7728 N   0  3  0  0  0  0  0  0  0  0  0  0
   -9.8013    4.3294   22.8281 C   0  0  0  0  0  0  0  0  0  0  0  0
  -10.9432    5.0812   22.1352 C   0  0  2  0  0  0  0  0  0  0  0  0
  -12.0934    4.1548   21.9887 N   0  3  0  0  0  0  0  0  0  0  0  0
  -10.4670    5.7241   20.7984 C   0  0  2  0  0  0  0  0  0  0  0  0
   -9.2469    6.6406   21.0724 C   0  0  2  0  0  0  0  0  0  0  0  0
   -8.7158    7.0901   19.8492 O   0  0  0  0  0  0  0  0  0  0  0  0
   -8.1332    5.8679   21.7975 C   0  0  1  0  0  0  0  0  0  0  0  0
   -7.0476    6.7573   22.0568 O   0  0  0  0  0  0  0  0  0  0  0  0
   -7.0341    7.4013   23.2841 C   0  0  2  0  0  0  0  0  0  0  0  0
   -6.9958    8.9207   23.0468 C   0  0  2  0  0  0  0  0  0  0  0  0
   -8.1471    9.2930   22.2998 O   0  0  0  0  0  0  0  0  0  0  0  0
   -5.7205    9.2852   22.2668 C   0  0  1  0  0  0  0  0  0  0  0  0
   -5.6387   10.7478   21.9876 N   0  3  0  0  0  0  0  0  0  0  0  0
   -4.4812    8.8123   23.0652 C   0  0  2  0  0  0  0  0  0  0  0  0
   -3.2830    9.1143   22.3539 O   0  0  0  0  0  0  0  0  0  0  0  0
   -4.5763    7.3017   23.3496 C   0  0  2  0  0  0  0  0  0  0  0  0
   -5.8523    6.9815   24.0143 O   0  0  0  0  0  0  0  0  0  0  0  0
   -3.4683    6.8219   24.2607 C   0  0  0  0  0  0  0  0  0  0  0  0
   -3.5410    7.4360   25.5456 O   0  0  0  0  0  0  0  0  0  0  0  0
  1  2  1  1  0  0  0
  1  3  1  0  0  0  0
  1  9  1  0  0  0  0
  3  4  1  1  0  0  0
  3  5  1  0  0  0  0
  5  6  1  0  0  0  0
  6  7  1  1  0  0  0
  6  8  1  0  0  0  0
  8  9  1  0  0  0  0
  8 10  1  6  0  0  0
 10 11  1  0  0  0  0
 12 13  1  6  0  0  0
 12 14  1  0  0  0  0
 12 20  1  0  0  0  0
 14 15  1  0  0  0  0
 15 16  1  6  0  0  0
 15 17  1  0  0  0  0
 17  2  1  1  0  0  0
 17 18  1  0  0  0  0
 18 19  1  6  0  0  0
 18 20  1  0  0  0  0
 20 21  1  1  0  0  0
 22 21  1  6  0  0  0
 22 23  1  0  0  0  0
 22 30  1  0  0  0  0
 23 24  1  6  0  0  0
 23 25  1  0  0  0  0
 25 26  1  1  0  0  0
 25 27  1  0  0  0  0
 27 28  1  6  0  0  0
 27 29  1  0  0  0  0
 29 30  1  0  0  0  0
 29 31  1  1  0  0  0
 31 32  1  0  0  0  0
M  CHG  5   4   1  11   1  13   1  16   1  26   1
M  END
>  <CHROM.1>
169.15990370,-171.31995504,102.85927318,176.73784499,166.03261082,-44.87605458
-54.17347288,41.81841820,177.88502458,-28.96882765,-123.03563268,67.89394657
173.22792008,-176.74316288,62.91768356,-60.03168271,-8.91543014,6.67456002
21.11086788,3.13744797,0.64309173,2.70103445

>  <Name>
1lc4

>  <RI>
0

>  <Rbt.Current_Directory>
/home/afrankz/demos/rdock_decoys_rna/rnas/1lc4

>  <Rbt.Executable>
rbdock ($Id: //depot/dev/client3/rdock/2013.1/src/exe/rbdock.cxx#4 $)

>  <Rbt.Library>
libRbt.so (2013.1, Build901 2013/11/27)

>  <Rbt.Parameter_File>
/export/apps/rDock/src/rDock_2013.1_src/data/scripts/dock_solv.prm

>  <Rbt.Receptor>
prm/pocket_docking_6.prm

>  <SCORE>
-52.9325

>  <SCORE.INTER>
-35.6709

>  <SCORE.INTER.CONST>
1

>  <SCORE.INTER.POLAR>
-4.70434

>  <SCORE.INTER.ROT>
6

>  <SCORE.INTER.SOLV>
27.5499

>  <SCORE.INTER.VDW>
-24.8828

>  <SCORE.INTER.norm>
-1.11472

>  <SCORE.INTRA>
-17.2616

>  <SCORE.INTRA.DIHEDRAL>
-26.7706

>  <SCORE.INTRA.DIHEDRAL.0>
44.2576

>  <SCORE.INTRA.POLAR>
-0.91793

>  <SCORE.INTRA.POLAR.0>
-0.381556

>  <SCORE.INTRA.REPUL>
0

>  <SCORE.INTRA.REPUL.0>
0

>  <SCORE.INTRA.SOLV>
-2.84452

>  <SCORE.INTRA.SOLV.lig_0>
-134.592

>  <SCORE.INTRA.VDW>
0.666924

>  <SCORE.INTRA.VDW.0>
-1.01417

>  <SCORE.INTRA.norm>
-0.539425

>  <SCORE.RESTR>
0

>  <SCORE.RESTR.CAVITY>
0

>  <SCORE.RESTR.norm>
0

>  <SCORE.SYSTEM>
0

>  <SCORE.SYSTEM.CONST>
0

>  <SCORE.SYSTEM.DIHEDRAL>
0

>  <SCORE.SYSTEM.SOLV>
0

>  <SCORE.SYSTEM.norm>
0

>  <SCORE.heavy>
32

>  <SCORE.norm>
-1.65414

>  <RMSD>
9.349

$$$$
1lc4
 OpenBabel02141814113D
libRbt.so/2013.1/901 2013/11/27
 32 34  0  0  0  0  0  0  0  0999 V2000
  -16.8801   15.7693   17.6500 C   0  0  2  0  0  0  0  0  0  0  0  0
  -15.9410   14.7482   17.4231 O   0  0  0  0  0  0  0  0  0  0  0  0
  -17.9358   15.7086   16.5272 C   0  0  2  0  0  0  0  0  0  0  0  0
  -18.5796   14.3915   16.5034 N   0  3  0  0  0  0  0  0  0  0  0  0
  -17.2835   16.0423   15.1649 C   0  0  0  0  0  0  0  0  0  0  0  0
  -16.6733   17.4504   15.2765 C   0  0  2  0  0  0  0  0  0  0  0  0
  -16.0922   17.8430   14.0285 O   0  0  0  0  0  0  0  0  0  0  0  0
  -15.6227   17.4638   16.4148 C   0  0  2  0  0  0  0  0  0  0  0  0
  -16.2339   17.0613   17.6736 O   0  0  0  0  0  0  0  0  0  0  0  0
  -14.9925   18.8350   16.6456 C   0  0  0  0  0  0  0  0  0  0  0  0
  -14.5552   19.4489   15.3644 N   0  3  0  0  0  0  0  0  0  0  0  0
  -12.8120   12.9517   19.6462 C   0  0  2  0  0  0  0  0  0  0  0  0
  -12.0504   12.2676   20.7072 N   0  3  0  0  0  0  0  0  0  0  0  0
  -13.3884   14.2554   20.1816 C   0  0  0  0  0  0  0  0  0  0  0  0
  -14.1861   14.9747   19.0882 C   0  0  2  0  0  0  0  0  0  0  0  0
  -14.6264   16.2896   19.6174 N   0  3  0  0  0  0  0  0  0  0  0  0
  -15.3451   14.0811   18.5538 C   0  0  2  0  0  0  0  0  0  0  0  0
  -14.7688   12.7286   18.0614 C   0  0  2  0  0  0  0  0  0  0  0  0
  -15.8272   11.8613   17.7334 O   0  0  0  0  0  0  0  0  0  0  0  0
  -13.9467   12.0480   19.1678 C   0  0  1  0  0  0  0  0  0  0  0  0
  -13.4111   10.8266   18.6600 O   0  0  0  0  0  0  0  0  0  0  0  0
  -13.9649    9.6464   19.1309 C   0  0  2  0  0  0  0  0  0  0  0  0
  -13.2824    9.2728   20.4579 C   0  0  2  0  0  0  0  0  0  0  0  0
  -13.4895   10.3281   21.3882 O   0  0  0  0  0  0  0  0  0  0  0  0
  -11.7761    9.0683   20.2191 C   0  0  1  0  0  0  0  0  0  0  0  0
  -11.0555    8.7239   21.4786 N   0  3  0  0  0  0  0  0  0  0  0  0
  -11.5735    7.9621   19.1550 C   0  0  2  0  0  0  0  0  0  0  0  0
  -10.1855    7.7677   18.8939 O   0  0  0  0  0  0  0  0  0  0  0  0
  -12.3227    8.3265   17.8597 C   0  0  2  0  0  0  0  0  0  0  0  0
  -13.7417    8.6046   18.1456 O   0  0  0  0  0  0  0  0  0  0  0  0
  -12.2855    7.2057   16.8447 C   0  0  0  0  0  0  0  0  0  0  0  0
  -12.3899    7.7001   15.5113 O   0  0  0  0  0  0  0  0  0  0  0  0
  1  2  1  6  0  0  0
  1  3  1  0  0  0  0
  1  9  1  0  0  0  0
  3  4  1  6  0  0  0
  3  5  1  0  0  0  0
  5  6  1  0  0  0  0
  6  7  1  6  0  0  0
  6  8  1  0  0  0  0
  8  9  1  0  0  0  0
  8 10  1  1  0  0  0
 10 11  1  0  0  0  0
 12 13  1  1  0  0  0
 12 14  1  0  0  0  0
 12 20  1  0  0  0  0
 14 15  1  0  0  0  0
 15 16  1  1  0  0  0
 15 17  1  0  0  0  0
 17  2  1  6  0  0  0
 17 18  1  0  0  0  0
 18 19  1  1  0  0  0
 18 20  1  0  0  0  0
 20 21  1  6  0  0  0
 22 21  1  6  0  0  0
 22 23  1  0  0  0  0
 22 30  1  0  0  0  0
 23 24  1  1  0  0  0
 23 25  1  0  0  0  0
 25 26  1  1  0  0  0
 25 27  1  0  0  0  0
 27 28  1  6  0  0  0
 27 29  1  0  0  0  0
 29 30  1  0  0  0  0
 29 31  1  6  0  0  0
 31 32  1  0  0  0  0
M  CHG  5   4   1  11   1  13   1  16   1  26   1
M  END
>  <CHROM.1>
-145.48077898,-81.26248601,158.44089487,60.95784134,-47.74973657,-100.31852750
-153.86303577,-69.83106005,58.75658221,130.12025852,-84.52812483,64.05690065
-66.34251591,-64.62508496,-152.71073604,-169.40204885,-14.27267794,12.85713749
18.08793849,-2.47905176,1.01981123,-2.63780305

>  <Name>
1lc4

>  <RI>
0

>  <Rbt.Current_Directory>
/home/afrankz/demos/rdock_decoys_rna/rnas/1lc4

>  <Rbt.Executable>
rbdock ($Id: //depot/dev/client3/rdock/2013.1/src/exe/rbdock.cxx#4 $)

>  <Rbt.Library>
libRbt.so (2013.1, Build901 2013/11/27)

>  <Rbt.Parameter_File>
/export/apps/rDock/src/rDock_2013.1_src/data/scripts/dock_solv.prm

>  <Rbt.Receptor>
prm/blind_docking_40.prm

>  <SCORE>
-47.0151

>  <SCORE.INTER>
-35.0704

>  <SCORE.INTER.CONST>
1

>  <SCORE.INTER.POLAR>
-6.93634

>  <SCORE.INTER.ROT>
6

>  <SCORE.INTER.SOLV>
34.6815

>  <SCORE.INTER.VDW>
-19.4197

>  <SCORE.INTER.norm>
-1.09595

>  <SCORE.INTRA>
-17.3641

>  <SCORE.INTRA.DIHEDRAL>
-19.3751

>  <SCORE.INTRA.DIHEDRAL.0>
44.2576

>  <SCORE.INTRA.POLAR>
-2.79326

>  <SCORE.INTRA.POLAR.0>
-0.381556

>  <SCORE.INTRA.REPUL>
0.0770793

>  <SCORE.INTRA.REPUL.0>
0

>  <SCORE.INTRA.SOLV>
6.71322

>  <SCORE.INTRA.SOLV.lig_0>
-134.592

>  <SCORE.INTRA.VDW>
-1.9215

>  <SCORE.INTRA.VDW.0>
-1.01417

>  <SCORE.INTRA.norm>
-0.542629

>  <SCORE.RESTR>
5.41943

>  <SCORE.RESTR.CAVITY>
5.41943

>  <SCORE.RESTR.norm>
0.169357

>  <SCORE.SYSTEM>
0

>  <SCORE.SYSTEM.CONST>
0

>  <SCORE.SYSTEM.DIHEDRAL>
0

>  <SCORE.SYSTEM.SOLV>
0

>  <SCORE.SYSTEM.norm>
0

>  <SCORE.heavy>
32

>  <SCORE.norm>
-1.46922

>  <RMSD>
9.356

$$$$
1lc4
 OpenBabel02141814113D
libRbt.so/2013.1/901 2013/11/27
 32 34  0  0  0  0  0  0  0  0999 V2000
   -9.4697    3.6244   12.7745 C   0  0  2  0  0  0  0  0  0  0  0  0
  -10.5138    3.2166   13.6228 O   0  0  0  0  0  0  0  0  0  0  0  0
   -8.8937    4.9457   13.3233 C   0  0  2  0  0  0  0  0  0  0  0  0
   -8.4193    4.7629   14.6985 N   0  3  0  0  0  0  0  0  0  0  0  0
   -9.9569    6.0658   13.2376 C   0  0  0  0  0  0  0  0  0  0  0  0
  -10.3608    6.2086   11.7597 C   0  0  2  0  0  0  0  0  0  0  0  0
  -11.3118    7.2669   11.6020 O   0  0  0  0  0  0  0  0  0  0  0  0
  -10.9306    4.8603   11.2527 C   0  0  2  0  0  0  0  0  0  0  0  0
   -9.9486    3.7988   11.4227 O   0  0  0  0  0  0  0  0  0  0  0  0
  -11.3138    4.8783    9.7751 C   0  0  0  0  0  0  0  0  0  0  0  0
  -11.8413    3.5585    9.3398 N   0  3  0  0  0  0  0  0  0  0  0  0
  -11.2909    0.2407   16.5382 C   0  0  2  0  0  0  0  0  0  0  0  0
  -11.1510   -0.6919   17.6716 N   0  3  0  0  0  0  0  0  0  0  0  0
  -10.2535   -0.0822   15.4715 C   0  0  0  0  0  0  0  0  0  0  0  0
  -10.3864    0.8834   14.2886 C   0  0  2  0  0  0  0  0  0  0  0  0
   -9.4396    0.4583   13.2277 N   0  3  0  0  0  0  0  0  0  0  0  0
  -10.2119    2.3629   14.7447 C   0  0  2  0  0  0  0  0  0  0  0  0
  -11.2279    2.6786   15.8724 C   0  0  2  0  0  0  0  0  0  0  0  0
  -10.9620    3.9570   16.3967 O   0  0  0  0  0  0  0  0  0  0  0  0
  -11.0932    1.6738   17.0281 C   0  0  1  0  0  0  0  0  0  0  0  0
  -12.0668    1.9831   18.0247 O   0  0  0  0  0  0  0  0  0  0  0  0
  -11.8444    1.4942   19.3025 C   0  0  2  0  0  0  0  0  0  0  0  0
  -13.1957    1.1085   19.9283 C   0  0  2  0  0  0  0  0  0  0  0  0
  -13.8072    0.1166   19.1132 O   0  0  0  0  0  0  0  0  0  0  0  0
  -14.0965    2.3533   20.0093 C   0  0  1  0  0  0  0  0  0  0  0  0
  -15.4328    2.0356   20.5902 N   0  3  0  0  0  0  0  0  0  0  0  0
  -13.3844    3.4452   20.8448 C   0  0  2  0  0  0  0  0  0  0  0  0
  -14.1858    4.6222   20.9162 O   0  0  0  0  0  0  0  0  0  0  0  0
  -12.0055    3.7645   20.2378 C   0  0  2  0  0  0  0  0  0  0  0  0
  -11.2087    2.5331   20.0916 O   0  0  0  0  0  0  0  0  0  0  0  0
  -11.2056    4.7107   21.1056 C   0  0  0  0  0  0  0  0  0  0  0  0
  -10.7644    4.0783   22.3050 O   0  0  0  0  0  0  0  0  0  0  0  0
  1  2  1  1  0  0  0
  1  3  1  0  0  0  0
  1  9  1  0  0  0  0
  3  4  1  1  0  0  0
  3  5  1  0  0  0  0
  5  6  1  0  0  0  0
  6  7  1  1  0  0  0
  6  8  1  0  0  0  0
  8  9  1  0  0  0  0
  8 10  1  6  0  0  0
 10 11  1  0  0  0  0
 12 13  1  1  0  0  0
 12 14  1  0  0  0  0
 12 20  1  0  0  0  0
 14 15  1  0  0  0  0
 15 16  1  6  0  0  0
 15 17  1  0  0  0  0
 17  2  1  6  0  0  0
 17 18  1  0  0  0  0
 18 19  1  1  0  0  0
 18 20  1  0  0  0  0
 20 21  1  1  0  0  0
 22 21  1  6  0  0  0
 22 23  1  0  0  0  0
 22 30  1  0  0  0  0
 23 24  1  6  0  0  0
 23 25  1  0  0  0  0
 25 26  1  1  0  0  0
 25 27  1  0  0  0  0
 27 28  1  6  0  0  0
 27 29  1  0  0  0  0
 29 30  1  0  0  0  0
 29 31  1  1  0  0  0
 31 32  1  0  0  0  0
M  CHG  5   4   1  11   1  13   1  16   1  26   1
M  END
>  <CHROM.1>
-90.07320684,-92.13239623,47.33928356,-54.99302069,179.45674767,-169.94571701
-161.61966628,-72.06629399,176.59401544,78.29336738,-144.05800816,174.78400262
-68.29133154,-61.51982622,70.63166884,55.61375882,-11.34241464,3.02467414
16.16269112,-0.24882257,-1.29595308,3.10388994

>  <Name>
1lc4

>  <RI>
0

>  <Rbt.Current_Directory>
/home/afrankz/demos/rdock_decoys_rna/rnas/1lc4

>  <Rbt.Executable>
rbdock ($Id: //depot/dev/client3/rdock/2013.1/src/exe/rbdock.cxx#4 $)

>  <Rbt.Library>
libRbt.so (2013.1, Build901 2013/11/27)

>  <Rbt.Parameter_File>
/export/apps/rDock/src/rDock_2013.1_src/data/scripts/dock_solv.prm

>  <Rbt.Receptor>
prm/blind_docking_100.prm

>  <SCORE>
-33.129

>  <SCORE.INTER>
-13.717

>  <SCORE.INTER.CONST>
1

>  <SCORE.INTER.POLAR>
-1.65784

>  <SCORE.INTER.ROT>
6

>  <SCORE.INTER.SOLV>
20.6809

>  <SCORE.INTER.VDW>
-18.1121

>  <SCORE.INTER.norm>
-0.428656

>  <SCORE.INTRA>
-23.0578

>  <SCORE.INTRA.DIHEDRAL>
-27.5893

>  <SCORE.INTRA.DIHEDRAL.0>
44.2576

>  <SCORE.INTRA.POLAR>
-1.98122

>  <SCORE.INTRA.POLAR.0>
-0.381556

>  <SCORE.INTRA.REPUL>
0

>  <SCORE.INTRA.REPUL.0>
0

>  <SCORE.INTRA.SOLV>
0.945754

>  <SCORE.INTRA.SOLV.lig_0>
-134.592

>  <SCORE.INTRA.VDW>
-2.99988

>  <SCORE.INTRA.VDW.0>
-1.01417

>  <SCORE.INTRA.norm>
-0.720556

>  <SCORE.RESTR>
3.64576

>  <SCORE.RESTR.CAVITY>
3.64576

>  <SCORE.RESTR.norm>
0.11393

>  <SCORE.SYSTEM>
0

>  <SCORE.SYSTEM.CONST>
0

>  <SCORE.SYSTEM.DIHEDRAL>
0

>  <SCORE.SYSTEM.SOLV>
0

>  <SCORE.SYSTEM.norm>
0

>  <SCORE.heavy>
32

>  <SCORE.norm>
-1.03528

>  <RMSD>
9.450

$$$$
1lc4
 OpenBabel02141814113D
libRbt.so/2013.1/901 2013/11/27
 32 34  0  0  0  0  0  0  0  0999 V2000
  -10.9893    7.0624   18.7750 C   0  0  2  0  0  0  0  0  0  0  0  0
  -11.3212    6.2441   19.8688 O   0  0  0  0  0  0  0  0  0  0  0  0
  -12.2985    7.6087   18.1697 C   0  0  2  0  0  0  0  0  0  0  0  0
  -13.0550    8.3547   19.1801 N   0  3  0  0  0  0  0  0  0  0  0  0
  -13.1361    6.4499   17.5796 C   0  0  0  0  0  0  0  0  0  0  0  0
  -12.2767    5.7566   16.5079 C   0  0  2  0  0  0  0  0  0  0  0  0
  -13.0133    4.6992   15.8846 O   0  0  0  0  0  0  0  0  0  0  0  0
  -10.9752    5.2269   17.1599 C   0  0  2  0  0  0  0  0  0  0  0  0
  -10.2426    6.3173   17.7879 O   0  0  0  0  0  0  0  0  0  0  0  0
  -10.0225    4.5655   16.1673 C   0  0  0  0  0  0  0  0  0  0  0  0
   -9.8183    5.4185   14.9671 N   0  3  0  0  0  0  0  0  0  0  0  0
   -8.7867    5.1992   23.1006 C   0  0  2  0  0  0  0  0  0  0  0  0
   -7.7486    4.5546   23.9256 N   0  3  0  0  0  0  0  0  0  0  0  0
   -9.8089    4.1633   22.6528 C   0  0  0  0  0  0  0  0  0  0  0  0
  -10.8922    4.8209   21.7907 C   0  0  2  0  0  0  0  0  0  0  0  0
  -11.9251    3.8021   21.4782 N   0  3  0  0  0  0  0  0  0  0  0  0
  -10.2755    5.5102   20.5370 C   0  0  2  0  0  0  0  0  0  0  0  0
   -9.1921    6.5243   20.9863 C   0  0  2  0  0  0  0  0  0  0  0  0
   -8.5222    7.0246   19.8545 O   0  0  0  0  0  0  0  0  0  0  0  0
   -8.1396    5.8432   21.8761 C   0  0  1  0  0  0  0  0  0  0  0  0
   -7.1843    6.8190   22.2906 O   0  0  0  0  0  0  0  0  0  0  0  0
   -7.6354    7.8395   23.1130 C   0  0  2  0  0  0  0  0  0  0  0  0
   -7.0183    9.1670   22.6407 C   0  0  2  0  0  0  0  0  0  0  0  0
   -7.4138    9.3983   21.2945 O   0  0  0  0  0  0  0  0  0  0  0  0
   -5.4847    9.0800   22.7322 C   0  0  1  0  0  0  0  0  0  0  0  0
   -4.8280   10.3350   22.2654 N   0  3  0  0  0  0  0  0  0  0  0  0
   -5.0777    8.7619   24.1917 C   0  0  2  0  0  0  0  0  0  0  0  0
   -3.6607    8.6500   24.3026 O   0  0  0  0  0  0  0  0  0  0  0  0
   -5.7622    7.4658   24.6643 C   0  0  2  0  0  0  0  0  0  0  0  0
   -7.2212    7.5543   24.4744 O   0  0  0  0  0  0  0  0  0  0  0  0
   -5.5211    7.1963   26.1331 C   0  0  0  0  0  0  0  0  0  0  0  0
   -6.0825    8.2180   26.9543 O   0  0  0  0  0  0  0  0  0  0  0  0
  1  2  1  1  0  0  0
  1  3  1  0  0  0  0
  1  9  1  0  0  0  0
  3  4  1  1  0  0  0
  3  5  1  0  0  0  0
  5  6  1  0  0  0  0
  6  7  1  1  0  0  0
  6  8  1  0  0  0  0
  8  9  1  0  0  0  0
  8 10  1  6  0  0  0
 10 11  1  0  0  0  0
 12 13  1  1  0  0  0
 12 14  1  0  0  0  0
 12 20  1  0  0  0  0
 14 15  1  0  0  0  0
 15 16  1  6  0  0  0
 15 17  1  0  0  0  0
 17  2  1  1  0  0  0
 17 18  1  0  0  0  0
 18 19  1  6  0  0  0
 18 20  1  0  0  0  0
 20 21  1  1  0  0  0
 22 21  1  6  0  0  0
 22 23  1  0  0  0  0
 22 30  1  0  0  0  0
 23 24  1  6  0  0  0
 23 25  1  0  0  0  0
 25 26  1  1  0  0  0
 25 27  1  0  0  0  0
 27 28  1  6  0  0  0
 27 29  1  0  0  0  0
 29 30  1  0  0  0  0
 29 31  1  1  0  0  0
 31 32  1  0  0  0  0
M  CHG  5   4   1  11   1  13   1  16   1  26   1
M  END
>  <CHROM.1>
174.37623505,173.89836331,65.30875015,-61.55435772,48.62338664,-65.83419450
-51.82413437,-61.15892991,172.32035236,-56.76438656,-137.63423300,68.71761631
-50.80681704,68.31844242,63.03868545,-62.15118051,-8.89777756,6.76063476
21.03736067,-2.56652706,0.72614386,2.03567488

>  <Name>
1lc4

>  <RI>
0

>  <Rbt.Current_Directory>
/home/afrankz/demos/rdock_decoys_rna/rnas/1lc4

>  <Rbt.Executable>
rbdock ($Id: //depot/dev/client3/rdock/2013.1/src/exe/rbdock.cxx#4 $)

>  <Rbt.Library>
libRbt.so (2013.1, Build901 2013/11/27)

>  <Rbt.Parameter_File>
/export/apps/rDock/src/rDock_2013.1_src/data/scripts/dock_solv.prm

>  <Rbt.Receptor>
prm/pocket_docking_6.prm

>  <SCORE>
-55.2737

>  <SCORE.INTER>
-32.2567

>  <SCORE.INTER.CONST>
1

>  <SCORE.INTER.POLAR>
-4.15306

>  <SCORE.INTER.ROT>
6

>  <SCORE.INTER.SOLV>
21.3138

>  <SCORE.INTER.VDW>
-22.3655

>  <SCORE.INTER.norm>
-1.00802

>  <SCORE.INTRA>
-23.0171

>  <SCORE.INTRA.DIHEDRAL>
-35.9498

>  <SCORE.INTRA.DIHEDRAL.0>
44.2576

>  <SCORE.INTRA.POLAR>
-0.625358

>  <SCORE.INTRA.POLAR.0>
-0.381556

>  <SCORE.INTRA.REPUL>
0

>  <SCORE.INTRA.REPUL.0>
0

>  <SCORE.INTRA.SOLV>
-1.75312

>  <SCORE.INTRA.SOLV.lig_0>
-134.592

>  <SCORE.INTRA.VDW>
-2.03941

>  <SCORE.INTRA.VDW.0>
-1.01417

>  <SCORE.INTRA.norm>
-0.719284

>  <SCORE.RESTR>
0

>  <SCORE.RESTR.CAVITY>
0

>  <SCORE.RESTR.norm>
0

>  <SCORE.SYSTEM>
0

>  <SCORE.SYSTEM.CONST>
0

>  <SCORE.SYSTEM.DIHEDRAL>
0

>  <SCORE.SYSTEM.SOLV>
0

>  <SCORE.SYSTEM.norm>
0

>  <SCORE.heavy>
32

>  <SCORE.norm>
-1.7273

>  <RMSD>
9.465

$$$$
1lc4
 OpenBabel02141814113D
libRbt.so/2013.1/901 2013/11/27
 32 34  0  0  0  0  0  0  0  0999 V2000
  -10.3112    5.8181   18.0762 C   0  0  2  0  0  0  0  0  0  0  0  0
  -10.8567    5.5373   19.3410 O   0  0  0  0  0  0  0  0  0  0  0  0
  -11.4207    6.4367   17.2016 C   0  0  2  0  0  0  0  0  0  0  0  0
  -11.9502    7.6498   17.8322 N   0  3  0  0  0  0  0  0  0  0  0  0
  -12.5391    5.3987   16.9480 C   0  0  0  0  0  0  0  0  0  0  0  0
  -11.8961    4.1861   16.2523 C   0  0  2  0  0  0  0  0  0  0  0  0
  -12.8896    3.2028   15.9437 O   0  0  0  0  0  0  0  0  0  0  0  0
  -10.7896    3.6005   17.1646 C   0  0  2  0  0  0  0  0  0  0  0  0
   -9.7909    4.6163   17.4663 O   0  0  0  0  0  0  0  0  0  0  0  0
  -10.0483    2.4202   16.5417 C   0  0  0  0  0  0  0  0  0  0  0  0
   -8.8709    2.8771   15.7578 N   0  3  0  0  0  0  0  0  0  0  0  0
   -9.1738    5.1868   23.2146 C   0  0  2  0  0  0  0  0  0  0  0  0
   -8.3680    4.7394   24.3655 N   0  3  0  0  0  0  0  0  0  0  0  0
  -10.0705    4.0520   22.7386 C   0  0  0  0  0  0  0  0  0  0  0  0
  -10.9112    4.5038   21.5393 C   0  0  2  0  0  0  0  0  0  0  0  0
  -11.8504    3.4101   21.1865 N   0  3  0  0  0  0  0  0  0  0  0  0
  -10.0072    4.9739   20.3607 C   0  0  2  0  0  0  0  0  0  0  0  0
   -9.0516    6.0896   20.8565 C   0  0  2  0  0  0  0  0  0  0  0  0
   -8.1268    6.3981   19.8417 O   0  0  0  0  0  0  0  0  0  0  0  0
   -8.2477    5.6187   22.0794 C   0  0  1  0  0  0  0  0  0  0  0  0
   -7.4085    6.6860   22.5191 O   0  0  0  0  0  0  0  0  0  0  0  0
   -8.0254    7.7721   23.1201 C   0  0  2  0  0  0  0  0  0  0  0  0
   -7.3837    9.0647   22.5875 C   0  0  2  0  0  0  0  0  0  0  0  0
   -7.5561    9.1097   21.1768 O   0  0  0  0  0  0  0  0  0  0  0  0
   -5.8850    9.0736   22.9362 C   0  0  1  0  0  0  0  0  0  0  0  0
   -5.2027   10.2971   22.4248 N   0  3  0  0  0  0  0  0  0  0  0  0
   -5.7172    8.9569   24.4709 C   0  0  2  0  0  0  0  0  0  0  0  0
   -4.3357    8.9371   24.8228 O   0  0  0  0  0  0  0  0  0  0  0  0
   -6.4265    7.6918   24.9888 C   0  0  2  0  0  0  0  0  0  0  0  0
   -7.8353    7.6766   24.5556 O   0  0  0  0  0  0  0  0  0  0  0  0
   -6.4254    7.6152   26.4994 C   0  0  0  0  0  0  0  0  0  0  0  0
   -5.1008    7.6450   27.0266 O   0  0  0  0  0  0  0  0  0  0  0  0
  1  2  1  1  0  0  0
  1  3  1  0  0  0  0
  1  9  1  0  0  0  0
  3  4  1  1  0  0  0
  3  5  1  0  0  0  0
  5  6  1  0  0  0  0
  6  7  1  1  0  0  0
  6  8  1  0  0  0  0
  8  9  1  0  0  0  0
  8 10  1  6  0  0  0
 10 11  1  0  0  0  0
 12 13  1  1  0  0  0
 12 14  1  0  0  0  0
 12 20  1  0  0  0  0
 14 15  1  0  0  0  0
 15 16  1  6  0  0  0
 15 17  1  0  0  0  0
 17  2  1  6  0  0  0
 17 18  1  0  0  0  0
 18 19  1  6  0  0  0
 18 20  1  0  0  0  0
 20 21  1  1  0  0  0
 22 21  1  6  0  0  0
 22 23  1  0  0  0  0
 22 30  1  0  0  0  0
 23 24  1  6  0  0  0
 23 25  1  0  0  0  0
 25 26  1  1  0  0  0
 25 27  1  0  0  0  0
 27 28  1  6  0  0  0
 27 29  1  0  0  0  0
 29 30  1  0  0  0  0
 29 31  1  1  0  0  0
 31 32  1  0  0  0  0
M  CHG  5   4   1  11   1  13   1  16   1  26   1
M  END
>  <CHROM.1>
-178.71355059,-168.81816005,176.48335024,66.47478430,89.63651910,165.35700353
-165.71820588,-68.94303067,166.67891768,-51.04990150,-137.39746239,79.10031701
-63.70606221,-56.48228020,-57.72324479,-174.54232119,-8.85994029,6.17738013
20.99492630,-2.61628802,0.92676916,2.02716085

>  <Name>
1lc4

>  <RI>
0

>  <Rbt.Current_Directory>
/home/afrankz/demos/rdock_decoys_rna/rnas/1lc4

>  <Rbt.Executable>
rbdock ($Id: //depot/dev/client3/rdock/2013.1/src/exe/rbdock.cxx#4 $)

>  <Rbt.Library>
libRbt.so (2013.1, Build901 2013/11/27)

>  <Rbt.Parameter_File>
/export/apps/rDock/src/rDock_2013.1_src/data/scripts/dock_solv.prm

>  <Rbt.Receptor>
prm/pocket_docking_8.prm

>  <SCORE>
-61.7889

>  <SCORE.INTER>
-38.4696

>  <SCORE.INTER.CONST>
1

>  <SCORE.INTER.POLAR>
-5.57768

>  <SCORE.INTER.ROT>
6

>  <SCORE.INTER.SOLV>
25.415

>  <SCORE.INTER.VDW>
-23.1258

>  <SCORE.INTER.norm>
-1.20218

>  <SCORE.INTRA>
-23.3193

>  <SCORE.INTRA.DIHEDRAL>
-30.5789

>  <SCORE.INTRA.DIHEDRAL.0>
44.2576

>  <SCORE.INTRA.POLAR>
-1.23373

>  <SCORE.INTRA.POLAR.0>
-0.381556

>  <SCORE.INTRA.REPUL>
0

>  <SCORE.INTRA.REPUL.0>
0

>  <SCORE.INTRA.SOLV>
-2.20976

>  <SCORE.INTRA.SOLV.lig_0>
-134.592

>  <SCORE.INTRA.VDW>
-2.73027

>  <SCORE.INTRA.VDW.0>
-1.01417

>  <SCORE.INTRA.norm>
-0.728728

>  <SCORE.RESTR>
0

>  <SCORE.RESTR.CAVITY>
0

>  <SCORE.RESTR.norm>
0

>  <SCORE.SYSTEM>
0

>  <SCORE.SYSTEM.CONST>
0

>  <SCORE.SYSTEM.DIHEDRAL>
0

>  <SCORE.SYSTEM.SOLV>
0

>  <SCORE.SYSTEM.norm>
0

>  <SCORE.heavy>
32

>  <SCORE.norm>
-1.9309

>  <RMSD>
9.492

$$$$
1lc4
 OpenBabel02141814113D
libRbt.so/2013.1/901 2013/11/27
 32 34  0  0  0  0  0  0  0  0999 V2000
  -11.1753    7.6928   18.5725 C   0  0  2  0  0  0  0  0  0  0  0  0
  -11.2985    6.7335   19.5926 O   0  0  0  0  0  0  0  0  0  0  0  0
  -12.2656    8.7628   18.7856 C   0  0  2  0  0  0  0  0  0  0  0  0
  -12.1262    9.3759   20.1101 N   0  3  0  0  0  0  0  0  0  0  0  0
  -13.6681    8.1380   18.5980 C   0  0  0  0  0  0  0  0  0  0  0  0
  -13.7302    7.5593   17.1736 C   0  0  2  0  0  0  0  0  0  0  0  0
  -15.0249    7.0055   16.9158 O   0  0  0  0  0  0  0  0  0  0  0  0
  -12.6190    6.4932   17.0058 C   0  0  2  0  0  0  0  0  0  0  0  0
  -11.3120    7.0767   17.2729 O   0  0  0  0  0  0  0  0  0  0  0  0
  -12.5587    5.8918   15.6039 C   0  0  0  0  0  0  0  0  0  0  0  0
  -13.7566    5.0571   15.3244 N   0  3  0  0  0  0  0  0  0  0  0  0
   -8.8934    5.4840   22.8504 C   0  0  2  0  0  0  0  0  0  0  0  0
   -7.7633    4.9945   23.6612 N   0  3  0  0  0  0  0  0  0  0  0  0
   -9.3011    4.4229   21.8374 C   0  0  0  0  0  0  0  0  0  0  0  0
  -10.4736    4.9216   20.9853 C   0  0  2  0  0  0  0  0  0  0  0  0
  -10.9117    3.8157   20.0978 N   0  3  0  0  0  0  0  0  0  0  0  0
  -10.1069    6.2362   20.2338 C   0  0  2  0  0  0  0  0  0  0  0  0
   -9.6350    7.3011   21.2571 C   0  0  2  0  0  0  0  0  0  0  0  0
   -9.1491    8.4279   20.5685 O   0  0  0  0  0  0  0  0  0  0  0  0
   -8.4824    6.7601   22.1186 C   0  0  1  0  0  0  0  0  0  0  0  0
   -8.1042    7.7598   23.0642 O   0  0  0  0  0  0  0  0  0  0  0  0
   -7.7156    8.9924   22.5634 C   0  0  2  0  0  0  0  0  0  0  0  0
   -6.2666    8.8882   22.0577 C   0  0  2  0  0  0  0  0  0  0  0  0
   -6.2106    7.8956   21.0409 O   0  0  0  0  0  0  0  0  0  0  0  0
   -5.3433    8.4994   23.2256 C   0  0  1  0  0  0  0  0  0  0  0  0
   -3.9237    8.3620   22.7898 N   0  3  0  0  0  0  0  0  0  0  0  0
   -5.4688    9.5569   24.3494 C   0  0  2  0  0  0  0  0  0  0  0  0
   -4.6421    9.2093   25.4577 O   0  0  0  0  0  0  0  0  0  0  0  0
   -6.9380    9.6923   24.7907 C   0  0  2  0  0  0  0  0  0  0  0  0
   -7.8014    9.9733   23.6296 O   0  0  0  0  0  0  0  0  0  0  0  0
   -7.1360   10.8233   25.7754 C   0  0  0  0  0  0  0  0  0  0  0  0
   -8.4914   11.2652   25.8032 O   0  0  0  0  0  0  0  0  0  0  0  0
  1  2  1  1  0  0  0
  1  3  1  0  0  0  0
  1  9  1  0  0  0  0
  3  4  1  1  0  0  0
  3  5  1  0  0  0  0
  5  6  1  0  0  0  0
  6  7  1  1  0  0  0
  6  8  1  0  0  0  0
  8  9  1  0  0  0  0
  8 10  1  6  0  0  0
 10 11  1  0  0  0  0
 12 13  1  6  0  0  0
 12 14  1  0  0  0  0
 12 20  1  0  0  0  0
 14 15  1  0  0  0  0
 15 16  1  6  0  0  0
 15 17  1  0  0  0  0
 17  2  1  1  0  0  0
 17 18  1  0  0  0  0
 18 19  1  6  0  0  0
 18 20  1  0  0  0  0
 20 21  1  1  0  0  0
 22 21  1  1  0  0  0
 22 23  1  0  0  0  0
 22 30  1  0  0  0  0
 23 24  1  6  0  0  0
 23 25  1  0  0  0  0
 25 26  1  6  0  0  0
 25 27  1  0  0  0  0
 27 28  1  1  0  0  0
 27 29  1  0  0  0  0
 29 30  1  0  0  0  0
 29 31  1  1  0  0  0
 31 32  1  0  0  0  0
M  CHG  5   4   1  11   1  13   1  16   1  26   1
M  END
>  <CHROM.1>
-137.34715625,-163.21892479,-169.19163280,67.52682098,-68.32860872,-72.54753428
156.10304866,-56.41304303,-72.80727673,-179.29267935,-78.80111514,-148.77370435
-15.30210455,66.16019108,158.43068561,-66.94483441,-9.43530722,7.59421838
21.03536298,2.62570569,0.67551371,-2.76330356

>  <Name>
1lc4

>  <RI>
0

>  <Rbt.Current_Directory>
/home/afrankz/demos/rdock_decoys_rna/rnas/1lc4

>  <Rbt.Executable>
rbdock ($Id: //depot/dev/client3/rdock/2013.1/src/exe/rbdock.cxx#4 $)

>  <Rbt.Library>
libRbt.so (2013.1, Build901 2013/11/27)

>  <Rbt.Parameter_File>
/export/apps/rDock/src/rDock_2013.1_src/data/scripts/dock_solv.prm

>  <Rbt.Receptor>
prm/pocket_docking_6.prm

>  <SCORE>
-56.8153

>  <SCORE.INTER>
-43.0513

>  <SCORE.INTER.CONST>
1

>  <SCORE.INTER.POLAR>
-5.78351

>  <SCORE.INTER.ROT>
6

>  <SCORE.INTER.SOLV>
24.3021

>  <SCORE.INTER.VDW>
-25.1232

>  <SCORE.INTER.norm>
-1.34535

>  <SCORE.INTRA>
-13.764

>  <SCORE.INTRA.DIHEDRAL>
-23.414

>  <SCORE.INTRA.DIHEDRAL.0>
44.2576

>  <SCORE.INTRA.POLAR>
-1.00407

>  <SCORE.INTRA.POLAR.0>
-0.381556

>  <SCORE.INTRA.REPUL>
0

>  <SCORE.INTRA.REPUL.0>
0

>  <SCORE.INTRA.SOLV>
-0.39229

>  <SCORE.INTRA.SOLV.lig_0>
-134.592

>  <SCORE.INTRA.VDW>
1.553

>  <SCORE.INTRA.VDW.0>
-1.01417

>  <SCORE.INTRA.norm>
-0.430125

>  <SCORE.RESTR>
0

>  <SCORE.RESTR.CAVITY>
0

>  <SCORE.RESTR.norm>
0

>  <SCORE.SYSTEM>
0

>  <SCORE.SYSTEM.CONST>
0

>  <SCORE.SYSTEM.DIHEDRAL>
0

>  <SCORE.SYSTEM.SOLV>
0

>  <SCORE.SYSTEM.norm>
0

>  <SCORE.heavy>
32

>  <SCORE.norm>
-1.77548

>  <RMSD>
9.560

$$$$
1lc4
 OpenBabel02141814113D
libRbt.so/2013.1/901 2013/11/27
 32 34  0  0  0  0  0  0  0  0999 V2000
  -10.9196    7.9086   19.1027 C   0  0  2  0  0  0  0  0  0  0  0  0
  -11.1390    6.9376   20.0953 O   0  0  0  0  0  0  0  0  0  0  0  0
  -12.2831    8.5183   18.7181 C   0  0  2  0  0  0  0  0  0  0  0  0
  -12.9314    9.1016   19.8967 N   0  3  0  0  0  0  0  0  0  0  0  0
  -13.1780    7.4449   18.0553 C   0  0  0  0  0  0  0  0  0  0  0  0
  -12.4335    6.9240   16.8134 C   0  0  2  0  0  0  0  0  0  0  0  0
  -13.2313    5.9570   16.1222 O   0  0  0  0  0  0  0  0  0  0  0  0
  -11.0729    6.3239   17.2472 C   0  0  2  0  0  0  0  0  0  0  0  0
  -10.2785    7.3227   17.9481 O   0  0  0  0  0  0  0  0  0  0  0  0
  -10.2274    5.8243   16.0784 C   0  0  0  0  0  0  0  0  0  0  0  0
  -10.8817    4.6800   15.3912 N   0  3  0  0  0  0  0  0  0  0  0  0
   -8.7813    5.2585   23.1907 C   0  0  2  0  0  0  0  0  0  0  0  0
   -7.6995    4.5797   23.9274 N   0  3  0  0  0  0  0  0  0  0  0  0
   -9.4119    4.2956   22.1940 C   0  0  0  0  0  0  0  0  0  0  0  0
  -10.5364    4.9911   21.4186 C   0  0  2  0  0  0  0  0  0  0  0  0
  -11.1969    3.9864   20.5486 N   0  3  0  0  0  0  0  0  0  0  0  0
  -10.0075    6.2444   20.6590 C   0  0  2  0  0  0  0  0  0  0  0  0
   -9.3126    7.2007   21.6621 C   0  0  2  0  0  0  0  0  0  0  0  0
   -8.6928    8.2484   20.9563 O   0  0  0  0  0  0  0  0  0  0  0  0
   -8.2139    6.4663   22.4477 C   0  0  1  0  0  0  0  0  0  0  0  0
   -7.6262    7.3747   23.3784 O   0  0  0  0  0  0  0  0  0  0  0  0
   -6.2860    7.1932   23.6823 C   0  0  2  0  0  0  0  0  0  0  0  0
   -6.0469    7.6149   25.1422 C   0  0  2  0  0  0  0  0  0  0  0  0
   -6.8636    6.8133   25.9863 O   0  0  0  0  0  0  0  0  0  0  0  0
   -6.4107    9.1003   25.3124 C   0  0  1  0  0  0  0  0  0  0  0  0
   -6.2188    9.5621   26.7174 N   0  3  0  0  0  0  0  0  0  0  0  0
   -5.5583    9.9495   24.3380 C   0  0  2  0  0  0  0  0  0  0  0  0
   -5.8920   11.3306   24.4552 O   0  0  0  0  0  0  0  0  0  0  0  0
   -5.7622    9.4636   22.8910 C   0  0  2  0  0  0  0  0  0  0  0  0
   -5.4930    8.0180   22.7896 O   0  0  0  0  0  0  0  0  0  0  0  0
   -4.8331   10.1576   21.9199 C   0  0  0  0  0  0  0  0  0  0  0  0
   -3.5129    9.6221   21.9813 O   0  0  0  0  0  0  0  0  0  0  0  0
  1  2  1  1  0  0  0
  1  3  1  0  0  0  0
  1  9  1  0  0  0  0
  3  4  1  1  0  0  0
  3  5  1  0  0  0  0
  5  6  1  0  0  0  0
  6  7  1  1  0  0  0
  6  8  1  0  0  0  0
  8  9  1  0  0  0  0
  8 10  1  6  0  0  0
 10 11  1  0  0  0  0
 12 13  1  6  0  0  0
 12 14  1  0  0  0  0
 12 20  1  0  0  0  0
 14 15  1  0  0  0  0
 15 16  1  6  0  0  0
 15 17  1  0  0  0  0
 17  2  1  1  0  0  0
 17 18  1  0  0  0  0
 18 19  1  6  0  0  0
 18 20  1  0  0  0  0
 20 21  1  1  0  0  0
 22 21  1  6  0  0  0
 22 23  1  0  0  0  0
 22 30  1  0  0  0  0
 23 24  1  1  0  0  0
 23 25  1  0  0  0  0
 25 26  1  1  0  0  0
 25 27  1  0  0  0  0
 27 28  1  6  0  0  0
 27 29  1  0  0  0  0
 29 30  1  0  0  0  0
 29 31  1  6  0  0  0
 31 32  1  0  0  0  0
M  CHG  5   4   1  11   1  13   1  16   1  26   1
M  END
>  <CHROM.1>
-178.07495489,-164.81892344,64.86343525,-50.83065567,-64.92966244,-69.72514355
-62.92283645,178.50080391,87.46019688,89.57307655,-147.50055635,175.74670940
-66.15139794,-142.12006138,77.67889983,65.62913856,-8.83329101,7.32613590
21.29259224,-2.82566961,0.83854936,2.38617573

>  <Name>
1lc4

>  <RI>
0

>  <Rbt.Current_Directory>
/home/afrankz/demos/rdock_decoys_rna/rnas/1lc4

>  <Rbt.Executable>
rbdock ($Id: //depot/dev/client3/rdock/2013.1/src/exe/rbdock.cxx#4 $)

>  <Rbt.Library>
libRbt.so (2013.1, Build901 2013/11/27)

>  <Rbt.Parameter_File>
/export/apps/rDock/src/rDock_2013.1_src/data/scripts/dock_solv.prm

>  <Rbt.Receptor>
prm/pocket_docking_7.prm

>  <SCORE>
-53.4458

>  <SCORE.INTER>
-33.6674

>  <SCORE.INTER.CONST>
1

>  <SCORE.INTER.POLAR>
-4.34653

>  <SCORE.INTER.ROT>
6

>  <SCORE.INTER.SOLV>
19.1188

>  <SCORE.INTER.VDW>
-21.9294

>  <SCORE.INTER.norm>
-1.05211

>  <SCORE.INTRA>
-19.7783

>  <SCORE.INTRA.DIHEDRAL>
-25.1265

>  <SCORE.INTRA.DIHEDRAL.0>
44.2576

>  <SCORE.INTRA.POLAR>
-1.34822

>  <SCORE.INTRA.POLAR.0>
-0.381556

>  <SCORE.INTRA.REPUL>
0

>  <SCORE.INTRA.REPUL.0>
0

>  <SCORE.INTRA.SOLV>
-0.989224

>  <SCORE.INTRA.SOLV.lig_0>
-134.592

>  <SCORE.INTRA.VDW>
-2.13652

>  <SCORE.INTRA.VDW.0>
-1.01417

>  <SCORE.INTRA.norm>
-0.618073

>  <SCORE.RESTR>
0

>  <SCORE.RESTR.CAVITY>
0

>  <SCORE.RESTR.norm>
0

>  <SCORE.SYSTEM>
0

>  <SCORE.SYSTEM.CONST>
0

>  <SCORE.SYSTEM.DIHEDRAL>
0

>  <SCORE.SYSTEM.SOLV>
0

>  <SCORE.SYSTEM.norm>
0

>  <SCORE.heavy>
32

>  <SCORE.norm>
-1.67018

>  <RMSD>
9.641

$$$$
1lc4
 OpenBabel02141814113D
libRbt.so/2013.1/901 2013/11/27
 32 34  0  0  0  0  0  0  0  0999 V2000
  -11.7904    7.6114   19.8210 C   0  0  2  0  0  0  0  0  0  0  0  0
  -11.6724    6.6740   20.8618 O   0  0  0  0  0  0  0  0  0  0  0  0
  -13.2366    8.1474   19.8195 C   0  0  2  0  0  0  0  0  0  0  0  0
  -13.5579    8.7513   21.1163 N   0  3  0  0  0  0  0  0  0  0  0  0
  -14.2248    7.0112   19.4660 C   0  0  0  0  0  0  0  0  0  0  0  0
  -13.8323    6.4710   18.0797 C   0  0  2  0  0  0  0  0  0  0  0  0
  -14.7408    5.4439   17.6686 O   0  0  0  0  0  0  0  0  0  0  0  0
  -12.3756    5.9465   18.1289 C   0  0  2  0  0  0  0  0  0  0  0  0
  -11.4692    7.0057   18.5494 O   0  0  0  0  0  0  0  0  0  0  0  0
  -11.8669    5.4349   16.7835 C   0  0  0  0  0  0  0  0  0  0  0  0
  -10.4284    5.0673   16.8565 N   0  3  0  0  0  0  0  0  0  0  0  0
   -8.4325    5.5687   23.3600 C   0  0  2  0  0  0  0  0  0  0  0  0
   -7.1367    5.0578   23.8435 N   0  3  0  0  0  0  0  0  0  0  0  0
   -9.2172    4.4446   22.6974 C   0  0  0  0  0  0  0  0  0  0  0  0
  -10.5657    4.9644   22.1869 C   0  0  2  0  0  0  0  0  0  0  0  0
  -11.3415    3.8149   21.6584 N   0  3  0  0  0  0  0  0  0  0  0  0
  -10.3739    6.1276   21.1683 C   0  0  2  0  0  0  0  0  0  0  0  0
   -9.5251    7.2495   21.8200 C   0  0  2  0  0  0  0  0  0  0  0  0
   -9.2132    8.2218   20.8518 O   0  0  0  0  0  0  0  0  0  0  0  0
   -8.1951    6.6913   22.3519 C   0  0  1  0  0  0  0  0  0  0  0  0
   -7.4643    7.7500   22.9698 O   0  0  0  0  0  0  0  0  0  0  0  0
   -8.0079    8.3130   24.1138 C   0  0  2  0  0  0  0  0  0  0  0  0
   -7.9038    9.8443   24.0109 C   0  0  2  0  0  0  0  0  0  0  0  0
   -8.6162   10.2716   22.8568 O   0  0  0  0  0  0  0  0  0  0  0  0
   -6.4240   10.2505   23.8976 C   0  0  1  0  0  0  0  0  0  0  0  0
   -6.2611   11.7277   23.7730 N   0  3  0  0  0  0  0  0  0  0  0  0
   -5.6530    9.7190   25.1305 C   0  0  2  0  0  0  0  0  0  0  0  0
   -4.2712   10.0589   25.0409 O   0  0  0  0  0  0  0  0  0  0  0  0
   -5.8290    8.1938   25.2510 C   0  0  2  0  0  0  0  0  0  0  0  0
   -7.2597    7.8393   25.2635 O   0  0  0  0  0  0  0  0  0  0  0  0
   -5.2253    7.6489   26.5264 C   0  0  0  0  0  0  0  0  0  0  0  0
   -5.7065    8.3440   27.6748 O   0  0  0  0  0  0  0  0  0  0  0  0
  1  2  1  1  0  0  0
  1  3  1  0  0  0  0
  1  9  1  0  0  0  0
  3  4  1  1  0  0  0
  3  5  1  0  0  0  0
  5  6  1  0  0  0  0
  6  7  1  1  0  0  0
  6  8  1  0  0  0  0
  8  9  1  0  0  0  0
  8 10  1  6  0  0  0
 10 11  1  0  0  0  0
 12 13  1  6  0  0  0
 12 14  1  0  0  0  0
 12 20  1  0  0  0  0
 14 15  1  0  0  0  0
 15 16  1  6  0  0  0
 15 17  1  0  0  0  0
 17  2  1  1  0  0  0
 17 18  1  0  0  0  0
 18 19  1  6  0  0  0
 18 20  1  0  0  0  0
 20 21  1  1  0  0  0
 22 21  1  6  0  0  0
 22 23  1  0  0  0  0
 22 30  1  0  0  0  0
 23 24  1  6  0  0  0
 23 25  1  0  0  0  0
 25 26  1  1  0  0  0
 25 27  1  0  0  0  0
 27 28  1  6  0  0  0
 27 29  1  0  0  0  0
 29 30  1  0  0  0  0
 29 31  1  1  0  0  0
 31 32  1  0  0  0  0
M  CHG  5   4   1  11   1  13   1  16   1  26   1
M  END
>  <CHROM.1>
-173.44701370,-171.01515365,-175.70971752,62.89495581,174.52972079,-44.99378035
-75.27977934,-49.31081195,149.80211957,-56.43620893,-135.13827377,81.18731633
-39.54330711,-53.21727535,52.82470665,58.45502082,-9.41573942,7.38119506
21.99368579,2.87494227,0.77610061,3.10646980

>  <Name>
1lc4

>  <RI>
0

>  <Rbt.Current_Directory>
/home/afrankz/demos/rdock_decoys_rna/rnas/1lc4

>  <Rbt.Executable>
rbdock ($Id: //depot/dev/client3/rdock/2013.1/src/exe/rbdock.cxx#4 $)

>  <Rbt.Library>
libRbt.so (2013.1, Build901 2013/11/27)

>  <Rbt.Parameter_File>
/export/apps/rDock/src/rDock_2013.1_src/data/scripts/dock_solv.prm

>  <Rbt.Receptor>
prm/pocket_docking_7.prm

>  <SCORE>
-57.8693

>  <SCORE.INTER>
-36.3902

>  <SCORE.INTER.CONST>
1

>  <SCORE.INTER.POLAR>
-5.7375

>  <SCORE.INTER.ROT>
6

>  <SCORE.INTER.SOLV>
24.9523

>  <SCORE.INTER.VDW>
-21.0526

>  <SCORE.INTER.norm>
-1.1372

>  <SCORE.INTRA>
-21.479

>  <SCORE.INTRA.DIHEDRAL>
-28.8307

>  <SCORE.INTRA.DIHEDRAL.0>
44.2576

>  <SCORE.INTRA.POLAR>
-0.736504

>  <SCORE.INTRA.POLAR.0>
-0.381556

>  <SCORE.INTRA.REPUL>
0

>  <SCORE.INTRA.REPUL.0>
0

>  <SCORE.INTRA.SOLV>
-3.43022

>  <SCORE.INTRA.SOLV.lig_0>
-134.592

>  <SCORE.INTRA.VDW>
-2.84446

>  <SCORE.INTRA.VDW.0>
-1.01417

>  <SCORE.INTRA.norm>
-0.67122

>  <SCORE.RESTR>
0

>  <SCORE.RESTR.CAVITY>
0

>  <SCORE.RESTR.norm>
0

>  <SCORE.SYSTEM>
0

>  <SCORE.SYSTEM.CONST>
0

>  <SCORE.SYSTEM.DIHEDRAL>
0

>  <SCORE.SYSTEM.SOLV>
0

>  <SCORE.SYSTEM.norm>
0

>  <SCORE.heavy>
32

>  <SCORE.norm>
-1.80842

>  <RMSD>
9.671

$$$$
1lc4
 OpenBabel02141814113D
libRbt.so/2013.1/901 2013/11/27
 32 34  0  0  0  0  0  0  0  0999 V2000
  -11.1736    7.7110   19.4576 C   0  0  2  0  0  0  0  0  0  0  0  0
  -11.4481    6.7757   20.4705 O   0  0  0  0  0  0  0  0  0  0  0  0
  -12.1841    8.8691   19.5870 C   0  0  2  0  0  0  0  0  0  0  0  0
  -12.0893    9.4824   20.9154 N   0  3  0  0  0  0  0  0  0  0  0  0
  -13.6165    8.3597   19.3019 C   0  0  0  0  0  0  0  0  0  0  0  0
  -13.6246    7.7733   17.8793 C   0  0  2  0  0  0  0  0  0  0  0  0
  -14.9389    7.3250   17.5316 O   0  0  0  0  0  0  0  0  0  0  0  0
  -12.5962    6.6178   17.7966 C   0  0  2  0  0  0  0  0  0  0  0  0
  -11.2678    7.0948   18.1543 O   0  0  0  0  0  0  0  0  0  0  0  0
  -12.4861    5.9991   16.4053 C   0  0  0  0  0  0  0  0  0  0  0  0
  -11.4299    4.9539   16.3631 N   0  3  0  0  0  0  0  0  0  0  0  0
   -8.5695    5.1870   23.1443 C   0  0  2  0  0  0  0  0  0  0  0  0
   -7.4958    4.3663   23.7338 N   0  3  0  0  0  0  0  0  0  0  0  0
   -9.7651    4.3078   22.8037 C   0  0  0  0  0  0  0  0  0  0  0  0
  -10.8874    5.1494   22.1863 C   0  0  2  0  0  0  0  0  0  0  0  0
  -12.0699    4.2761   21.9818 N   0  3  0  0  0  0  0  0  0  0  0  0
  -10.4027    5.8798   20.8983 C   0  0  2  0  0  0  0  0  0  0  0  0
   -9.1495    6.7308   21.2283 C   0  0  2  0  0  0  0  0  0  0  0  0
   -8.6154    7.2575   20.0378 O   0  0  0  0  0  0  0  0  0  0  0  0
   -8.0557    5.8666   21.8766 C   0  0  1  0  0  0  0  0  0  0  0  0
   -6.9379    6.6963   22.1914 O   0  0  0  0  0  0  0  0  0  0  0  0
   -7.2066    7.9507   22.7163 C   0  0  2  0  0  0  0  0  0  0  0  0
   -5.8983    8.7581   22.7666 C   0  0  2  0  0  0  0  0  0  0  0  0
   -5.3818    8.8691   21.4464 O   0  0  0  0  0  0  0  0  0  0  0  0
   -4.8846    8.0348   23.6705 C   0  0  1  0  0  0  0  0  0  0  0  0
   -3.5847    8.7624   23.7411 N   0  3  0  0  0  0  0  0  0  0  0  0
   -5.4918    7.8648   25.0845 C   0  0  2  0  0  0  0  0  0  0  0  0
   -4.5834    7.1738   25.9390 O   0  0  0  0  0  0  0  0  0  0  0  0
   -6.8339    7.1143   25.0003 C   0  0  2  0  0  0  0  0  0  0  0  0
   -7.7427    7.7873   24.0550 O   0  0  0  0  0  0  0  0  0  0  0  0
   -7.5423    7.0607   26.3357 C   0  0  0  0  0  0  0  0  0  0  0  0
   -6.7307    6.4516   27.3374 O   0  0  0  0  0  0  0  0  0  0  0  0
  1  2  1  1  0  0  0
  1  3  1  0  0  0  0
  1  9  1  0  0  0  0
  3  4  1  1  0  0  0
  3  5  1  0  0  0  0
  5  6  1  0  0  0  0
  6  7  1  1  0  0  0
  6  8  1  0  0  0  0
  8  9  1  0  0  0  0
  8 10  1  6  0  0  0
 10 11  1  0  0  0  0
 12 13  1  6  0  0  0
 12 14  1  0  0  0  0
 12 20  1  0  0  0  0
 14 15  1  0  0  0  0
 15 16  1  6  0  0  0
 15 17  1  0  0  0  0
 17  2  1  1  0  0  0
 17 18  1  0  0  0  0
 18 19  1  6  0  0  0
 18 20  1  0  0  0  0
 20 21  1  1  0  0  0
 22 21  1  1  0  0  0
 22 23  1  0  0  0  0
 22 30  1  0  0  0  0
 23 24  1  6  0  0  0
 23 25  1  0  0  0  0
 25 26  1  1  0  0  0
 25 27  1  0  0  0  0
 27 28  1  1  0  0  0
 27 29  1  0  0  0  0
 29 30  1  0  0  0  0
 29 31  1  1  0  0  0
 31 32  1  0  0  0  0
M  CHG  5   4   1  11   1  13   1  16   1  26   1
M  END
>  <CHROM.1>
-157.15951617,169.65493805,66.09634655,-179.95096932,176.57833791,73.48702228
60.09223227,-75.84095110,178.15862578,-80.91925043,-170.85010897,-52.36465632
-53.42215881,-170.46650698,-57.28174539,-175.39447686,-9.17965950,6.94260859
21.63948959,-2.58469753,0.53371192,2.18718567

>  <Name>
1lc4

>  <RI>
0

>  <Rbt.Current_Directory>
/home/afrankz/demos/rdock_decoys_rna/rnas/1lc4

>  <Rbt.Executable>
rbdock ($Id: //depot/dev/client3/rdock/2013.1/src/exe/rbdock.cxx#4 $)

>  <Rbt.Library>
libRbt.so (2013.1, Build901 2013/11/27)

>  <Rbt.Parameter_File>
/export/apps/rDock/src/rDock_2013.1_src/data/scripts/dock_solv.prm

>  <Rbt.Receptor>
prm/pocket_docking_6.prm

>  <SCORE>
-61.019

>  <SCORE.INTER>
-40.1279

>  <SCORE.INTER.CONST>
1

>  <SCORE.INTER.POLAR>
-5.30992

>  <SCORE.INTER.ROT>
6

>  <SCORE.INTER.SOLV>
23.6975

>  <SCORE.INTER.VDW>
-24.5513

>  <SCORE.INTER.norm>
-1.254

>  <SCORE.INTRA>
-20.8912

>  <SCORE.INTRA.DIHEDRAL>
-36.8844

>  <SCORE.INTRA.DIHEDRAL.0>
44.2576

>  <SCORE.INTRA.POLAR>
-0.462391

>  <SCORE.INTRA.POLAR.0>
-0.381556

>  <SCORE.INTRA.REPUL>
0

>  <SCORE.INTRA.REPUL.0>
0

>  <SCORE.INTRA.SOLV>
-3.13629

>  <SCORE.INTRA.SOLV.lig_0>
-134.592

>  <SCORE.INTRA.VDW>
0.691273

>  <SCORE.INTRA.VDW.0>
-1.01417

>  <SCORE.INTRA.norm>
-0.652849

>  <SCORE.RESTR>
0

>  <SCORE.RESTR.CAVITY>
0

>  <SCORE.RESTR.norm>
0

>  <SCORE.SYSTEM>
0

>  <SCORE.SYSTEM.CONST>
0

>  <SCORE.SYSTEM.DIHEDRAL>
0

>  <SCORE.SYSTEM.SOLV>
0

>  <SCORE.SYSTEM.norm>
0

>  <SCORE.heavy>
32

>  <SCORE.norm>
-1.90684

>  <RMSD>
9.726

$$$$
1lc4
 OpenBabel02141814113D
libRbt.so/2013.1/901 2013/11/27
 32 34  0  0  0  0  0  0  0  0999 V2000
  -10.7383    8.1422   19.8450 C   0  0  2  0  0  0  0  0  0  0  0  0
  -10.7931    7.2204   20.9048 O   0  0  0  0  0  0  0  0  0  0  0  0
  -12.0030    9.0227   19.9088 C   0  0  2  0  0  0  0  0  0  0  0  0
  -12.0834    9.7066   21.2032 N   0  3  0  0  0  0  0  0  0  0  0  0
  -13.2626    8.1644   19.6451 C   0  0  0  0  0  0  0  0  0  0  0  0
  -13.1031    7.5230   18.2555 C   0  0  2  0  0  0  0  0  0  0  0  0
  -14.2620    6.7497   17.9267 O   0  0  0  0  0  0  0  0  0  0  0  0
  -11.8223    6.6519   18.2384 C   0  0  2  0  0  0  0  0  0  0  0  0
  -10.6569    7.4569   18.5758 O   0  0  0  0  0  0  0  0  0  0  0  0
  -11.5409    6.0097   16.8823 C   0  0  0  0  0  0  0  0  0  0  0  0
  -10.5277    4.9282   16.9988 N   0  3  0  0  0  0  0  0  0  0  0  0
   -7.7484    5.7417   23.4549 C   0  0  2  0  0  0  0  0  0  0  0  0
   -6.5559    5.0416   23.9667 N   0  3  0  0  0  0  0  0  0  0  0  0
   -8.7409    4.7316   22.8953 C   0  0  0  0  0  0  0  0  0  0  0  0
   -9.9842    5.4478   22.3565 C   0  0  2  0  0  0  0  0  0  0  0  0
  -10.9693    4.4219   21.9325 N   0  3  0  0  0  0  0  0  0  0  0  0
   -9.6088    6.4710   21.2431 C   0  0  2  0  0  0  0  0  0  0  0  0
   -8.5540    7.4663   21.7914 C   0  0  2  0  0  0  0  0  0  0  0  0
   -8.0940    8.2844   20.7430 O   0  0  0  0  0  0  0  0  0  0  0  0
   -7.3353    6.7176   22.3550 C   0  0  1  0  0  0  0  0  0  0  0  0
   -6.4088    7.6699   22.8760 O   0  0  0  0  0  0  0  0  0  0  0  0
   -6.4349    7.8985   24.2429 C   0  0  2  0  0  0  0  0  0  0  0  0
   -7.2922    9.1450   24.5212 C   0  0  2  0  0  0  0  0  0  0  0  0
   -8.6056    8.9124   24.0284 O   0  0  0  0  0  0  0  0  0  0  0  0
   -6.6711   10.3620   23.8135 C   0  0  1  0  0  0  0  0  0  0  0  0
   -7.4735   11.6003   24.0304 N   0  3  0  0  0  0  0  0  0  0  0  0
   -5.2195   10.5581   24.3147 C   0  0  2  0  0  0  0  0  0  0  0  0
   -4.6086   11.6656   23.6566 O   0  0  0  0  0  0  0  0  0  0  0  0
   -4.4004    9.2739   24.0878 C   0  0  2  0  0  0  0  0  0  0  0  0
   -5.0755    8.1164   24.7019 O   0  0  0  0  0  0  0  0  0  0  0  0
   -3.0210    9.3610   24.7025 C   0  0  0  0  0  0  0  0  0  0  0  0
   -2.2563    8.1848   24.4473 O   0  0  0  0  0  0  0  0  0  0  0  0
  1  2  1  1  0  0  0
  1  3  1  0  0  0  0
  1  9  1  0  0  0  0
  3  4  1  1  0  0  0
  3  5  1  0  0  0  0
  5  6  1  0  0  0  0
  6  7  1  1  0  0  0
  6  8  1  0  0  0  0
  8  9  1  0  0  0  0
  8 10  1  6  0  0  0
 10 11  1  0  0  0  0
 12 13  1  6  0  0  0
 12 14  1  0  0  0  0
 12 20  1  0  0  0  0
 14 15  1  0  0  0  0
 15 16  1  6  0  0  0
 15 17  1  0  0  0  0
 17  2  1  1  0  0  0
 17 18  1  0  0  0  0
 18 19  1  6  0  0  0
 18 20  1  0  0  0  0
 20 21  1  1  0  0  0
 22 21  1  6  0  0  0
 22 23  1  0  0  0  0
 22 30  1  0  0  0  0
 23 24  1  6  0  0  0
 23 25  1  0  0  0  0
 25 26  1  1  0  0  0
 25 27  1  0  0  0  0
 27 28  1  6  0  0  0
 27 29  1  0  0  0  0
 29 30  1  0  0  0  0
 29 31  1  1  0  0  0
 31 32  1  0  0  0  0
M  CHG  5   4   1  11   1  13   1  16   1  26   1
M  END
>  <CHROM.1>
-167.01266279,-175.11882352,62.01785886,-174.25650641,-165.45660981,-57.28990789
-88.71666099,-168.38901299,-173.77073717,-23.82725904,-96.64027546,58.88378940
73.04453335,-178.90129224,-178.02577070,-177.86069233,-8.60310302,7.77282241
21.83052497,2.82111404,0.62651372,-3.03073326

>  <Name>
1lc4

>  <RI>
0

>  <Rbt.Current_Directory>
/home/afrankz/demos/rdock_decoys_rna/rnas/1lc4

>  <Rbt.Executable>
rbdock ($Id: //depot/dev/client3/rdock/2013.1/src/exe/rbdock.cxx#4 $)

>  <Rbt.Library>
libRbt.so (2013.1, Build901 2013/11/27)

>  <Rbt.Parameter_File>
/export/apps/rDock/src/rDock_2013.1_src/data/scripts/dock_solv.prm

>  <Rbt.Receptor>
prm/pocket_docking_6.prm

>  <SCORE>
-50.4197

>  <SCORE.INTER>
-36.3164

>  <SCORE.INTER.CONST>
1

>  <SCORE.INTER.POLAR>
-4.78232

>  <SCORE.INTER.ROT>
6

>  <SCORE.INTER.SOLV>
30.6372

>  <SCORE.INTER.VDW>
-26.0823

>  <SCORE.INTER.norm>
-1.13489

>  <SCORE.INTRA>
-14.7198

>  <SCORE.INTRA.DIHEDRAL>
-30.1048

>  <SCORE.INTRA.DIHEDRAL.0>
44.2576

>  <SCORE.INTRA.POLAR>
0.344495

>  <SCORE.INTRA.POLAR.0>
-0.381556

>  <SCORE.INTRA.REPUL>
0

>  <SCORE.INTRA.REPUL.0>
0

>  <SCORE.INTRA.SOLV>
-4.80158

>  <SCORE.INTRA.SOLV.lig_0>
-134.592

>  <SCORE.INTRA.VDW>
1.5621

>  <SCORE.INTRA.VDW.0>
-1.01417

>  <SCORE.INTRA.norm>
-0.459994

>  <SCORE.RESTR>
0.616513

>  <SCORE.RESTR.CAVITY>
0.616513

>  <SCORE.RESTR.norm>
0.019266

>  <SCORE.SYSTEM>
0

>  <SCORE.SYSTEM.CONST>
0

>  <SCORE.SYSTEM.DIHEDRAL>
0

>  <SCORE.SYSTEM.SOLV>
0

>  <SCORE.SYSTEM.norm>
0

>  <SCORE.heavy>
32

>  <SCORE.norm>
-1.57562

>  <RMSD>
9.732

$$$$
1lc4
 OpenBabel02141814113D
libRbt.so/2013.1/901 2013/11/27
 32 34  0  0  0  0  0  0  0  0999 V2000
  -11.0275    8.1341   19.4151 C   0  0  2  0  0  0  0  0  0  0  0  0
  -11.0585    7.0334   20.2888 O   0  0  0  0  0  0  0  0  0  0  0  0
  -11.9475    9.2300   19.9908 C   0  0  2  0  0  0  0  0  0  0  0  0
  -11.5083    9.6089   21.3373 N   0  3  0  0  0  0  0  0  0  0  0  0
  -13.4163    8.7449   19.9922 C   0  0  0  0  0  0  0  0  0  0  0  0
  -13.7947    8.4105   18.5386 C   0  0  2  0  0  0  0  0  0  0  0  0
  -15.1636    7.9991   18.4612 O   0  0  0  0  0  0  0  0  0  0  0  0
  -12.8455    7.3096   18.0034 C   0  0  2  0  0  0  0  0  0  0  0  0
  -11.4598    7.7480   18.0918 O   0  0  0  0  0  0  0  0  0  0  0  0
  -13.1023    6.9407   16.5445 C   0  0  0  0  0  0  0  0  0  0  0  0
  -12.5400    5.6033   16.2205 N   0  3  0  0  0  0  0  0  0  0  0  0
   -8.2616    5.6746   23.1682 C   0  0  2  0  0  0  0  0  0  0  0  0
   -7.0517    5.1259   23.8077 N   0  3  0  0  0  0  0  0  0  0  0  0
   -8.8807    4.6296   22.2501 C   0  0  0  0  0  0  0  0  0  0  0  0
  -10.1382    5.1895   21.5760 C   0  0  2  0  0  0  0  0  0  0  0  0
  -10.7707    4.1030   20.7874 N   0  3  0  0  0  0  0  0  0  0  0  0
   -9.8141    6.4712   20.7516 C   0  0  2  0  0  0  0  0  0  0  0  0
   -9.1300    7.5163   21.6701 C   0  0  2  0  0  0  0  0  0  0  0  0
   -8.6898    8.6041   20.8935 O   0  0  0  0  0  0  0  0  0  0  0  0
   -7.8931    6.9154   22.3573 C   0  0  1  0  0  0  0  0  0  0  0  0
   -7.3171    7.9003   23.2146 O   0  0  0  0  0  0  0  0  0  0  0  0
   -8.0891    8.3480   24.2752 C   0  0  2  0  0  0  0  0  0  0  0  0
   -8.2308    9.8764   24.1753 C   0  0  2  0  0  0  0  0  0  0  0  0
   -8.8514   10.1951   22.9362 O   0  0  0  0  0  0  0  0  0  0  0  0
   -6.8379   10.5259   24.2499 C   0  0  1  0  0  0  0  0  0  0  0  0
   -6.9103   12.0111   24.1364 N   0  3  0  0  0  0  0  0  0  0  0  0
   -6.1525   10.1131   25.5754 C   0  0  2  0  0  0  0  0  0  0  0  0
   -4.8474   10.6805   25.6613 O   0  0  0  0  0  0  0  0  0  0  0  0
   -6.0844    8.5784   25.6835 C   0  0  2  0  0  0  0  0  0  0  0  0
   -7.4250    7.9895   25.5149 O   0  0  0  0  0  0  0  0  0  0  0  0
   -5.5658    8.1239   27.0298 C   0  0  0  0  0  0  0  0  0  0  0  0
   -5.8645    6.7508   27.2721 O   0  0  0  0  0  0  0  0  0  0  0  0
  1  2  1  1  0  0  0
  1  3  1  0  0  0  0
  1  9  1  0  0  0  0
  3  4  1  1  0  0  0
  3  5  1  0  0  0  0
  5  6  1  0  0  0  0
  6  7  1  1  0  0  0
  6  8  1  0  0  0  0
  8  9  1  0  0  0  0
  8 10  1  6  0  0  0
 10 11  1  0  0  0  0
 12 13  1  6  0  0  0
 12 14  1  0  0  0  0
 12 20  1  0  0  0  0
 14 15  1  0  0  0  0
 15 16  1  6  0  0  0
 15 17  1  0  0  0  0
 17  2  1  1  0  0  0
 17 18  1  0  0  0  0
 18 19  1  6  0  0  0
 18 20  1  0  0  0  0
 20 21  1  1  0  0  0
 22 21  1  6  0  0  0
 22 23  1  0  0  0  0
 22 30  1  0  0  0  0
 23 24  1  6  0  0  0
 23 25  1  0  0  0  0
 25 26  1  1  0  0  0
 25 27  1  0  0  0  0
 27 28  1  6  0  0  0
 27 29  1  0  0  0  0
 29 30  1  0  0  0  0
 29 31  1  1  0  0  0
 31 32  1  0  0  0  0
M  CHG  5   4   1  11   1  13   1  16   1  26   1
M  END
>  <CHROM.1>
-128.83653282,-174.25593010,164.52584363,65.21257203,-159.77737607,-61.85929235
152.30743300,68.09750530,-57.21782620,-58.78558213,-123.28306816,-52.33682360
99.11540426,-179.63031070,162.98179320,-49.37386373,-9.38411659,7.87910076
21.99873340,2.88677429,0.81620342,-3.02280323

>  <Name>
1lc4

>  <RI>
0

>  <Rbt.Current_Directory>
/home/afrankz/demos/rdock_decoys_rna/rnas/1lc4

>  <Rbt.Executable>
rbdock ($Id: //depot/dev/client3/rdock/2013.1/src/exe/rbdock.cxx#4 $)

>  <Rbt.Library>
libRbt.so (2013.1, Build901 2013/11/27)

>  <Rbt.Parameter_File>
/export/apps/rDock/src/rDock_2013.1_src/data/scripts/dock_solv.prm

>  <Rbt.Receptor>
prm/pocket_docking_6.prm

>  <SCORE>
-52.6888

>  <SCORE.INTER>
-34.7262

>  <SCORE.INTER.CONST>
1

>  <SCORE.INTER.POLAR>
-4.68617

>  <SCORE.INTER.ROT>
6

>  <SCORE.INTER.SOLV>
27.3944

>  <SCORE.INTER.VDW>
-24.2617

>  <SCORE.INTER.norm>
-1.08519

>  <SCORE.INTRA>
-18.1987

>  <SCORE.INTRA.DIHEDRAL>
-21.7659

>  <SCORE.INTRA.DIHEDRAL.0>
44.2576

>  <SCORE.INTRA.POLAR>
-1.83539

>  <SCORE.INTRA.POLAR.0>
-0.381556

>  <SCORE.INTRA.REPUL>
0

>  <SCORE.INTRA.REPUL.0>
0

>  <SCORE.INTRA.SOLV>
-0.0550943

>  <SCORE.INTRA.SOLV.lig_0>
-134.592

>  <SCORE.INTRA.VDW>
-1.04787

>  <SCORE.INTRA.VDW.0>
-1.01417

>  <SCORE.INTRA.norm>
-0.568709

>  <SCORE.RESTR>
0.236102

>  <SCORE.RESTR.CAVITY>
0.236102

>  <SCORE.RESTR.norm>
0.00737818

>  <SCORE.SYSTEM>
0

>  <SCORE.SYSTEM.CONST>
0

>  <SCORE.SYSTEM.DIHEDRAL>
0

>  <SCORE.SYSTEM.SOLV>
0

>  <SCORE.SYSTEM.norm>
0

>  <SCORE.heavy>
32

>  <SCORE.norm>
-1.64652

>  <RMSD>
9.777

$$$$
1lc4
 OpenBabel02141814113D
libRbt.so/2013.1/901 2013/11/27
 32 34  0  0  0  0  0  0  0  0999 V2000
  -11.2906    7.9593   18.9270 C   0  0  2  0  0  0  0  0  0  0  0  0
  -11.3333    6.8198   19.7490 O   0  0  0  0  0  0  0  0  0  0  0  0
  -12.2901    8.9923   19.4863 C   0  0  2  0  0  0  0  0  0  0  0  0
  -11.9552    9.3263   20.8741 N   0  3  0  0  0  0  0  0  0  0  0  0
  -13.7348    8.4522   19.3690 C   0  0  0  0  0  0  0  0  0  0  0  0
  -14.0040    8.1699   17.8805 C   0  0  2  0  0  0  0  0  0  0  0  0
  -15.3470    7.7106   17.6945 O   0  0  0  0  0  0  0  0  0  0  0  0
  -12.9778    7.1312   17.3634 C   0  0  2  0  0  0  0  0  0  0  0  0
  -11.6198    7.6174   17.5626 O   0  0  0  0  0  0  0  0  0  0  0  0
  -13.1240    6.8192   15.8761 C   0  0  0  0  0  0  0  0  0  0  0  0
  -14.4236    6.1566   15.5904 N   0  3  0  0  0  0  0  0  0  0  0  0
   -8.7778    5.4821   22.8538 C   0  0  2  0  0  0  0  0  0  0  0  0
   -7.6068    4.9840   23.5984 N   0  3  0  0  0  0  0  0  0  0  0  0
   -9.1995    4.4588   21.8081 C   0  0  0  0  0  0  0  0  0  0  0  0
  -10.4146    4.9668   21.0242 C   0  0  2  0  0  0  0  0  0  0  0  0
  -10.8609    3.8923   20.1029 N   0  3  0  0  0  0  0  0  0  0  0  0
  -10.1070    6.3231   20.3218 C   0  0  2  0  0  0  0  0  0  0  0  0
   -9.6209    7.3513   21.3755 C   0  0  2  0  0  0  0  0  0  0  0  0
   -9.1876    8.5202   20.7227 O   0  0  0  0  0  0  0  0  0  0  0  0
   -8.4243    6.8000   22.1675 C   0  0  1  0  0  0  0  0  0  0  0  0
   -8.0333    7.7644   23.1442 O   0  0  0  0  0  0  0  0  0  0  0  0
   -7.0694    8.6887   22.7729 C   0  0  2  0  0  0  0  0  0  0  0  0
   -5.7049    8.2264   23.3122 C   0  0  2  0  0  0  0  0  0  0  0  0
   -5.4090    6.9483   22.7637 O   0  0  0  0  0  0  0  0  0  0  0  0
   -5.7633    8.1409   24.8474 C   0  0  1  0  0  0  0  0  0  0  0  0
   -4.4707    7.6756   25.4278 N   0  3  0  0  0  0  0  0  0  0  0  0
   -6.1518    9.5253   25.4214 C   0  0  2  0  0  0  0  0  0  0  0  0
   -6.2387    9.4706   26.8434 O   0  0  0  0  0  0  0  0  0  0  0  0
   -7.4864    9.9972   24.8147 C   0  0  2  0  0  0  0  0  0  0  0  0
   -7.4194    9.9768   23.3424 O   0  0  0  0  0  0  0  0  0  0  0  0
   -7.8305   11.4121   25.2241 C   0  0  0  0  0  0  0  0  0  0  0  0
   -6.8936   12.3527   24.7036 O   0  0  0  0  0  0  0  0  0  0  0  0
  1  2  1  1  0  0  0
  1  3  1  0  0  0  0
  1  9  1  0  0  0  0
  3  4  1  1  0  0  0
  3  5  1  0  0  0  0
  5  6  1  0  0  0  0
  6  7  1  1  0  0  0
  6  8  1  0  0  0  0
  8  9  1  0  0  0  0
  8 10  1  6  0  0  0
 10 11  1  0  0  0  0
 12 13  1  6  0  0  0
 12 14  1  0  0  0  0
 12 20  1  0  0  0  0
 14 15  1  0  0  0  0
 15 16  1  6  0  0  0
 15 17  1  0  0  0  0
 17  2  1  1  0  0  0
 17 18  1  0  0  0  0
 18 19  1  6  0  0  0
 18 20  1  0  0  0  0
 20 21  1  1  0  0  0
 22 21  1  1  0  0  0
 22 23  1  0  0  0  0
 22 30  1  0  0  0  0
 23 24  1  6  0  0  0
 23 25  1  0  0  0  0
 25 26  1  1  0  0  0
 25 27  1  0  0  0  0
 27 28  1  1  0  0  0
 27 29  1  0  0  0  0
 29 30  1  0  0  0  0
 29 31  1  1  0  0  0
 31 32  1  0  0  0  0
M  CHG  5   4   1  11   1  13   1  16   1  26   1
M  END
>  <CHROM.1>
-125.86860256,-172.80422317,56.66835107,-48.50009578,-65.05362935,175.94803698
12.79224620,-48.41166537,-60.03304757,147.00197966,-99.03541508,65.17468402
-176.69587588,-74.42253419,65.09748650,172.79654085,-9.51392964,7.75217530
21.47879365,2.74936664,0.72623295,-2.84531434

>  <Name>
1lc4

>  <RI>
0

>  <Rbt.Current_Directory>
/home/afrankz/demos/rdock_decoys_rna/rnas/1lc4

>  <Rbt.Executable>
rbdock ($Id: //depot/dev/client3/rdock/2013.1/src/exe/rbdock.cxx#4 $)

>  <Rbt.Library>
libRbt.so (2013.1, Build901 2013/11/27)

>  <Rbt.Parameter_File>
/export/apps/rDock/src/rDock_2013.1_src/data/scripts/dock_solv.prm

>  <Rbt.Receptor>
prm/pocket_docking_7.prm

>  <SCORE>
-64.2144

>  <SCORE.INTER>
-44.9432

>  <SCORE.INTER.CONST>
1

>  <SCORE.INTER.POLAR>
-6.10125

>  <SCORE.INTER.ROT>
6

>  <SCORE.INTER.SOLV>
20.4922

>  <SCORE.INTER.VDW>
-24.0554

>  <SCORE.INTER.norm>
-1.40448

>  <SCORE.INTRA>
-19.2712

>  <SCORE.INTRA.DIHEDRAL>
-21.6824

>  <SCORE.INTRA.DIHEDRAL.0>
44.2576

>  <SCORE.INTRA.POLAR>
-1.955

>  <SCORE.INTRA.POLAR.0>
-0.381556

>  <SCORE.INTRA.REPUL>
0

>  <SCORE.INTRA.REPUL.0>
0

>  <SCORE.INTRA.SOLV>
1.73965

>  <SCORE.INTRA.SOLV.lig_0>
-134.592

>  <SCORE.INTRA.VDW>
-2.65282

>  <SCORE.INTRA.VDW.0>
-1.01417

>  <SCORE.INTRA.norm>
-0.602225

>  <SCORE.RESTR>
0

>  <SCORE.RESTR.CAVITY>
0

>  <SCORE.RESTR.norm>
0

>  <SCORE.SYSTEM>
0

>  <SCORE.SYSTEM.CONST>
0

>  <SCORE.SYSTEM.DIHEDRAL>
0

>  <SCORE.SYSTEM.SOLV>
0

>  <SCORE.SYSTEM.norm>
0

>  <SCORE.heavy>
32

>  <SCORE.norm>
-2.0067

>  <RMSD>
9.795

$$$$
1lc4
 OpenBabel02141814113D
libRbt.so/2013.1/901 2013/11/27
 32 34  0  0  0  0  0  0  0  0999 V2000
  -11.7260    3.7864   20.7967 C   0  0  2  0  0  0  0  0  0  0  0  0
  -11.0903    4.9152   20.2511 O   0  0  0  0  0  0  0  0  0  0  0  0
  -12.4971    3.0762   19.6653 C   0  0  2  0  0  0  0  0  0  0  0  0
  -11.5822    2.6988   18.5836 N   0  3  0  0  0  0  0  0  0  0  0  0
  -13.6382    3.9834   19.1482 C   0  0  0  0  0  0  0  0  0  0  0  0
  -14.5614    4.2909   20.3402 C   0  0  2  0  0  0  0  0  0  0  0  0
  -15.6710    5.0911   19.9188 O   0  0  0  0  0  0  0  0  0  0  0  0
  -13.7454    5.0005   21.4493 C   0  0  2  0  0  0  0  0  0  0  0  0
  -12.6226    4.1706   21.8624 O   0  0  0  0  0  0  0  0  0  0  0  0
  -14.5594    5.3033   22.7049 C   0  0  0  0  0  0  0  0  0  0  0  0
  -13.9692    4.6460   23.9004 N   0  3  0  0  0  0  0  0  0  0  0  0
   -7.9108    7.2494   21.8009 C   0  0  2  0  0  0  0  0  0  0  0  0
   -7.1196    8.1858   22.6201 N   0  3  0  0  0  0  0  0  0  0  0  0
   -9.0577    7.9919   21.1288 C   0  0  0  0  0  0  0  0  0  0  0  0
   -9.8904    7.0279   20.2765 C   0  0  2  0  0  0  0  0  0  0  0  0
  -10.9193    7.8132   19.5503 N   0  3  0  0  0  0  0  0  0  0  0  0
  -10.4658    5.8646   21.1385 C   0  0  2  0  0  0  0  0  0  0  0  0
   -9.3058    5.1424   21.8709 C   0  0  2  0  0  0  0  0  0  0  0  0
   -9.8363    4.2022   22.7735 O   0  0  0  0  0  0  0  0  0  0  0  0
   -8.4695    6.1397   22.6892 C   0  0  1  0  0  0  0  0  0  0  0  0
   -7.3979    5.4371   23.3175 O   0  0  0  0  0  0  0  0  0  0  0  0
   -7.6036    4.9944   24.6148 C   0  0  2  0  0  0  0  0  0  0  0  0
   -7.0452    6.0434   25.5916 C   0  0  2  0  0  0  0  0  0  0  0  0
   -7.7209    7.2749   25.3709 O   0  0  0  0  0  0  0  0  0  0  0  0
   -5.5361    6.2186   25.3470 C   0  0  1  0  0  0  0  0  0  0  0  0
   -4.9413    7.2425   26.2536 N   0  3  0  0  0  0  0  0  0  0  0  0
   -4.8279    4.8536   25.5269 C   0  0  2  0  0  0  0  0  0  0  0  0
   -3.4292    4.9798   25.2813 O   0  0  0  0  0  0  0  0  0  0  0  0
   -5.4504    3.8036   24.5880 C   0  0  2  0  0  0  0  0  0  0  0  0
   -6.9089    3.7322   24.7889 O   0  0  0  0  0  0  0  0  0  0  0  0
   -4.8994    2.4172   24.8375 C   0  0  0  0  0  0  0  0  0  0  0  0
   -5.0013    2.0503   26.2116 O   0  0  0  0  0  0  0  0  0  0  0  0
  1  2  1  6  0  0  0
  1  3  1  0  0  0  0
  1  9  1  0  0  0  0
  3  4  1  6  0  0  0
  3  5  1  0  0  0  0
  5  6  1  0  0  0  0
  6  7  1  6  0  0  0
  6  8  1  0  0  0  0
  8  9  1  0  0  0  0
  8 10  1  1  0  0  0
 10 11  1  0  0  0  0
 12 13  1  1  0  0  0
 12 14  1  0  0  0  0
 12 20  1  0  0  0  0
 14 15  1  0  0  0  0
 15 16  1  1  0  0  0
 15 17  1  0  0  0  0
 17  2  1  6  0  0  0
 17 18  1  0  0  0  0
 18 19  1  1  0  0  0
 18 20  1  0  0  0  0
 20 21  1  6  0  0  0
 22 21  1  6  0  0  0
 22 23  1  0  0  0  0
 22 30  1  0  0  0  0
 23 24  1  6  0  0  0
 23 25  1  0  0  0  0
 25 26  1  1  0  0  0
 25 27  1  0  0  0  0
 27 28  1  6  0  0  0
 27 29  1  0  0  0  0
 29 30  1  0  0  0  0
 29 31  1  1  0  0  0
 31 32  1  0  0  0  0
M  CHG  5   4   1  11   1  13   1  16   1  26   1
M  END
>  <CHROM.1>
170.81705367,-178.01573490,54.27355147,66.94725910,120.82649988,100.31015762
91.10070500,-57.88566383,-19.15815938,143.86454923,-94.69116079,54.46034632
-60.10472853,-55.90088594,52.65331566,-69.33356398,-9.34278176,5.18255179
22.65851316,3.01314887,-0.53114966,-0.33398727

>  <Name>
1lc4

>  <RI>
0

>  <Rbt.Current_Directory>
/home/afrankz/demos/rdock_decoys_rna/rnas/1lc4

>  <Rbt.Executable>
rbdock ($Id: //depot/dev/client3/rdock/2013.1/src/exe/rbdock.cxx#4 $)

>  <Rbt.Library>
libRbt.so (2013.1, Build901 2013/11/27)

>  <Rbt.Parameter_File>
/export/apps/rDock/src/rDock_2013.1_src/data/scripts/dock_solv.prm

>  <Rbt.Receptor>
prm/pocket_docking_7.prm

>  <SCORE>
-53.0797

>  <SCORE.INTER>
-36.2298

>  <SCORE.INTER.CONST>
1

>  <SCORE.INTER.POLAR>
-4.73581

>  <SCORE.INTER.ROT>
6

>  <SCORE.INTER.SOLV>
22.751

>  <SCORE.INTER.VDW>
-23.5509

>  <SCORE.INTER.norm>
-1.13218

>  <SCORE.INTRA>
-16.8498

>  <SCORE.INTRA.DIHEDRAL>
-17.9219

>  <SCORE.INTRA.DIHEDRAL.0>
44.2576

>  <SCORE.INTRA.POLAR>
-1.70373

>  <SCORE.INTRA.POLAR.0>
-0.381556

>  <SCORE.INTRA.REPUL>
0

>  <SCORE.INTRA.REPUL.0>
0

>  <SCORE.INTRA.SOLV>
-1.5332

>  <SCORE.INTRA.SOLV.lig_0>
-134.592

>  <SCORE.INTRA.VDW>
-1.3296

>  <SCORE.INTRA.VDW.0>
-1.01417

>  <SCORE.INTRA.norm>
-0.526558

>  <SCORE.RESTR>
0

>  <SCORE.RESTR.CAVITY>
0

>  <SCORE.RESTR.norm>
0

>  <SCORE.SYSTEM>
0

>  <SCORE.SYSTEM.CONST>
0

>  <SCORE.SYSTEM.DIHEDRAL>
0

>  <SCORE.SYSTEM.SOLV>
0

>  <SCORE.SYSTEM.norm>
0

>  <SCORE.heavy>
32

>  <SCORE.norm>
-1.65874

>  <RMSD>
9.998

$$$$
1lc4
 OpenBabel02141814113D
libRbt.so/2013.1/901 2013/11/27
 32 34  0  0  0  0  0  0  0  0999 V2000
  -10.4332    8.2506   19.8300 C   0  0  2  0  0  0  0  0  0  0  0  0
  -10.5542    7.2763   20.8361 O   0  0  0  0  0  0  0  0  0  0  0  0
  -11.7377    9.0729   19.7989 C   0  0  2  0  0  0  0  0  0  0  0  0
  -11.9837    9.6884   21.1066 N   0  3  0  0  0  0  0  0  0  0  0  0
  -12.9214    8.1765   19.3657 C   0  0  0  0  0  0  0  0  0  0  0  0
  -12.5889    7.6114   17.9736 C   0  0  2  0  0  0  0  0  0  0  0  0
  -13.6700    6.8072   17.4900 O   0  0  0  0  0  0  0  0  0  0  0  0
  -11.2739    6.7967   18.0532 C   0  0  2  0  0  0  0  0  0  0  0  0
  -10.1888    7.6324   18.5474 O   0  0  0  0  0  0  0  0  0  0  0  0
  -10.8236    6.2343   16.7072 C   0  0  0  0  0  0  0  0  0  0  0  0
  -11.8091    5.2566   16.1757 N   0  3  0  0  0  0  0  0  0  0  0  0
   -7.9052    5.4148   23.5706 C   0  0  2  0  0  0  0  0  0  0  0  0
   -6.7648    4.6820   24.1505 N   0  3  0  0  0  0  0  0  0  0  0  0
   -8.6691    4.5097   22.6137 C   0  0  0  0  0  0  0  0  0  0  0  0
   -9.8559    5.2616   22.0010 C   0  0  2  0  0  0  0  0  0  0  0  0
  -10.6362    4.3099   21.1716 N   0  3  0  0  0  0  0  0  0  0  0  0
   -9.3844    6.5356   21.2380 C   0  0  2  0  0  0  0  0  0  0  0  0
   -8.5560    7.4325   22.1936 C   0  0  2  0  0  0  0  0  0  0  0  0
   -7.9934    8.4969   21.4653 O   0  0  0  0  0  0  0  0  0  0  0  0
   -7.3947    6.6418   22.8177 C   0  0  1  0  0  0  0  0  0  0  0  0
   -6.6823    7.4962   23.7117 O   0  0  0  0  0  0  0  0  0  0  0  0
   -7.4331    8.2848   24.5694 C   0  0  2  0  0  0  0  0  0  0  0  0
   -6.7137    9.6306   24.7636 C   0  0  2  0  0  0  0  0  0  0  0  0
   -6.5780   10.2603   23.4959 O   0  0  0  0  0  0  0  0  0  0  0  0
   -5.3262    9.3850   25.3817 C   0  0  1  0  0  0  0  0  0  0  0  0
   -4.5706   10.6563   25.5744 N   0  3  0  0  0  0  0  0  0  0  0  0
   -5.4920    8.6398   26.7287 C   0  0  2  0  0  0  0  0  0  0  0  0
   -4.2191    8.3755   27.3139 O   0  0  0  0  0  0  0  0  0  0  0  0
   -6.2746    7.3301   26.5191 C   0  0  2  0  0  0  0  0  0  0  0  0
   -7.5560    7.5978   25.8418 O   0  0  0  0  0  0  0  0  0  0  0  0
   -6.5986    6.6437   27.8275 C   0  0  0  0  0  0  0  0  0  0  0  0
   -5.4229    6.3888   28.5930 O   0  0  0  0  0  0  0  0  0  0  0  0
  1  2  1  1  0  0  0
  1  3  1  0  0  0  0
  1  9  1  0  0  0  0
  3  4  1  1  0  0  0
  3  5  1  0  0  0  0
  5  6  1  0  0  0  0
  6  7  1  1  0  0  0
  6  8  1  0  0  0  0
  8  9  1  0  0  0  0
  8 10  1  6  0  0  0
 10 11  1  0  0  0  0
 12 13  1  6  0  0  0
 12 14  1  0  0  0  0
 12 20  1  0  0  0  0
 14 15  1  0  0  0  0
 15 16  1  6  0  0  0
 15 17  1  0  0  0  0
 17  2  1  1  0  0  0
 17 18  1  0  0  0  0
 18 19  1  6  0  0  0
 18 20  1  0  0  0  0
 20 21  1  1  0  0  0
 22 21  1  6  0  0  0
 22 23  1  0  0  0  0
 22 30  1  0  0  0  0
 23 24  1  6  0  0  0
 23 25  1  0  0  0  0
 25 26  1  1  0  0  0
 25 27  1  0  0  0  0
 27 28  1  6  0  0  0
 27 29  1  0  0  0  0
 29 30  1  0  0  0  0
 29 31  1  1  0  0  0
 31 32  1  0  0  0  0
M  CHG  5   4   1  11   1  13   1  16   1  26   1
M  END
>  <CHROM.1>
-168.71292349,-162.47092903,57.89278642,-51.17103703,-63.62732944,-179.42621488
-85.85024625,-179.00001725,-50.85690823,-77.27811561,-144.91312670,29.39729111
58.18890449,-174.33914242,-56.18567882,-177.95484946,-8.67338137,7.39463005
22.43094183,-3.12059938,0.92514393,2.97903993

>  <Name>
1lc4

>  <RI>
0

>  <Rbt.Current_Directory>
/home/afrankz/demos/rdock_decoys_rna/rnas/1lc4

>  <Rbt.Executable>
rbdock ($Id: //depot/dev/client3/rdock/2013.1/src/exe/rbdock.cxx#4 $)

>  <Rbt.Library>
libRbt.so (2013.1, Build901 2013/11/27)

>  <Rbt.Parameter_File>
/export/apps/rDock/src/rDock_2013.1_src/data/scripts/dock_solv.prm

>  <Rbt.Receptor>
prm/pocket_docking_8.prm

>  <SCORE>
-58.348

>  <SCORE.INTER>
-35.6177

>  <SCORE.INTER.CONST>
1

>  <SCORE.INTER.POLAR>
-4.11352

>  <SCORE.INTER.ROT>
6

>  <SCORE.INTER.SOLV>
20.447

>  <SCORE.INTER.VDW>
-24.4491

>  <SCORE.INTER.norm>
-1.11305

>  <SCORE.INTRA>
-22.7303

>  <SCORE.INTRA.DIHEDRAL>
-29.9938

>  <SCORE.INTRA.DIHEDRAL.0>
44.2576

>  <SCORE.INTRA.POLAR>
-1.66556

>  <SCORE.INTRA.POLAR.0>
-0.381556

>  <SCORE.INTRA.REPUL>
0

>  <SCORE.INTRA.REPUL.0>
0

>  <SCORE.INTRA.SOLV>
-1.55453

>  <SCORE.INTRA.SOLV.lig_0>
-134.592

>  <SCORE.INTRA.VDW>
-1.2932

>  <SCORE.INTRA.VDW.0>
-1.01417

>  <SCORE.INTRA.norm>
-0.710322

>  <SCORE.RESTR>
0

>  <SCORE.RESTR.CAVITY>
0

>  <SCORE.RESTR.norm>
0

>  <SCORE.SYSTEM>
0

>  <SCORE.SYSTEM.CONST>
0

>  <SCORE.SYSTEM.DIHEDRAL>
0

>  <SCORE.SYSTEM.SOLV>
0

>  <SCORE.SYSTEM.norm>
0

>  <SCORE.heavy>
32

>  <SCORE.norm>
-1.82338

>  <RMSD>
10.364

$$$$
1lc4
 OpenBabel02141814113D
libRbt.so/2013.1/901 2013/11/27
 32 34  0  0  0  0  0  0  0  0999 V2000
   -5.1774    4.6295   27.3399 C   0  0  2  0  0  0  0  0  0  0  0  0
   -4.6390    3.7877   26.3512 O   0  0  0  0  0  0  0  0  0  0  0  0
   -5.1118    3.8870   28.6902 C   0  0  2  0  0  0  0  0  0  0  0  0
   -3.7275    3.5190   29.0030 N   0  3  0  0  0  0  0  0  0  0  0  0
   -6.0325    2.6444   28.6593 C   0  0  0  0  0  0  0  0  0  0  0  0
   -7.4612    3.1341   28.3647 C   0  0  2  0  0  0  0  0  0  0  0  0
   -8.3771    2.0339   28.3699 O   0  0  0  0  0  0  0  0  0  0  0  0
   -7.4779    3.8733   27.0035 C   0  0  2  0  0  0  0  0  0  0  0  0
   -6.5400    4.9869   27.0196 O   0  0  0  0  0  0  0  0  0  0  0  0
   -8.8444    4.4488   26.6399 C   0  0  0  0  0  0  0  0  0  0  0  0
   -8.8725    4.9191   25.2300 N   0  3  0  0  0  0  0  0  0  0  0  0
   -2.7149    6.6807   23.9245 C   0  0  2  0  0  0  0  0  0  0  0  0
   -2.1744    7.4112   22.7635 N   0  3  0  0  0  0  0  0  0  0  0  0
   -2.0656    5.3067   24.0192 C   0  0  0  0  0  0  0  0  0  0  0  0
   -2.6222    4.5354   25.2211 C   0  0  2  0  0  0  0  0  0  0  0  0
   -1.8786    3.2567   25.3427 N   0  3  0  0  0  0  0  0  0  0  0  0
   -4.1677    4.3678   25.1183 C   0  0  2  0  0  0  0  0  0  0  0  0
   -4.8287    5.7616   24.9627 C   0  0  2  0  0  0  0  0  0  0  0  0
   -6.2027    5.6012   24.7052 O   0  0  0  0  0  0  0  0  0  0  0  0
   -4.2264    6.5236   23.7710 C   0  0  1  0  0  0  0  0  0  0  0  0
   -4.8404    7.8091   23.6871 O   0  0  0  0  0  0  0  0  0  0  0  0
   -5.0169    8.3468   22.4218 C   0  0  2  0  0  0  0  0  0  0  0  0
   -5.4480    9.8166   22.5628 C   0  0  2  0  0  0  0  0  0  0  0  0
   -4.4344   10.5216   23.2683 O   0  0  0  0  0  0  0  0  0  0  0  0
   -6.7763    9.8887   23.3362 C   0  0  1  0  0  0  0  0  0  0  0  0
   -7.2349   11.2954   23.5232 N   0  3  0  0  0  0  0  0  0  0  0  0
   -7.8487    9.0606   22.5870 C   0  0  2  0  0  0  0  0  0  0  0  0
   -9.0862    9.0881   23.2946 O   0  0  0  0  0  0  0  0  0  0  0  0
   -7.3649    7.6109   22.3975 C   0  0  2  0  0  0  0  0  0  0  0  0
   -6.0477    7.5891   21.7365 O   0  0  0  0  0  0  0  0  0  0  0  0
   -8.3083    6.8029   21.5345 C   0  0  0  0  0  0  0  0  0  0  0  0
   -8.5017    7.4078   20.2578 O   0  0  0  0  0  0  0  0  0  0  0  0
  1  2  1  6  0  0  0
  1  3  1  0  0  0  0
  1  9  1  0  0  0  0
  3  4  1  6  0  0  0
  3  5  1  0  0  0  0
  5  6  1  0  0  0  0
  6  7  1  6  0  0  0
  6  8  1  0  0  0  0
  8  9  1  0  0  0  0
  8 10  1  1  0  0  0
 10 11  1  0  0  0  0
 12 13  1  6  0  0  0
 12 14  1  0  0  0  0
 12 20  1  0  0  0  0
 14 15  1  0  0  0  0
 15 16  1  6  0  0  0
 15 17  1  0  0  0  0
 17  2  1  1  0  0  0
 17 18  1  0  0  0  0
 18 19  1  6  0  0  0
 18 20  1  0  0  0  0
 20 21  1  1  0  0  0
 22 21  1  1  0  0  0
 22 23  1  0  0  0  0
 22 30  1  0  0  0  0
 23 24  1  1  0  0  0
 23 25  1  0  0  0  0
 25 26  1  6  0  0  0
 25 27  1  0  0  0  0
 27 28  1  1  0  0  0
 27 29  1  0  0  0  0
 29 30  1  0  0  0  0
 29 31  1  6  0  0  0
 31 32  1  0  0  0  0
M  CHG  5   4   1  11   1  13   1  16   1  26   1
M  END
>  <CHROM.1>
-159.34370994,98.16981791,-159.93057907,-59.11137652,-169.39662792,-43.55319971
-15.84513639,-16.38275952,-65.63888014,91.54919930,-169.81125191,-47.97285568
42.16469084,73.90810089,56.84085014,37.93119663,-5.77018763,6.15946528,24.76302923
-1.44717087,0.07111623,-0.75339211

>  <Name>
1lc4

>  <RI>
0

>  <Rbt.Current_Directory>
/home/afrankz/demos/rdock_decoys_rna/rnas/1lc4

>  <Rbt.Executable>
rbdock ($Id: //depot/dev/client3/rdock/2013.1/src/exe/rbdock.cxx#4 $)

>  <Rbt.Library>
libRbt.so (2013.1, Build901 2013/11/27)

>  <Rbt.Parameter_File>
/export/apps/rDock/src/rDock_2013.1_src/data/scripts/dock_solv.prm

>  <Rbt.Receptor>
prm/pocket_docking_8.prm

>  <SCORE>
-51.3773

>  <SCORE.INTER>
-40.8779

>  <SCORE.INTER.CONST>
1

>  <SCORE.INTER.POLAR>
-7.11424

>  <SCORE.INTER.ROT>
6

>  <SCORE.INTER.SOLV>
32.4013

>  <SCORE.INTER.VDW>
-21.9382

>  <SCORE.INTER.norm>
-1.27743

>  <SCORE.INTRA>
-10.6854

>  <SCORE.INTRA.DIHEDRAL>
-20.2422

>  <SCORE.INTRA.DIHEDRAL.0>
44.2576

>  <SCORE.INTRA.POLAR>
-0.936025

>  <SCORE.INTRA.POLAR.0>
-0.381556

>  <SCORE.INTRA.REPUL>
0

>  <SCORE.INTRA.REPUL.0>
0

>  <SCORE.INTRA.SOLV>
1.24276

>  <SCORE.INTRA.SOLV.lig_0>
-134.592

>  <SCORE.INTRA.VDW>
1.99678

>  <SCORE.INTRA.VDW.0>
-1.01417

>  <SCORE.INTRA.norm>
-0.33392

>  <SCORE.RESTR>
0.186004

>  <SCORE.RESTR.CAVITY>
0.186004

>  <SCORE.RESTR.norm>
0.00581263

>  <SCORE.SYSTEM>
0

>  <SCORE.SYSTEM.CONST>
0

>  <SCORE.SYSTEM.DIHEDRAL>
0

>  <SCORE.SYSTEM.SOLV>
0

>  <SCORE.SYSTEM.norm>
0

>  <SCORE.heavy>
32

>  <SCORE.norm>
-1.60554

>  <RMSD>
10.680

$$$$
1lc4
 OpenBabel02141814113D
libRbt.so/2013.1/901 2013/11/27
 32 34  0  0  0  0  0  0  0  0999 V2000
   -8.7064    5.9814   21.0050 C   0  0  2  0  0  0  0  0  0  0  0  0
   -8.6836    6.1412   22.4014 O   0  0  0  0  0  0  0  0  0  0  0  0
   -9.4281    7.2000   20.3943 C   0  0  2  0  0  0  0  0  0  0  0  0
   -8.7456    8.4405   20.7753 N   0  3  0  0  0  0  0  0  0  0  0  0
  -10.9114    7.2147   20.8327 C   0  0  0  0  0  0  0  0  0  0  0  0
  -11.5479    5.8973   20.3563 C   0  0  2  0  0  0  0  0  0  0  0  0
  -12.9399    5.8665   20.6889 O   0  0  0  0  0  0  0  0  0  0  0  0
  -10.7913    4.7045   20.9922 C   0  0  2  0  0  0  0  0  0  0  0  0
   -9.3789    4.7553   20.6422 O   0  0  0  0  0  0  0  0  0  0  0  0
  -11.3121    3.3424   20.5401 C   0  0  0  0  0  0  0  0  0  0  0  0
  -11.2934    3.2238   19.0585 N   0  3  0  0  0  0  0  0  0  0  0  0
   -5.7008    7.0985   25.2556 C   0  0  2  0  0  0  0  0  0  0  0  0
   -4.4682    7.0832   26.0645 N   0  3  0  0  0  0  0  0  0  0  0  0
   -6.4689    5.7995   25.4585 C   0  0  0  0  0  0  0  0  0  0  0  0
   -7.7515    5.8015   24.6194 C   0  0  2  0  0  0  0  0  0  0  0  0
   -8.5225    4.5743   24.9387 N   0  3  0  0  0  0  0  0  0  0  0  0
   -7.4351    5.9806   23.1044 C   0  0  2  0  0  0  0  0  0  0  0  0
   -6.6024    7.2724   22.9003 C   0  0  2  0  0  0  0  0  0  0  0  0
   -6.1774    7.3479   21.5609 O   0  0  0  0  0  0  0  0  0  0  0  0
   -5.3414    7.2559   23.7794 C   0  0  1  0  0  0  0  0  0  0  0  0
   -4.6257    8.4749   23.5831 O   0  0  0  0  0  0  0  0  0  0  0  0
   -3.6193    8.4735   22.6299 C   0  0  2  0  0  0  0  0  0  0  0  0
   -2.2814    8.7891   23.3205 C   0  0  2  0  0  0  0  0  0  0  0  0
   -2.0350    7.7968   24.3087 O   0  0  0  0  0  0  0  0  0  0  0  0
   -2.3591   10.1788   23.9764 C   0  0  1  0  0  0  0  0  0  0  0  0
   -1.0936   10.5318   24.6821 N   0  3  0  0  0  0  0  0  0  0  0  0
   -2.6937   11.2355   22.8955 C   0  0  2  0  0  0  0  0  0  0  0  0
   -2.7973   12.5323   23.4790 O   0  0  0  0  0  0  0  0  0  0  0  0
   -4.0005   10.8610   22.1720 C   0  0  2  0  0  0  0  0  0  0  0  0
   -3.9195    9.4895   21.6381 O   0  0  0  0  0  0  0  0  0  0  0  0
   -4.2878   11.7765   21.0027 C   0  0  0  0  0  0  0  0  0  0  0  0
   -3.3034   11.6469   19.9792 O   0  0  0  0  0  0  0  0  0  0  0  0
  1  2  1  1  0  0  0
  1  3  1  0  0  0  0
  1  9  1  0  0  0  0
  3  4  1  1  0  0  0
  3  5  1  0  0  0  0
  5  6  1  0  0  0  0
  6  7  1  1  0  0  0
  6  8  1  0  0  0  0
  8  9  1  0  0  0  0
  8 10  1  6  0  0  0
 10 11  1  0  0  0  0
 12 13  1  1  0  0  0
 12 14  1  0  0  0  0
 12 20  1  0  0  0  0
 14 15  1  0  0  0  0
 15 16  1  6  0  0  0
 15 17  1  0  0  0  0
 17  2  1  6  0  0  0
 17 18  1  0  0  0  0
 18 19  1  6  0  0  0
 18 20  1  0  0  0  0
 20 21  1  1  0  0  0
 22 21  1  1  0  0  0
 22 23  1  0  0  0  0
 22 30  1  0  0  0  0
 23 24  1  1  0  0  0
 23 25  1  0  0  0  0
 25 26  1  6  0  0  0
 25 27  1  0  0  0  0
 27 28  1  1  0  0  0
 27 29  1  0  0  0  0
 29 30  1  0  0  0  0
 29 31  1  6  0  0  0
 31 32  1  0  0  0  0
M  CHG  5   4   1  11   1  13   1  16   1  26   1
M  END
>  <CHROM.1>
-130.09943348,-163.98908029,69.79734795,60.09068736,55.35587603,-31.07825860
30.12115724,-174.69556820,175.14085320,144.40130798,-118.53150562,171.06490624
63.02773054,173.42716502,64.87037319,131.27811682,-6.51748136,7.60448677
22.45956516,2.96816848,0.59800339,2.30861389

>  <Name>
1lc4

>  <RI>
0

>  <Rbt.Current_Directory>
/home/afrankz/demos/rdock_decoys_rna/rnas/1lc4

>  <Rbt.Executable>
rbdock ($Id: //depot/dev/client3/rdock/2013.1/src/exe/rbdock.cxx#4 $)

>  <Rbt.Library>
libRbt.so (2013.1, Build901 2013/11/27)

>  <Rbt.Parameter_File>
/export/apps/rDock/src/rDock_2013.1_src/data/scripts/dock_solv.prm

>  <Rbt.Receptor>
prm/pocket_docking_8.prm

>  <SCORE>
-50.0675

>  <SCORE.INTER>
-36.0511

>  <SCORE.INTER.CONST>
1

>  <SCORE.INTER.POLAR>
-4.74741

>  <SCORE.INTER.ROT>
6

>  <SCORE.INTER.SOLV>
23.9276

>  <SCORE.INTER.VDW>
-23.7853

>  <SCORE.INTER.norm>
-1.1266

>  <SCORE.INTRA>
-14.0163

>  <SCORE.INTRA.DIHEDRAL>
-13.1641

>  <SCORE.INTRA.DIHEDRAL.0>
44.2576

>  <SCORE.INTRA.POLAR>
-1.54896

>  <SCORE.INTRA.POLAR.0>
-0.381556

>  <SCORE.INTRA.REPUL>
0

>  <SCORE.INTRA.REPUL.0>
0

>  <SCORE.INTRA.SOLV>
1.34739

>  <SCORE.INTRA.SOLV.lig_0>
-134.592

>  <SCORE.INTRA.VDW>
-2.8415

>  <SCORE.INTRA.VDW.0>
-1.01417

>  <SCORE.INTRA.norm>
-0.438011

>  <SCORE.RESTR>
0

>  <SCORE.RESTR.CAVITY>
0

>  <SCORE.RESTR.norm>
0

>  <SCORE.SYSTEM>
0

>  <SCORE.SYSTEM.CONST>
0

>  <SCORE.SYSTEM.DIHEDRAL>
0

>  <SCORE.SYSTEM.SOLV>
0

>  <SCORE.SYSTEM.norm>
0

>  <SCORE.heavy>
32

>  <SCORE.norm>
-1.56461

>  <RMSD>
10.696

$$$$
1lc4
 OpenBabel02141814113D
libRbt.so/2013.1/901 2013/11/27
 32 34  0  0  0  0  0  0  0  0999 V2000
   -3.9894    5.3915   25.3392 C   0  0  2  0  0  0  0  0  0  0  0  0
   -4.9765    5.2454   24.3491 O   0  0  0  0  0  0  0  0  0  0  0  0
   -2.6139    5.1482   24.6852 C   0  0  2  0  0  0  0  0  0  0  0  0
   -2.4009    6.0887   23.5808 N   0  3  0  0  0  0  0  0  0  0  0  0
   -2.5046    3.6815   24.2061 C   0  0  0  0  0  0  0  0  0  0  0  0
   -2.7018    2.7771   25.4353 C   0  0  2  0  0  0  0  0  0  0  0  0
   -2.5641    1.4001   25.0691 O   0  0  0  0  0  0  0  0  0  0  0  0
   -4.0921    3.0570   26.0583 C   0  0  2  0  0  0  0  0  0  0  0  0
   -4.2111    4.4617   26.4225 O   0  0  0  0  0  0  0  0  0  0  0  0
   -4.3675    2.2457   27.3219 C   0  0  0  0  0  0  0  0  0  0  0  0
   -3.5490    2.7327   28.4632 N   0  3  0  0  0  0  0  0  0  0  0  0
   -7.1417    8.0416   22.0140 C   0  0  2  0  0  0  0  0  0  0  0  0
   -8.0393    9.1351   21.5988 N   0  3  0  0  0  0  0  0  0  0  0  0
   -7.9415    6.9560   22.7212 C   0  0  0  0  0  0  0  0  0  0  0  0
   -7.0183    5.8144   23.1614 C   0  0  2  0  0  0  0  0  0  0  0  0
   -7.8538    4.7311   23.7365 N   0  3  0  0  0  0  0  0  0  0  0  0
   -5.8971    6.3295   24.1127 C   0  0  2  0  0  0  0  0  0  0  0  0
   -5.1173    7.4756   23.4184 C   0  0  2  0  0  0  0  0  0  0  0  0
   -4.2167    8.0500   24.3343 O   0  0  0  0  0  0  0  0  0  0  0  0
   -6.0732    8.5884   22.9586 C   0  0  1  0  0  0  0  0  0  0  0  0
   -5.3171    9.6030   22.2985 O   0  0  0  0  0  0  0  0  0  0  0  0
   -5.2705   10.8515   22.8988 C   0  0  2  0  0  0  0  0  0  0  0  0
   -4.7371   11.8726   21.8794 C   0  0  2  0  0  0  0  0  0  0  0  0
   -5.6086   11.8906   20.7559 O   0  0  0  0  0  0  0  0  0  0  0  0
   -3.3195   11.4656   21.4408 C   0  0  1  0  0  0  0  0  0  0  0  0
   -2.7569   12.4100   20.4330 N   0  3  0  0  0  0  0  0  0  0  0  0
   -2.4027   11.3870   22.6859 C   0  0  2  0  0  0  0  0  0  0  0  0
   -1.0861   10.9866   22.3130 O   0  0  0  0  0  0  0  0  0  0  0  0
   -2.9932   10.4110   23.7205 C   0  0  2  0  0  0  0  0  0  0  0  0
   -4.3826   10.7815   24.0446 O   0  0  0  0  0  0  0  0  0  0  0  0
   -2.2173   10.4178   25.0189 C   0  0  0  0  0  0  0  0  0  0  0  0
   -2.2571   11.6966   25.6485 O   0  0  0  0  0  0  0  0  0  0  0  0
  1  2  1  6  0  0  0
  1  3  1  0  0  0  0
  1  9  1  0  0  0  0
  3  4  1  6  0  0  0
  3  5  1  0  0  0  0
  5  6  1  0  0  0  0
  6  7  1  6  0  0  0
  6  8  1  0  0  0  0
  8  9  1  0  0  0  0
  8 10  1  1  0  0  0
 10 11  1  0  0  0  0
 12 13  1  1  0  0  0
 12 14  1  0  0  0  0
 12 20  1  0  0  0  0
 14 15  1  0  0  0  0
 15 16  1  1  0  0  0
 15 17  1  0  0  0  0
 17  2  1  6  0  0  0
 17 18  1  0  0  0  0
 18 19  1  1  0  0  0
 18 20  1  0  0  0  0
 20 21  1  6  0  0  0
 22 21  1  6  0  0  0
 22 23  1  0  0  0  0
 22 30  1  0  0  0  0
 23 24  1  6  0  0  0
 23 25  1  0  0  0  0
 25 26  1  6  0  0  0
 25 27  1  0  0  0  0
 27 28  1  6  0  0  0
 27 29  1  0  0  0  0
 29 30  1  0  0  0  0
 29 31  1  1  0  0  0
 31 32  1  0  0  0  0
M  CHG  5   4   1  11   1  13   1  16   1  26   1
M  END
>  <CHROM.1>
-124.23799630,-170.22403103,53.71004739,62.41354295,71.54051446,-179.24106733
-133.36558453,-174.07013047,-57.62967740,123.25100558,-165.42211317,177.85767859
178.90924878,-53.92030243,62.30711919,-176.98460453,-4.34096814,7.55546968
23.81671254,-1.55719452,-0.39061988,-0.42090325

>  <Name>
1lc4

>  <RI>
0

>  <Rbt.Current_Directory>
/home/afrankz/demos/rdock_decoys_rna/rnas/1lc4

>  <Rbt.Executable>
rbdock ($Id: //depot/dev/client3/rdock/2013.1/src/exe/rbdock.cxx#4 $)

>  <Rbt.Library>
libRbt.so (2013.1, Build901 2013/11/27)

>  <Rbt.Parameter_File>
/export/apps/rDock/src/rDock_2013.1_src/data/scripts/dock_solv.prm

>  <Rbt.Receptor>
prm/pocket_docking_8.prm

>  <SCORE>
-38.7617

>  <SCORE.INTER>
-23.2599

>  <SCORE.INTER.CONST>
1

>  <SCORE.INTER.POLAR>
-3.87639

>  <SCORE.INTER.ROT>
6

>  <SCORE.INTER.SOLV>
26.3436

>  <SCORE.INTER.VDW>
-18.9665

>  <SCORE.INTER.norm>
-0.726872

>  <SCORE.INTRA>
-15.5393

>  <SCORE.INTRA.DIHEDRAL>
-24.2957

>  <SCORE.INTRA.DIHEDRAL.0>
44.2576

>  <SCORE.INTRA.POLAR>
-0.331015

>  <SCORE.INTRA.POLAR.0>
-0.381556

>  <SCORE.INTRA.REPUL>
0

>  <SCORE.INTRA.REPUL.0>
0

>  <SCORE.INTRA.SOLV>
1.17558

>  <SCORE.INTRA.SOLV.lig_0>
-134.592

>  <SCORE.INTRA.VDW>
-2.85378

>  <SCORE.INTRA.VDW.0>
-1.01417

>  <SCORE.INTRA.norm>
-0.485604

>  <SCORE.RESTR>
0.0375015

>  <SCORE.RESTR.CAVITY>
0.0375015

>  <SCORE.RESTR.norm>
0.00117192

>  <SCORE.SYSTEM>
0

>  <SCORE.SYSTEM.CONST>
0

>  <SCORE.SYSTEM.DIHEDRAL>
0

>  <SCORE.SYSTEM.SOLV>
0

>  <SCORE.SYSTEM.norm>
0

>  <SCORE.heavy>
32

>  <SCORE.norm>
-1.2113

>  <RMSD>
11.168

$$$$
1lc4
 OpenBabel02141814113D
libRbt.so/2013.1/901 2013/11/27
 32 34  0  0  0  0  0  0  0  0999 V2000
   -4.7024   -8.8381    7.5728 C   0  0  2  0  0  0  0  0  0  0  0  0
   -4.8244  -10.2282    7.7425 O   0  0  0  0  0  0  0  0  0  0  0  0
   -5.8734   -8.3576    6.6914 C   0  0  2  0  0  0  0  0  0  0  0  0
   -7.1552   -8.7059    7.3123 N   0  3  0  0  0  0  0  0  0  0  0  0
   -5.7524   -8.9593    5.2716 C   0  0  0  0  0  0  0  0  0  0  0  0
   -4.4004   -8.5083    4.6915 C   0  0  2  0  0  0  0  0  0  0  0  0
   -4.2447   -8.9931    3.3535 O   0  0  0  0  0  0  0  0  0  0  0  0
   -3.2574   -9.0108    5.6082 C   0  0  2  0  0  0  0  0  0  0  0  0
   -3.4353   -8.5073    6.9628 O   0  0  0  0  0  0  0  0  0  0  0  0
   -1.8699   -8.5694    5.1491 C   0  0  0  0  0  0  0  0  0  0  0  0
   -0.8029   -9.3141    5.8680 N   0  3  0  0  0  0  0  0  0  0  0  0
   -4.0868  -12.9194   10.9321 C   0  0  2  0  0  0  0  0  0  0  0  0
   -3.4306  -13.6747   12.0150 N   0  3  0  0  0  0  0  0  0  0  0  0
   -3.3856  -13.1968    9.6093 C   0  0  0  0  0  0  0  0  0  0  0  0
   -4.0567  -12.4139    8.4753 C   0  0  2  0  0  0  0  0  0  0  0  0
   -3.4188  -12.8054    7.1938 N   0  3  0  0  0  0  0  0  0  0  0  0
   -4.0356  -10.8817    8.7571 C   0  0  2  0  0  0  0  0  0  0  0  0
   -4.6967  -10.6005   10.1310 C   0  0  2  0  0  0  0  0  0  0  0  0
   -4.5313   -9.2425   10.4602 O   0  0  0  0  0  0  0  0  0  0  0  0
   -4.0248  -11.4248   11.2412 C   0  0  1  0  0  0  0  0  0  0  0  0
   -4.6855  -11.1588   12.4779 O   0  0  0  0  0  0  0  0  0  0  0  0
   -4.3137  -10.0121   13.1622 C   0  0  2  0  0  0  0  0  0  0  0  0
   -4.5826  -10.2203   14.6624 C   0  0  2  0  0  0  0  0  0  0  0  0
   -3.8239  -11.3369   15.1093 O   0  0  0  0  0  0  0  0  0  0  0  0
   -6.0832  -10.4801   14.8824 C   0  0  1  0  0  0  0  0  0  0  0  0
   -6.4022  -10.7113   16.3208 N   0  3  0  0  0  0  0  0  0  0  0  0
   -6.8949   -9.2834   14.3293 C   0  0  2  0  0  0  0  0  0  0  0  0
   -8.2930   -9.5075   14.4966 O   0  0  0  0  0  0  0  0  0  0  0  0
   -6.5571   -9.0522   12.8447 C   0  0  2  0  0  0  0  0  0  0  0  0
   -5.1021   -8.8999   12.6646 O   0  0  0  0  0  0  0  0  0  0  0  0
   -7.2055   -7.7986   12.3007 C   0  0  0  0  0  0  0  0  0  0  0  0
   -8.6052   -7.7706   12.5715 O   0  0  0  0  0  0  0  0  0  0  0  0
  1  2  1  6  0  0  0
  1  3  1  0  0  0  0
  1  9  1  0  0  0  0
  3  4  1  1  0  0  0
  3  5  1  0  0  0  0
  5  6  1  0  0  0  0
  6  7  1  6  0  0  0
  6  8  1  0  0  0  0
  8  9  1  0  0  0  0
  8 10  1  6  0  0  0
 10 11  1  0  0  0  0
 12 13  1  1  0  0  0
 12 14  1  0  0  0  0
 12 20  1  0  0  0  0
 14 15  1  0  0  0  0
 15 16  1  6  0  0  0
 15 17  1  0  0  0  0
 17  2  1  6  0  0  0
 17 18  1  0  0  0  0
 18 19  1  1  0  0  0
 18 20  1  0  0  0  0
 20 21  1  1  0  0  0
 22 21  1  6  0  0  0
 22 23  1  0  0  0  0
 22 30  1  0  0  0  0
 23 24  1  6  0  0  0
 23 25  1  0  0  0  0
 25 26  1  1  0  0  0
 25 27  1  0  0  0  0
 27 28  1  6  0  0  0
 27 29  1  0  0  0  0
 29 30  1  0  0  0  0
 29 31  1  1  0  0  0
 31 32  1  0  0  0  0
M  CHG  5   4   1  11   1  13   1  16   1  26   1
M  END
>  <CHROM.1>
-166.43912128,-164.55375104,70.80288927,-59.08934437,-167.31888537,-91.81736447
138.33194668,51.91802900,93.26012769,156.15829119,-153.50563209,172.60197829
-52.18395329,62.77490159,-51.61805140,69.92762710,-4.84078191,-10.04974969
10.05565833,1.20800559,0.77953010,-1.21695514

>  <Name>
1lc4

>  <RI>
0

>  <Rbt.Current_Directory>
/home/afrankz/demos/rdock_decoys_rna/rnas/1lc4

>  <Rbt.Executable>
rbdock ($Id: //depot/dev/client3/rdock/2013.1/src/exe/rbdock.cxx#4 $)

>  <Rbt.Library>
libRbt.so (2013.1, Build901 2013/11/27)

>  <Rbt.Parameter_File>
/export/apps/rDock/src/rDock_2013.1_src/data/scripts/dock_solv.prm

>  <Rbt.Receptor>
prm/blind_docking_80.prm

>  <SCORE>
-41.2386

>  <SCORE.INTER>
-41.7322

>  <SCORE.INTER.CONST>
1

>  <SCORE.INTER.POLAR>
-7.74895

>  <SCORE.INTER.ROT>
6

>  <SCORE.INTER.SOLV>
35.7613

>  <SCORE.INTER.VDW>
-21.512

>  <SCORE.INTER.norm>
-1.30413

>  <SCORE.INTRA>
-13.7917

>  <SCORE.INTRA.DIHEDRAL>
-25.5612

>  <SCORE.INTRA.DIHEDRAL.0>
44.2576

>  <SCORE.INTRA.POLAR>
0.238544

>  <SCORE.INTRA.POLAR.0>
-0.381556

>  <SCORE.INTRA.REPUL>
0

>  <SCORE.INTRA.REPUL.0>
0

>  <SCORE.INTRA.SOLV>
-3.05081

>  <SCORE.INTRA.SOLV.lig_0>
-134.592

>  <SCORE.INTRA.VDW>
-0.29668

>  <SCORE.INTRA.VDW.0>
-1.01417

>  <SCORE.INTRA.norm>
-0.430989

>  <SCORE.RESTR>
14.2853

>  <SCORE.RESTR.CAVITY>
14.2853

>  <SCORE.RESTR.norm>
0.446414

>  <SCORE.SYSTEM>
0

>  <SCORE.SYSTEM.CONST>
0

>  <SCORE.SYSTEM.DIHEDRAL>
0

>  <SCORE.SYSTEM.SOLV>
0

>  <SCORE.SYSTEM.norm>
0

>  <SCORE.heavy>
32

>  <SCORE.norm>
-1.28871

>  <RMSD>
22.179

$$$$
1lc4
 OpenBabel02141814113D
libRbt.so/2013.1/901 2013/11/27
 32 34  0  0  0  0  0  0  0  0999 V2000
   -3.7507  -11.6958   11.0910 C   0  0  2  0  0  0  0  0  0  0  0  0
   -4.7766  -11.4281   10.1680 O   0  0  0  0  0  0  0  0  0  0  0  0
   -3.9446  -13.1311   11.6212 C   0  0  2  0  0  0  0  0  0  0  0  0
   -3.9250  -14.0910   10.5131 N   0  3  0  0  0  0  0  0  0  0  0  0
   -5.2612  -13.2272   12.4275 C   0  0  0  0  0  0  0  0  0  0  0  0
   -5.1704  -12.2164   13.5841 C   0  0  2  0  0  0  0  0  0  0  0  0
   -6.3426  -12.2880   14.4027 O   0  0  0  0  0  0  0  0  0  0  0  0
   -4.9748  -10.7930   13.0052 C   0  0  2  0  0  0  0  0  0  0  0  0
   -3.7788  -10.7427   12.1763 O   0  0  0  0  0  0  0  0  0  0  0  0
   -4.8185   -9.7163   14.0762 C   0  0  0  0  0  0  0  0  0  0  0  0
   -6.1403   -9.2806   14.5983 N   0  3  0  0  0  0  0  0  0  0  0  0
   -5.5413   -8.9354    6.8271 C   0  0  2  0  0  0  0  0  0  0  0  0
   -5.5732   -7.7848    5.9057 N   0  3  0  0  0  0  0  0  0  0  0  0
   -6.2116   -8.5635    8.1427 C   0  0  0  0  0  0  0  0  0  0  0  0
   -6.1816   -9.7511    9.1111 C   0  0  2  0  0  0  0  0  0  0  0  0
   -6.9469   -9.3829   10.3283 N   0  3  0  0  0  0  0  0  0  0  0  0
   -4.7208  -10.2147    9.3913 C   0  0  2  0  0  0  0  0  0  0  0  0
   -4.0157  -10.5386    8.0491 C   0  0  2  0  0  0  0  0  0  0  0  0
   -2.6532  -10.7974    8.2873 O   0  0  0  0  0  0  0  0  0  0  0  0
   -4.0920   -9.3416    7.0874 C   0  0  1  0  0  0  0  0  0  0  0  0
   -3.4606   -9.6963    5.8577 O   0  0  0  0  0  0  0  0  0  0  0  0
   -2.1208   -9.3709    5.7153 C   0  0  2  0  0  0  0  0  0  0  0  0
   -1.9723   -8.3802    4.5479 C   0  0  2  0  0  0  0  0  0  0  0  0
   -2.7405   -7.2190    4.8368 O   0  0  0  0  0  0  0  0  0  0  0  0
   -2.4769   -9.0373    3.2513 C   0  0  1  0  0  0  0  0  0  0  0  0
   -2.3772   -8.1135    2.0847 N   0  3  0  0  0  0  0  0  0  0  0  0
   -1.6731  -10.3344    2.9900 C   0  0  2  0  0  0  0  0  0  0  0  0
   -2.1365  -10.9799    1.8062 O   0  0  0  0  0  0  0  0  0  0  0  0
   -1.7812  -11.2802    4.2006 C   0  0  2  0  0  0  0  0  0  0  0  0
   -1.3766  -10.5850    5.4357 O   0  0  0  0  0  0  0  0  0  0  0  0
   -0.8868  -12.4918    4.0595 C   0  0  0  0  0  0  0  0  0  0  0  0
   -1.3064  -13.5570    4.9096 O   0  0  0  0  0  0  0  0  0  0  0  0
  1  2  1  6  0  0  0
  1  3  1  0  0  0  0
  1  9  1  0  0  0  0
  3  4  1  6  0  0  0
  3  5  1  0  0  0  0
  5  6  1  0  0  0  0
  6  7  1  6  0  0  0
  6  8  1  0  0  0  0
  8  9  1  0  0  0  0
  8 10  1  1  0  0  0
 10 11  1  0  0  0  0
 12 13  1  6  0  0  0
 12 14  1  0  0  0  0
 12 20  1  0  0  0  0
 14 15  1  0  0  0  0
 15 16  1  1  0  0  0
 15 17  1  0  0  0  0
 17  2  1  1  0  0  0
 17 18  1  0  0  0  0
 18 19  1  1  0  0  0
 18 20  1  0  0  0  0
 20 21  1  6  0  0  0
 22 21  1  6  0  0  0
 22 23  1  0  0  0  0
 22 30  1  0  0  0  0
 23 24  1  1  0  0  0
 23 25  1  0  0  0  0
 25 26  1  6  0  0  0
 25 27  1  0  0  0  0
 27 28  1  6  0  0  0
 27 29  1  0  0  0  0
 29 30  1  0  0  0  0
 29 31  1  6  0  0  0
 31 32  1  0  0  0  0
M  CHG  5   4   1  11   1  13   1  16   1  26   1
M  END
>  <CHROM.1>
-171.74709009,-148.44688574,-38.63710946,165.59058551,-82.02529457,48.92994057
-91.00496879,154.63606022,179.61422838,144.62089809,-117.52500277,179.63107541
-50.82367815,66.77293777,-159.99555607,-50.15437755,-3.85450514,-10.45886883
8.12528434,-2.15940106,0.95726823,-0.91483579

>  <Name>
1lc4

>  <RI>
0

>  <Rbt.Current_Directory>
/home/afrankz/demos/rdock_decoys_rna/rnas/1lc4

>  <Rbt.Executable>
rbdock ($Id: //depot/dev/client3/rdock/2013.1/src/exe/rbdock.cxx#4 $)

>  <Rbt.Library>
libRbt.so (2013.1, Build901 2013/11/27)

>  <Rbt.Parameter_File>
/export/apps/rDock/src/rDock_2013.1_src/data/scripts/dock_solv.prm

>  <Rbt.Receptor>
prm/blind_docking_80.prm

>  <SCORE>
-10.6742

>  <SCORE.INTER>
-6.35808

>  <SCORE.INTER.CONST>
1

>  <SCORE.INTER.POLAR>
-2.94824

>  <SCORE.INTER.ROT>
6

>  <SCORE.INTER.SOLV>
22.9203

>  <SCORE.INTER.VDW>
-9.65133

>  <SCORE.INTER.norm>
-0.19869

>  <SCORE.INTRA>
-16.9247

>  <SCORE.INTRA.DIHEDRAL>
-18.8839

>  <SCORE.INTRA.DIHEDRAL.0>
44.2576

>  <SCORE.INTRA.POLAR>
-1.60914

>  <SCORE.INTRA.POLAR.0>
-0.381556

>  <SCORE.INTRA.REPUL>
0

>  <SCORE.INTRA.REPUL.0>
0

>  <SCORE.INTRA.SOLV>
0.0113903

>  <SCORE.INTRA.SOLV.lig_0>
-134.592

>  <SCORE.INTRA.VDW>
-2.01736

>  <SCORE.INTRA.VDW.0>
-1.01417

>  <SCORE.INTRA.norm>
-0.528896

>  <SCORE.RESTR>
12.6086

>  <SCORE.RESTR.CAVITY>
12.6086

>  <SCORE.RESTR.norm>
0.394018

>  <SCORE.SYSTEM>
0

>  <SCORE.SYSTEM.CONST>
0

>  <SCORE.SYSTEM.DIHEDRAL>
0

>  <SCORE.SYSTEM.SOLV>
0

>  <SCORE.SYSTEM.norm>
0

>  <SCORE.heavy>
32

>  <SCORE.norm>
-0.333568

>  <RMSD>
22.661

$$$$
1lc4
 OpenBabel02141814113D
libRbt.so/2013.1/901 2013/11/27
 32 34  0  0  0  0  0  0  0  0999 V2000
    6.4460   -9.6611   18.1396 C   0  0  2  0  0  0  0  0  0  0  0  0
    6.3591   -8.3477   17.6462 O   0  0  0  0  0  0  0  0  0  0  0  0
    7.6356  -10.3564   17.4467 C   0  0  2  0  0  0  0  0  0  0  0  0
    8.8751   -9.6135   17.6944 N   0  3  0  0  0  0  0  0  0  0  0  0
    7.3581  -10.5017   15.9319 C   0  0  0  0  0  0  0  0  0  0  0  0
    6.0671  -11.3240   15.7746 C   0  0  2  0  0  0  0  0  0  0  0  0
    5.7772  -11.5379   14.3891 O   0  0  0  0  0  0  0  0  0  0  0  0
    4.9032  -10.5897   16.4857 C   0  0  2  0  0  0  0  0  0  0  0  0
    5.2187  -10.3819   17.8919 O   0  0  0  0  0  0  0  0  0  0  0  0
    3.5812  -11.3515   16.4351 C   0  0  0  0  0  0  0  0  0  0  0  0
    3.8057  -12.8053   16.2217 N   0  3  0  0  0  0  0  0  0  0  0  0
    6.5942   -4.5354   19.4823 C   0  0  2  0  0  0  0  0  0  0  0  0
    7.0823   -3.3503   20.2110 N   0  3  0  0  0  0  0  0  0  0  0  0
    6.6220   -5.7527   20.3966 C   0  0  0  0  0  0  0  0  0  0  0  0
    6.1199   -6.9929   19.6489 C   0  0  2  0  0  0  0  0  0  0  0  0
    6.0522   -8.1232   20.6083 N   0  3  0  0  0  0  0  0  0  0  0  0
    6.9846   -7.2792   18.3849 C   0  0  2  0  0  0  0  0  0  0  0  0
    7.0068   -6.0212   17.4791 C   0  0  2  0  0  0  0  0  0  0  0  0
    7.9168   -6.2206   16.4244 O   0  0  0  0  0  0  0  0  0  0  0  0
    7.4818   -4.7884   18.2652 C   0  0  1  0  0  0  0  0  0  0  0  0
    7.4549   -3.6520   17.4023 O   0  0  0  0  0  0  0  0  0  0  0  0
    6.2194   -3.2526   16.9172 C   0  0  2  0  0  0  0  0  0  0  0  0
    6.4326   -2.4240   15.6388 C   0  0  2  0  0  0  0  0  0  0  0  0
    7.1081   -3.2305   14.6820 O   0  0  0  0  0  0  0  0  0  0  0  0
    7.2758   -1.1801   15.9695 C   0  0  1  0  0  0  0  0  0  0  0  0
    7.5341   -0.3462   14.7603 N   0  3  0  0  0  0  0  0  0  0  0  0
    6.5556   -0.3504   17.0603 C   0  0  2  0  0  0  0  0  0  0  0  0
    7.3270    0.7977   17.4061 O   0  0  0  0  0  0  0  0  0  0  0  0
    6.2921   -1.2207   18.3032 C   0  0  2  0  0  0  0  0  0  0  0  0
    5.5632   -2.4461   17.9296 O   0  0  0  0  0  0  0  0  0  0  0  0
    5.4522   -0.5016   19.3354 C   0  0  0  0  0  0  0  0  0  0  0  0
    4.7535   -1.4177   20.1756 O   0  0  0  0  0  0  0  0  0  0  0  0
  1  2  1  6  0  0  0
  1  3  1  0  0  0  0
  1  9  1  0  0  0  0
  3  4  1  6  0  0  0
  3  5  1  0  0  0  0
  5  6  1  0  0  0  0
  6  7  1  6  0  0  0
  6  8  1  0  0  0  0
  8  9  1  0  0  0  0
  8 10  1  1  0  0  0
 10 11  1  0  0  0  0
 12 13  1  1  0  0  0
 12 14  1  0  0  0  0
 12 20  1  0  0  0  0
 14 15  1  0  0  0  0
 15 16  1  1  0  0  0
 15 17  1  0  0  0  0
 17  2  1  6  0  0  0
 17 18  1  0  0  0  0
 18 19  1  6  0  0  0
 18 20  1  0  0  0  0
 20 21  1  6  0  0  0
 22 21  1  1  0  0  0
 22 23  1  0  0  0  0
 22 30  1  0  0  0  0
 23 24  1  6  0  0  0
 23 25  1  0  0  0  0
 25 26  1  6  0  0  0
 25 27  1  0  0  0  0
 27 28  1  1  0  0  0
 27 29  1  0  0  0  0
 29 30  1  0  0  0  0
 29 31  1  1  0  0  0
 31 32  1  0  0  0  0
M  CHG  5   4   1  11   1  13   1  16   1  26   1
M  END
>  <CHROM.1>
-95.42325623,-73.93570186,-75.78046253,58.21241877,22.90455614,56.37023927
140.59311882,164.56854023,-56.80196781,-58.09831375,-158.16319935,175.98414532
-176.27447468,-47.38682699,155.49331134,-158.72092658,6.44359351,-5.88952786
17.50441490,2.06694362,-1.39068850,-2.57068359

>  <Name>
1lc4

>  <RI>
0

>  <Rbt.Current_Directory>
/home/afrankz/demos/rdock_decoys_rna/rnas/1lc4

>  <Rbt.Executable>
rbdock ($Id: //depot/dev/client3/rdock/2013.1/src/exe/rbdock.cxx#4 $)

>  <Rbt.Library>
libRbt.so (2013.1, Build901 2013/11/27)

>  <Rbt.Parameter_File>
/export/apps/rDock/src/rDock_2013.1_src/data/scripts/dock_solv.prm

>  <Rbt.Receptor>
prm/blind_docking_40.prm

>  <SCORE>
-25.9353

>  <SCORE.INTER>
-21.9596

>  <SCORE.INTER.CONST>
1

>  <SCORE.INTER.POLAR>
-3.01522

>  <SCORE.INTER.ROT>
6

>  <SCORE.INTER.SOLV>
21.834

>  <SCORE.INTER.VDW>
-19.467

>  <SCORE.INTER.norm>
-0.686239

>  <SCORE.INTRA>
-12.5866

>  <SCORE.INTRA.DIHEDRAL>
-24.2914

>  <SCORE.INTRA.DIHEDRAL.0>
44.2576

>  <SCORE.INTRA.POLAR>
-0.957619

>  <SCORE.INTRA.POLAR.0>
-0.381556

>  <SCORE.INTRA.REPUL>
0.0065288

>  <SCORE.INTRA.REPUL.0>
0

>  <SCORE.INTRA.SOLV>
6.29718

>  <SCORE.INTRA.SOLV.lig_0>
-134.592

>  <SCORE.INTRA.VDW>
-0.366222

>  <SCORE.INTRA.VDW.0>
-1.01417

>  <SCORE.INTRA.norm>
-0.393331

>  <SCORE.RESTR>
8.61098

>  <SCORE.RESTR.CAVITY>
8.61098

>  <SCORE.RESTR.norm>
0.269093

>  <SCORE.SYSTEM>
0

>  <SCORE.SYSTEM.CONST>
0

>  <SCORE.SYSTEM.DIHEDRAL>
0

>  <SCORE.SYSTEM.SOLV>
0

>  <SCORE.SYSTEM.norm>
0

>  <SCORE.heavy>
32

>  <SCORE.norm>
-0.810477

>  <RMSD>
23.984

$$$$
1lc4
 OpenBabel02141814113D
libRbt.so/2013.1/901 2013/11/27
 32 34  0  0  0  0  0  0  0  0999 V2000
   -4.0512  -11.6703    7.1669 C   0  0  2  0  0  0  0  0  0  0  0  0
   -2.9387  -10.9285    6.7331 O   0  0  0  0  0  0  0  0  0  0  0  0
   -4.6273  -10.9822    8.4213 C   0  0  2  0  0  0  0  0  0  0  0  0
   -4.9991   -9.5968    8.1175 N   0  3  0  0  0  0  0  0  0  0  0  0
   -3.6070  -11.0509    9.5817 C   0  0  0  0  0  0  0  0  0  0  0  0
   -3.3115  -12.5368    9.8509 C   0  0  2  0  0  0  0  0  0  0  0  0
   -2.4061  -12.6744   10.9512 O   0  0  0  0  0  0  0  0  0  0  0  0
   -2.7379  -13.1850    8.5662 C   0  0  2  0  0  0  0  0  0  0  0  0
   -3.6731  -13.0333    7.4606 O   0  0  0  0  0  0  0  0  0  0  0  0
   -2.4592  -14.6791    8.7103 C   0  0  0  0  0  0  0  0  0  0  0  0
   -3.6318  -15.3927    9.2806 N   0  3  0  0  0  0  0  0  0  0  0  0
   -0.4040  -10.9001    3.3368 C   0  0  2  0  0  0  0  0  0  0  0  0
    0.0908  -10.8666    1.9483 N   0  3  0  0  0  0  0  0  0  0  0  0
   -1.2764  -12.1305    3.5456 C   0  0  0  0  0  0  0  0  0  0  0  0
   -1.8004  -12.1747    4.9853 C   0  0  2  0  0  0  0  0  0  0  0  0
   -2.5435  -13.4454    5.1749 N   0  3  0  0  0  0  0  0  0  0  0  0
   -2.6235  -10.8967    5.3265 C   0  0  2  0  0  0  0  0  0  0  0  0
   -1.7578   -9.6386    5.0593 C   0  0  2  0  0  0  0  0  0  0  0  0
   -2.5503   -8.4855    5.2085 O   0  0  0  0  0  0  0  0  0  0  0  0
   -1.2195   -9.6399    3.6192 C   0  0  1  0  0  0  0  0  0  0  0  0
   -0.4046   -8.4837    3.4300 O   0  0  0  0  0  0  0  0  0  0  0  0
   -0.0037   -8.1950    2.1349 C   0  0  2  0  0  0  0  0  0  0  0  0
    0.4938   -6.7403    2.0821 C   0  0  2  0  0  0  0  0  0  0  0  0
    1.5830   -6.5996    2.9854 O   0  0  0  0  0  0  0  0  0  0  0  0
   -0.6503   -5.7930    2.4838 C   0  0  1  0  0  0  0  0  0  0  0  0
   -0.2198   -4.3652    2.4717 N   0  3  0  0  0  0  0  0  0  0  0  0
   -1.8504   -6.0088    1.5297 C   0  0  2  0  0  0  0  0  0  0  0  0
   -2.9373   -5.1608    1.8937 O   0  0  0  0  0  0  0  0  0  0  0  0
   -2.2858   -7.4858    1.5483 C   0  0  2  0  0  0  0  0  0  0  0  0
   -1.1409   -8.3647    1.2494 O   0  0  0  0  0  0  0  0  0  0  0  0
   -3.3521   -7.7792    0.5164 C   0  0  0  0  0  0  0  0  0  0  0  0
   -2.9151   -7.4488   -0.8000 O   0  0  0  0  0  0  0  0  0  0  0  0
  1  2  1  1  0  0  0
  1  3  1  0  0  0  0
  1  9  1  0  0  0  0
  3  4  1  6  0  0  0
  3  5  1  0  0  0  0
  5  6  1  0  0  0  0
  6  7  1  1  0  0  0
  6  8  1  0  0  0  0
  8  9  1  0  0  0  0
  8 10  1  1  0  0  0
 10 11  1  0  0  0  0
 12 13  1  6  0  0  0
 12 14  1  0  0  0  0
 12 20  1  0  0  0  0
 14 15  1  0  0  0  0
 15 16  1  6  0  0  0
 15 17  1  0  0  0  0
 17  2  1  1  0  0  0
 17 18  1  0  0  0  0
 18 19  1  6  0  0  0
 18 20  1  0  0  0  0
 20 21  1  1  0  0  0
 22 21  1  1  0  0  0
 22 23  1  0  0  0  0
 22 30  1  0  0  0  0
 23 24  1  1  0  0  0
 23 25  1  0  0  0  0
 25 26  1  6  0  0  0
 25 27  1  0  0  0  0
 27 28  1  1  0  0  0
 27 29  1  0  0  0  0
 29 30  1  0  0  0  0
 29 31  1  6  0  0  0
 31 32  1  0  0  0  0
M  CHG  5   4   1  11   1  13   1  16   1  26   1
M  END
>  <CHROM.1>
-149.27409150,-83.21030995,-169.63128851,179.79889675,49.61500963,-65.87211631
86.94525293,-66.73594897,-169.91863947,68.20548669,163.68758397,-53.25360095
-179.34338413,77.26972718,57.77323949,-65.56631017,-2.07259083,-9.86153145
4.82441862,2.12528864,-1.12270966,2.79584054

>  <Name>
1lc4

>  <RI>
0

>  <Rbt.Current_Directory>
/home/afrankz/demos/rdock_decoys_rna/rnas/1lc4

>  <Rbt.Executable>
rbdock ($Id: //depot/dev/client3/rdock/2013.1/src/exe/rbdock.cxx#4 $)

>  <Rbt.Library>
libRbt.so (2013.1, Build901 2013/11/27)

>  <Rbt.Parameter_File>
/export/apps/rDock/src/rDock_2013.1_src/data/scripts/dock_solv.prm

>  <Rbt.Receptor>
prm/blind_docking_80.prm

>  <SCORE>
-33.7311

>  <SCORE.INTER>
-23.5105

>  <SCORE.INTER.CONST>
1

>  <SCORE.INTER.POLAR>
-4.44549

>  <SCORE.INTER.ROT>
6

>  <SCORE.INTER.SOLV>
27.4933

>  <SCORE.INTER.VDW>
-17.6198

>  <SCORE.INTER.norm>
-0.734704

>  <SCORE.INTRA>
-19.7443

>  <SCORE.INTRA.DIHEDRAL>
-31.9177

>  <SCORE.INTRA.DIHEDRAL.0>
44.2576

>  <SCORE.INTRA.POLAR>
-1.48657

>  <SCORE.INTRA.POLAR.0>
-0.381556

>  <SCORE.INTRA.REPUL>
0

>  <SCORE.INTRA.REPUL.0>
0

>  <SCORE.INTRA.SOLV>
3.36978

>  <SCORE.INTRA.SOLV.lig_0>
-134.592

>  <SCORE.INTRA.VDW>
-0.416053

>  <SCORE.INTRA.VDW.0>
-1.01417

>  <SCORE.INTRA.norm>
-0.61701

>  <SCORE.RESTR>
9.52375

>  <SCORE.RESTR.CAVITY>
9.52375

>  <SCORE.RESTR.norm>
0.297617

>  <SCORE.SYSTEM>
0

>  <SCORE.SYSTEM.CONST>
0

>  <SCORE.SYSTEM.DIHEDRAL>
0

>  <SCORE.SYSTEM.SOLV>
0

>  <SCORE.SYSTEM.norm>
0

>  <SCORE.heavy>
32

>  <SCORE.norm>
-1.0541

>  <RMSD>
24.724

$$$$
1lc4
 OpenBabel02141814113D
libRbt.so/2013.1/901 2013/11/27
 32 34  0  0  0  0  0  0  0  0999 V2000
   -1.0588   -6.1995    2.9355 C   0  0  2  0  0  0  0  0  0  0  0  0
   -1.1295   -7.4432    2.2842 O   0  0  0  0  0  0  0  0  0  0  0  0
   -1.7613   -5.1521    2.0476 C   0  0  2  0  0  0  0  0  0  0  0  0
   -3.1525   -5.5435    1.8009 N   0  3  0  0  0  0  0  0  0  0  0  0
   -0.9833   -4.9696    0.7232 C   0  0  0  0  0  0  0  0  0  0  0  0
    0.4447   -4.5233    1.0829 C   0  0  2  0  0  0  0  0  0  0  0  0
    1.2084   -4.2887   -0.1050 O   0  0  0  0  0  0  0  0  0  0  0  0
    1.1085   -5.6025    1.9742 C   0  0  2  0  0  0  0  0  0  0  0  0
    0.3160   -5.8259    3.1751 O   0  0  0  0  0  0  0  0  0  0  0  0
    2.5161   -5.2311    2.4337 C   0  0  0  0  0  0  0  0  0  0  0  0
    3.4943   -5.3490    1.3206 N   0  3  0  0  0  0  0  0  0  0  0  0
   -1.4931  -11.3040    3.9934 C   0  0  2  0  0  0  0  0  0  0  0  0
   -1.1984  -12.5710    4.6876 N   0  3  0  0  0  0  0  0  0  0  0  0
   -0.5988  -11.1649    2.7689 C   0  0  0  0  0  0  0  0  0  0  0  0
   -0.8932   -9.8490    2.0402 C   0  0  2  0  0  0  0  0  0  0  0  0
   -0.0870   -9.8124    0.7947 N   0  3  0  0  0  0  0  0  0  0  0  0
   -0.6764   -8.6234    2.9773 C   0  0  2  0  0  0  0  0  0  0  0  0
   -1.5415   -8.7899    4.2531 C   0  0  2  0  0  0  0  0  0  0  0  0
   -1.2233   -7.7709    5.1699 O   0  0  0  0  0  0  0  0  0  0  0  0
   -1.2484  -10.1324    4.9424 C   0  0  1  0  0  0  0  0  0  0  0  0
   -2.0884  -10.2555    6.0896 O   0  0  0  0  0  0  0  0  0  0  0  0
   -3.2566  -10.9874    5.9452 C   0  0  2  0  0  0  0  0  0  0  0  0
   -4.4581  -10.0546    6.1747 C   0  0  2  0  0  0  0  0  0  0  0  0
   -4.4059   -9.0030    5.2190 O   0  0  0  0  0  0  0  0  0  0  0  0
   -4.3926   -9.4764    7.5992 C   0  0  1  0  0  0  0  0  0  0  0  0
   -5.5242   -8.5445    7.8734 N   0  3  0  0  0  0  0  0  0  0  0  0
   -4.3833  -10.6386    8.6220 C   0  0  2  0  0  0  0  0  0  0  0  0
   -4.2974  -10.1333    9.9524 O   0  0  0  0  0  0  0  0  0  0  0  0
   -3.2126  -11.5955    8.3292 C   0  0  2  0  0  0  0  0  0  0  0  0
   -3.2593  -12.0541    6.9291 O   0  0  0  0  0  0  0  0  0  0  0  0
   -3.2527  -12.8298    9.2025 C   0  0  0  0  0  0  0  0  0  0  0  0
   -2.8270  -12.5463   10.5336 O   0  0  0  0  0  0  0  0  0  0  0  0
  1  2  1  6  0  0  0
  1  3  1  0  0  0  0
  1  9  1  0  0  0  0
  3  4  1  6  0  0  0
  3  5  1  0  0  0  0
  5  6  1  0  0  0  0
  6  7  1  6  0  0  0
  6  8  1  0  0  0  0
  8  9  1  0  0  0  0
  8 10  1  1  0  0  0
 10 11  1  0  0  0  0
 12 13  1  1  0  0  0
 12 14  1  0  0  0  0
 12 20  1  0  0  0  0
 14 15  1  0  0  0  0
 15 16  1  6  0  0  0
 15 17  1  0  0  0  0
 17  2  1  6  0  0  0
 17 18  1  0  0  0  0
 18 19  1  1  0  0  0
 18 20  1  0  0  0  0
 20 21  1  1  0  0  0
 22 21  1  1  0  0  0
 22 23  1  0  0  0  0
 22 30  1  0  0  0  0
 23 24  1  6  0  0  0
 23 25  1  0  0  0  0
 25 26  1  1  0  0  0
 25 27  1  0  0  0  0
 27 28  1  1  0  0  0
 27 29  1  0  0  0  0
 29 30  1  0  0  0  0
 29 31  1  1  0  0  0
 31 32  1  0  0  0  0
M  CHG  5   4   1  11   1  13   1  16   1  26   1
M  END
>  <CHROM.1>
-173.06722421,178.93021170,-51.67523684,-46.54840612,-73.83305157,152.84164969
46.14403312,53.23993319,-178.42631151,-24.69004989,-116.82026064,61.32192888
169.49534278,108.04175862,-75.66126332,60.36091602,-1.67051751,-8.69045053
4.50711574,0.90524361,0.79027398,-0.38027619

>  <Name>
1lc4

>  <RI>
0

>  <Rbt.Current_Directory>
/home/afrankz/demos/rdock_decoys_rna/rnas/1lc4

>  <Rbt.Executable>
rbdock ($Id: //depot/dev/client3/rdock/2013.1/src/exe/rbdock.cxx#4 $)

>  <Rbt.Library>
libRbt.so (2013.1, Build901 2013/11/27)

>  <Rbt.Parameter_File>
/export/apps/rDock/src/rDock_2013.1_src/data/scripts/dock_solv.prm

>  <Rbt.Receptor>
prm/blind_docking_80.prm

>  <SCORE>
-40.7602

>  <SCORE.INTER>
-32.0138

>  <SCORE.INTER.CONST>
1

>  <SCORE.INTER.POLAR>
-5.99852

>  <SCORE.INTER.ROT>
6

>  <SCORE.INTER.SOLV>
33.6918

>  <SCORE.INTER.VDW>
-20.1781

>  <SCORE.INTER.norm>
-1.00043

>  <SCORE.INTRA>
-14.8583

>  <SCORE.INTRA.DIHEDRAL>
-20.8005

>  <SCORE.INTRA.DIHEDRAL.0>
44.2576

>  <SCORE.INTRA.POLAR>
-1.2514

>  <SCORE.INTRA.POLAR.0>
-0.381556

>  <SCORE.INTRA.REPUL>
0

>  <SCORE.INTRA.REPUL.0>
0

>  <SCORE.INTRA.SOLV>
-2.11612

>  <SCORE.INTRA.SOLV.lig_0>
-134.592

>  <SCORE.INTRA.VDW>
0.854792

>  <SCORE.INTRA.VDW.0>
-1.01417

>  <SCORE.INTRA.norm>
-0.464322

>  <SCORE.RESTR>
6.11194

>  <SCORE.RESTR.CAVITY>
6.11194

>  <SCORE.RESTR.norm>
0.190998

>  <SCORE.SYSTEM>
0

>  <SCORE.SYSTEM.CONST>
0

>  <SCORE.SYSTEM.DIHEDRAL>
0

>  <SCORE.SYSTEM.SOLV>
0

>  <SCORE.SYSTEM.norm>
0

>  <SCORE.heavy>
32

>  <SCORE.norm>
-1.27376

>  <RMSD>
24.795

$$$$
1lc4
 OpenBabel02141814113D
libRbt.so/2013.1/901 2013/11/27
 32 34  0  0  0  0  0  0  0  0999 V2000
   -0.9754   -6.2572    2.9621 C   0  0  2  0  0  0  0  0  0  0  0  0
   -1.0052   -7.4910    2.2891 O   0  0  0  0  0  0  0  0  0  0  0  0
   -1.7495   -5.2284    2.1129 C   0  0  2  0  0  0  0  0  0  0  0  0
   -3.1270   -5.6807    1.8948 N   0  3  0  0  0  0  0  0  0  0  0  0
   -1.0166   -4.9857    0.7726 C   0  0  0  0  0  0  0  0  0  0  0  0
    0.3981   -4.4790    1.1038 C   0  0  2  0  0  0  0  0  0  0  0  0
    1.1180   -4.1872   -0.0987 O   0  0  0  0  0  0  0  0  0  0  0  0
    1.1351   -5.5413    1.9568 C   0  0  2  0  0  0  0  0  0  0  0  0
    0.3864   -5.8235    3.1733 O   0  0  0  0  0  0  0  0  0  0  0  0
    2.5357   -5.1122    2.3868 C   0  0  0  0  0  0  0  0  0  0  0  0
    3.5334   -5.3834    1.3188 N   0  3  0  0  0  0  0  0  0  0  0  0
   -1.4646  -11.3446    3.9917 C   0  0  2  0  0  0  0  0  0  0  0  0
   -1.2031  -12.6171    4.6889 N   0  3  0  0  0  0  0  0  0  0  0  0
   -0.5525  -11.2223    2.7786 C   0  0  0  0  0  0  0  0  0  0  0  0
   -0.8123   -9.9009    2.0469 C   0  0  2  0  0  0  0  0  0  0  0  0
    0.0102   -9.8795    0.8116 N   0  3  0  0  0  0  0  0  0  0  0  0
   -0.5837   -8.6799    2.9873 C   0  0  2  0  0  0  0  0  0  0  0  0
   -1.4679   -8.8300    4.2520 C   0  0  2  0  0  0  0  0  0  0  0  0
   -1.1416   -7.8176    5.1732 O   0  0  0  0  0  0  0  0  0  0  0  0
   -1.2094  -10.1782    4.9442 C   0  0  1  0  0  0  0  0  0  0  0  0
   -2.0659  -10.2853    6.0807 O   0  0  0  0  0  0  0  0  0  0  0  0
   -3.2546  -10.9790    5.9163 C   0  0  2  0  0  0  0  0  0  0  0  0
   -4.4288  -10.0213    6.1818 C   0  0  2  0  0  0  0  0  0  0  0  0
   -4.3500   -8.9399    5.2618 O   0  0  0  0  0  0  0  0  0  0  0  0
   -4.3429   -9.4935    7.6246 C   0  0  1  0  0  0  0  0  0  0  0  0
   -5.4472   -8.5402    7.9344 N   0  3  0  0  0  0  0  0  0  0  0  0
   -4.3632  -10.6894    8.6077 C   0  0  2  0  0  0  0  0  0  0  0  0
   -4.2593  -10.2318    9.9540 O   0  0  0  0  0  0  0  0  0  0  0  0
   -3.2207  -11.6681    8.2783 C   0  0  2  0  0  0  0  0  0  0  0  0
   -3.2843  -12.0778    6.8639 O   0  0  0  0  0  0  0  0  0  0  0  0
   -3.2928  -12.9297    9.1097 C   0  0  0  0  0  0  0  0  0  0  0  0
   -2.1818  -13.7881    8.8603 O   0  0  0  0  0  0  0  0  0  0  0  0
  1  2  1  6  0  0  0
  1  3  1  0  0  0  0
  1  9  1  0  0  0  0
  3  4  1  6  0  0  0
  3  5  1  0  0  0  0
  5  6  1  0  0  0  0
  6  7  1  6  0  0  0
  6  8  1  0  0  0  0
  8  9  1  0  0  0  0
  8 10  1  1  0  0  0
 10 11  1  0  0  0  0
 12 13  1  1  0  0  0
 12 14  1  0  0  0  0
 12 20  1  0  0  0  0
 14 15  1  0  0  0  0
 15 16  1  6  0  0  0
 15 17  1  0  0  0  0
 17  2  1  6  0  0  0
 17 18  1  0  0  0  0
 18 19  1  1  0  0  0
 18 20  1  0  0  0  0
 20 21  1  1  0  0  0
 22 21  1  1  0  0  0
 22 23  1  0  0  0  0
 22 30  1  0  0  0  0
 23 24  1  6  0  0  0
 23 25  1  0  0  0  0
 25 26  1  1  0  0  0
 25 27  1  0  0  0  0
 27 28  1  1  0  0  0
 27 29  1  0  0  0  0
 29 30  1  0  0  0  0
 29 31  1  1  0  0  0
 31 32  1  0  0  0  0
M  CHG  5   4   1  11   1  13   1  16   1  26   1
M  END
>  <CHROM.1>
-167.90265046,176.10025488,-178.44179192,171.63796631,-83.58401950,-87.77217799
-75.65340602,-72.92231408,179.75137332,-25.54428223,-118.46859763,-66.78834594
55.56861883,176.10192157,-176.12068550,-59.10833764,-1.60898974,-8.75853707
4.45343192,0.93344763,0.75983238,-0.36909448

>  <Name>
1lc4

>  <RI>
0

>  <Rbt.Current_Directory>
/home/afrankz/demos/rdock_decoys_rna/rnas/1lc4

>  <Rbt.Executable>
rbdock ($Id: //depot/dev/client3/rdock/2013.1/src/exe/rbdock.cxx#4 $)

>  <Rbt.Library>
libRbt.so (2013.1, Build901 2013/11/27)

>  <Rbt.Parameter_File>
/export/apps/rDock/src/rDock_2013.1_src/data/scripts/dock_solv.prm

>  <Rbt.Receptor>
prm/blind_docking_80.prm

>  <SCORE>
-36.475

>  <SCORE.INTER>
-28.2244

>  <SCORE.INTER.CONST>
1

>  <SCORE.INTER.POLAR>
-5.32256

>  <SCORE.INTER.ROT>
6

>  <SCORE.INTER.SOLV>
34.0668

>  <SCORE.INTER.VDW>
-20.03

>  <SCORE.INTER.norm>
-0.882012

>  <SCORE.INTRA>
-14.425

>  <SCORE.INTRA.DIHEDRAL>
-26.703

>  <SCORE.INTRA.DIHEDRAL.0>
44.2576

>  <SCORE.INTRA.POLAR>
-0.484263

>  <SCORE.INTRA.POLAR.0>
-0.381556

>  <SCORE.INTRA.REPUL>
0

>  <SCORE.INTRA.REPUL.0>
0

>  <SCORE.INTRA.SOLV>
-2.71193

>  <SCORE.INTRA.SOLV.lig_0>
-134.592

>  <SCORE.INTRA.VDW>
1.92894

>  <SCORE.INTRA.VDW.0>
-1.01417

>  <SCORE.INTRA.norm>
-0.450782

>  <SCORE.RESTR>
6.17446

>  <SCORE.RESTR.CAVITY>
6.17446

>  <SCORE.RESTR.norm>
0.192952

>  <SCORE.SYSTEM>
0

>  <SCORE.SYSTEM.CONST>
0

>  <SCORE.SYSTEM.DIHEDRAL>
0

>  <SCORE.SYSTEM.SOLV>
0

>  <SCORE.SYSTEM.norm>
0

>  <SCORE.heavy>
32

>  <SCORE.norm>
-1.13984

>  <RMSD>
24.866

$$$$
1lc4
 OpenBabel02141814113D
libRbt.so/2013.1/901 2013/11/27
 32 34  0  0  0  0  0  0  0  0999 V2000
   -1.3415   -6.3459    2.9742 C   0  0  2  0  0  0  0  0  0  0  0  0
   -1.4840   -7.6215    2.4009 O   0  0  0  0  0  0  0  0  0  0  0  0
   -2.1264   -5.3399    2.1077 C   0  0  2  0  0  0  0  0  0  0  0  0
   -3.5373   -5.7300    2.0254 N   0  3  0  0  0  0  0  0  0  0  0  0
   -1.4872   -5.2353    0.7031 C   0  0  0  0  0  0  0  0  0  0  0  0
   -0.0279   -4.7849    0.8909 C   0  0  2  0  0  0  0  0  0  0  0  0
    0.6113   -4.6208   -0.3794 O   0  0  0  0  0  0  0  0  0  0  0  0
    0.7187   -5.8220    1.7664 C   0  0  2  0  0  0  0  0  0  0  0  0
    0.0523   -5.9739    3.0520 O   0  0  0  0  0  0  0  0  0  0  0  0
    2.1676   -5.4409    2.0595 C   0  0  0  0  0  0  0  0  0  0  0  0
    3.0187   -6.6483    2.2254 N   0  3  0  0  0  0  0  0  0  0  0  0
   -1.7475  -11.4420    4.2158 C   0  0  2  0  0  0  0  0  0  0  0  0
   -1.4193  -12.6825    4.9420 N   0  3  0  0  0  0  0  0  0  0  0  0
   -0.8639  -11.3154    2.9823 C   0  0  0  0  0  0  0  0  0  0  0  0
   -1.1931  -10.0270    2.2202 C   0  0  2  0  0  0  0  0  0  0  0  0
   -0.3952  -10.0054    0.9690 N   0  3  0  0  0  0  0  0  0  0  0  0
   -0.9995   -8.7717    3.1226 C   0  0  2  0  0  0  0  0  0  0  0  0
   -1.8531   -8.9236    4.4080 C   0  0  2  0  0  0  0  0  0  0  0  0
   -1.5533   -7.8731    5.2949 O   0  0  0  0  0  0  0  0  0  0  0  0
   -1.5247  -10.2398    5.1313 C   0  0  1  0  0  0  0  0  0  0  0  0
   -2.3549  -10.3512    6.2868 O   0  0  0  0  0  0  0  0  0  0  0  0
   -3.4660  -11.1745    6.1930 C   0  0  2  0  0  0  0  0  0  0  0  0
   -4.6298  -10.5269    6.9626 C   0  0  2  0  0  0  0  0  0  0  0  0
   -4.9013   -9.2543    6.3892 O   0  0  0  0  0  0  0  0  0  0  0  0
   -4.2389  -10.3663    8.4421 C   0  0  1  0  0  0  0  0  0  0  0  0
   -5.3240   -9.7220    9.2369 N   0  3  0  0  0  0  0  0  0  0  0  0
   -3.8831  -11.7539    9.0296 C   0  0  2  0  0  0  0  0  0  0  0  0
   -3.4917  -11.6332   10.3953 O   0  0  0  0  0  0  0  0  0  0  0  0
   -2.7636  -12.4111    8.2012 C   0  0  2  0  0  0  0  0  0  0  0  0
   -3.1385  -12.4623    6.7766 O   0  0  0  0  0  0  0  0  0  0  0  0
   -2.4890  -13.8325    8.6395 C   0  0  0  0  0  0  0  0  0  0  0  0
   -1.3992  -14.4038    7.9189 O   0  0  0  0  0  0  0  0  0  0  0  0
  1  2  1  6  0  0  0
  1  3  1  0  0  0  0
  1  9  1  0  0  0  0
  3  4  1  6  0  0  0
  3  5  1  0  0  0  0
  5  6  1  0  0  0  0
  6  7  1  6  0  0  0
  6  8  1  0  0  0  0
  8  9  1  0  0  0  0
  8 10  1  1  0  0  0
 10 11  1  0  0  0  0
 12 13  1  1  0  0  0
 12 14  1  0  0  0  0
 12 20  1  0  0  0  0
 14 15  1  0  0  0  0
 15 16  1  6  0  0  0
 15 17  1  0  0  0  0
 17  2  1  6  0  0  0
 17 18  1  0  0  0  0
 18 19  1  1  0  0  0
 18 20  1  0  0  0  0
 20 21  1  1  0  0  0
 22 21  1  1  0  0  0
 22 23  1  0  0  0  0
 22 30  1  0  0  0  0
 23 24  1  6  0  0  0
 23 25  1  0  0  0  0
 25 26  1  1  0  0  0
 25 27  1  0  0  0  0
 27 28  1  1  0  0  0
 27 29  1  0  0  0  0
 29 30  1  0  0  0  0
 29 31  1  1  0  0  0
 31 32  1  0  0  0  0
M  CHG  5   4   1  11   1  13   1  16   1  26   1
M  END
>  <CHROM.1>
-171.43381101,-176.06388764,175.61546288,-178.59367638,-149.75581091,140.92011853
-83.34509760,173.76014203,-163.80169575,-21.11389319,-142.16973659,-59.72217915
-57.17156978,-67.37673356,-176.58588695,-176.02124364,-1.77259828,-9.15728471
4.63172305,1.08646400,0.72932507,-0.49842333

>  <Name>
1lc4

>  <RI>
0

>  <Rbt.Current_Directory>
/home/afrankz/demos/rdock_decoys_rna/rnas/1lc4

>  <Rbt.Executable>
rbdock ($Id: //depot/dev/client3/rdock/2013.1/src/exe/rbdock.cxx#4 $)

>  <Rbt.Library>
libRbt.so (2013.1, Build901 2013/11/27)

>  <Rbt.Parameter_File>
/export/apps/rDock/src/rDock_2013.1_src/data/scripts/dock_solv.prm

>  <Rbt.Receptor>
prm/blind_docking_80.prm

>  <SCORE>
-35.9312

>  <SCORE.INTER>
-31.6838

>  <SCORE.INTER.CONST>
1

>  <SCORE.INTER.POLAR>
-6.27253

>  <SCORE.INTER.ROT>
6

>  <SCORE.INTER.SOLV>
35.4631

>  <SCORE.INTER.VDW>
-19.6351

>  <SCORE.INTER.norm>
-0.99012

>  <SCORE.INTRA>
-12.5187

>  <SCORE.INTRA.DIHEDRAL>
-25.2115

>  <SCORE.INTRA.DIHEDRAL.0>
44.2576

>  <SCORE.INTRA.POLAR>
-0.314776

>  <SCORE.INTRA.POLAR.0>
-0.381556

>  <SCORE.INTRA.REPUL>
0

>  <SCORE.INTRA.REPUL.0>
0

>  <SCORE.INTRA.SOLV>
-2.31904

>  <SCORE.INTRA.SOLV.lig_0>
-134.592

>  <SCORE.INTRA.VDW>
2.31678

>  <SCORE.INTRA.VDW.0>
-1.01417

>  <SCORE.INTRA.norm>
-0.391211

>  <SCORE.RESTR>
8.27135

>  <SCORE.RESTR.CAVITY>
8.27135

>  <SCORE.RESTR.norm>
0.25848

>  <SCORE.SYSTEM>
0

>  <SCORE.SYSTEM.CONST>
0

>  <SCORE.SYSTEM.DIHEDRAL>
0

>  <SCORE.SYSTEM.SOLV>
0

>  <SCORE.SYSTEM.norm>
0

>  <SCORE.heavy>
32

>  <SCORE.norm>
-1.12285

>  <RMSD>
25.000

$$$$
1lc4
 OpenBabel02141814113D
libRbt.so/2013.1/901 2013/11/27
 32 34  0  0  0  0  0  0  0  0999 V2000
   -0.8937   -9.9178    4.0547 C   0  0  2  0  0  0  0  0  0  0  0  0
   -1.5545   -9.3160    2.9698 O   0  0  0  0  0  0  0  0  0  0  0  0
   -0.5755  -11.3779    3.6728 C   0  0  2  0  0  0  0  0  0  0  0  0
    0.2480  -11.4199    2.4605 N   0  3  0  0  0  0  0  0  0  0  0  0
   -1.8867  -12.1784    3.4921 C   0  0  0  0  0  0  0  0  0  0  0  0
   -2.6586  -12.1086    4.8215 C   0  0  2  0  0  0  0  0  0  0  0  0
   -3.8659  -12.8732    4.7384 O   0  0  0  0  0  0  0  0  0  0  0  0
   -2.9536  -10.6271    5.1643 C   0  0  2  0  0  0  0  0  0  0  0  0
   -1.7135   -9.8682    5.2432 O   0  0  0  0  0  0  0  0  0  0  0  0
   -3.6729  -10.4424    6.4982 C   0  0  0  0  0  0  0  0  0  0  0  0
   -2.7046  -10.3244    7.6199 N   0  3  0  0  0  0  0  0  0  0  0  0
   -1.4818   -5.3909    1.3734 C   0  0  2  0  0  0  0  0  0  0  0  0
   -1.6164   -3.9311    1.2163 N   0  3  0  0  0  0  0  0  0  0  0  0
   -2.8470   -6.0109    1.6380 C   0  0  0  0  0  0  0  0  0  0  0  0
   -2.7198   -7.5290    1.8069 C   0  0  2  0  0  0  0  0  0  0  0  0
   -4.0823   -8.1013    1.9434 N   0  3  0  0  0  0  0  0  0  0  0  0
   -1.7562   -7.8884    2.9772 C   0  0  2  0  0  0  0  0  0  0  0  0
   -0.3820   -7.2105    2.7409 C   0  0  2  0  0  0  0  0  0  0  0  0
    0.4324   -7.3977    3.8731 O   0  0  0  0  0  0  0  0  0  0  0  0
   -0.5458   -5.6950    2.5415 C   0  0  1  0  0  0  0  0  0  0  0  0
    0.7372   -5.1203    2.2958 O   0  0  0  0  0  0  0  0  0  0  0  0
    1.4236   -5.5569    1.1735 C   0  0  2  0  0  0  0  0  0  0  0  0
    2.9242   -5.6253    1.5051 C   0  0  2  0  0  0  0  0  0  0  0  0
    3.1096   -6.5291    2.5871 O   0  0  0  0  0  0  0  0  0  0  0  0
    3.4266   -4.2245    1.8961 C   0  0  1  0  0  0  0  0  0  0  0  0
    4.8753   -4.2324    2.2502 N   0  3  0  0  0  0  0  0  0  0  0  0
    3.1554   -3.2414    0.7311 C   0  0  2  0  0  0  0  0  0  0  0  0
    3.5883   -1.9271    1.0749 O   0  0  0  0  0  0  0  0  0  0  0  0
    1.6578   -3.2420    0.3723 C   0  0  2  0  0  0  0  0  0  0  0  0
    1.1947   -4.6135    0.0947 O   0  0  0  0  0  0  0  0  0  0  0  0
    1.3664   -2.4166   -0.8613 C   0  0  0  0  0  0  0  0  0  0  0  0
   -0.0355   -2.2718   -1.0780 O   0  0  0  0  0  0  0  0  0  0  0  0
  1  2  1  6  0  0  0
  1  3  1  0  0  0  0
  1  9  1  0  0  0  0
  3  4  1  6  0  0  0
  3  5  1  0  0  0  0
  5  6  1  0  0  0  0
  6  7  1  6  0  0  0
  6  8  1  0  0  0  0
  8  9  1  0  0  0  0
  8 10  1  1  0  0  0
 10 11  1  0  0  0  0
 12 13  1  1  0  0  0
 12 14  1  0  0  0  0
 12 20  1  0  0  0  0
 14 15  1  0  0  0  0
 15 16  1  1  0  0  0
 15 17  1  0  0  0  0
 17  2  1  6  0  0  0
 17 18  1  0  0  0  0
 18 19  1  1  0  0  0
 18 20  1  0  0  0  0
 20 21  1  6  0  0  0
 22 21  1  1  0  0  0
 22 23  1  0  0  0  0
 22 30  1  0  0  0  0
 23 24  1  1  0  0  0
 23 25  1  0  0  0  0
 25 26  1  6  0  0  0
 25 27  1  0  0  0  0
 27 28  1  1  0  0  0
 27 29  1  0  0  0  0
 29 30  1  0  0  0  0
 29 31  1  6  0  0  0
 31 32  1  0  0  0  0
M  CHG  5   4   1  11   1  13   1  16   1  26   1
M  END
>  <CHROM.1>
-169.31380328,-170.02466403,40.07626546,-175.12735454,88.29096727,-169.62771068
70.55308183,-48.30706732,-177.02719190,-60.78354680,-143.24546362,157.48347213
-48.43591742,-47.92808587,-171.94315292,-62.19939172,-0.29045725,-7.13052784
2.60290468,-2.08067390,-0.14792519,-0.57319711

>  <Name>
1lc4

>  <RI>
0

>  <Rbt.Current_Directory>
/home/afrankz/demos/rdock_decoys_rna/rnas/1lc4

>  <Rbt.Executable>
rbdock ($Id: //depot/dev/client3/rdock/2013.1/src/exe/rbdock.cxx#4 $)

>  <Rbt.Library>
libRbt.so (2013.1, Build901 2013/11/27)

>  <Rbt.Parameter_File>
/export/apps/rDock/src/rDock_2013.1_src/data/scripts/dock_solv.prm

>  <Rbt.Receptor>
prm/blind_docking_80.prm

>  <SCORE>
-37.4225

>  <SCORE.INTER>
-26.4453

>  <SCORE.INTER.CONST>
1

>  <SCORE.INTER.POLAR>
-6.85022

>  <SCORE.INTER.ROT>
6

>  <SCORE.INTER.SOLV>
43.4372

>  <SCORE.INTER.VDW>
-16.8752

>  <SCORE.INTER.norm>
-0.826415

>  <SCORE.INTRA>
-20.1395

>  <SCORE.INTRA.DIHEDRAL>
-30.4622

>  <SCORE.INTRA.DIHEDRAL.0>
44.2576

>  <SCORE.INTRA.POLAR>
-0.669281

>  <SCORE.INTRA.POLAR.0>
-0.381556

>  <SCORE.INTRA.REPUL>
0

>  <SCORE.INTRA.REPUL.0>
0

>  <SCORE.INTRA.SOLV>
-0.350027

>  <SCORE.INTRA.SOLV.lig_0>
-134.592

>  <SCORE.INTRA.VDW>
-2.45786

>  <SCORE.INTRA.VDW.0>
-1.01417

>  <SCORE.INTRA.norm>
-0.629361

>  <SCORE.RESTR>
9.16234

>  <SCORE.RESTR.CAVITY>
9.16234

>  <SCORE.RESTR.norm>
0.286323

>  <SCORE.SYSTEM>
0

>  <SCORE.SYSTEM.CONST>
0

>  <SCORE.SYSTEM.DIHEDRAL>
0

>  <SCORE.SYSTEM.SOLV>
0

>  <SCORE.SYSTEM.norm>
0

>  <SCORE.heavy>
32

>  <SCORE.norm>
-1.16945

>  <RMSD>
25.176

$$$$
1lc4
 OpenBabel02141814113D
libRbt.so/2013.1/901 2013/11/27
 32 34  0  0  0  0  0  0  0  0999 V2000
    2.5820   -5.3284    2.1793 C   0  0  2  0  0  0  0  0  0  0  0  0
    1.4561   -4.5901    1.7751 O   0  0  0  0  0  0  0  0  0  0  0  0
    3.8436   -4.5735    1.7131 C   0  0  2  0  0  0  0  0  0  0  0  0
    3.8659   -3.2205    2.2775 N   0  3  0  0  0  0  0  0  0  0  0  0
    3.9037   -4.5412    0.1678 C   0  0  0  0  0  0  0  0  0  0  0  0
    3.9158   -5.9987   -0.3255 C   0  0  2  0  0  0  0  0  0  0  0  0
    4.0198   -6.0417   -1.7526 O   0  0  0  0  0  0  0  0  0  0  0  0
    2.6340   -6.7157    0.1667 C   0  0  2  0  0  0  0  0  0  0  0  0
    2.5476   -6.6597    1.6191 O   0  0  0  0  0  0  0  0  0  0  0  0
    2.5724   -8.1900   -0.2252 C   0  0  0  0  0  0  0  0  0  0  0  0
    1.2969   -8.8118    0.2178 N   0  3  0  0  0  0  0  0  0  0  0  0
   -2.7265   -5.2724    1.7561 C   0  0  2  0  0  0  0  0  0  0  0  0
   -4.0565   -5.8637    1.5209 N   0  3  0  0  0  0  0  0  0  0  0  0
   -2.0696   -4.9306    0.4256 C   0  0  0  0  0  0  0  0  0  0  0  0
   -0.6837   -4.3182    0.6567 C   0  0  2  0  0  0  0  0  0  0  0  0
   -0.1341   -3.8937   -0.6549 N   0  3  0  0  0  0  0  0  0  0  0  0
    0.2386   -5.2909    1.4508 C   0  0  2  0  0  0  0  0  0  0  0  0
   -0.4530   -5.6877    2.7805 C   0  0  2  0  0  0  0  0  0  0  0  0
    0.3012   -6.6897    3.4187 O   0  0  0  0  0  0  0  0  0  0  0  0
   -1.8528   -6.2667    2.5184 C   0  0  1  0  0  0  0  0  0  0  0  0
   -2.4617   -6.5863    3.7689 O   0  0  0  0  0  0  0  0  0  0  0  0
   -3.4083   -7.5989    3.7734 C   0  0  2  0  0  0  0  0  0  0  0  0
   -3.5528   -8.1366    5.2074 C   0  0  2  0  0  0  0  0  0  0  0  0
   -3.9592   -7.0690    6.0542 O   0  0  0  0  0  0  0  0  0  0  0  0
   -2.2019   -8.7007    5.6813 C   0  0  1  0  0  0  0  0  0  0  0  0
   -2.2751   -9.2190    7.0777 N   0  3  0  0  0  0  0  0  0  0  0  0
   -1.7449   -9.8156    4.7091 C   0  0  2  0  0  0  0  0  0  0  0  0
   -0.4813  -10.3410    5.1091 O   0  0  0  0  0  0  0  0  0  0  0  0
   -1.6743   -9.2708    3.2704 C   0  0  2  0  0  0  0  0  0  0  0  0
   -2.9586   -8.6569    2.8878 O   0  0  0  0  0  0  0  0  0  0  0  0
   -1.3846  -10.3599    2.2615 C   0  0  0  0  0  0  0  0  0  0  0  0
   -1.0682   -9.8195    0.9805 O   0  0  0  0  0  0  0  0  0  0  0  0
  1  2  1  6  0  0  0
  1  3  1  0  0  0  0
  1  9  1  0  0  0  0
  3  4  1  6  0  0  0
  3  5  1  0  0  0  0
  5  6  1  0  0  0  0
  6  7  1  6  0  0  0
  6  8  1  0  0  0  0
  8  9  1  0  0  0  0
  8 10  1  1  0  0  0
 10 11  1  0  0  0  0
 12 13  1  6  0  0  0
 12 14  1  0  0  0  0
 12 20  1  0  0  0  0
 14 15  1  0  0  0  0
 15 16  1  6  0  0  0
 15 17  1  0  0  0  0
 17  2  1  1  0  0  0
 17 18  1  0  0  0  0
 18 19  1  6  0  0  0
 18 20  1  0  0  0  0
 20 21  1  1  0  0  0
 22 21  1  1  0  0  0
 22 23  1  0  0  0  0
 22 30  1  0  0  0  0
 23 24  1  1  0  0  0
 23 25  1  0  0  0  0
 25 26  1  1  0  0  0
 25 27  1  0  0  0  0
 27 28  1  1  0  0  0
 27 29  1  0  0  0  0
 29 30  1  0  0  0  0
 29 31  1  6  0  0  0
 31 32  1  0  0  0  0
M  CHG  5   4   1  11   1  13   1  16   1  26   1
M  END
>  <CHROM.1>
148.66578263,-163.73490426,-104.14434089,-54.93512054,-177.41749635,178.45502222
75.46586238,-59.71613045,63.74934945,85.28991051,159.35849741,176.03384016
-116.89178892,-34.37253428,-168.79316800,-173.66004092,-0.18975726,-6.84458544
2.27298855,-0.65906289,-0.42677424,2.70242889

>  <Name>
1lc4

>  <RI>
0

>  <Rbt.Current_Directory>
/home/afrankz/demos/rdock_decoys_rna/rnas/1lc4

>  <Rbt.Executable>
rbdock ($Id: //depot/dev/client3/rdock/2013.1/src/exe/rbdock.cxx#4 $)

>  <Rbt.Library>
libRbt.so (2013.1, Build901 2013/11/27)

>  <Rbt.Parameter_File>
/export/apps/rDock/src/rDock_2013.1_src/data/scripts/dock_solv.prm

>  <Rbt.Receptor>
prm/blind_docking_80.prm

>  <SCORE>
-34.2656

>  <SCORE.INTER>
-29.585

>  <SCORE.INTER.CONST>
1

>  <SCORE.INTER.POLAR>
-4.65117

>  <SCORE.INTER.ROT>
6

>  <SCORE.INTER.SOLV>
36.9314

>  <SCORE.INTER.VDW>
-24.1299

>  <SCORE.INTER.norm>
-0.924531

>  <SCORE.INTRA>
-10.0468

>  <SCORE.INTRA.DIHEDRAL>
-23.6169

>  <SCORE.INTRA.DIHEDRAL.0>
44.2576

>  <SCORE.INTRA.POLAR>
0.376654

>  <SCORE.INTRA.POLAR.0>
-0.381556

>  <SCORE.INTRA.REPUL>
0

>  <SCORE.INTRA.REPUL.0>
0

>  <SCORE.INTRA.SOLV>
2.22745

>  <SCORE.INTRA.SOLV.lig_0>
-134.592

>  <SCORE.INTRA.VDW>
-0.632718

>  <SCORE.INTRA.VDW.0>
-1.01417

>  <SCORE.INTRA.norm>
-0.313963

>  <SCORE.RESTR>
5.3662

>  <SCORE.RESTR.CAVITY>
5.3662

>  <SCORE.RESTR.norm>
0.167694

>  <SCORE.SYSTEM>
0

>  <SCORE.SYSTEM.CONST>
0

>  <SCORE.SYSTEM.DIHEDRAL>
0

>  <SCORE.SYSTEM.SOLV>
0

>  <SCORE.SYSTEM.norm>
0

>  <SCORE.heavy>
32

>  <SCORE.norm>
-1.0708

>  <RMSD>
25.235

$$$$
1lc4
 OpenBabel02141814113D
libRbt.so/2013.1/901 2013/11/27
 32 34  0  0  0  0  0  0  0  0999 V2000
    1.6440   -5.3123    0.0500 C   0  0  2  0  0  0  0  0  0  0  0  0
    0.8151   -5.4930    1.1708 O   0  0  0  0  0  0  0  0  0  0  0  0
    3.0189   -5.9367    0.3642 C   0  0  2  0  0  0  0  0  0  0  0  0
    2.8707   -7.3583    0.6908 N   0  3  0  0  0  0  0  0  0  0  0  0
    3.7046   -5.1622    1.5143 C   0  0  0  0  0  0  0  0  0  0  0  0
    3.8505   -3.6981    1.0640 C   0  0  2  0  0  0  0  0  0  0  0  0
    4.5246   -2.9318    2.0678 O   0  0  0  0  0  0  0  0  0  0  0  0
    2.4483   -3.1149    0.7586 C   0  0  2  0  0  0  0  0  0  0  0  0
    1.7805   -3.9086   -0.2632 O   0  0  0  0  0  0  0  0  0  0  0  0
    2.4849   -1.6760    0.2497 C   0  0  0  0  0  0  0  0  0  0  0  0
    3.8647   -1.1247    0.2933 N   0  3  0  0  0  0  0  0  0  0  0  0
   -3.0303   -6.8165    2.3630 C   0  0  2  0  0  0  0  0  0  0  0  0
   -4.3871   -7.3935    2.3544 N   0  3  0  0  0  0  0  0  0  0  0  0
   -2.9654   -5.6330    1.4072 C   0  0  0  0  0  0  0  0  0  0  0  0
   -1.5579   -5.0262    1.4043 C   0  0  2  0  0  0  0  0  0  0  0  0
   -1.5735   -3.8099    0.5540 N   0  3  0  0  0  0  0  0  0  0  0  0
   -0.4888   -6.0811    0.9900 C   0  0  2  0  0  0  0  0  0  0  0  0
   -0.5907   -7.3138    1.9249 C   0  0  2  0  0  0  0  0  0  0  0  0
    0.2582   -8.3311    1.4512 O   0  0  0  0  0  0  0  0  0  0  0  0
   -2.0205   -7.8786    1.9326 C   0  0  1  0  0  0  0  0  0  0  0  0
   -2.0737   -8.9881    2.8287 O   0  0  0  0  0  0  0  0  0  0  0  0
   -1.1178   -9.0407    3.8310 C   0  0  2  0  0  0  0  0  0  0  0  0
   -0.6865  -10.5039    4.0291 C   0  0  2  0  0  0  0  0  0  0  0  0
   -0.1530  -10.9901    2.8039 O   0  0  0  0  0  0  0  0  0  0  0  0
   -1.9059  -11.3455    4.4442 C   0  0  1  0  0  0  0  0  0  0  0  0
   -1.5522  -12.7823    4.6306 N   0  3  0  0  0  0  0  0  0  0  0  0
   -2.5118  -10.7602    5.7432 C   0  0  2  0  0  0  0  0  0  0  0  0
   -3.6608  -11.5056    6.1392 O   0  0  0  0  0  0  0  0  0  0  0  0
   -2.8717   -9.2766    5.5408 C   0  0  2  0  0  0  0  0  0  0  0  0
   -1.7014   -8.5236    5.0550 O   0  0  0  0  0  0  0  0  0  0  0  0
   -3.3212   -8.6181    6.8262 C   0  0  0  0  0  0  0  0  0  0  0  0
   -4.4356   -9.2958    7.4025 O   0  0  0  0  0  0  0  0  0  0  0  0
  1  2  1  1  0  0  0
  1  3  1  0  0  0  0
  1  9  1  0  0  0  0
  3  4  1  1  0  0  0
  3  5  1  0  0  0  0
  5  6  1  0  0  0  0
  6  7  1  1  0  0  0
  6  8  1  0  0  0  0
  8  9  1  0  0  0  0
  8 10  1  6  0  0  0
 10 11  1  0  0  0  0
 12 13  1  6  0  0  0
 12 14  1  0  0  0  0
 12 20  1  0  0  0  0
 14 15  1  0  0  0  0
 15 16  1  6  0  0  0
 15 17  1  0  0  0  0
 17  2  1  1  0  0  0
 17 18  1  0  0  0  0
 18 19  1  6  0  0  0
 18 20  1  0  0  0  0
 20 21  1  1  0  0  0
 22 21  1  6  0  0  0
 22 23  1  0  0  0  0
 22 30  1  0  0  0  0
 23 24  1  6  0  0  0
 23 25  1  0  0  0  0
 25 26  1  1  0  0  0
 25 27  1  0  0  0  0
 27 28  1  6  0  0  0
 27 29  1  0  0  0  0
 29 30  1  0  0  0  0
 29 31  1  1  0  0  0
 31 32  1  0  0  0  0
M  CHG  5   4   1  11   1  13   1  16   1  26   1
M  END
>  <CHROM.1>
-128.35350916,-117.10658135,-38.34250186,57.10628548,-5.56650277,71.28890051
162.29304693,44.51781936,-64.54863704,-98.48350264,-141.89489308,49.09241730
25.60534342,-172.37716478,-57.11588278,-166.97336429,-0.35478278,-7.07021647
2.56579154,-0.95602914,-0.25170987,2.72635608

>  <Name>
1lc4

>  <RI>
0

>  <Rbt.Current_Directory>
/home/afrankz/demos/rdock_decoys_rna/rnas/1lc4

>  <Rbt.Executable>
rbdock ($Id: //depot/dev/client3/rdock/2013.1/src/exe/rbdock.cxx#4 $)

>  <Rbt.Library>
libRbt.so (2013.1, Build901 2013/11/27)

>  <Rbt.Parameter_File>
/export/apps/rDock/src/rDock_2013.1_src/data/scripts/dock_solv.prm

>  <Rbt.Receptor>
prm/blind_docking_80.prm

>  <SCORE>
-26.8376

>  <SCORE.INTER>
-23.1734

>  <SCORE.INTER.CONST>
1

>  <SCORE.INTER.POLAR>
-4.08898

>  <SCORE.INTER.ROT>
6

>  <SCORE.INTER.SOLV>
29.5731

>  <SCORE.INTER.VDW>
-19.2767

>  <SCORE.INTER.norm>
-0.724167

>  <SCORE.INTRA>
-10.4878

>  <SCORE.INTRA.DIHEDRAL>
-8.14084

>  <SCORE.INTRA.DIHEDRAL.0>
44.2576

>  <SCORE.INTRA.POLAR>
-2.7003

>  <SCORE.INTRA.POLAR.0>
-0.381556

>  <SCORE.INTRA.REPUL>
0

>  <SCORE.INTRA.REPUL.0>
0

>  <SCORE.INTRA.SOLV>
2.19664

>  <SCORE.INTRA.SOLV.lig_0>
-134.592

>  <SCORE.INTRA.VDW>
1.66533

>  <SCORE.INTRA.VDW.0>
-1.01417

>  <SCORE.INTRA.norm>
-0.327744

>  <SCORE.RESTR>
6.82358

>  <SCORE.RESTR.CAVITY>
6.82358

>  <SCORE.RESTR.norm>
0.213237

>  <SCORE.SYSTEM>
0

>  <SCORE.SYSTEM.CONST>
0

>  <SCORE.SYSTEM.DIHEDRAL>
0

>  <SCORE.SYSTEM.SOLV>
0

>  <SCORE.SYSTEM.norm>
0

>  <SCORE.heavy>
32

>  <SCORE.norm>
-0.838674

>  <RMSD>
25.287

$$$$
1lc4
 OpenBabel02141814113D
libRbt.so/2013.1/901 2013/11/27
 32 34  0  0  0  0  0  0  0  0999 V2000
    8.0958   -3.8732   11.9811 C   0  0  2  0  0  0  0  0  0  0  0  0
    7.6199   -4.9487   12.7511 O   0  0  0  0  0  0  0  0  0  0  0  0
    8.8830   -2.9280   12.9116 C   0  0  2  0  0  0  0  0  0  0  0  0
    9.9857   -3.6483   13.5556 N   0  3  0  0  0  0  0  0  0  0  0  0
    7.9331   -2.2986   13.9576 C   0  0  0  0  0  0  0  0  0  0  0  0
    6.8389   -1.5364   13.1900 C   0  0  2  0  0  0  0  0  0  0  0  0
    5.9489   -0.8862   14.1035 O   0  0  0  0  0  0  0  0  0  0  0  0
    6.0780   -2.5231   12.2697 C   0  0  2  0  0  0  0  0  0  0  0  0
    7.0009   -3.1731   11.3500 O   0  0  0  0  0  0  0  0  0  0  0  0
    5.0005   -1.8550   11.4192 C   0  0  0  0  0  0  0  0  0  0  0  0
    5.5513   -0.7000   10.6627 N   0  3  0  0  0  0  0  0  0  0  0  0
    8.4980   -9.0359   13.4462 C   0  0  2  0  0  0  0  0  0  0  0  0
    9.2149  -10.3043   13.6723 N   0  3  0  0  0  0  0  0  0  0  0  0
    8.8769   -8.4625   12.0875 C   0  0  0  0  0  0  0  0  0  0  0  0
    8.1404   -7.1410   11.8421 C   0  0  2  0  0  0  0  0  0  0  0  0
    8.4471   -6.6822   10.4644 N   0  3  0  0  0  0  0  0  0  0  0  0
    8.4689   -6.0968   12.9507 C   0  0  2  0  0  0  0  0  0  0  0  0
    8.1391   -6.6989   14.3408 C   0  0  2  0  0  0  0  0  0  0  0  0
    8.5874   -5.8240   15.3475 O   0  0  0  0  0  0  0  0  0  0  0  0
    8.8650   -8.0389   14.5436 C   0  0  1  0  0  0  0  0  0  0  0  0
    8.5068   -8.5696   15.8190 O   0  0  0  0  0  0  0  0  0  0  0  0
    7.1695   -8.5098   16.1785 C   0  0  2  0  0  0  0  0  0  0  0  0
    7.0708   -8.0891   17.6548 C   0  0  2  0  0  0  0  0  0  0  0  0
    7.6863   -6.8163   17.8066 O   0  0  0  0  0  0  0  0  0  0  0  0
    7.7877   -9.1297   18.5328 C   0  0  1  0  0  0  0  0  0  0  0  0
    7.7434   -8.7630   19.9777 N   0  3  0  0  0  0  0  0  0  0  0  0
    7.1464  -10.5201   18.3032 C   0  0  2  0  0  0  0  0  0  0  0  0
    7.8077  -11.5112   19.0861 O   0  0  0  0  0  0  0  0  0  0  0  0
    7.1956  -10.8883   16.8087 C   0  0  2  0  0  0  0  0  0  0  0  0
    6.5815   -9.8238   15.9948 O   0  0  0  0  0  0  0  0  0  0  0  0
    6.4423  -12.1657   16.5108 C   0  0  0  0  0  0  0  0  0  0  0  0
    5.0591  -12.0488   16.8373 O   0  0  0  0  0  0  0  0  0  0  0  0
  1  2  1  1  0  0  0
  1  3  1  0  0  0  0
  1  9  1  0  0  0  0
  3  4  1  1  0  0  0
  3  5  1  0  0  0  0
  5  6  1  0  0  0  0
  6  7  1  1  0  0  0
  6  8  1  0  0  0  0
  8  9  1  0  0  0  0
  8 10  1  6  0  0  0
 10 11  1  0  0  0  0
 12 13  1  1  0  0  0
 12 14  1  0  0  0  0
 12 20  1  0  0  0  0
 14 15  1  0  0  0  0
 15 16  1  6  0  0  0
 15 17  1  0  0  0  0
 17  2  1  6  0  0  0
 17 18  1  0  0  0  0
 18 19  1  1  0  0  0
 18 20  1  0  0  0  0
 20 21  1  1  0  0  0
 22 21  1  1  0  0  0
 22 23  1  0  0  0  0
 22 30  1  0  0  0  0
 23 24  1  6  0  0  0
 23 25  1  0  0  0  0
 25 26  1  1  0  0  0
 25 27  1  0  0  0  0
 27 28  1  1  0  0  0
 27 29  1  0  0  0  0
 29 30  1  0  0  0  0
 29 31  1  1  0  0  0
 31 32  1  0  0  0  0
M  CHG  5   4   1  11   1  13   1  16   1  26   1
M  END
>  <CHROM.1>
-86.74778315,-92.98408205,65.96307667,-176.62229876,52.61825669,-152.94692974
58.39948829,164.35799324,-164.47278476,-78.09057979,-137.90765394,93.42343652
49.94523114,-77.61185641,61.41473914,55.01486421,7.57052044,-6.66758763,14.59687938
-1.69063307,-1.31197986,2.44133965

>  <Name>
1lc4

>  <RI>
0

>  <Rbt.Current_Directory>
/home/afrankz/demos/rdock_decoys_rna/rnas/1lc4

>  <Rbt.Executable>
rbdock ($Id: //depot/dev/client3/rdock/2013.1/src/exe/rbdock.cxx#4 $)

>  <Rbt.Library>
libRbt.so (2013.1, Build901 2013/11/27)

>  <Rbt.Parameter_File>
/export/apps/rDock/src/rDock_2013.1_src/data/scripts/dock_solv.prm

>  <Rbt.Receptor>
prm/blind_docking_40.prm

>  <SCORE>
-0.190592

>  <SCORE.INTER>
2.98104

>  <SCORE.INTER.CONST>
1

>  <SCORE.INTER.POLAR>
-5.32844

>  <SCORE.INTER.ROT>
6

>  <SCORE.INTER.SOLV>
24.056

>  <SCORE.INTER.VDW>
4.13014

>  <SCORE.INTER.norm>
0.0931575

>  <SCORE.INTRA>
-15.5962

>  <SCORE.INTRA.DIHEDRAL>
-20.2001

>  <SCORE.INTRA.DIHEDRAL.0>
44.2576

>  <SCORE.INTRA.POLAR>
-1.61695

>  <SCORE.INTRA.POLAR.0>
-0.381556

>  <SCORE.INTRA.REPUL>
0

>  <SCORE.INTRA.REPUL.0>
0

>  <SCORE.INTRA.SOLV>
1.29819

>  <SCORE.INTRA.SOLV.lig_0>
-134.592

>  <SCORE.INTRA.VDW>
-0.647668

>  <SCORE.INTRA.VDW.0>
-1.01417

>  <SCORE.INTRA.norm>
-0.487382

>  <SCORE.RESTR>
12.4246

>  <SCORE.RESTR.CAVITY>
12.4246

>  <SCORE.RESTR.norm>
0.388269

>  <SCORE.SYSTEM>
0

>  <SCORE.SYSTEM.CONST>
0

>  <SCORE.SYSTEM.DIHEDRAL>
0

>  <SCORE.SYSTEM.SOLV>
0

>  <SCORE.SYSTEM.norm>
0

>  <SCORE.heavy>
32

>  <SCORE.norm>
-0.00595601

>  <RMSD>
25.949

$$$$
1lc4
 OpenBabel02141814113D
libRbt.so/2013.1/901 2013/11/27
 32 34  0  0  0  0  0  0  0  0999 V2000
    7.3793   -9.4007   18.0890 C   0  0  2  0  0  0  0  0  0  0  0  0
    6.7935   -9.7050   16.8480 O   0  0  0  0  0  0  0  0  0  0  0  0
    6.3721   -9.7673   19.1980 C   0  0  2  0  0  0  0  0  0  0  0  0
    6.0153  -11.1869   19.1137 N   0  3  0  0  0  0  0  0  0  0  0  0
    5.1202   -8.8642   19.0995 C   0  0  0  0  0  0  0  0  0  0  0  0
    5.5899   -7.4054   19.2374 C   0  0  2  0  0  0  0  0  0  0  0  0
    4.4695   -6.5149   19.2031 O   0  0  0  0  0  0  0  0  0  0  0  0
    6.5985   -7.0839   18.1065 C   0  0  2  0  0  0  0  0  0  0  0  0
    7.7285   -8.0006   18.1592 O   0  0  0  0  0  0  0  0  0  0  0  0
    7.1696   -5.6702   18.1838 C   0  0  0  0  0  0  0  0  0  0  0  0
    7.6689   -5.3653   19.5503 N   0  3  0  0  0  0  0  0  0  0  0  0
   10.4108   -9.4361   14.6565 C   0  0  2  0  0  0  0  0  0  0  0  0
   11.3941   -9.4103   13.5582 N   0  3  0  0  0  0  0  0  0  0  0  0
    9.7233  -10.7938   14.7035 C   0  0  0  0  0  0  0  0  0  0  0  0
    8.6953  -10.8321   15.8397 C   0  0  2  0  0  0  0  0  0  0  0  0
    8.1388  -12.2055   15.9224 N   0  3  0  0  0  0  0  0  0  0  0  0
    7.6208   -9.7172   15.6672 C   0  0  2  0  0  0  0  0  0  0  0  0
    8.3208   -8.3380   15.5601 C   0  0  2  0  0  0  0  0  0  0  0  0
    7.3675   -7.3536   15.2403 O   0  0  0  0  0  0  0  0  0  0  0  0
    9.3688   -8.3415   14.4353 C   0  0  1  0  0  0  0  0  0  0  0  0
   10.0078   -7.0660   14.3957 O   0  0  0  0  0  0  0  0  0  0  0  0
   10.5233   -6.6520   13.1775 C   0  0  2  0  0  0  0  0  0  0  0  0
   10.3916   -5.1227   13.0768 C   0  0  2  0  0  0  0  0  0  0  0  0
   11.1130   -4.5329   14.1510 O   0  0  0  0  0  0  0  0  0  0  0  0
    8.9062   -4.7301   13.1606 C   0  0  1  0  0  0  0  0  0  0  0  0
    8.7170   -3.2525   13.0898 N   0  3  0  0  0  0  0  0  0  0  0  0
    8.1269   -5.4347   12.0234 C   0  0  2  0  0  0  0  0  0  0  0  0
    6.7405   -5.1092   12.0910 O   0  0  0  0  0  0  0  0  0  0  0  0
    8.3302   -6.9591   12.1045 C   0  0  2  0  0  0  0  0  0  0  0  0
    9.7670   -7.2879   12.1145 O   0  0  0  0  0  0  0  0  0  0  0  0
    7.7179   -7.6798   10.9240 C   0  0  0  0  0  0  0  0  0  0  0  0
    8.1451   -9.0387   10.8583 O   0  0  0  0  0  0  0  0  0  0  0  0
  1  2  1  6  0  0  0
  1  3  1  0  0  0  0
  1  9  1  0  0  0  0
  3  4  1  6  0  0  0
  3  5  1  0  0  0  0
  5  6  1  0  0  0  0
  6  7  1  6  0  0  0
  6  8  1  0  0  0  0
  8  9  1  0  0  0  0
  8 10  1  1  0  0  0
 10 11  1  0  0  0  0
 12 13  1  6  0  0  0
 12 14  1  0  0  0  0
 12 20  1  0  0  0  0
 14 15  1  0  0  0  0
 15 16  1  6  0  0  0
 15 17  1  0  0  0  0
 17  2  1  1  0  0  0
 17 18  1  0  0  0  0
 18 19  1  6  0  0  0
 18 20  1  0  0  0  0
 20 21  1  1  0  0  0
 22 21  1  1  0  0  0
 22 23  1  0  0  0  0
 22 30  1  0  0  0  0
 23 24  1  1  0  0  0
 23 25  1  0  0  0  0
 25 26  1  6  0  0  0
 25 27  1  0  0  0  0
 27 28  1  1  0  0  0
 27 29  1  0  0  0  0
 29 30  1  0  0  0  0
 29 31  1  6  0  0  0
 31 32  1  0  0  0  0
M  CHG  5   4   1  11   1  13   1  16   1  26   1
M  END
>  <CHROM.1>
-167.31101568,62.67368667,177.12451078,65.70064265,49.57975471,65.55375675
-20.92026544,29.72549608,-56.51510086,85.36072836,146.82032901,-163.94065887
43.87624552,-59.75908544,167.76201271,-63.38453101,8.12891347,-7.73942726
15.35945587,-2.61544765,1.08210828,-0.20652110

>  <Name>
1lc4

>  <RI>
0

>  <Rbt.Current_Directory>
/home/afrankz/demos/rdock_decoys_rna/rnas/1lc4

>  <Rbt.Executable>
rbdock ($Id: //depot/dev/client3/rdock/2013.1/src/exe/rbdock.cxx#4 $)

>  <Rbt.Library>
libRbt.so (2013.1, Build901 2013/11/27)

>  <Rbt.Parameter_File>
/export/apps/rDock/src/rDock_2013.1_src/data/scripts/dock_solv.prm

>  <Rbt.Receptor>
prm/blind_docking_40.prm

>  <SCORE>
-28.482

>  <SCORE.INTER>
-19.6223

>  <SCORE.INTER.CONST>
1

>  <SCORE.INTER.POLAR>
-2.83697

>  <SCORE.INTER.ROT>
6

>  <SCORE.INTER.SOLV>
22.7969

>  <SCORE.INTER.VDW>
-18.8239

>  <SCORE.INTER.norm>
-0.613197

>  <SCORE.INTRA>
-15.7122

>  <SCORE.INTRA.DIHEDRAL>
-28.9355

>  <SCORE.INTRA.DIHEDRAL.0>
44.2576

>  <SCORE.INTRA.POLAR>
-0.653067

>  <SCORE.INTRA.POLAR.0>
-0.381556

>  <SCORE.INTRA.REPUL>
0

>  <SCORE.INTRA.REPUL.0>
0

>  <SCORE.INTRA.SOLV>
1.5562

>  <SCORE.INTRA.SOLV.lig_0>
-134.592

>  <SCORE.INTRA.VDW>
0.197901

>  <SCORE.INTRA.VDW.0>
-1.01417

>  <SCORE.INTRA.norm>
-0.491005

>  <SCORE.RESTR>
6.85242

>  <SCORE.RESTR.CAVITY>
6.85242

>  <SCORE.RESTR.norm>
0.214138

>  <SCORE.SYSTEM>
0

>  <SCORE.SYSTEM.CONST>
0

>  <SCORE.SYSTEM.DIHEDRAL>
0

>  <SCORE.SYSTEM.SOLV>
0

>  <SCORE.SYSTEM.norm>
0

>  <SCORE.heavy>
32

>  <SCORE.norm>
-0.890064

>  <RMSD>
26.218

$$$$
1lc4
 OpenBabel02141814113D
libRbt.so/2013.1/901 2013/11/27
 32 34  0  0  0  0  0  0  0  0999 V2000
    6.4548  -15.4652   17.8280 C   0  0  2  0  0  0  0  0  0  0  0  0
    6.6049  -14.0777   17.9965 O   0  0  0  0  0  0  0  0  0  0  0  0
    7.0124  -16.1643   19.0847 C   0  0  2  0  0  0  0  0  0  0  0  0
    6.3091  -15.6962   20.2830 N   0  3  0  0  0  0  0  0  0  0  0  0
    8.5364  -15.9240   19.1951 C   0  0  0  0  0  0  0  0  0  0  0  0
    9.1867  -16.4807   17.9165 C   0  0  2  0  0  0  0  0  0  0  0  0
   10.6094  -16.3334   17.9751 O   0  0  0  0  0  0  0  0  0  0  0  0
    8.5962  -15.7521   16.6836 C   0  0  2  0  0  0  0  0  0  0  0  0
    7.1498  -15.9140   16.6436 O   0  0  0  0  0  0  0  0  0  0  0  0
    9.1379  -16.2696   15.3534 C   0  0  0  0  0  0  0  0  0  0  0  0
    8.6379  -17.6394   15.0650 N   0  3  0  0  0  0  0  0  0  0  0  0
    5.2098  -10.5095   16.1851 C   0  0  2  0  0  0  0  0  0  0  0  0
    4.3425   -9.4844   15.5762 N   0  3  0  0  0  0  0  0  0  0  0  0
    5.1854  -11.7760   15.3404 C   0  0  0  0  0  0  0  0  0  0  0  0
    6.0810  -12.8514   15.9654 C   0  0  2  0  0  0  0  0  0  0  0  0
    6.1197  -14.0192   15.0503 N   0  3  0  0  0  0  0  0  0  0  0  0
    5.6265  -13.1920   17.4162 C   0  0  2  0  0  0  0  0  0  0  0  0
    5.5937  -11.8947   18.2646 C   0  0  2  0  0  0  0  0  0  0  0  0
    5.0279  -12.1731   19.5226 O   0  0  0  0  0  0  0  0  0  0  0  0
    4.7157  -10.8247   17.5956 C   0  0  1  0  0  0  0  0  0  0  0  0
    4.7417   -9.6414   18.3931 O   0  0  0  0  0  0  0  0  0  0  0  0
    5.8150   -9.4808   19.2554 C   0  0  2  0  0  0  0  0  0  0  0  0
    5.8745   -8.0110   19.7052 C   0  0  2  0  0  0  0  0  0  0  0  0
    4.6546   -7.6865   20.3600 O   0  0  0  0  0  0  0  0  0  0  0  0
    6.0698   -7.1067   18.4757 C   0  0  1  0  0  0  0  0  0  0  0  0
    6.1137   -5.6634   18.8486 N   0  3  0  0  0  0  0  0  0  0  0  0
    7.3678   -7.5194   17.7395 C   0  0  2  0  0  0  0  0  0  0  0  0
    7.5623   -6.7139   16.5793 O   0  0  0  0  0  0  0  0  0  0  0  0
    7.3131   -9.0111   17.3606 C   0  0  2  0  0  0  0  0  0  0  0  0
    7.0327   -9.8353   18.5500 O   0  0  0  0  0  0  0  0  0  0  0  0
    8.6211   -9.5003   16.7794 C   0  0  0  0  0  0  0  0  0  0  0  0
    8.8617   -8.9478   15.4871 O   0  0  0  0  0  0  0  0  0  0  0  0
  1  2  1  1  0  0  0
  1  3  1  0  0  0  0
  1  9  1  0  0  0  0
  3  4  1  1  0  0  0
  3  5  1  0  0  0  0
  5  6  1  0  0  0  0
  6  7  1  1  0  0  0
  6  8  1  0  0  0  0
  8  9  1  0  0  0  0
  8 10  1  6  0  0  0
 10 11  1  0  0  0  0
 12 13  1  6  0  0  0
 12 14  1  0  0  0  0
 12 20  1  0  0  0  0
 14 15  1  0  0  0  0
 15 16  1  6  0  0  0
 15 17  1  0  0  0  0
 17  2  1  1  0  0  0
 17 18  1  0  0  0  0
 18 19  1  1  0  0  0
 18 20  1  0  0  0  0
 20 21  1  1  0  0  0
 22 21  1  6  0  0  0
 22 23  1  0  0  0  0
 22 30  1  0  0  0  0
 23 24  1  6  0  0  0
 23 25  1  0  0  0  0
 25 26  1  1  0  0  0
 25 27  1  0  0  0  0
 27 28  1  6  0  0  0
 27 29  1  0  0  0  0
 29 30  1  0  0  0  0
 29 31  1  1  0  0  0
 31 32  1  0  0  0  0
M  CHG  5   4   1  11   1  13   1  16   1  26   1
M  END
>  <CHROM.1>
-147.49755394,-88.91243806,-173.24652491,66.86282914,69.79537151,-151.73699151
148.28174145,69.78264231,-169.90588475,-99.97353453,163.93053129,-58.50942971
67.55417280,176.89277832,-69.79032484,-60.01878237,6.75703712,-11.90645881
17.56740539,1.10979959,-1.02098210,2.84328671

>  <Name>
1lc4

>  <RI>
0

>  <Rbt.Current_Directory>
/home/afrankz/demos/rdock_decoys_rna/rnas/1lc4

>  <Rbt.Executable>
rbdock ($Id: //depot/dev/client3/rdock/2013.1/src/exe/rbdock.cxx#4 $)

>  <Rbt.Library>
libRbt.so (2013.1, Build901 2013/11/27)

>  <Rbt.Parameter_File>
/export/apps/rDock/src/rDock_2013.1_src/data/scripts/dock_solv.prm

>  <Rbt.Receptor>
prm/blind_docking_40.prm

>  <SCORE>
-23.3822

>  <SCORE.INTER>
-19.5267

>  <SCORE.INTER.CONST>
1

>  <SCORE.INTER.POLAR>
-3.173

>  <SCORE.INTER.ROT>
6

>  <SCORE.INTER.SOLV>
15.8441

>  <SCORE.INTER.VDW>
-15.3225

>  <SCORE.INTER.norm>
-0.610209

>  <SCORE.INTRA>
-9.85794

>  <SCORE.INTRA.DIHEDRAL>
-24.5766

>  <SCORE.INTRA.DIHEDRAL.0>
44.2576

>  <SCORE.INTRA.POLAR>
-1.0284

>  <SCORE.INTRA.POLAR.0>
-0.381556

>  <SCORE.INTRA.REPUL>
0

>  <SCORE.INTRA.REPUL.0>
0

>  <SCORE.INTRA.SOLV>
1.46112

>  <SCORE.INTRA.SOLV.lig_0>
-134.592

>  <SCORE.INTRA.VDW>
5.19636

>  <SCORE.INTRA.VDW.0>
-1.01417

>  <SCORE.INTRA.norm>
-0.308061

>  <SCORE.RESTR>
6.00247

>  <SCORE.RESTR.CAVITY>
6.00247

>  <SCORE.RESTR.norm>
0.187577

>  <SCORE.SYSTEM>
0

>  <SCORE.SYSTEM.CONST>
0

>  <SCORE.SYSTEM.DIHEDRAL>
0

>  <SCORE.SYSTEM.SOLV>
0

>  <SCORE.SYSTEM.norm>
0

>  <SCORE.heavy>
32

>  <SCORE.norm>
-0.730692

>  <RMSD>
27.880

$$$$
1lc4
 OpenBabel02141814113D
libRbt.so/2013.1/901 2013/11/27
 32 34  0  0  0  0  0  0  0  0999 V2000
   11.6545   -7.8660    5.5479 C   0  0  2  0  0  0  0  0  0  0  0  0
   11.2651   -7.3508    6.7965 O   0  0  0  0  0  0  0  0  0  0  0  0
   13.1814   -7.6950    5.4132 C   0  0  2  0  0  0  0  0  0  0  0  0
   13.8702   -8.3833    6.5093 N   0  3  0  0  0  0  0  0  0  0  0  0
   13.5469   -6.1926    5.3724 C   0  0  0  0  0  0  0  0  0  0  0  0
   12.8114   -5.5696    4.1730 C   0  0  2  0  0  0  0  0  0  0  0  0
   13.1454   -4.1832    4.0478 O   0  0  0  0  0  0  0  0  0  0  0  0
   11.2852   -5.7665    4.3506 C   0  0  2  0  0  0  0  0  0  0  0  0
   10.9678   -7.1820    4.4766 O   0  0  0  0  0  0  0  0  0  0  0  0
   10.4619   -5.2290    3.1827 C   0  0  0  0  0  0  0  0  0  0  0  0
   10.7214   -6.0027    1.9402 N   0  3  0  0  0  0  0  0  0  0  0  0
    7.9875   -8.3571    9.2874 C   0  0  2  0  0  0  0  0  0  0  0  0
    7.0856   -9.0723   10.2088 N   0  3  0  0  0  0  0  0  0  0  0  0
    8.1629   -9.1618    8.0067 C   0  0  0  0  0  0  0  0  0  0  0  0
    9.1020   -8.4300    7.0414 C   0  0  2  0  0  0  0  0  0  0  0  0
    9.1486   -9.1892    5.7669 N   0  3  0  0  0  0  0  0  0  0  0  0
   10.4974   -8.1832    7.6889 C   0  0  2  0  0  0  0  0  0  0  0  0
   10.3183   -7.4147    9.0235 C   0  0  2  0  0  0  0  0  0  0  0  0
   11.5565   -7.3365    9.6875 O   0  0  0  0  0  0  0  0  0  0  0  0
    9.3459   -8.1554    9.9559 C   0  0  1  0  0  0  0  0  0  0  0  0
    9.1875   -7.3969   11.1543 O   0  0  0  0  0  0  0  0  0  0  0  0
    9.0669   -6.0222   11.0241 C   0  0  2  0  0  0  0  0  0  0  0  0
    9.8401   -5.3455   12.1688 C   0  0  2  0  0  0  0  0  0  0  0  0
   11.2048   -5.7371   12.0890 O   0  0  0  0  0  0  0  0  0  0  0  0
    9.2440   -5.7831   13.5182 C   0  0  1  0  0  0  0  0  0  0  0  0
    9.9692   -5.1735   14.6701 N   0  3  0  0  0  0  0  0  0  0  0  0
    7.7425   -5.4076   13.5588 C   0  0  2  0  0  0  0  0  0  0  0  0
    7.1560   -5.8242   14.7897 O   0  0  0  0  0  0  0  0  0  0  0  0
    7.0036   -6.0403   12.3649 C   0  0  2  0  0  0  0  0  0  0  0  0
    7.6605   -5.6718   11.0979 O   0  0  0  0  0  0  0  0  0  0  0  0
    5.5672   -5.5757   12.2720 C   0  0  0  0  0  0  0  0  0  0  0  0
    5.1359   -5.4680   10.9171 O   0  0  0  0  0  0  0  0  0  0  0  0
  1  2  1  1  0  0  0
  1  3  1  0  0  0  0
  1  9  1  0  0  0  0
  3  4  1  1  0  0  0
  3  5  1  0  0  0  0
  5  6  1  0  0  0  0
  6  7  1  1  0  0  0
  6  8  1  0  0  0  0
  8  9  1  0  0  0  0
  8 10  1  6  0  0  0
 10 11  1  0  0  0  0
 12 13  1  1  0  0  0
 12 14  1  0  0  0  0
 12 20  1  0  0  0  0
 14 15  1  0  0  0  0
 15 16  1  6  0  0  0
 15 17  1  0  0  0  0
 17  2  1  6  0  0  0
 17 18  1  0  0  0  0
 18 19  1  1  0  0  0
 18 20  1  0  0  0  0
 20 21  1  1  0  0  0
 22 21  1  1  0  0  0
 22 23  1  0  0  0  0
 22 30  1  0  0  0  0
 23 24  1  1  0  0  0
 23 25  1  0  0  0  0
 25 26  1  1  0  0  0
 25 27  1  0  0  0  0
 27 28  1  1  0  0  0
 27 29  1  0  0  0  0
 29 30  1  0  0  0  0
 29 31  1  6  0  0  0
 31 32  1  0  0  0  0
M  CHG  5   4   1  11   1  13   1  16   1  26   1
M  END
>  <CHROM.1>
-126.49381847,-66.57866973,-166.65505529,65.34188803,66.11686538,-52.81287210
170.11446328,167.93445686,52.94116282,-80.17312247,-141.13794830,91.32378090
-39.92883304,-56.07591493,145.75371397,59.60938387,9.84670160,-6.75236588
8.69861450,1.09747627,-0.32022606,-1.79797975

>  <Name>
1lc4

>  <RI>
0

>  <Rbt.Current_Directory>
/home/afrankz/demos/rdock_decoys_rna/rnas/1lc4

>  <Rbt.Executable>
rbdock ($Id: //depot/dev/client3/rdock/2013.1/src/exe/rbdock.cxx#4 $)

>  <Rbt.Library>
libRbt.so (2013.1, Build901 2013/11/27)

>  <Rbt.Parameter_File>
/export/apps/rDock/src/rDock_2013.1_src/data/scripts/dock_solv.prm

>  <Rbt.Receptor>
prm/blind_docking_60.prm

>  <SCORE>
-28.6264

>  <SCORE.INTER>
-28.996

>  <SCORE.INTER.CONST>
1

>  <SCORE.INTER.POLAR>
-5.03346

>  <SCORE.INTER.ROT>
6

>  <SCORE.INTER.SOLV>
30.2897

>  <SCORE.INTER.VDW>
-20.249

>  <SCORE.INTER.norm>
-0.906125

>  <SCORE.INTRA>
-12.8291

>  <SCORE.INTRA.DIHEDRAL>
-20.2325

>  <SCORE.INTRA.DIHEDRAL.0>
44.2576

>  <SCORE.INTRA.POLAR>
-0.814359

>  <SCORE.INTRA.POLAR.0>
-0.381556

>  <SCORE.INTRA.REPUL>
0.0871365

>  <SCORE.INTRA.REPUL.0>
0

>  <SCORE.INTRA.SOLV>
0.494065

>  <SCORE.INTRA.SOLV.lig_0>
-134.592

>  <SCORE.INTRA.VDW>
-0.62669

>  <SCORE.INTRA.VDW.0>
-1.01417

>  <SCORE.INTRA.norm>
-0.400908

>  <SCORE.RESTR>
13.1987

>  <SCORE.RESTR.CAVITY>
13.1987

>  <SCORE.RESTR.norm>
0.412458

>  <SCORE.SYSTEM>
0

>  <SCORE.SYSTEM.CONST>
0

>  <SCORE.SYSTEM.DIHEDRAL>
0

>  <SCORE.SYSTEM.SOLV>
0

>  <SCORE.SYSTEM.norm>
0

>  <SCORE.heavy>
32

>  <SCORE.norm>
-0.894575

>  <RMSD>
28.981

$$$$
1lc4
 OpenBabel02141814113D
libRbt.so/2013.1/901 2013/11/27
 32 34  0  0  0  0  0  0  0  0999 V2000
    7.3210   -8.3579   15.1950 C   0  0  2  0  0  0  0  0  0  0  0  0
    8.5175   -7.6431   15.3781 O   0  0  0  0  0  0  0  0  0  0  0  0
    6.4535   -8.1728   16.4567 C   0  0  2  0  0  0  0  0  0  0  0  0
    6.1907   -6.7494   16.6905 N   0  3  0  0  0  0  0  0  0  0  0  0
    7.1429   -8.8270   17.6771 C   0  0  0  0  0  0  0  0  0  0  0  0
    7.3394  -10.3184   17.3533 C   0  0  2  0  0  0  0  0  0  0  0  0
    7.9321  -10.9969   18.4657 O   0  0  0  0  0  0  0  0  0  0  0  0
    8.2128  -10.4547   16.0812 C   0  0  2  0  0  0  0  0  0  0  0  0
    7.5927   -9.7577   14.9633 O   0  0  0  0  0  0  0  0  0  0  0  0
    8.4248  -11.9009   15.6403 C   0  0  0  0  0  0  0  0  0  0  0  0
    7.1277  -12.5857   15.3993 N   0  3  0  0  0  0  0  0  0  0  0  0
    9.9026   -8.1535   11.4055 C   0  0  2  0  0  0  0  0  0  0  0  0
   10.6799   -8.0350   10.1583 N   0  3  0  0  0  0  0  0  0  0  0  0
    9.2885   -6.8066   11.7623 C   0  0  0  0  0  0  0  0  0  0  0  0
    8.4802   -6.9159   13.0600 C   0  0  2  0  0  0  0  0  0  0  0  0
    7.8062   -5.6162   13.3033 N   0  3  0  0  0  0  0  0  0  0  0  0
    9.3713   -7.4039   14.2412 C   0  0  2  0  0  0  0  0  0  0  0  0
   10.0450   -8.7469   13.8587 C   0  0  2  0  0  0  0  0  0  0  0  0
   10.9741   -9.1037   14.8535 O   0  0  0  0  0  0  0  0  0  0  0  0
   10.8190   -8.6146   12.5371 C   0  0  1  0  0  0  0  0  0  0  0  0
   11.3931   -9.8795   12.2097 O   0  0  0  0  0  0  0  0  0  0  0  0
   12.4132  -10.3436   13.0254 C   0  0  2  0  0  0  0  0  0  0  0  0
   13.7022  -10.4550   12.1932 C   0  0  2  0  0  0  0  0  0  0  0  0
   14.0216   -9.1694   11.6761 O   0  0  0  0  0  0  0  0  0  0  0  0
   13.4821  -11.4481   11.0387 C   0  0  1  0  0  0  0  0  0  0  0  0
   14.6953  -11.5817   10.1816 N   0  3  0  0  0  0  0  0  0  0  0  0
   13.0706  -12.8230   11.6194 C   0  0  2  0  0  0  0  0  0  0  0  0
   12.8348  -13.7588   10.5699 O   0  0  0  0  0  0  0  0  0  0  0  0
   11.8187  -12.6737   12.5037 C   0  0  2  0  0  0  0  0  0  0  0  0
   12.0381  -11.6480   13.5392 O   0  0  0  0  0  0  0  0  0  0  0  0
   11.4693  -13.9596   13.2195 C   0  0  0  0  0  0  0  0  0  0  0  0
   10.4792  -14.7030   12.5120 O   0  0  0  0  0  0  0  0  0  0  0  0
  1  2  1  1  0  0  0
  1  3  1  0  0  0  0
  1  9  1  0  0  0  0
  3  4  1  1  0  0  0
  3  5  1  0  0  0  0
  5  6  1  0  0  0  0
  6  7  1  1  0  0  0
  6  8  1  0  0  0  0
  8  9  1  0  0  0  0
  8 10  1  6  0  0  0
 10 11  1  0  0  0  0
 12 13  1  6  0  0  0
 12 14  1  0  0  0  0
 12 20  1  0  0  0  0
 14 15  1  0  0  0  0
 15 16  1  1  0  0  0
 15 17  1  0  0  0  0
 17  2  1  1  0  0  0
 17 18  1  0  0  0  0
 18 19  1  1  0  0  0
 18 20  1  0  0  0  0
 20 21  1  6  0  0  0
 22 21  1  6  0  0  0
 22 23  1  0  0  0  0
 22 30  1  0  0  0  0
 23 24  1  6  0  0  0
 23 25  1  0  0  0  0
 25 26  1  1  0  0  0
 25 27  1  0  0  0  0
 27 28  1  6  0  0  0
 27 29  1  0  0  0  0
 29 30  1  0  0  0  0
 29 31  1  1  0  0  0
 31 32  1  0  0  0  0
M  CHG  5   4   1  11   1  13   1  16   1  26   1
M  END
>  <CHROM.1>
-166.30898607,45.97332091,65.99886459,-173.27413523,57.22603127,-60.60868192
162.87354623,-172.05571493,41.47155898,169.88750901,-116.66589014,-179.46017230
56.39860978,171.89742791,-95.99725814,60.45689257,10.04245481,-9.95084224
13.69498941,-2.95269531,-0.77695195,2.79141836

>  <Name>
1lc4

>  <RI>
0

>  <Rbt.Current_Directory>
/home/afrankz/demos/rdock_decoys_rna/rnas/1lc4

>  <Rbt.Executable>
rbdock ($Id: //depot/dev/client3/rdock/2013.1/src/exe/rbdock.cxx#4 $)

>  <Rbt.Library>
libRbt.so (2013.1, Build901 2013/11/27)

>  <Rbt.Parameter_File>
/export/apps/rDock/src/rDock_2013.1_src/data/scripts/dock_solv.prm

>  <Rbt.Receptor>
prm/blind_docking_40.prm

>  <SCORE>
-18.8112

>  <SCORE.INTER>
-10.0333

>  <SCORE.INTER.CONST>
1

>  <SCORE.INTER.POLAR>
-1.26888

>  <SCORE.INTER.ROT>
6

>  <SCORE.INTER.SOLV>
13.5285

>  <SCORE.INTER.VDW>
-14.5688

>  <SCORE.INTER.norm>
-0.313541

>  <SCORE.INTRA>
-14.9979

>  <SCORE.INTRA.DIHEDRAL>
-28.169

>  <SCORE.INTRA.DIHEDRAL.0>
44.2576

>  <SCORE.INTRA.POLAR>
0.310407

>  <SCORE.INTRA.POLAR.0>
-0.381556

>  <SCORE.INTRA.REPUL>
0

>  <SCORE.INTRA.REPUL.0>
0

>  <SCORE.INTRA.SOLV>
-0.546138

>  <SCORE.INTRA.SOLV.lig_0>
-134.592

>  <SCORE.INTRA.VDW>
-1.69572

>  <SCORE.INTRA.VDW.0>
-1.01417

>  <SCORE.INTRA.norm>
-0.468685

>  <SCORE.RESTR>
6.21998

>  <SCORE.RESTR.CAVITY>
6.21998

>  <SCORE.RESTR.norm>
0.194374

>  <SCORE.SYSTEM>
0

>  <SCORE.SYSTEM.CONST>
0

>  <SCORE.SYSTEM.DIHEDRAL>
0

>  <SCORE.SYSTEM.SOLV>
0

>  <SCORE.SYSTEM.norm>
0

>  <SCORE.heavy>
32

>  <SCORE.norm>
-0.587851

>  <RMSD>
29.346

$$$$
1lc4
 OpenBabel02141814113D
libRbt.so/2013.1/901 2013/11/27
 32 34  0  0  0  0  0  0  0  0999 V2000
   12.1407  -11.7805   13.7092 C   0  0  2  0  0  0  0  0  0  0  0  0
   10.7570  -11.7280   13.4674 O   0  0  0  0  0  0  0  0  0  0  0  0
   12.7327  -10.3870   13.4147 C   0  0  2  0  0  0  0  0  0  0  0  0
   12.0861   -9.3713   14.2512 N   0  3  0  0  0  0  0  0  0  0  0  0
   12.5883  -10.0547   11.9109 C   0  0  0  0  0  0  0  0  0  0  0  0
   13.3280  -11.1493   11.1219 C   0  0  2  0  0  0  0  0  0  0  0  0
   13.2745  -10.8750    9.7179 O   0  0  0  0  0  0  0  0  0  0  0  0
   12.7018  -12.5276   11.4499 C   0  0  2  0  0  0  0  0  0  0  0  0
   12.7659  -12.7860   12.8814 O   0  0  0  0  0  0  0  0  0  0  0  0
   13.4007  -13.6944   10.7564 C   0  0  0  0  0  0  0  0  0  0  0  0
   14.1465  -14.5319   11.7321 N   0  3  0  0  0  0  0  0  0  0  0  0
    7.0164  -13.0585   14.9498 C   0  0  2  0  0  0  0  0  0  0  0  0
    5.9636  -13.6249   15.8129 N   0  3  0  0  0  0  0  0  0  0  0  0
    8.0645  -14.1208   14.6474 C   0  0  0  0  0  0  0  0  0  0  0  0
    9.1671  -13.5429   13.7532 C   0  0  2  0  0  0  0  0  0  0  0  0
   10.0982  -14.6397   13.3889 N   0  3  0  0  0  0  0  0  0  0  0  0
    9.8557  -12.3179   14.4258 C   0  0  2  0  0  0  0  0  0  0  0  0
    8.7837  -11.2582   14.7887 C   0  0  2  0  0  0  0  0  0  0  0  0
    9.3796  -10.2292   15.5410 O   0  0  0  0  0  0  0  0  0  0  0  0
    7.6751  -11.8755   15.6566 C   0  0  1  0  0  0  0  0  0  0  0  0
    6.6975  -10.8744   15.9376 O   0  0  0  0  0  0  0  0  0  0  0  0
    5.7891  -11.1411   16.9500 C   0  0  2  0  0  0  0  0  0  0  0  0
    4.9823   -9.8643   17.2417 C   0  0  2  0  0  0  0  0  0  0  0  0
    4.3058   -9.4730   16.0537 O   0  0  0  0  0  0  0  0  0  0  0  0
    5.9379   -8.7474   17.6967 C   0  0  1  0  0  0  0  0  0  0  0  0
    5.2127   -7.4742   17.9744 N   0  3  0  0  0  0  0  0  0  0  0  0
    6.7128   -9.2184   18.9516 C   0  0  2  0  0  0  0  0  0  0  0  0
    7.6263   -8.2120   19.3822 O   0  0  0  0  0  0  0  0  0  0  0  0
    7.4564  -10.5340   18.6549 C   0  0  2  0  0  0  0  0  0  0  0  0
    6.5221  -11.5483   18.1345 O   0  0  0  0  0  0  0  0  0  0  0  0
    8.1003  -11.1170   19.8932 C   0  0  0  0  0  0  0  0  0  0  0  0
    9.1208  -10.2636   20.4067 O   0  0  0  0  0  0  0  0  0  0  0  0
  1  2  1  6  0  0  0
  1  3  1  0  0  0  0
  1  9  1  0  0  0  0
  3  4  1  1  0  0  0
  3  5  1  0  0  0  0
  5  6  1  0  0  0  0
  6  7  1  6  0  0  0
  6  8  1  0  0  0  0
  8  9  1  0  0  0  0
  8 10  1  6  0  0  0
 10 11  1  0  0  0  0
 12 13  1  1  0  0  0
 12 14  1  0  0  0  0
 12 20  1  0  0  0  0
 14 15  1  0  0  0  0
 15 16  1  1  0  0  0
 15 17  1  0  0  0  0
 17  2  1  6  0  0  0
 17 18  1  0  0  0  0
 18 19  1  1  0  0  0
 18 20  1  0  0  0  0
 20 21  1  6  0  0  0
 22 21  1  6  0  0  0
 22 23  1  0  0  0  0
 22 30  1  0  0  0  0
 23 24  1  6  0  0  0
 23 25  1  0  0  0  0
 25 26  1  1  0  0  0
 25 27  1  0  0  0  0
 27 28  1  6  0  0  0
 27 29  1  0  0  0  0
 29 30  1  0  0  0  0
 29 31  1  1  0  0  0
 31 32  1  0  0  0  0
M  CHG  5   4   1  11   1  13   1  16   1  26   1
M  END
>  <CHROM.1>
-134.79827362,-113.31990612,113.16488644,-60.40597504,110.05608224,-47.27532457
92.33409389,-43.66495987,-173.38758447,72.68706033,170.99527481,-53.97756363
150.07433341,79.71565459,-64.23736539,-174.39075190,9.20083913,-11.29260836
15.16588676,-0.63427771,0.54049086,0.58195509

>  <Name>
1lc4

>  <RI>
0

>  <Rbt.Current_Directory>
/home/afrankz/demos/rdock_decoys_rna/rnas/1lc4

>  <Rbt.Executable>
rbdock ($Id: //depot/dev/client3/rdock/2013.1/src/exe/rbdock.cxx#4 $)

>  <Rbt.Library>
libRbt.so (2013.1, Build901 2013/11/27)

>  <Rbt.Parameter_File>
/export/apps/rDock/src/rDock_2013.1_src/data/scripts/dock_solv.prm

>  <Rbt.Receptor>
prm/blind_docking_40.prm

>  <SCORE>
-5.40758

>  <SCORE.INTER>
0.646438

>  <SCORE.INTER.CONST>
1

>  <SCORE.INTER.POLAR>
-3.12638

>  <SCORE.INTER.ROT>
6

>  <SCORE.INTER.SOLV>
25.1752

>  <SCORE.INTER.VDW>
-5.1395

>  <SCORE.INTER.norm>
0.0202012

>  <SCORE.INTRA>
-11.7228

>  <SCORE.INTRA.DIHEDRAL>
-14.3216

>  <SCORE.INTRA.DIHEDRAL.0>
44.2576

>  <SCORE.INTRA.POLAR>
-1.53751

>  <SCORE.INTRA.POLAR.0>
-0.381556

>  <SCORE.INTRA.REPUL>
0

>  <SCORE.INTRA.REPUL.0>
0

>  <SCORE.INTRA.SOLV>
1.73343

>  <SCORE.INTRA.SOLV.lig_0>
-134.592

>  <SCORE.INTRA.VDW>
-0.201157

>  <SCORE.INTRA.VDW.0>
-1.01417

>  <SCORE.INTRA.norm>
-0.366336

>  <SCORE.RESTR>
5.66874

>  <SCORE.RESTR.CAVITY>
5.66874

>  <SCORE.RESTR.norm>
0.177148

>  <SCORE.SYSTEM>
0

>  <SCORE.SYSTEM.CONST>
0

>  <SCORE.SYSTEM.DIHEDRAL>
0

>  <SCORE.SYSTEM.SOLV>
0

>  <SCORE.SYSTEM.norm>
0

>  <SCORE.heavy>
32

>  <SCORE.norm>
-0.168987

>  <RMSD>
29.609

$$$$
1lc4
 OpenBabel02141814113D
libRbt.so/2013.1/901 2013/11/27
 32 34  0  0  0  0  0  0  0  0999 V2000
    8.0430   -6.6579   14.4670 C   0  0  2  0  0  0  0  0  0  0  0  0
    9.3445   -7.1757   14.5847 O   0  0  0  0  0  0  0  0  0  0  0  0
    8.1033   -5.1412   14.7405 C   0  0  2  0  0  0  0  0  0  0  0  0
    9.0205   -4.4896   13.8005 N   0  3  0  0  0  0  0  0  0  0  0  0
    8.5202   -4.8812   16.2072 C   0  0  0  0  0  0  0  0  0  0  0  0
    7.4816   -5.5669   17.1121 C   0  0  2  0  0  0  0  0  0  0  0  0
    7.7823   -5.3238   18.4904 O   0  0  0  0  0  0  0  0  0  0  0  0
    7.4551   -7.0843   16.8015 C   0  0  2  0  0  0  0  0  0  0  0  0
    7.1484   -7.3089   15.3960 O   0  0  0  0  0  0  0  0  0  0  0  0
    6.4145   -7.8535   17.6115 C   0  0  0  0  0  0  0  0  0  0  0  0
    6.7451   -7.8428   19.0608 N   0  3  0  0  0  0  0  0  0  0  0  0
   11.6067  -10.7309   14.1339 C   0  0  2  0  0  0  0  0  0  0  0  0
   12.0363  -12.0885   13.7517 N   0  3  0  0  0  0  0  0  0  0  0  0
   10.3501  -10.8077   14.9904 C   0  0  0  0  0  0  0  0  0  0  0  0
    9.8911   -9.4014   15.3915 C   0  0  2  0  0  0  0  0  0  0  0  0
    8.7393   -9.5308   16.3184 N   0  3  0  0  0  0  0  0  0  0  0  0
    9.6060   -8.5213   14.1379 C   0  0  2  0  0  0  0  0  0  0  0  0
   10.8648   -8.4882   13.2334 C   0  0  2  0  0  0  0  0  0  0  0  0
   10.5564   -7.8331   12.0269 O   0  0  0  0  0  0  0  0  0  0  0  0
   11.3204   -9.9125   12.8765 C   0  0  1  0  0  0  0  0  0  0  0  0
   12.4969   -9.8330   12.0726 O   0  0  0  0  0  0  0  0  0  0  0  0
   12.3953  -10.2533   10.7557 C   0  0  2  0  0  0  0  0  0  0  0  0
   12.5779  -11.7799   10.7066 C   0  0  2  0  0  0  0  0  0  0  0  0
   11.5670  -12.3843   11.5033 O   0  0  0  0  0  0  0  0  0  0  0  0
   13.9691  -12.1470   11.2520 C   0  0  1  0  0  0  0  0  0  0  0  0
   14.1961  -13.6210   11.2490 N   0  3  0  0  0  0  0  0  0  0  0  0
   15.0528  -11.4267   10.4130 C   0  0  2  0  0  0  0  0  0  0  0  0
   16.3539  -11.7283   10.9118 O   0  0  0  0  0  0  0  0  0  0  0  0
   14.8084   -9.9062   10.4212 C   0  0  2  0  0  0  0  0  0  0  0  0
   13.4351   -9.6023    9.9804 O   0  0  0  0  0  0  0  0  0  0  0  0
   15.7467   -9.1726    9.4889 C   0  0  0  0  0  0  0  0  0  0  0  0
   15.1709   -7.9585    9.0115 O   0  0  0  0  0  0  0  0  0  0  0  0
  1  2  1  1  0  0  0
  1  3  1  0  0  0  0
  1  9  1  0  0  0  0
  3  4  1  6  0  0  0
  3  5  1  0  0  0  0
  5  6  1  0  0  0  0
  6  7  1  1  0  0  0
  6  8  1  0  0  0  0
  8  9  1  0  0  0  0
  8 10  1  1  0  0  0
 10 11  1  0  0  0  0
 12 13  1  6  0  0  0
 12 14  1  0  0  0  0
 12 20  1  0  0  0  0
 14 15  1  0  0  0  0
 15 16  1  6  0  0  0
 15 17  1  0  0  0  0
 17  2  1  1  0  0  0
 17 18  1  0  0  0  0
 18 19  1  6  0  0  0
 18 20  1  0  0  0  0
 20 21  1  6  0  0  0
 22 21  1  1  0  0  0
 22 23  1  0  0  0  0
 22 30  1  0  0  0  0
 23 24  1  1  0  0  0
 23 25  1  0  0  0  0
 25 26  1  6  0  0  0
 25 27  1  0  0  0  0
 27 28  1  1  0  0  0
 27 29  1  0  0  0  0
 29 30  1  0  0  0  0
 29 31  1  6  0  0  0
 31 32  1  0  0  0  0
M  CHG  5   4   1  11   1  13   1  16   1  26   1
M  END
>  <CHROM.1>
-168.66765109,-110.71290328,-33.28896836,73.27588373,-65.77419785,66.22072402
-156.95614648,-103.87921435,-176.23127479,124.87424723,-84.05960913,72.01190245
-39.37793447,-18.40782458,152.52668672,-49.68948425,10.91192142,-8.96340625
13.53231249,-2.89972639,-0.82429146,2.83625723

>  <Name>
1lc4

>  <RI>
0

>  <Rbt.Current_Directory>
/home/afrankz/demos/rdock_decoys_rna/rnas/1lc4

>  <Rbt.Executable>
rbdock ($Id: //depot/dev/client3/rdock/2013.1/src/exe/rbdock.cxx#4 $)

>  <Rbt.Library>
libRbt.so (2013.1, Build901 2013/11/27)

>  <Rbt.Parameter_File>
/export/apps/rDock/src/rDock_2013.1_src/data/scripts/dock_solv.prm

>  <Rbt.Receptor>
prm/blind_docking_40.prm

>  <SCORE>
-15.5575

>  <SCORE.INTER>
-21.6855

>  <SCORE.INTER.CONST>
1

>  <SCORE.INTER.POLAR>
-4.60418

>  <SCORE.INTER.ROT>
6

>  <SCORE.INTER.SOLV>
21.977

>  <SCORE.INTER.VDW>
-14.0354

>  <SCORE.INTER.norm>
-0.677673

>  <SCORE.INTRA>
-2.45654

>  <SCORE.INTRA.DIHEDRAL>
-10.4538

>  <SCORE.INTRA.DIHEDRAL.0>
44.2576

>  <SCORE.INTRA.POLAR>
-0.893293

>  <SCORE.INTRA.POLAR.0>
-0.381556

>  <SCORE.INTRA.REPUL>
0

>  <SCORE.INTRA.REPUL.0>
0

>  <SCORE.INTRA.SOLV>
9.43488

>  <SCORE.INTRA.SOLV.lig_0>
-134.592

>  <SCORE.INTRA.VDW>
1.09013

>  <SCORE.INTRA.VDW.0>
-1.01417

>  <SCORE.INTRA.norm>
-0.0767669

>  <SCORE.RESTR>
8.58458

>  <SCORE.RESTR.CAVITY>
8.58458

>  <SCORE.RESTR.norm>
0.268268

>  <SCORE.SYSTEM>
0

>  <SCORE.SYSTEM.CONST>
0

>  <SCORE.SYSTEM.DIHEDRAL>
0

>  <SCORE.SYSTEM.SOLV>
0

>  <SCORE.SYSTEM.norm>
0

>  <SCORE.heavy>
32

>  <SCORE.norm>
-0.486172

>  <RMSD>
29.638

$$$$
1lc4
 OpenBabel02141814113D
libRbt.so/2013.1/901 2013/11/27
 32 34  0  0  0  0  0  0  0  0999 V2000
   11.9820  -11.3269   12.1152 C   0  0  2  0  0  0  0  0  0  0  0  0
   11.7574  -10.2733   13.0184 O   0  0  0  0  0  0  0  0  0  0  0  0
   13.0939  -12.2259   12.6933 C   0  0  2  0  0  0  0  0  0  0  0  0
   12.7054  -12.7323   14.0133 N   0  3  0  0  0  0  0  0  0  0  0  0
   14.4283  -11.4462   12.7587 C   0  0  0  0  0  0  0  0  0  0  0  0
   14.7697  -10.9924   11.3286 C   0  0  2  0  0  0  0  0  0  0  0  0
   16.0241  -10.3028   11.3098 O   0  0  0  0  0  0  0  0  0  0  0  0
   13.6271  -10.0959   10.7900 C   0  0  2  0  0  0  0  0  0  0  0  0
   12.3616  -10.8156   10.8184 O   0  0  0  0  0  0  0  0  0  0  0  0
   13.8427   -9.6334    9.3512 C   0  0  0  0  0  0  0  0  0  0  0  0
   15.1745   -8.9944    9.1851 N   0  3  0  0  0  0  0  0  0  0  0  0
    8.6424   -8.4593   15.2467 C   0  0  2  0  0  0  0  0  0  0  0  0
    7.3198   -7.9759   15.6839 N   0  3  0  0  0  0  0  0  0  0  0  0
    9.0148   -7.8163   13.9177 C   0  0  0  0  0  0  0  0  0  0  0  0
   10.3871   -8.3140   13.4504 C   0  0  2  0  0  0  0  0  0  0  0  0
   10.7593   -7.5747   12.2185 N   0  3  0  0  0  0  0  0  0  0  0  0
   10.4028   -9.8640   13.2941 C   0  0  2  0  0  0  0  0  0  0  0  0
    9.9672  -10.5217   14.6288 C   0  0  2  0  0  0  0  0  0  0  0  0
    9.8222  -11.9087   14.4410 O   0  0  0  0  0  0  0  0  0  0  0  0
    8.6047   -9.9780   15.0884 C   0  0  1  0  0  0  0  0  0  0  0  0
    8.2611  -10.5859   16.3331 O   0  0  0  0  0  0  0  0  0  0  0  0
    6.9522  -10.4463   16.7675 C   0  0  2  0  0  0  0  0  0  0  0  0
    6.9038  -10.6957   18.2847 C   0  0  2  0  0  0  0  0  0  0  0  0
    7.7474   -9.7488   18.9279 O   0  0  0  0  0  0  0  0  0  0  0  0
    7.3899  -12.1245   18.5845 C   0  0  1  0  0  0  0  0  0  0  0  0
    7.3852  -12.4178   20.0468 N   0  3  0  0  0  0  0  0  0  0  0  0
    6.5002  -13.1369   17.8225 C   0  0  2  0  0  0  0  0  0  0  0  0
    6.9433  -14.4708   18.0614 O   0  0  0  0  0  0  0  0  0  0  0  0
    6.5106  -12.8243   16.3146 C   0  0  2  0  0  0  0  0  0  0  0  0
    6.1285  -11.4208   16.0762 O   0  0  0  0  0  0  0  0  0  0  0  0
    5.5340  -13.6870   15.5465 C   0  0  0  0  0  0  0  0  0  0  0  0
    5.2733  -13.1581   14.2482 O   0  0  0  0  0  0  0  0  0  0  0  0
  1  2  1  1  0  0  0
  1  3  1  0  0  0  0
  1  9  1  0  0  0  0
  3  4  1  1  0  0  0
  3  5  1  0  0  0  0
  5  6  1  0  0  0  0
  6  7  1  1  0  0  0
  6  8  1  0  0  0  0
  8  9  1  0  0  0  0
  8 10  1  6  0  0  0
 10 11  1  0  0  0  0
 12 13  1  6  0  0  0
 12 14  1  0  0  0  0
 12 20  1  0  0  0  0
 14 15  1  0  0  0  0
 15 16  1  6  0  0  0
 15 17  1  0  0  0  0
 17  2  1  1  0  0  0
 17 18  1  0  0  0  0
 18 19  1  6  0  0  0
 18 20  1  0  0  0  0
 20 21  1  1  0  0  0
 22 21  1  6  0  0  0
 22 23  1  0  0  0  0
 22 30  1  0  0  0  0
 23 24  1  1  0  0  0
 23 25  1  0  0  0  0
 25 26  1  1  0  0  0
 25 27  1  0  0  0  0
 27 28  1  6  0  0  0
 27 29  1  0  0  0  0
 29 30  1  0  0  0  0
 29 31  1  6  0  0  0
 31 32  1  0  0  0  0
M  CHG  5   4   1  11   1  13   1  16   1  26   1
M  END
>  <CHROM.1>
-138.27833245,-142.67427444,19.25740780,70.17576283,-52.72901388,-90.19479911
-159.14124822,-163.46219308,-62.80392837,71.56453897,-159.67545009,174.25801459
62.45067264,-48.12564693,163.74807517,-176.03896671,9.88583432,-10.82058402
14.45912521,-0.38175748,-0.65616414,2.83162458

>  <Name>
1lc4

>  <RI>
0

>  <Rbt.Current_Directory>
/home/afrankz/demos/rdock_decoys_rna/rnas/1lc4

>  <Rbt.Executable>
rbdock ($Id: //depot/dev/client3/rdock/2013.1/src/exe/rbdock.cxx#4 $)

>  <Rbt.Library>
libRbt.so (2013.1, Build901 2013/11/27)

>  <Rbt.Parameter_File>
/export/apps/rDock/src/rDock_2013.1_src/data/scripts/dock_solv.prm

>  <Rbt.Receptor>
prm/blind_docking_40.prm

>  <SCORE>
-17.0847

>  <SCORE.INTER>
-6.06615

>  <SCORE.INTER.CONST>
1

>  <SCORE.INTER.POLAR>
-1.236

>  <SCORE.INTER.ROT>
6

>  <SCORE.INTER.SOLV>
24.3071

>  <SCORE.INTER.VDW>
-15.6264

>  <SCORE.INTER.norm>
-0.189567

>  <SCORE.INTRA>
-17.1061

>  <SCORE.INTRA.DIHEDRAL>
-22.3495

>  <SCORE.INTRA.DIHEDRAL.0>
44.2576

>  <SCORE.INTRA.POLAR>
-1.85534

>  <SCORE.INTRA.POLAR.0>
-0.381556

>  <SCORE.INTRA.REPUL>
0

>  <SCORE.INTRA.REPUL.0>
0

>  <SCORE.INTRA.SOLV>
2.18511

>  <SCORE.INTRA.SOLV.lig_0>
-134.592

>  <SCORE.INTRA.VDW>
-0.715775

>  <SCORE.INTRA.VDW.0>
-1.01417

>  <SCORE.INTRA.norm>
-0.534566

>  <SCORE.RESTR>
6.08754

>  <SCORE.RESTR.CAVITY>
6.08754

>  <SCORE.RESTR.norm>
0.190236

>  <SCORE.SYSTEM>
0

>  <SCORE.SYSTEM.CONST>
0

>  <SCORE.SYSTEM.DIHEDRAL>
0

>  <SCORE.SYSTEM.SOLV>
0

>  <SCORE.SYSTEM.norm>
0

>  <SCORE.heavy>
32

>  <SCORE.norm>
-0.533898

>  <RMSD>
29.734

$$$$
1lc4
 OpenBabel02141814113D
libRbt.so/2013.1/901 2013/11/27
 32 34  0  0  0  0  0  0  0  0999 V2000
   11.5130  -11.4929   11.7421 C   0  0  2  0  0  0  0  0  0  0  0  0
   11.3672  -10.9003   13.0085 O   0  0  0  0  0  0  0  0  0  0  0  0
   12.1797  -12.8708   11.9310 C   0  0  2  0  0  0  0  0  0  0  0  0
   11.3712  -13.7109   12.8199 N   0  3  0  0  0  0  0  0  0  0  0  0
   13.6177  -12.6962   12.4735 C   0  0  0  0  0  0  0  0  0  0  0  0
   14.3943  -11.8389   11.4588 C   0  0  2  0  0  0  0  0  0  0  0  0
   15.7536  -11.6782   11.8779 O   0  0  0  0  0  0  0  0  0  0  0  0
   13.6889  -10.4689   11.3008 C   0  0  2  0  0  0  0  0  0  0  0  0
   12.3090  -10.6553   10.8750 O   0  0  0  0  0  0  0  0  0  0  0  0
   14.3521   -9.5577   10.2711 C   0  0  0  0  0  0  0  0  0  0  0  0
   15.8183   -9.4666   10.4982 N   0  3  0  0  0  0  0  0  0  0  0  0
    8.6585   -8.7320   15.4419 C   0  0  2  0  0  0  0  0  0  0  0  0
    7.4449   -8.0709   15.9556 N   0  3  0  0  0  0  0  0  0  0  0  0
    9.0775   -8.0933   14.1248 C   0  0  0  0  0  0  0  0  0  0  0  0
   10.3369   -8.7749   13.5783 C   0  0  2  0  0  0  0  0  0  0  0  0
   10.7742   -8.0457   12.3619 N   0  3  0  0  0  0  0  0  0  0  0  0
   10.1043  -10.2998   13.3594 C   0  0  2  0  0  0  0  0  0  0  0  0
    9.6209  -10.9435   14.6845 C   0  0  2  0  0  0  0  0  0  0  0  0
    9.2541  -12.2812   14.4477 O   0  0  0  0  0  0  0  0  0  0  0  0
    8.3781  -10.2176   15.2247 C   0  0  1  0  0  0  0  0  0  0  0  0
    7.9900  -10.8222   16.4578 O   0  0  0  0  0  0  0  0  0  0  0  0
    6.6535  -10.7343   16.8147 C   0  0  2  0  0  0  0  0  0  0  0  0
    6.4725  -11.3456   18.2147 C   0  0  2  0  0  0  0  0  0  0  0  0
    7.2835  -10.6244   19.1336 O   0  0  0  0  0  0  0  0  0  0  0  0
    6.8954  -12.8248   18.1862 C   0  0  1  0  0  0  0  0  0  0  0  0
    6.7616  -13.4670   19.5254 N   0  3  0  0  0  0  0  0  0  0  0  0
    6.0469  -13.5781   17.1329 C   0  0  2  0  0  0  0  0  0  0  0  0
    6.4344  -14.9485   17.0658 O   0  0  0  0  0  0  0  0  0  0  0  0
    6.1907  -12.9062   15.7546 C   0  0  2  0  0  0  0  0  0  0  0  0
    5.8657  -11.4713   15.8440 O   0  0  0  0  0  0  0  0  0  0  0  0
    5.2598  -13.5092   14.7261 C   0  0  0  0  0  0  0  0  0  0  0  0
    5.3427  -12.8261   13.4772 O   0  0  0  0  0  0  0  0  0  0  0  0
  1  2  1  1  0  0  0
  1  3  1  0  0  0  0
  1  9  1  0  0  0  0
  3  4  1  1  0  0  0
  3  5  1  0  0  0  0
  5  6  1  0  0  0  0
  6  7  1  1  0  0  0
  6  8  1  0  0  0  0
  8  9  1  0  0  0  0
  8 10  1  6  0  0  0
 10 11  1  0  0  0  0
 12 13  1  6  0  0  0
 12 14  1  0  0  0  0
 12 20  1  0  0  0  0
 14 15  1  0  0  0  0
 15 16  1  6  0  0  0
 15 17  1  0  0  0  0
 17  2  1  1  0  0  0
 17 18  1  0  0  0  0
 18 19  1  6  0  0  0
 18 20  1  0  0  0  0
 20 21  1  1  0  0  0
 22 21  1  6  0  0  0
 22 23  1  0  0  0  0
 22 30  1  0  0  0  0
 23 24  1  1  0  0  0
 23 25  1  0  0  0  0
 25 26  1  1  0  0  0
 25 27  1  0  0  0  0
 27 28  1  6  0  0  0
 27 29  1  0  0  0  0
 29 30  1  0  0  0  0
 29 31  1  6  0  0  0
 31 32  1  0  0  0  0
M  CHG  5   4   1  11   1  13   1  16   1  26   1
M  END
>  <CHROM.1>
-133.30850961,-116.64570737,51.11955542,56.37903638,-49.51225373,14.07414714
-166.53270928,176.10483409,-59.51321873,84.75595887,-175.57892892,179.04090708
50.48848922,72.92040488,176.42313099,179.39219459,9.60194328,-11.26306797
14.38026484,-0.16490048,-0.66040281,3.13764392

>  <Name>
1lc4

>  <RI>
0

>  <Rbt.Current_Directory>
/home/afrankz/demos/rdock_decoys_rna/rnas/1lc4

>  <Rbt.Executable>
rbdock ($Id: //depot/dev/client3/rdock/2013.1/src/exe/rbdock.cxx#4 $)

>  <Rbt.Library>
libRbt.so (2013.1, Build901 2013/11/27)

>  <Rbt.Parameter_File>
/export/apps/rDock/src/rDock_2013.1_src/data/scripts/dock_solv.prm

>  <Rbt.Receptor>
prm/blind_docking_40.prm

>  <SCORE>
-27.7714

>  <SCORE.INTER>
-19.7001

>  <SCORE.INTER.CONST>
1

>  <SCORE.INTER.POLAR>
-3.66309

>  <SCORE.INTER.ROT>
6

>  <SCORE.INTER.SOLV>
20.5433

>  <SCORE.INTER.VDW>
-15.3709

>  <SCORE.INTER.norm>
-0.615628

>  <SCORE.INTRA>
-15.1855

>  <SCORE.INTRA.DIHEDRAL>
-22.6443

>  <SCORE.INTRA.DIHEDRAL.0>
44.2576

>  <SCORE.INTRA.POLAR>
-0.743364

>  <SCORE.INTRA.POLAR.0>
-0.381556

>  <SCORE.INTRA.REPUL>
0

>  <SCORE.INTRA.REPUL.0>
0

>  <SCORE.INTRA.SOLV>
2.97117

>  <SCORE.INTRA.SOLV.lig_0>
-134.592

>  <SCORE.INTRA.VDW>
-2.82151

>  <SCORE.INTRA.VDW.0>
-1.01417

>  <SCORE.INTRA.norm>
-0.474547

>  <SCORE.RESTR>
7.11414

>  <SCORE.RESTR.CAVITY>
7.11414

>  <SCORE.RESTR.norm>
0.222317

>  <SCORE.SYSTEM>
0

>  <SCORE.SYSTEM.CONST>
0

>  <SCORE.SYSTEM.DIHEDRAL>
0

>  <SCORE.SYSTEM.SOLV>
0

>  <SCORE.SYSTEM.norm>
0

>  <SCORE.heavy>
32

>  <SCORE.norm>
-0.867858

>  <RMSD>
29.746

$$$$
1lc4
 OpenBabel02141814113D
libRbt.so/2013.1/901 2013/11/27
 32 34  0  0  0  0  0  0  0  0999 V2000
   11.2800  -12.7189   11.7641 C   0  0  2  0  0  0  0  0  0  0  0  0
   11.4347  -11.8219   12.8353 O   0  0  0  0  0  0  0  0  0  0  0  0
   11.8501  -14.0853   12.1962 C   0  0  2  0  0  0  0  0  0  0  0  0
   11.1609  -14.5687   13.3967 N   0  3  0  0  0  0  0  0  0  0  0  0
   13.3757  -13.9765   12.4269 C   0  0  0  0  0  0  0  0  0  0  0  0
   14.0107  -13.5030   11.1077 C   0  0  2  0  0  0  0  0  0  0  0  0
   15.4342  -13.4270   11.2380 O   0  0  0  0  0  0  0  0  0  0  0  0
   13.4081  -12.1315   10.7134 C   0  0  2  0  0  0  0  0  0  0  0  0
   11.9609  -12.2309   10.5871 O   0  0  0  0  0  0  0  0  0  0  0  0
   13.9340  -11.5947    9.3846 C   0  0  0  0  0  0  0  0  0  0  0  0
   14.9941  -10.5748    9.5978 N   0  3  0  0  0  0  0  0  0  0  0  0
    9.2107   -9.1051   15.2087 C   0  0  2  0  0  0  0  0  0  0  0  0
    8.1976   -8.1367   15.6666 N   0  3  0  0  0  0  0  0  0  0  0  0
    9.9770   -8.5312   14.0246 C   0  0  0  0  0  0  0  0  0  0  0  0
   11.0315   -9.5308   13.5367 C   0  0  2  0  0  0  0  0  0  0  0  0
   11.8291   -8.8850   12.4646 N   0  3  0  0  0  0  0  0  0  0  0  0
   10.3785  -10.8827   13.1203 C   0  0  2  0  0  0  0  0  0  0  0  0
    9.5490  -11.4416   14.3049 C   0  0  2  0  0  0  0  0  0  0  0  0
    8.8286  -12.5727   13.8785 O   0  0  0  0  0  0  0  0  0  0  0  0
    8.5243  -10.4048   14.7934 C   0  0  1  0  0  0  0  0  0  0  0  0
    7.8089  -10.9496   15.9016 O   0  0  0  0  0  0  0  0  0  0  0  0
    6.5370  -11.4425   15.6553 C   0  0  2  0  0  0  0  0  0  0  0  0
    5.5801  -10.9082   16.7349 C   0  0  2  0  0  0  0  0  0  0  0  0
    5.5841   -9.4872   16.6825 O   0  0  0  0  0  0  0  0  0  0  0  0
    6.0519  -11.3862   18.1193 C   0  0  1  0  0  0  0  0  0  0  0  0
    5.1720  -10.8798   19.2117 N   0  3  0  0  0  0  0  0  0  0  0  0
    6.1045  -12.9335   18.1345 C   0  0  2  0  0  0  0  0  0  0  0  0
    6.5634  -13.4058   19.3990 O   0  0  0  0  0  0  0  0  0  0  0  0
    7.0138  -13.4460   17.0021 C   0  0  2  0  0  0  0  0  0  0  0  0
    6.5845  -12.8921   15.7054 O   0  0  0  0  0  0  0  0  0  0  0  0
    6.9742  -14.9528   16.8765 C   0  0  0  0  0  0  0  0  0  0  0  0
    7.6186  -15.5895   17.9777 O   0  0  0  0  0  0  0  0  0  0  0  0
  1  2  1  1  0  0  0
  1  3  1  0  0  0  0
  1  9  1  0  0  0  0
  3  4  1  1  0  0  0
  3  5  1  0  0  0  0
  5  6  1  0  0  0  0
  6  7  1  1  0  0  0
  6  8  1  0  0  0  0
  8  9  1  0  0  0  0
  8 10  1  6  0  0  0
 10 11  1  0  0  0  0
 12 13  1  6  0  0  0
 12 14  1  0  0  0  0
 12 20  1  0  0  0  0
 14 15  1  0  0  0  0
 15 16  1  6  0  0  0
 15 17  1  0  0  0  0
 17  2  1  1  0  0  0
 17 18  1  0  0  0  0
 18 19  1  6  0  0  0
 18 20  1  0  0  0  0
 20 21  1  1  0  0  0
 22 21  1  1  0  0  0
 22 23  1  0  0  0  0
 22 30  1  0  0  0  0
 23 24  1  1  0  0  0
 23 25  1  0  0  0  0
 25 26  1  1  0  0  0
 25 27  1  0  0  0  0
 27 28  1  1  0  0  0
 27 29  1  0  0  0  0
 29 30  1  0  0  0  0
 29 31  1  6  0  0  0
 31 32  1  0  0  0  0
M  CHG  5   4   1  11   1  13   1  16   1  26   1
M  END
>  <CHROM.1>
-140.53574266,-141.74788820,-130.64323473,-51.25553576,-100.04800595,-178.38224719
163.81999028,-110.34613211,-175.31905069,136.63415586,-133.24189703,70.81308064
-66.01009511,68.65634070,-70.21040382,-47.55720635,9.62213392,-11.81957277
14.39434071,-0.12781344,-0.73255143,2.93161401

>  <Name>
1lc4

>  <RI>
0

>  <Rbt.Current_Directory>
/home/afrankz/demos/rdock_decoys_rna/rnas/1lc4

>  <Rbt.Executable>
rbdock ($Id: //depot/dev/client3/rdock/2013.1/src/exe/rbdock.cxx#4 $)

>  <Rbt.Library>
libRbt.so (2013.1, Build901 2013/11/27)

>  <Rbt.Parameter_File>
/export/apps/rDock/src/rDock_2013.1_src/data/scripts/dock_solv.prm

>  <Rbt.Receptor>
prm/blind_docking_40.prm

>  <SCORE>
-22.4524

>  <SCORE.INTER>
-17.5353

>  <SCORE.INTER.CONST>
1

>  <SCORE.INTER.POLAR>
-3.90125

>  <SCORE.INTER.ROT>
6

>  <SCORE.INTER.SOLV>
22.7791

>  <SCORE.INTER.VDW>
-13.8791

>  <SCORE.INTER.norm>
-0.547978

>  <SCORE.INTRA>
-13.2941

>  <SCORE.INTRA.DIHEDRAL>
-7.71072

>  <SCORE.INTRA.DIHEDRAL.0>
44.2576

>  <SCORE.INTRA.POLAR>
-2.16393

>  <SCORE.INTRA.POLAR.0>
-0.381556

>  <SCORE.INTRA.REPUL>
0

>  <SCORE.INTRA.REPUL.0>
0

>  <SCORE.INTRA.SOLV>
0.347737

>  <SCORE.INTRA.SOLV.lig_0>
-134.592

>  <SCORE.INTRA.VDW>
-2.25521

>  <SCORE.INTRA.VDW.0>
-1.01417

>  <SCORE.INTRA.norm>
-0.415439

>  <SCORE.RESTR>
8.37693

>  <SCORE.RESTR.CAVITY>
8.37693

>  <SCORE.RESTR.norm>
0.261779

>  <SCORE.SYSTEM>
0

>  <SCORE.SYSTEM.CONST>
0

>  <SCORE.SYSTEM.DIHEDRAL>
0

>  <SCORE.SYSTEM.SOLV>
0

>  <SCORE.SYSTEM.norm>
0

>  <SCORE.heavy>
32

>  <SCORE.norm>
-0.701638

>  <RMSD>
30.170

$$$$
1lc4
 OpenBabel02141814113D
libRbt.so/2013.1/901 2013/11/27
 32 34  0  0  0  0  0  0  0  0999 V2000
   10.7279   -8.8241    6.5681 C   0  0  2  0  0  0  0  0  0  0  0  0
   10.4143   -7.6503    5.8610 O   0  0  0  0  0  0  0  0  0  0  0  0
    9.4854   -9.7379    6.5560 C   0  0  2  0  0  0  0  0  0  0  0  0
    9.0875  -10.0393    5.1775 N   0  3  0  0  0  0  0  0  0  0  0  0
    8.3308   -9.0765    7.3447 C   0  0  0  0  0  0  0  0  0  0  0  0
    8.8289   -8.8369    8.7808 C   0  0  2  0  0  0  0  0  0  0  0  0
    7.7878   -8.2680    9.5818 O   0  0  0  0  0  0  0  0  0  0  0  0
   10.0753   -7.9179    8.7430 C   0  0  2  0  0  0  0  0  0  0  0  0
   11.1205   -8.5144    7.9234 O   0  0  0  0  0  0  0  0  0  0  0  0
   10.6833   -7.6597   10.1194 C   0  0  0  0  0  0  0  0  0  0  0  0
    9.6913   -7.0434   11.0390 N   0  3  0  0  0  0  0  0  0  0  0  0
   12.6464   -4.5819    3.9736 C   0  0  2  0  0  0  0  0  0  0  0  0
   13.5896   -3.8589    3.1009 N   0  3  0  0  0  0  0  0  0  0  0  0
   13.4084   -5.5469    4.8717 C   0  0  0  0  0  0  0  0  0  0  0  0
   12.4379   -6.3078    5.7818 C   0  0  2  0  0  0  0  0  0  0  0  0
   13.2305   -7.1447    6.7167 N   0  3  0  0  0  0  0  0  0  0  0  0
   11.3868   -7.1011    4.9492 C   0  0  2  0  0  0  0  0  0  0  0  0
   10.6489   -6.1311    3.9910 C   0  0  2  0  0  0  0  0  0  0  0  0
    9.8198   -6.8691    3.1261 O   0  0  0  0  0  0  0  0  0  0  0  0
   11.6495   -5.3587    3.1160 C   0  0  1  0  0  0  0  0  0  0  0  0
   10.9288   -4.4578    2.2759 O   0  0  0  0  0  0  0  0  0  0  0  0
   10.2309   -5.0044    1.2103 C   0  0  2  0  0  0  0  0  0  0  0  0
   10.9921   -4.6980   -0.0908 C   0  0  2  0  0  0  0  0  0  0  0  0
   12.2925   -5.2663   -0.0010 O   0  0  0  0  0  0  0  0  0  0  0  0
   11.0943   -3.1740   -0.2775 C   0  0  1  0  0  0  0  0  0  0  0  0
   11.8436   -2.8148   -1.5160 N   0  3  0  0  0  0  0  0  0  0  0  0
    9.6705   -2.5666   -0.3060 C   0  0  2  0  0  0  0  0  0  0  0  0
    9.7342   -1.1498   -0.4529 O   0  0  0  0  0  0  0  0  0  0  0  0
    8.9052   -2.9446    0.9758 C   0  0  2  0  0  0  0  0  0  0  0  0
    8.9094   -4.4062    1.1668 O   0  0  0  0  0  0  0  0  0  0  0  0
    7.4580   -2.5074    0.9259 C   0  0  0  0  0  0  0  0  0  0  0  0
    6.7297   -3.2130   -0.0767 O   0  0  0  0  0  0  0  0  0  0  0  0
  1  2  1  6  0  0  0
  1  3  1  0  0  0  0
  1  9  1  0  0  0  0
  3  4  1  6  0  0  0
  3  5  1  0  0  0  0
  5  6  1  0  0  0  0
  6  7  1  1  0  0  0
  6  8  1  0  0  0  0
  8  9  1  0  0  0  0
  8 10  1  1  0  0  0
 10 11  1  0  0  0  0
 12 13  1  6  0  0  0
 12 14  1  0  0  0  0
 12 20  1  0  0  0  0
 14 15  1  0  0  0  0
 15 16  1  6  0  0  0
 15 17  1  0  0  0  0
 17  2  1  1  0  0  0
 17 18  1  0  0  0  0
 18 19  1  6  0  0  0
 18 20  1  0  0  0  0
 20 21  1  6  0  0  0
 22 21  1  1  0  0  0
 22 23  1  0  0  0  0
 22 30  1  0  0  0  0
 23 24  1  1  0  0  0
 23 25  1  0  0  0  0
 25 26  1  6  0  0  0
 25 27  1  0  0  0  0
 27 28  1  1  0  0  0
 27 29  1  0  0  0  0
 29 30  1  0  0  0  0
 29 31  1  6  0  0  0
 31 32  1  0  0  0  0
M  CHG  5   4   1  11   1  13   1  16   1  26   1
M  END
>  <CHROM.1>
-137.55097056,-79.93568124,160.29752145,-55.45067043,-58.19909398,43.60637335
-47.44036145,-62.72578007,-57.38271100,164.41584802,-105.58275859,-62.82880751
-69.89709846,-60.92252969,66.08498801,58.08683964,10.42657878,-5.87908954
4.08172621,-1.59498703,-0.06951100,-1.02214414

>  <Name>
1lc4

>  <RI>
0

>  <Rbt.Current_Directory>
/home/afrankz/demos/rdock_decoys_rna/rnas/1lc4

>  <Rbt.Executable>
rbdock ($Id: //depot/dev/client3/rdock/2013.1/src/exe/rbdock.cxx#4 $)

>  <Rbt.Library>
libRbt.so (2013.1, Build901 2013/11/27)

>  <Rbt.Parameter_File>
/export/apps/rDock/src/rDock_2013.1_src/data/scripts/dock_solv.prm

>  <Rbt.Receptor>
prm/blind_docking_20.prm

>  <SCORE>
-35.6645

>  <SCORE.INTER>
-20.8516

>  <SCORE.INTER.CONST>
1

>  <SCORE.INTER.POLAR>
-5.26953

>  <SCORE.INTER.ROT>
6

>  <SCORE.INTER.SOLV>
28.72

>  <SCORE.INTER.VDW>
-13.5093

>  <SCORE.INTER.norm>
-0.651611

>  <SCORE.INTRA>
-19.3742

>  <SCORE.INTRA.DIHEDRAL>
-26.7584

>  <SCORE.INTRA.DIHEDRAL.0>
44.2576

>  <SCORE.INTRA.POLAR>
-1.3859

>  <SCORE.INTRA.POLAR.0>
-0.381556

>  <SCORE.INTRA.REPUL>
0

>  <SCORE.INTRA.REPUL.0>
0

>  <SCORE.INTRA.SOLV>
1.47906

>  <SCORE.INTRA.SOLV.lig_0>
-134.592

>  <SCORE.INTRA.VDW>
-2.02242

>  <SCORE.INTRA.VDW.0>
-1.01417

>  <SCORE.INTRA.norm>
-0.605443

>  <SCORE.RESTR>
4.56128

>  <SCORE.RESTR.CAVITY>
4.56128

>  <SCORE.RESTR.norm>
0.14254

>  <SCORE.SYSTEM>
0

>  <SCORE.SYSTEM.CONST>
0

>  <SCORE.SYSTEM.DIHEDRAL>
0

>  <SCORE.SYSTEM.SOLV>
0

>  <SCORE.SYSTEM.norm>
0

>  <SCORE.heavy>
32

>  <SCORE.norm>
-1.11451

>  <RMSD>
30.173

$$$$
1lc4
 OpenBabel02141814113D
libRbt.so/2013.1/901 2013/11/27
 32 34  0  0  0  0  0  0  0  0999 V2000
    9.7426  -10.2338    6.0753 C   0  0  2  0  0  0  0  0  0  0  0  0
    9.7276   -8.8327    5.9625 O   0  0  0  0  0  0  0  0  0  0  0  0
    9.1773  -10.8266    4.7684 C   0  0  2  0  0  0  0  0  0  0  0  0
    9.9710  -10.3783    3.6201 N   0  3  0  0  0  0  0  0  0  0  0  0
    7.6878  -10.4408    4.6098 C   0  0  0  0  0  0  0  0  0  0  0  0
    6.9354  -10.9854    5.8366 C   0  0  2  0  0  0  0  0  0  0  0  0
    5.5359  -10.7037    5.7295 O   0  0  0  0  0  0  0  0  0  0  0  0
    7.5371  -10.3654    7.1223 C   0  0  2  0  0  0  0  0  0  0  0  0
    8.9596  -10.6631    7.2110 O   0  0  0  0  0  0  0  0  0  0  0  0
    6.8941  -10.8832    8.4065 C   0  0  0  0  0  0  0  0  0  0  0  0
    6.7841  -12.3656    8.3935 N   0  3  0  0  0  0  0  0  0  0  0  0
   12.4447   -5.6354    5.3673 C   0  0  2  0  0  0  0  0  0  0  0  0
   13.5621   -4.8093    4.8747 N   0  3  0  0  0  0  0  0  0  0  0  0
   12.9854   -6.8963    6.0278 C   0  0  0  0  0  0  0  0  0  0  0  0
   11.8325   -7.7659    6.5412 C   0  0  2  0  0  0  0  0  0  0  0  0
   12.4071   -8.9188    7.2783 N   0  3  0  0  0  0  0  0  0  0  0  0
   10.8671   -8.1644    5.3850 C   0  0  2  0  0  0  0  0  0  0  0  0
   10.3598   -6.8846    4.6721 C   0  0  2  0  0  0  0  0  0  0  0  0
    9.6223   -7.2470    3.5298 O   0  0  0  0  0  0  0  0  0  0  0  0
   11.5378   -6.0174    4.1992 C   0  0  1  0  0  0  0  0  0  0  0  0
   11.0241   -4.8388    3.5799 O   0  0  0  0  0  0  0  0  0  0  0  0
   11.8356   -4.2038    2.6528 C   0  0  2  0  0  0  0  0  0  0  0  0
   11.8836   -2.7018    2.9816 C   0  0  2  0  0  0  0  0  0  0  0  0
   12.4044   -2.5407    4.2949 O   0  0  0  0  0  0  0  0  0  0  0  0
   10.4636   -2.1145    2.9017 C   0  0  1  0  0  0  0  0  0  0  0  0
   10.4440   -0.6605    3.2328 N   0  3  0  0  0  0  0  0  0  0  0  0
    9.8891   -2.3590    1.4849 C   0  0  2  0  0  0  0  0  0  0  0  0
    8.5620   -1.8469    1.3883 O   0  0  0  0  0  0  0  0  0  0  0  0
    9.9154   -3.8624    1.1524 C   0  0  2  0  0  0  0  0  0  0  0  0
   11.2738   -4.4062    1.3301 O   0  0  0  0  0  0  0  0  0  0  0  0
    9.5108   -4.1372   -0.2790 C   0  0  0  0  0  0  0  0  0  0  0  0
   10.4787   -3.6444   -1.2029 O   0  0  0  0  0  0  0  0  0  0  0  0
  1  2  1  6  0  0  0
  1  3  1  0  0  0  0
  1  9  1  0  0  0  0
  3  4  1  6  0  0  0
  3  5  1  0  0  0  0
  5  6  1  0  0  0  0
  6  7  1  6  0  0  0
  6  8  1  0  0  0  0
  8  9  1  0  0  0  0
  8 10  1  1  0  0  0
 10 11  1  0  0  0  0
 12 13  1  6  0  0  0
 12 14  1  0  0  0  0
 12 20  1  0  0  0  0
 14 15  1  0  0  0  0
 15 16  1  6  0  0  0
 15 17  1  0  0  0  0
 17  2  1  1  0  0  0
 17 18  1  0  0  0  0
 18 19  1  6  0  0  0
 18 20  1  0  0  0  0
 20 21  1  1  0  0  0
 22 21  1  1  0  0  0
 22 23  1  0  0  0  0
 22 30  1  0  0  0  0
 23 24  1  1  0  0  0
 23 25  1  0  0  0  0
 25 26  1  6  0  0  0
 25 27  1  0  0  0  0
 27 28  1  1  0  0  0
 27 29  1  0  0  0  0
 29 30  1  0  0  0  0
 29 31  1  6  0  0  0
 31 32  1  0  0  0  0
M  CHG  5   4   1  11   1  13   1  16   1  26   1
M  END
>  <CHROM.1>
-88.43533155,-92.60087788,-177.47592418,156.51822333,47.31680625,-106.43580070
-152.53251911,67.94347652,-170.96723474,82.72652702,-131.23907252,-73.67649427
-177.64565062,-178.65765467,67.82377724,-172.75666998,10.05921563,-6.74545695
4.33215118,-1.90974199,-0.55510323,-0.71965106

>  <Name>
1lc4

>  <RI>
0

>  <Rbt.Current_Directory>
/home/afrankz/demos/rdock_decoys_rna/rnas/1lc4

>  <Rbt.Executable>
rbdock ($Id: //depot/dev/client3/rdock/2013.1/src/exe/rbdock.cxx#4 $)

>  <Rbt.Library>
libRbt.so (2013.1, Build901 2013/11/27)

>  <Rbt.Parameter_File>
/export/apps/rDock/src/rDock_2013.1_src/data/scripts/dock_solv.prm

>  <Rbt.Receptor>
prm/blind_docking_20.prm

>  <SCORE>
-36.5662

>  <SCORE.INTER>
-28.3763

>  <SCORE.INTER.CONST>
1

>  <SCORE.INTER.POLAR>
-4.41388

>  <SCORE.INTER.ROT>
6

>  <SCORE.INTER.SOLV>
26.4453

>  <SCORE.INTER.VDW>
-20.6197

>  <SCORE.INTER.norm>
-0.886759

>  <SCORE.INTRA>
-13.9993

>  <SCORE.INTRA.DIHEDRAL>
-18.2966

>  <SCORE.INTRA.DIHEDRAL.0>
44.2576

>  <SCORE.INTRA.POLAR>
-1.73065

>  <SCORE.INTRA.POLAR.0>
-0.381556

>  <SCORE.INTRA.REPUL>
0

>  <SCORE.INTRA.REPUL.0>
0

>  <SCORE.INTRA.SOLV>
4.52365

>  <SCORE.INTRA.SOLV.lig_0>
-134.592

>  <SCORE.INTRA.VDW>
-1.2286

>  <SCORE.INTRA.VDW.0>
-1.01417

>  <SCORE.INTRA.norm>
-0.437478

>  <SCORE.RESTR>
5.8094

>  <SCORE.RESTR.CAVITY>
5.8094

>  <SCORE.RESTR.norm>
0.181544

>  <SCORE.SYSTEM>
0

>  <SCORE.SYSTEM.CONST>
0

>  <SCORE.SYSTEM.DIHEDRAL>
0

>  <SCORE.SYSTEM.SOLV>
0

>  <SCORE.SYSTEM.norm>
0

>  <SCORE.heavy>
32

>  <SCORE.norm>
-1.14269

>  <RMSD>
30.368

$$$$
1lc4
 OpenBabel02141814113D
libRbt.so/2013.1/901 2013/11/27
 32 34  0  0  0  0  0  0  0  0999 V2000
   10.2427   -9.6863    5.5294 C   0  0  2  0  0  0  0  0  0  0  0  0
    9.9780   -8.5301    4.7750 O   0  0  0  0  0  0  0  0  0  0  0  0
    9.6627  -10.8975    4.7708 C   0  0  2  0  0  0  0  0  0  0  0  0
   10.2530  -10.9909    3.4320 N   0  3  0  0  0  0  0  0  0  0  0  0
    8.1210  -10.7934    4.7016 C   0  0  0  0  0  0  0  0  0  0  0  0
    7.5952  -10.7407    6.1468 C   0  0  2  0  0  0  0  0  0  0  0  0
    6.1645  -10.6922    6.1560 O   0  0  0  0  0  0  0  0  0  0  0  0
    8.2042   -9.5126    6.8680 C   0  0  2  0  0  0  0  0  0  0  0  0
    9.6585   -9.5815    6.8465 O   0  0  0  0  0  0  0  0  0  0  0  0
    7.7868   -9.3974    8.3320 C   0  0  0  0  0  0  0  0  0  0  0  0
    8.0535   -8.0344    8.8620 N   0  3  0  0  0  0  0  0  0  0  0  0
   12.3284   -5.0163    5.0734 C   0  0  2  0  0  0  0  0  0  0  0  0
   13.3703   -3.9957    4.8576 N   0  3  0  0  0  0  0  0  0  0  0  0
   12.9692   -6.3239    5.5184 C   0  0  0  0  0  0  0  0  0  0  0  0
   11.8959   -7.3948    5.7426 C   0  0  2  0  0  0  0  0  0  0  0  0
   12.5522   -8.6096    6.2869 N   0  3  0  0  0  0  0  0  0  0  0  0
   11.0665   -7.6432    4.4473 C   0  0  2  0  0  0  0  0  0  0  0  0
   10.4600   -6.3030    3.9578 C   0  0  2  0  0  0  0  0  0  0  0  0
    9.8511   -6.4957    2.7040 O   0  0  0  0  0  0  0  0  0  0  0  0
   11.5558   -5.2403    3.7750 C   0  0  1  0  0  0  0  0  0  0  0  0
   10.9486   -4.0184    3.3563 O   0  0  0  0  0  0  0  0  0  0  0  0
   11.6593   -3.2292    2.4657 C   0  0  2  0  0  0  0  0  0  0  0  0
   10.8559   -1.9470    2.1885 C   0  0  2  0  0  0  0  0  0  0  0  0
   10.6588   -1.2598    3.4177 O   0  0  0  0  0  0  0  0  0  0  0  0
    9.4976   -2.3179    1.5679 C   0  0  1  0  0  0  0  0  0  0  0  0
    8.6630   -1.1122    1.2961 N   0  3  0  0  0  0  0  0  0  0  0  0
    9.7337   -3.1224    0.2664 C   0  0  2  0  0  0  0  0  0  0  0  0
    8.4905   -3.5026   -0.3189 O   0  0  0  0  0  0  0  0  0  0  0  0
   10.5975   -4.3637    0.5576 C   0  0  2  0  0  0  0  0  0  0  0  0
   11.8476   -3.9746    1.2348 O   0  0  0  0  0  0  0  0  0  0  0  0
   10.9870   -5.0970   -0.7067 C   0  0  0  0  0  0  0  0  0  0  0  0
   12.2221   -4.6173   -1.2336 O   0  0  0  0  0  0  0  0  0  0  0  0
  1  2  1  6  0  0  0
  1  3  1  0  0  0  0
  1  9  1  0  0  0  0
  3  4  1  6  0  0  0
  3  5  1  0  0  0  0
  5  6  1  0  0  0  0
  6  7  1  6  0  0  0
  6  8  1  0  0  0  0
  8  9  1  0  0  0  0
  8 10  1  1  0  0  0
 10 11  1  0  0  0  0
 12 13  1  6  0  0  0
 12 14  1  0  0  0  0
 12 20  1  0  0  0  0
 14 15  1  0  0  0  0
 15 16  1  6  0  0  0
 15 17  1  0  0  0  0
 17  2  1  1  0  0  0
 17 18  1  0  0  0  0
 18 19  1  6  0  0  0
 18 20  1  0  0  0  0
 20 21  1  1  0  0  0
 22 21  1  1  0  0  0
 22 23  1  0  0  0  0
 22 30  1  0  0  0  0
 23 24  1  1  0  0  0
 23 25  1  0  0  0  0
 25 26  1  6  0  0  0
 25 27  1  0  0  0  0
 27 28  1  1  0  0  0
 27 29  1  0  0  0  0
 29 30  1  0  0  0  0
 29 31  1  6  0  0  0
 31 32  1  0  0  0  0
M  CHG  5   4   1  11   1  13   1  16   1  26   1
M  END
>  <CHROM.1>
-127.35619828,-47.02100391,-89.54880809,-52.05205670,-163.38586615,-102.02278352
117.39995785,150.60516368,-62.86173995,93.30109862,-177.92884712,-36.61201057
-164.74846357,-64.96253196,90.38313898,67.72380126,10.23973195,-6.36556650
3.82638917,-1.88970808,-0.85215897,-0.88752501

>  <Name>
1lc4

>  <RI>
0

>  <Rbt.Current_Directory>
/home/afrankz/demos/rdock_decoys_rna/rnas/1lc4

>  <Rbt.Executable>
rbdock ($Id: //depot/dev/client3/rdock/2013.1/src/exe/rbdock.cxx#4 $)

>  <Rbt.Library>
libRbt.so (2013.1, Build901 2013/11/27)

>  <Rbt.Parameter_File>
/export/apps/rDock/src/rDock_2013.1_src/data/scripts/dock_solv.prm

>  <Rbt.Receptor>
prm/blind_docking_20.prm

>  <SCORE>
-40.9726

>  <SCORE.INTER>
-39.5697

>  <SCORE.INTER.CONST>
1

>  <SCORE.INTER.POLAR>
-5.00985

>  <SCORE.INTER.ROT>
6

>  <SCORE.INTER.SOLV>
28.5086

>  <SCORE.INTER.VDW>
-26.7831

>  <SCORE.INTER.norm>
-1.23655

>  <SCORE.INTRA>
-5.95332

>  <SCORE.INTRA.DIHEDRAL>
-14.972

>  <SCORE.INTRA.DIHEDRAL.0>
44.2576

>  <SCORE.INTRA.POLAR>
-0.273129

>  <SCORE.INTRA.POLAR.0>
-0.381556

>  <SCORE.INTRA.REPUL>
0

>  <SCORE.INTRA.REPUL.0>
0

>  <SCORE.INTRA.SOLV>
-2.04433

>  <SCORE.INTRA.SOLV.lig_0>
-134.592

>  <SCORE.INTRA.VDW>
3.48348

>  <SCORE.INTRA.VDW.0>
-1.01417

>  <SCORE.INTRA.norm>
-0.186041

>  <SCORE.RESTR>
4.55044

>  <SCORE.RESTR.CAVITY>
4.55044

>  <SCORE.RESTR.norm>
0.142201

>  <SCORE.SYSTEM>
0

>  <SCORE.SYSTEM.CONST>
0

>  <SCORE.SYSTEM.DIHEDRAL>
0

>  <SCORE.SYSTEM.SOLV>
0

>  <SCORE.SYSTEM.norm>
0

>  <SCORE.heavy>
32

>  <SCORE.norm>
-1.28039

>  <RMSD>
30.426

$$$$
1lc4
 OpenBabel02141814113D
libRbt.so/2013.1/901 2013/11/27
 32 34  0  0  0  0  0  0  0  0999 V2000
   12.1897  -12.0015   10.9339 C   0  0  2  0  0  0  0  0  0  0  0  0
   11.9124  -12.0431   12.3114 O   0  0  0  0  0  0  0  0  0  0  0  0
   12.8782  -13.3251   10.5427 C   0  0  2  0  0  0  0  0  0  0  0  0
   12.0187  -14.4650   10.8767 N   0  3  0  0  0  0  0  0  0  0  0  0
   14.2554  -13.4342   11.2383 C   0  0  0  0  0  0  0  0  0  0  0  0
   15.0940  -12.2217   10.7975 C   0  0  2  0  0  0  0  0  0  0  0  0
   16.4045  -12.2864   11.3699 O   0  0  0  0  0  0  0  0  0  0  0  0
   14.3644  -10.9186   11.2088 C   0  0  2  0  0  0  0  0  0  0  0  0
   13.0348  -10.8735   10.6170 O   0  0  0  0  0  0  0  0  0  0  0  0
   15.0898   -9.6496   10.7683 C   0  0  0  0  0  0  0  0  0  0  0  0
   15.2620   -9.6129    9.2923 N   0  3  0  0  0  0  0  0  0  0  0  0
    9.7747   -9.9322   15.3004 C   0  0  2  0  0  0  0  0  0  0  0  0
    8.7677   -9.1125   15.9989 N   0  3  0  0  0  0  0  0  0  0  0  0
   10.4469   -9.1083   14.2105 C   0  0  0  0  0  0  0  0  0  0  0  0
   11.4940   -9.9511   13.4740 C   0  0  2  0  0  0  0  0  0  0  0  0
   12.2027   -9.0773   12.5061 N   0  3  0  0  0  0  0  0  0  0  0  0
   10.8521  -11.2199   12.8374 C   0  0  2  0  0  0  0  0  0  0  0  0
   10.1164  -12.0318   13.9345 C   0  0  2  0  0  0  0  0  0  0  0  0
    9.4006  -13.0849   13.3357 O   0  0  0  0  0  0  0  0  0  0  0  0
    9.0981  -11.1515   14.6771 C   0  0  1  0  0  0  0  0  0  0  0  0
    8.4709  -11.9301   15.6956 O   0  0  0  0  0  0  0  0  0  0  0  0
    7.2683  -12.5414   15.3769 C   0  0  2  0  0  0  0  0  0  0  0  0
    6.1255  -11.5375   15.6058 C   0  0  2  0  0  0  0  0  0  0  0  0
    6.3444  -10.4031   14.7768 O   0  0  0  0  0  0  0  0  0  0  0  0
    6.1047  -11.1137   17.0849 C   0  0  1  0  0  0  0  0  0  0  0  0
    5.0270  -10.1212   17.3636 N   0  3  0  0  0  0  0  0  0  0  0  0
    5.9323  -12.3698   17.9734 C   0  0  2  0  0  0  0  0  0  0  0  0
    5.9348  -12.0105   19.3532 O   0  0  0  0  0  0  0  0  0  0  0  0
    7.0485  -13.3885   17.6768 C   0  0  2  0  0  0  0  0  0  0  0  0
    7.0948  -13.6978   16.2364 O   0  0  0  0  0  0  0  0  0  0  0  0
    6.8352  -14.6968   18.4053 C   0  0  0  0  0  0  0  0  0  0  0  0
    5.8954  -15.5286   17.7283 O   0  0  0  0  0  0  0  0  0  0  0  0
  1  2  1  1  0  0  0
  1  3  1  0  0  0  0
  1  9  1  0  0  0  0
  3  4  1  1  0  0  0
  3  5  1  0  0  0  0
  5  6  1  0  0  0  0
  6  7  1  1  0  0  0
  6  8  1  0  0  0  0
  8  9  1  0  0  0  0
  8 10  1  6  0  0  0
 10 11  1  0  0  0  0
 12 13  1  6  0  0  0
 12 14  1  0  0  0  0
 12 20  1  0  0  0  0
 14 15  1  0  0  0  0
 15 16  1  6  0  0  0
 15 17  1  0  0  0  0
 17  2  1  1  0  0  0
 17 18  1  0  0  0  0
 18 19  1  6  0  0  0
 18 20  1  0  0  0  0
 20 21  1  1  0  0  0
 22 21  1  1  0  0  0
 22 23  1  0  0  0  0
 22 30  1  0  0  0  0
 23 24  1  6  0  0  0
 23 25  1  0  0  0  0
 25 26  1  6  0  0  0
 25 27  1  0  0  0  0
 27 28  1  1  0  0  0
 27 29  1  0  0  0  0
 29 30  1  0  0  0  0
 29 31  1  1  0  0  0
 31 32  1  0  0  0  0
M  CHG  5   4   1  11   1  13   1  16   1  26   1
M  END
>  <CHROM.1>
-156.13034318,-99.97522457,133.06724204,63.70749448,58.87563404,-172.67660084
82.83990571,-10.96564570,81.13737368,143.80181650,-85.15990265,175.58667023
-58.69264843,178.36953935,80.68041099,63.28532262,10.06795444,-11.71413973
14.04978853,-0.09780321,-0.68685961,3.13447780

>  <Name>
1lc4

>  <RI>
0

>  <Rbt.Current_Directory>
/home/afrankz/demos/rdock_decoys_rna/rnas/1lc4

>  <Rbt.Executable>
rbdock ($Id: //depot/dev/client3/rdock/2013.1/src/exe/rbdock.cxx#4 $)

>  <Rbt.Library>
libRbt.so (2013.1, Build901 2013/11/27)

>  <Rbt.Parameter_File>
/export/apps/rDock/src/rDock_2013.1_src/data/scripts/dock_solv.prm

>  <Rbt.Receptor>
prm/blind_docking_40.prm

>  <SCORE>
-11.8727

>  <SCORE.INTER>
-5.28179

>  <SCORE.INTER.CONST>
1

>  <SCORE.INTER.POLAR>
-1.57704

>  <SCORE.INTER.ROT>
6

>  <SCORE.INTER.SOLV>
21.3289

>  <SCORE.INTER.VDW>
-12.974

>  <SCORE.INTER.norm>
-0.165056

>  <SCORE.INTRA>
-13.7458

>  <SCORE.INTRA.DIHEDRAL>
-17.5392

>  <SCORE.INTRA.DIHEDRAL.0>
44.2576

>  <SCORE.INTRA.POLAR>
-1.42019

>  <SCORE.INTRA.POLAR.0>
-0.381556

>  <SCORE.INTRA.REPUL>
0.0094766

>  <SCORE.INTRA.REPUL.0>
0

>  <SCORE.INTRA.SOLV>
4.91111

>  <SCORE.INTRA.SOLV.lig_0>
-134.592

>  <SCORE.INTRA.VDW>
-2.65046

>  <SCORE.INTRA.VDW.0>
-1.01417

>  <SCORE.INTRA.norm>
-0.429555

>  <SCORE.RESTR>
7.15483

>  <SCORE.RESTR.CAVITY>
7.15483

>  <SCORE.RESTR.norm>
0.223588

>  <SCORE.SYSTEM>
0

>  <SCORE.SYSTEM.CONST>
0

>  <SCORE.SYSTEM.DIHEDRAL>
0

>  <SCORE.SYSTEM.SOLV>
0

>  <SCORE.SYSTEM.norm>
0

>  <SCORE.heavy>
32

>  <SCORE.norm>
-0.371023

>  <RMSD>
30.504

$$$$
1lc4
 OpenBabel02141814113D
libRbt.so/2013.1/901 2013/11/27
 32 34  0  0  0  0  0  0  0  0999 V2000
   11.3099   -9.0011    5.3740 C   0  0  2  0  0  0  0  0  0  0  0  0
   10.8546   -7.9349    4.5791 O   0  0  0  0  0  0  0  0  0  0  0  0
   11.0082  -10.3177    4.6294 C   0  0  2  0  0  0  0  0  0  0  0  0
   11.6580  -10.3206    3.3151 N   0  3  0  0  0  0  0  0  0  0  0  0
    9.4798  -10.5196    4.5034 C   0  0  0  0  0  0  0  0  0  0  0  0
    8.8970  -10.5419    5.9273 C   0  0  2  0  0  0  0  0  0  0  0  0
    7.4851  -10.7749    5.8852 O   0  0  0  0  0  0  0  0  0  0  0  0
    9.2252   -9.2038    6.6352 C   0  0  2  0  0  0  0  0  0  0  0  0
   10.6646   -8.9864    6.6665 O   0  0  0  0  0  0  0  0  0  0  0  0
    8.7355   -9.1431    8.0799 C   0  0  0  0  0  0  0  0  0  0  0  0
    7.2801   -8.8474    8.1429 N   0  3  0  0  0  0  0  0  0  0  0  0
   12.2933   -3.9624    4.2479 C   0  0  2  0  0  0  0  0  0  0  0  0
   13.1231   -2.7866    3.9272 N   0  3  0  0  0  0  0  0  0  0  0  0
   13.0684   -4.9118    5.1514 C   0  0  0  0  0  0  0  0  0  0  0  0
   12.2172   -6.1408    5.4892 C   0  0  2  0  0  0  0  0  0  0  0  0
   12.9647   -6.9757    6.4623 N   0  3  0  0  0  0  0  0  0  0  0  0
   11.7823   -6.8987    4.1993 C   0  0  2  0  0  0  0  0  0  0  0  0
   11.0435   -5.9203    3.2503 C   0  0  2  0  0  0  0  0  0  0  0  0
   10.7969   -6.5585    2.0207 O   0  0  0  0  0  0  0  0  0  0  0  0
   11.9080   -4.6832    2.9576 C   0  0  1  0  0  0  0  0  0  0  0  0
   11.1765   -3.7990    2.1093 O   0  0  0  0  0  0  0  0  0  0  0  0
   10.6440   -4.3316    0.9456 C   0  0  2  0  0  0  0  0  0  0  0  0
   11.1385   -3.5019   -0.2515 C   0  0  2  0  0  0  0  0  0  0  0  0
   12.5593   -3.5524   -0.2834 O   0  0  0  0  0  0  0  0  0  0  0  0
   10.6660   -2.0458   -0.0956 C   0  0  1  0  0  0  0  0  0  0  0  0
   11.1351   -1.1858   -1.2200 N   0  3  0  0  0  0  0  0  0  0  0  0
    9.1212   -2.0184    0.0041 C   0  0  2  0  0  0  0  0  0  0  0  0
    8.6548   -0.6820    0.1750 O   0  0  0  0  0  0  0  0  0  0  0  0
    8.6473   -2.9105    1.1665 C   0  0  2  0  0  0  0  0  0  0  0  0
    9.1964   -4.2715    1.0291 O   0  0  0  0  0  0  0  0  0  0  0  0
    7.1409   -3.0415    1.2076 C   0  0  0  0  0  0  0  0  0  0  0  0
    6.5358   -1.9424    1.8852 O   0  0  0  0  0  0  0  0  0  0  0  0
  1  2  1  6  0  0  0
  1  3  1  0  0  0  0
  1  9  1  0  0  0  0
  3  4  1  6  0  0  0
  3  5  1  0  0  0  0
  5  6  1  0  0  0  0
  6  7  1  6  0  0  0
  6  8  1  0  0  0  0
  8  9  1  0  0  0  0
  8 10  1  1  0  0  0
 10 11  1  0  0  0  0
 12 13  1  6  0  0  0
 12 14  1  0  0  0  0
 12 20  1  0  0  0  0
 14 15  1  0  0  0  0
 15 16  1  1  0  0  0
 15 17  1  0  0  0  0
 17  2  1  1  0  0  0
 17 18  1  0  0  0  0
 18 19  1  6  0  0  0
 18 20  1  0  0  0  0
 20 21  1  6  0  0  0
 22 21  1  1  0  0  0
 22 23  1  0  0  0  0
 22 30  1  0  0  0  0
 23 24  1  1  0  0  0
 23 25  1  0  0  0  0
 25 26  1  6  0  0  0
 25 27  1  0  0  0  0
 27 28  1  1  0  0  0
 27 29  1  0  0  0  0
 29 30  1  0  0  0  0
 29 31  1  6  0  0  0
 31 32  1  0  0  0  0
M  CHG  5   4   1  11   1  13   1  16   1  26   1
M  END
>  <CHROM.1>
-123.70660270,-65.78989960,-179.86006460,51.54740693,-79.16845551,-34.91672869
47.09203079,165.04605277,-72.24218960,-174.27974585,-125.13909865,51.94348180
-176.81002712,-161.79852369,-83.58071580,-129.91017340,10.36983719,-5.84469406
3.36396979,-1.60265034,-0.05042831,-0.66945713

>  <Name>
1lc4

>  <RI>
0

>  <Rbt.Current_Directory>
/home/afrankz/demos/rdock_decoys_rna/rnas/1lc4

>  <Rbt.Executable>
rbdock ($Id: //depot/dev/client3/rdock/2013.1/src/exe/rbdock.cxx#4 $)

>  <Rbt.Library>
libRbt.so (2013.1, Build901 2013/11/27)

>  <Rbt.Parameter_File>
/export/apps/rDock/src/rDock_2013.1_src/data/scripts/dock_solv.prm

>  <Rbt.Receptor>
prm/blind_docking_20.prm

>  <SCORE>
-46.7341

>  <SCORE.INTER>
-40.6936

>  <SCORE.INTER.CONST>
1

>  <SCORE.INTER.POLAR>
-5.41903

>  <SCORE.INTER.ROT>
6

>  <SCORE.INTER.SOLV>
25.247

>  <SCORE.INTER.VDW>
-25.0813

>  <SCORE.INTER.norm>
-1.27168

>  <SCORE.INTRA>
-11.0652

>  <SCORE.INTRA.DIHEDRAL>
-14.7713

>  <SCORE.INTRA.DIHEDRAL.0>
44.2576

>  <SCORE.INTRA.POLAR>
-1.48127

>  <SCORE.INTRA.POLAR.0>
-0.381556

>  <SCORE.INTRA.REPUL>
0

>  <SCORE.INTRA.REPUL.0>
0

>  <SCORE.INTRA.SOLV>
-2.18368

>  <SCORE.INTRA.SOLV.lig_0>
-134.592

>  <SCORE.INTRA.VDW>
2.44865

>  <SCORE.INTRA.VDW.0>
-1.01417

>  <SCORE.INTRA.norm>
-0.345787

>  <SCORE.RESTR>
5.02468

>  <SCORE.RESTR.CAVITY>
5.02468

>  <SCORE.RESTR.norm>
0.157021

>  <SCORE.SYSTEM>
0

>  <SCORE.SYSTEM.CONST>
0

>  <SCORE.SYSTEM.DIHEDRAL>
0

>  <SCORE.SYSTEM.SOLV>
0

>  <SCORE.SYSTEM.norm>
0

>  <SCORE.heavy>
32

>  <SCORE.norm>
-1.46044

>  <RMSD>
30.521

$$$$
1lc4
 OpenBabel02141814113D
libRbt.so/2013.1/901 2013/11/27
 32 34  0  0  0  0  0  0  0  0999 V2000
   11.2165   -7.7992    7.9109 C   0  0  2  0  0  0  0  0  0  0  0  0
   10.5770   -8.6092    6.9565 O   0  0  0  0  0  0  0  0  0  0  0  0
   12.0248   -8.7146    8.8531 C   0  0  2  0  0  0  0  0  0  0  0  0
   12.9969   -9.5021    8.0886 N   0  3  0  0  0  0  0  0  0  0  0  0
   11.0691   -9.6260    9.6584 C   0  0  0  0  0  0  0  0  0  0  0  0
   10.1189   -8.7130   10.4531 C   0  0  2  0  0  0  0  0  0  0  0  0
    9.2346   -9.4960   11.2619 O   0  0  0  0  0  0  0  0  0  0  0  0
    9.3317   -7.8132    9.4681 C   0  0  2  0  0  0  0  0  0  0  0  0
   10.2492   -7.0268    8.6557 O   0  0  0  0  0  0  0  0  0  0  0  0
    8.3947   -6.8267   10.1606 C   0  0  0  0  0  0  0  0  0  0  0  0
    9.0525   -6.1919   11.3328 N   0  3  0  0  0  0  0  0  0  0  0  0
   10.9321   -7.6022    2.8553 C   0  0  2  0  0  0  0  0  0  0  0  0
   10.6683   -7.0606    1.5096 N   0  3  0  0  0  0  0  0  0  0  0  0
    9.8391   -8.5906    3.2386 C   0  0  0  0  0  0  0  0  0  0  0  0
   10.1001   -9.1583    4.6382 C   0  0  2  0  0  0  0  0  0  0  0  0
    9.0809  -10.1997    4.9193 N   0  3  0  0  0  0  0  0  0  0  0  0
   10.1652   -8.0243    5.7047 C   0  0  2  0  0  0  0  0  0  0  0  0
   11.2370   -6.9846    5.2876 C   0  0  2  0  0  0  0  0  0  0  0  0
   11.1818   -5.8812    6.1592 O   0  0  0  0  0  0  0  0  0  0  0  0
   10.9676   -6.4594    3.8681 C   0  0  1  0  0  0  0  0  0  0  0  0
   11.9943   -5.5327    3.5161 O   0  0  0  0  0  0  0  0  0  0  0  0
   11.7442   -4.1895    3.7498 C   0  0  2  0  0  0  0  0  0  0  0  0
   10.8996   -3.6332    2.5907 C   0  0  2  0  0  0  0  0  0  0  0  0
    9.6816   -4.3641    2.5244 O   0  0  0  0  0  0  0  0  0  0  0  0
   11.6776   -3.7840    1.2718 C   0  0  1  0  0  0  0  0  0  0  0  0
   10.8973   -3.2794    0.1053 N   0  3  0  0  0  0  0  0  0  0  0  0
   13.0289   -3.0373    1.3880 C   0  0  2  0  0  0  0  0  0  0  0  0
   13.7844   -3.1809    0.1874 O   0  0  0  0  0  0  0  0  0  0  0  0
   13.8257   -3.5644    2.5959 C   0  0  2  0  0  0  0  0  0  0  0  0
   13.0126   -3.4882    3.8229 O   0  0  0  0  0  0  0  0  0  0  0  0
   15.0823   -2.7602    2.8452 C   0  0  0  0  0  0  0  0  0  0  0  0
   15.9818   -2.8343    1.7412 O   0  0  0  0  0  0  0  0  0  0  0  0
  1  2  1  6  0  0  0
  1  3  1  0  0  0  0
  1  9  1  0  0  0  0
  3  4  1  6  0  0  0
  3  5  1  0  0  0  0
  5  6  1  0  0  0  0
  6  7  1  6  0  0  0
  6  8  1  0  0  0  0
  8  9  1  0  0  0  0
  8 10  1  1  0  0  0
 10 11  1  0  0  0  0
 12 13  1  6  0  0  0
 12 14  1  0  0  0  0
 12 20  1  0  0  0  0
 14 15  1  0  0  0  0
 15 16  1  1  0  0  0
 15 17  1  0  0  0  0
 17  2  1  1  0  0  0
 17 18  1  0  0  0  0
 18 19  1  1  0  0  0
 18 20  1  0  0  0  0
 20 21  1  6  0  0  0
 22 21  1  6  0  0  0
 22 23  1  0  0  0  0
 22 30  1  0  0  0  0
 23 24  1  6  0  0  0
 23 25  1  0  0  0  0
 25 26  1  6  0  0  0
 25 27  1  0  0  0  0
 27 28  1  6  0  0  0
 27 29  1  0  0  0  0
 29 30  1  0  0  0  0
 29 31  1  1  0  0  0
 31 32  1  0  0  0  0
M  CHG  5   4   1  11   1  13   1  16   1  26   1
M  END
>  <CHROM.1>
-157.89299675,154.85799718,-170.13510090,69.55325889,43.25129595,62.84674418
-36.90518927,-69.62423844,-85.92989154,144.08130803,-81.66625079,172.51537699
-173.42264543,-50.41180376,-62.14984557,-55.85090922,11.25382990,-6.36100932
5.21029477,-2.07160577,-0.92206345,-1.43262356

>  <Name>
1lc4

>  <RI>
0

>  <Rbt.Current_Directory>
/home/afrankz/demos/rdock_decoys_rna/rnas/1lc4

>  <Rbt.Executable>
rbdock ($Id: //depot/dev/client3/rdock/2013.1/src/exe/rbdock.cxx#4 $)

>  <Rbt.Library>
libRbt.so (2013.1, Build901 2013/11/27)

>  <Rbt.Parameter_File>
/export/apps/rDock/src/rDock_2013.1_src/data/scripts/dock_solv.prm

>  <Rbt.Receptor>
prm/blind_docking_20.prm

>  <SCORE>
-34.6176

>  <SCORE.INTER>
-26.5423

>  <SCORE.INTER.CONST>
1

>  <SCORE.INTER.POLAR>
-3.05038

>  <SCORE.INTER.ROT>
6

>  <SCORE.INTER.SOLV>
28.417

>  <SCORE.INTER.VDW>
-24.5993

>  <SCORE.INTER.norm>
-0.829447

>  <SCORE.INTRA>
-14.4636

>  <SCORE.INTRA.DIHEDRAL>
-25.764

>  <SCORE.INTRA.DIHEDRAL.0>
44.2576

>  <SCORE.INTRA.POLAR>
-0.555051

>  <SCORE.INTRA.POLAR.0>
-0.381556

>  <SCORE.INTRA.REPUL>
0

>  <SCORE.INTRA.REPUL.0>
0

>  <SCORE.INTRA.SOLV>
0.668867

>  <SCORE.INTRA.SOLV.lig_0>
-134.592

>  <SCORE.INTRA.VDW>
-0.0289169

>  <SCORE.INTRA.VDW.0>
-1.01417

>  <SCORE.INTRA.norm>
-0.451989

>  <SCORE.RESTR>
6.38834

>  <SCORE.RESTR.CAVITY>
6.38834

>  <SCORE.RESTR.norm>
0.199636

>  <SCORE.SYSTEM>
0

>  <SCORE.SYSTEM.CONST>
0

>  <SCORE.SYSTEM.DIHEDRAL>
0

>  <SCORE.SYSTEM.SOLV>
0

>  <SCORE.SYSTEM.norm>
0

>  <SCORE.heavy>
32

>  <SCORE.norm>
-1.0818

>  <RMSD>
30.619

$$$$
1lc4
 OpenBabel02141814113D
libRbt.so/2013.1/901 2013/11/27
 32 34  0  0  0  0  0  0  0  0999 V2000
    8.6572   -8.8467    7.1351 C   0  0  2  0  0  0  0  0  0  0  0  0
    9.8886   -9.0620    7.7780 O   0  0  0  0  0  0  0  0  0  0  0  0
    7.5628   -8.7424    8.2170 C   0  0  2  0  0  0  0  0  0  0  0  0
    7.8711   -7.6550    9.1508 N   0  3  0  0  0  0  0  0  0  0  0  0
    7.4131  -10.0938    8.9543 C   0  0  0  0  0  0  0  0  0  0  0  0
    7.0533  -11.1577    7.9025 C   0  0  2  0  0  0  0  0  0  0  0  0
    6.8520  -12.4297    8.5276 O   0  0  0  0  0  0  0  0  0  0  0  0
    8.1772  -11.2256    6.8386 C   0  0  2  0  0  0  0  0  0  0  0  0
    8.3657   -9.9228    6.2163 O   0  0  0  0  0  0  0  0  0  0  0  0
    7.8918  -12.2178    5.7140 C   0  0  0  0  0  0  0  0  0  0  0  0
    7.1220  -13.3881    6.2112 N   0  3  0  0  0  0  0  0  0  0  0  0
   13.2619   -7.2021    6.0112 C   0  0  2  0  0  0  0  0  0  0  0  0
   14.5027   -6.9642    5.2512 N   0  3  0  0  0  0  0  0  0  0  0  0
   13.5230   -8.2043    7.1274 C   0  0  0  0  0  0  0  0  0  0  0  0
   12.2388   -8.4629    7.9232 C   0  0  2  0  0  0  0  0  0  0  0  0
   12.5669   -9.3493    9.0675 N   0  3  0  0  0  0  0  0  0  0  0  0
   11.1030   -9.0021    7.0031 C   0  0  2  0  0  0  0  0  0  0  0  0
   10.8741   -8.0125    5.8318 C   0  0  2  0  0  0  0  0  0  0  0  0
    9.9681   -8.5758    4.9143 O   0  0  0  0  0  0  0  0  0  0  0  0
   12.1854   -7.7471    5.0747 C   0  0  1  0  0  0  0  0  0  0  0  0
   11.9332   -6.8088    4.0294 O   0  0  0  0  0  0  0  0  0  0  0  0
   10.9902   -5.8232    4.2753 C   0  0  2  0  0  0  0  0  0  0  0  0
   10.1201   -5.6446    3.0193 C   0  0  2  0  0  0  0  0  0  0  0  0
    9.4844   -6.8825    2.7272 O   0  0  0  0  0  0  0  0  0  0  0  0
   11.0080   -5.2159    1.8380 C   0  0  1  0  0  0  0  0  0  0  0  0
   10.2201   -5.0475    0.5830 N   0  3  0  0  0  0  0  0  0  0  0  0
   11.7420   -3.9021    2.2015 C   0  0  2  0  0  0  0  0  0  0  0  0
   12.5934   -3.4930    1.1335 O   0  0  0  0  0  0  0  0  0  0  0  0
   12.5508   -4.0862    3.4991 C   0  0  2  0  0  0  0  0  0  0  0  0
   11.6832   -4.5853    4.5811 O   0  0  0  0  0  0  0  0  0  0  0  0
   13.1594   -2.7880    3.9809 C   0  0  0  0  0  0  0  0  0  0  0  0
   12.1974   -1.9703    4.6438 O   0  0  0  0  0  0  0  0  0  0  0  0
  1  2  1  1  0  0  0
  1  3  1  0  0  0  0
  1  9  1  0  0  0  0
  3  4  1  1  0  0  0
  3  5  1  0  0  0  0
  5  6  1  0  0  0  0
  6  7  1  1  0  0  0
  6  8  1  0  0  0  0
  8  9  1  0  0  0  0
  8 10  1  6  0  0  0
 10 11  1  0  0  0  0
 12 13  1  6  0  0  0
 12 14  1  0  0  0  0
 12 20  1  0  0  0  0
 14 15  1  0  0  0  0
 15 16  1  1  0  0  0
 15 17  1  0  0  0  0
 17  2  1  1  0  0  0
 17 18  1  0  0  0  0
 18 19  1  6  0  0  0
 18 20  1  0  0  0  0
 20 21  1  6  0  0  0
 22 21  1  6  0  0  0
 22 23  1  0  0  0  0
 22 30  1  0  0  0  0
 23 24  1  6  0  0  0
 23 25  1  0  0  0  0
 25 26  1  6  0  0  0
 25 27  1  0  0  0  0
 27 28  1  6  0  0  0
 27 29  1  0  0  0  0
 29 30  1  0  0  0  0
 29 31  1  1  0  0  0
 31 32  1  0  0  0  0
M  CHG  5   4   1  11   1  13   1  16   1  26   1
M  END
>  <CHROM.1>
-171.06942800,148.01000842,50.24921351,79.31867307,-33.18497089,100.96673302
9.95763527,41.98624015,164.35288707,-87.37963681,-138.12819702,-61.57731045
-75.59173798,-53.65792777,78.59499258,66.92273116,10.45130809,-7.64373955
5.52730107,2.14829891,0.60672493,2.17187469

>  <Name>
1lc4

>  <RI>
0

>  <Rbt.Current_Directory>
/home/afrankz/demos/rdock_decoys_rna/rnas/1lc4

>  <Rbt.Executable>
rbdock ($Id: //depot/dev/client3/rdock/2013.1/src/exe/rbdock.cxx#4 $)

>  <Rbt.Library>
libRbt.so (2013.1, Build901 2013/11/27)

>  <Rbt.Parameter_File>
/export/apps/rDock/src/rDock_2013.1_src/data/scripts/dock_solv.prm

>  <Rbt.Receptor>
prm/blind_docking_20.prm

>  <SCORE>
-37.8877

>  <SCORE.INTER>
-37.4222

>  <SCORE.INTER.CONST>
1

>  <SCORE.INTER.POLAR>
-5.42436

>  <SCORE.INTER.ROT>
6

>  <SCORE.INTER.SOLV>
28.4779

>  <SCORE.INTER.VDW>
-23.9596

>  <SCORE.INTER.norm>
-1.16945

>  <SCORE.INTRA>
-6.09668

>  <SCORE.INTRA.DIHEDRAL>
-16.696

>  <SCORE.INTRA.DIHEDRAL.0>
44.2576

>  <SCORE.INTRA.POLAR>
-0.803905

>  <SCORE.INTRA.POLAR.0>
-0.381556

>  <SCORE.INTRA.REPUL>
0.0409677

>  <SCORE.INTRA.REPUL.0>
0

>  <SCORE.INTRA.SOLV>
-1.49698

>  <SCORE.INTRA.SOLV.lig_0>
-134.592

>  <SCORE.INTRA.VDW>
5.52823

>  <SCORE.INTRA.VDW.0>
-1.01417

>  <SCORE.INTRA.norm>
-0.190521

>  <SCORE.RESTR>
5.63122

>  <SCORE.RESTR.CAVITY>
5.63122

>  <SCORE.RESTR.norm>
0.175976

>  <SCORE.SYSTEM>
0

>  <SCORE.SYSTEM.CONST>
0

>  <SCORE.SYSTEM.DIHEDRAL>
0

>  <SCORE.SYSTEM.SOLV>
0

>  <SCORE.SYSTEM.norm>
0

>  <SCORE.heavy>
32

>  <SCORE.norm>
-1.18399

>  <RMSD>
30.624

$$$$
1lc4
 OpenBabel02141814113D
libRbt.so/2013.1/901 2013/11/27
 32 34  0  0  0  0  0  0  0  0999 V2000
   11.2317   -7.6295    7.7337 C   0  0  2  0  0  0  0  0  0  0  0  0
   10.6530   -8.4382    6.7401 O   0  0  0  0  0  0  0  0  0  0  0  0
   12.1262   -8.5220    8.6181 C   0  0  2  0  0  0  0  0  0  0  0  0
   13.1535   -9.1796    7.8045 N   0  3  0  0  0  0  0  0  0  0  0  0
   11.2615   -9.5551    9.3780 C   0  0  0  0  0  0  0  0  0  0  0  0
   10.2457   -8.7724   10.2285 C   0  0  2  0  0  0  0  0  0  0  0  0
    9.4412   -9.6718   10.9985 O   0  0  0  0  0  0  0  0  0  0  0  0
    9.3730   -7.8913    9.3003 C   0  0  2  0  0  0  0  0  0  0  0  0
   10.2102   -6.9854    8.5267 O   0  0  0  0  0  0  0  0  0  0  0  0
    8.3628   -7.0287   10.0528 C   0  0  0  0  0  0  0  0  0  0  0  0
    8.9783   -6.4011   11.2516 N   0  3  0  0  0  0  0  0  0  0  0  0
   10.9091   -7.2731    2.6735 C   0  0  2  0  0  0  0  0  0  0  0  0
   10.6047   -6.6956    1.3516 N   0  3  0  0  0  0  0  0  0  0  0  0
    9.8626   -8.3184    3.0349 C   0  0  0  0  0  0  0  0  0  0  0  0
   10.1661   -8.9240    4.4098 C   0  0  2  0  0  0  0  0  0  0  0  0
    9.1939  -10.0157    4.6662 N   0  3  0  0  0  0  0  0  0  0  0  0
   10.2003   -7.8268    5.5154 C   0  0  2  0  0  0  0  0  0  0  0  0
   11.2231   -6.7299    5.1224 C   0  0  2  0  0  0  0  0  0  0  0  0
   11.1356   -5.6613    6.0336 O   0  0  0  0  0  0  0  0  0  0  0  0
   10.9127   -6.1664    3.7262 C   0  0  1  0  0  0  0  0  0  0  0  0
   11.8959   -5.1866    3.3947 O   0  0  0  0  0  0  0  0  0  0  0  0
   11.4970   -3.8591    3.4031 C   0  0  2  0  0  0  0  0  0  0  0  0
   11.1738   -3.4290    1.9620 C   0  0  2  0  0  0  0  0  0  0  0  0
   10.1338   -4.2601    1.4622 O   0  0  0  0  0  0  0  0  0  0  0  0
   12.4324   -3.5766    1.0891 C   0  0  1  0  0  0  0  0  0  0  0  0
   12.1736   -3.1931   -0.3286 N   0  3  0  0  0  0  0  0  0  0  0  0
   13.5723   -2.7165    1.6873 C   0  0  2  0  0  0  0  0  0  0  0  0
   14.7612   -2.8533    0.9124 O   0  0  0  0  0  0  0  0  0  0  0  0
   13.8303   -3.1191    3.1512 C   0  0  2  0  0  0  0  0  0  0  0  0
   12.5818   -3.0530    3.9319 O   0  0  0  0  0  0  0  0  0  0  0  0
   14.8261   -2.2034    3.8277 C   0  0  0  0  0  0  0  0  0  0  0  0
   14.4277   -1.8852    5.1593 O   0  0  0  0  0  0  0  0  0  0  0  0
  1  2  1  6  0  0  0
  1  3  1  0  0  0  0
  1  9  1  0  0  0  0
  3  4  1  6  0  0  0
  3  5  1  0  0  0  0
  5  6  1  0  0  0  0
  6  7  1  6  0  0  0
  6  8  1  0  0  0  0
  8  9  1  0  0  0  0
  8 10  1  1  0  0  0
 10 11  1  0  0  0  0
 12 13  1  6  0  0  0
 12 14  1  0  0  0  0
 12 20  1  0  0  0  0
 14 15  1  0  0  0  0
 15 16  1  1  0  0  0
 15 17  1  0  0  0  0
 17  2  1  1  0  0  0
 17 18  1  0  0  0  0
 18 19  1  1  0  0  0
 18 20  1  0  0  0  0
 20 21  1  6  0  0  0
 22 21  1  6  0  0  0
 22 23  1  0  0  0  0
 22 30  1  0  0  0  0
 23 24  1  6  0  0  0
 23 25  1  0  0  0  0
 25 26  1  6  0  0  0
 25 27  1  0  0  0  0
 27 28  1  6  0  0  0
 27 29  1  0  0  0  0
 29 30  1  0  0  0  0
 29 31  1  1  0  0  0
 31 32  1  0  0  0  0
M  CHG  5   4   1  11   1  13   1  16   1  26   1
M  END
>  <CHROM.1>
-156.78173827,156.99252269,-172.57743142,-58.85953557,43.43467173,-58.09434983
-156.10267435,162.57990892,-171.49672680,130.41158865,-98.00120921,60.66595407
177.95969451,-68.14380609,138.37310557,-54.99494988,11.33086455,-6.14245127
5.20806630,-2.13317114,-1.00047974,-1.45786981

>  <Name>
1lc4

>  <RI>
0

>  <Rbt.Current_Directory>
/home/afrankz/demos/rdock_decoys_rna/rnas/1lc4

>  <Rbt.Executable>
rbdock ($Id: //depot/dev/client3/rdock/2013.1/src/exe/rbdock.cxx#4 $)

>  <Rbt.Library>
libRbt.so (2013.1, Build901 2013/11/27)

>  <Rbt.Parameter_File>
/export/apps/rDock/src/rDock_2013.1_src/data/scripts/dock_solv.prm

>  <Rbt.Receptor>
prm/blind_docking_20.prm

>  <SCORE>
-35.2571

>  <SCORE.INTER>
-31.9919

>  <SCORE.INTER.CONST>
1

>  <SCORE.INTER.POLAR>
-4.45726

>  <SCORE.INTER.ROT>
6

>  <SCORE.INTER.SOLV>
29.6504

>  <SCORE.INTER.VDW>
-23.9539

>  <SCORE.INTER.norm>
-0.999746

>  <SCORE.INTRA>
-10.3814

>  <SCORE.INTRA.DIHEDRAL>
-19.8359

>  <SCORE.INTRA.DIHEDRAL.0>
44.2576

>  <SCORE.INTRA.POLAR>
-0.33145

>  <SCORE.INTRA.POLAR.0>
-0.381556

>  <SCORE.INTRA.REPUL>
0

>  <SCORE.INTRA.REPUL.0>
0

>  <SCORE.INTRA.SOLV>
0.445272

>  <SCORE.INTRA.SOLV.lig_0>
-134.592

>  <SCORE.INTRA.VDW>
0.440874

>  <SCORE.INTRA.VDW.0>
-1.01417

>  <SCORE.INTRA.norm>
-0.324418

>  <SCORE.RESTR>
7.11621

>  <SCORE.RESTR.CAVITY>
7.11621

>  <SCORE.RESTR.norm>
0.222381

>  <SCORE.SYSTEM>
0

>  <SCORE.SYSTEM.CONST>
0

>  <SCORE.SYSTEM.DIHEDRAL>
0

>  <SCORE.SYSTEM.SOLV>
0

>  <SCORE.SYSTEM.norm>
0

>  <SCORE.heavy>
32

>  <SCORE.norm>
-1.10178

>  <RMSD>
30.625

$$$$
1lc4
 OpenBabel02141814113D
libRbt.so/2013.1/901 2013/11/27
 32 34  0  0  0  0  0  0  0  0999 V2000
   12.2780   -5.4450    3.6379 C   0  0  2  0  0  0  0  0  0  0  0  0
   11.2426   -6.0672    4.3568 O   0  0  0  0  0  0  0  0  0  0  0  0
   12.8774   -4.3341    4.5241 C   0  0  2  0  0  0  0  0  0  0  0  0
   13.3709   -4.8979    5.7843 N   0  3  0  0  0  0  0  0  0  0  0  0
   11.8257   -3.2278    4.7746 C   0  0  0  0  0  0  0  0  0  0  0  0
   11.4006   -2.6742    3.4033 C   0  0  2  0  0  0  0  0  0  0  0  0
   10.4593   -1.6079    3.5654 O   0  0  0  0  0  0  0  0  0  0  0  0
   10.8078   -3.8227    2.5496 C   0  0  2  0  0  0  0  0  0  0  0  0
   11.7802   -4.8958    2.3978 O   0  0  0  0  0  0  0  0  0  0  0  0
   10.4020   -3.3891    1.1432 C   0  0  0  0  0  0  0  0  0  0  0  0
   11.5152   -3.5840    0.1776 N   0  3  0  0  0  0  0  0  0  0  0  0
    8.9559   -9.5705    3.6806 C   0  0  2  0  0  0  0  0  0  0  0  0
    8.5554  -10.9767    3.4902 N   0  3  0  0  0  0  0  0  0  0  0  0
    9.9439   -9.1626    2.5963 C   0  0  0  0  0  0  0  0  0  0  0  0
   10.3710   -7.7028    2.7856 C   0  0  2  0  0  0  0  0  0  0  0  0
   11.2367   -7.3158    1.6439 N   0  3  0  0  0  0  0  0  0  0  0  0
   11.0216   -7.4813    4.1839 C   0  0  2  0  0  0  0  0  0  0  0  0
   10.0409   -7.9503    5.2894 C   0  0  2  0  0  0  0  0  0  0  0  0
   10.6880   -7.9050    6.5381 O   0  0  0  0  0  0  0  0  0  0  0  0
    9.6048   -9.4055    5.0535 C   0  0  1  0  0  0  0  0  0  0  0  0
    8.6806   -9.7817    6.0738 O   0  0  0  0  0  0  0  0  0  0  0  0
    9.1647  -10.5619    7.1122 C   0  0  2  0  0  0  0  0  0  0  0  0
    8.5196  -11.9559    7.0279 C   0  0  2  0  0  0  0  0  0  0  0  0
    8.8506  -12.5345    5.7718 O   0  0  0  0  0  0  0  0  0  0  0  0
    6.9925  -11.8223    7.1609 C   0  0  1  0  0  0  0  0  0  0  0  0
    6.3085  -13.1440    7.0649 N   0  3  0  0  0  0  0  0  0  0  0  0
    6.6557  -11.1303    8.5043 C   0  0  2  0  0  0  0  0  0  0  0  0
    5.2460  -10.9696    8.6444 O   0  0  0  0  0  0  0  0  0  0  0  0
    7.3679   -9.7678    8.5941 C   0  0  2  0  0  0  0  0  0  0  0  0
    8.8160   -9.9272    8.3698 O   0  0  0  0  0  0  0  0  0  0  0  0
    7.1971   -9.1233    9.9518 C   0  0  0  0  0  0  0  0  0  0  0  0
    7.7072   -7.7918    9.9697 O   0  0  0  0  0  0  0  0  0  0  0  0
  1  2  1  1  0  0  0
  1  3  1  0  0  0  0
  1  9  1  0  0  0  0
  3  4  1  1  0  0  0
  3  5  1  0  0  0  0
  5  6  1  0  0  0  0
  6  7  1  1  0  0  0
  6  8  1  0  0  0  0
  8  9  1  0  0  0  0
  8 10  1  6  0  0  0
 10 11  1  0  0  0  0
 12 13  1  6  0  0  0
 12 14  1  0  0  0  0
 12 20  1  0  0  0  0
 14 15  1  0  0  0  0
 15 16  1  6  0  0  0
 15 17  1  0  0  0  0
 17  2  1  1  0  0  0
 17 18  1  0  0  0  0
 18 19  1  1  0  0  0
 18 20  1  0  0  0  0
 20 21  1  1  0  0  0
 22 21  1  6  0  0  0
 22 23  1  0  0  0  0
 22 30  1  0  0  0  0
 23 24  1  6  0  0  0
 23 25  1  0  0  0  0
 25 26  1  1  0  0  0
 25 27  1  0  0  0  0
 27 28  1  6  0  0  0
 27 29  1  0  0  0  0
 29 30  1  0  0  0  0
 29 31  1  1  0  0  0
 31 32  1  0  0  0  0
M  CHG  5   4   1  11   1  13   1  16   1  26   1
M  END
>  <CHROM.1>
-145.40607718,-73.23562610,-147.31224072,61.46811803,91.61978257,138.70207236
-29.85913152,173.28182364,-52.60901757,136.39345307,-112.61184242,63.47149021
-161.27746212,85.10893933,-172.33610744,-167.71143859,9.67844611,-7.82079117
5.18884795,0.04468296,1.11673253,0.91627985

>  <Name>
1lc4

>  <RI>
0

>  <Rbt.Current_Directory>
/home/afrankz/demos/rdock_decoys_rna/rnas/1lc4

>  <Rbt.Executable>
rbdock ($Id: //depot/dev/client3/rdock/2013.1/src/exe/rbdock.cxx#4 $)

>  <Rbt.Library>
libRbt.so (2013.1, Build901 2013/11/27)

>  <Rbt.Parameter_File>
/export/apps/rDock/src/rDock_2013.1_src/data/scripts/dock_solv.prm

>  <Rbt.Receptor>
prm/blind_docking_20.prm

>  <SCORE>
-37.5981

>  <SCORE.INTER>
-32.2013

>  <SCORE.INTER.CONST>
1

>  <SCORE.INTER.POLAR>
-6.93263

>  <SCORE.INTER.ROT>
6

>  <SCORE.INTER.SOLV>
41.8375

>  <SCORE.INTER.VDW>
-19.9046

>  <SCORE.INTER.norm>
-1.00629

>  <SCORE.INTRA>
-11.832

>  <SCORE.INTRA.DIHEDRAL>
-11.6225

>  <SCORE.INTRA.DIHEDRAL.0>
44.2576

>  <SCORE.INTRA.POLAR>
-1.70048

>  <SCORE.INTRA.POLAR.0>
-0.381556

>  <SCORE.INTRA.REPUL>
0.00411459

>  <SCORE.INTRA.REPUL.0>
0

>  <SCORE.INTRA.SOLV>
3.27492

>  <SCORE.INTRA.SOLV.lig_0>
-134.592

>  <SCORE.INTRA.VDW>
-1.8971

>  <SCORE.INTRA.VDW.0>
-1.01417

>  <SCORE.INTRA.norm>
-0.369749

>  <SCORE.RESTR>
6.43519

>  <SCORE.RESTR.CAVITY>
6.43519

>  <SCORE.RESTR.norm>
0.2011

>  <SCORE.SYSTEM>
0

>  <SCORE.SYSTEM.CONST>
0

>  <SCORE.SYSTEM.DIHEDRAL>
0

>  <SCORE.SYSTEM.SOLV>
0

>  <SCORE.SYSTEM.norm>
0

>  <SCORE.heavy>
32

>  <SCORE.norm>
-1.17494

>  <RMSD>
30.646

$$$$
1lc4
 OpenBabel02141814113D
libRbt.so/2013.1/901 2013/11/27
 32 34  0  0  0  0  0  0  0  0999 V2000
   11.4126   -8.8692    5.0969 C   0  0  2  0  0  0  0  0  0  0  0  0
   10.8951   -7.6687    4.5800 O   0  0  0  0  0  0  0  0  0  0  0  0
   10.6235  -10.0392    4.4745 C   0  0  2  0  0  0  0  0  0  0  0  0
   10.7265  -10.0030    3.0124 N   0  3  0  0  0  0  0  0  0  0  0  0
    9.1484   -9.9920    4.9375 C   0  0  0  0  0  0  0  0  0  0  0  0
    9.1426  -10.0745    6.4740 C   0  0  2  0  0  0  0  0  0  0  0  0
    7.7992  -10.0844    6.9683 O   0  0  0  0  0  0  0  0  0  0  0  0
    9.9461   -8.8836    7.0531 C   0  0  2  0  0  0  0  0  0  0  0  0
   11.3078   -8.8920    6.5376 O   0  0  0  0  0  0  0  0  0  0  0  0
   10.0479   -8.9009    8.5763 C   0  0  0  0  0  0  0  0  0  0  0  0
    8.9538   -8.1096    9.1978 N   0  3  0  0  0  0  0  0  0  0  0  0
   12.3535   -3.7511    3.8831 C   0  0  2  0  0  0  0  0  0  0  0  0
   13.1731   -2.6130    3.4284 N   0  3  0  0  0  0  0  0  0  0  0  0
   13.1767   -4.6496    4.7961 C   0  0  0  0  0  0  0  0  0  0  0  0
   12.3362   -5.8393    5.2728 C   0  0  2  0  0  0  0  0  0  0  0  0
   13.1379   -6.6184    6.2490 N   0  3  0  0  0  0  0  0  0  0  0  0
   11.8069   -6.6754    4.0695 C   0  0  2  0  0  0  0  0  0  0  0  0
   11.0171   -5.7517    3.1069 C   0  0  2  0  0  0  0  0  0  0  0  0
   10.6811   -6.4674    1.9429 O   0  0  0  0  0  0  0  0  0  0  0  0
   11.8741   -4.5511    2.6735 C   0  0  1  0  0  0  0  0  0  0  0  0
   11.0972   -3.7146    1.8171 O   0  0  0  0  0  0  0  0  0  0  0  0
   10.4295   -4.3263    0.7678 C   0  0  2  0  0  0  0  0  0  0  0  0
   11.1721   -4.0135   -0.5426 C   0  0  2  0  0  0  0  0  0  0  0  0
   12.5015   -4.5077   -0.4405 O   0  0  0  0  0  0  0  0  0  0  0  0
   11.1911   -2.4917   -0.7696 C   0  0  1  0  0  0  0  0  0  0  0  0
   11.9189   -2.1252   -2.0186 N   0  3  0  0  0  0  0  0  0  0  0  0
    9.7364   -1.9636   -0.8113 C   0  0  2  0  0  0  0  0  0  0  0  0
    9.7227   -0.5499   -0.9956 O   0  0  0  0  0  0  0  0  0  0  0  0
    8.9935   -2.3486    0.4816 C   0  0  2  0  0  0  0  0  0  0  0  0
    9.0774   -3.8022    0.7111 O   0  0  0  0  0  0  0  0  0  0  0  0
    7.5246   -1.9923    0.4232 C   0  0  0  0  0  0  0  0  0  0  0  0
    6.9788   -1.7967    1.7259 O   0  0  0  0  0  0  0  0  0  0  0  0
  1  2  1  6  0  0  0
  1  3  1  0  0  0  0
  1  9  1  0  0  0  0
  3  4  1  6  0  0  0
  3  5  1  0  0  0  0
  5  6  1  0  0  0  0
  6  7  1  1  0  0  0
  6  8  1  0  0  0  0
  8  9  1  0  0  0  0
  8 10  1  1  0  0  0
 10 11  1  0  0  0  0
 12 13  1  6  0  0  0
 12 14  1  0  0  0  0
 12 20  1  0  0  0  0
 14 15  1  0  0  0  0
 15 16  1  1  0  0  0
 15 17  1  0  0  0  0
 17  2  1  1  0  0  0
 17 18  1  0  0  0  0
 18 19  1  6  0  0  0
 18 20  1  0  0  0  0
 20 21  1  6  0  0  0
 22 21  1  1  0  0  0
 22 23  1  0  0  0  0
 22 30  1  0  0  0  0
 23 24  1  1  0  0  0
 23 25  1  0  0  0  0
 25 26  1  6  0  0  0
 25 27  1  0  0  0  0
 27 28  1  1  0  0  0
 27 29  1  0  0  0  0
 29 30  1  0  0  0  0
 29 31  1  6  0  0  0
 31 32  1  0  0  0  0
M  CHG  5   4   1  11   1  13   1  16   1  26   1
M  END
>  <CHROM.1>
-131.65520208,-82.96217933,-171.68932373,-58.85177632,-92.64278834,-53.14968420
179.65637018,62.12162405,73.61278950,-171.26319086,-105.14903167,44.46419516
175.14722987,175.61491380,-154.69192943,-179.79159158,10.60585620,-5.66803965
3.19908428,-1.58960721,-0.12255692,-0.79191361

>  <Name>
1lc4

>  <RI>
0

>  <Rbt.Current_Directory>
/home/afrankz/demos/rdock_decoys_rna/rnas/1lc4

>  <Rbt.Executable>
rbdock ($Id: //depot/dev/client3/rdock/2013.1/src/exe/rbdock.cxx#4 $)

>  <Rbt.Library>
libRbt.so (2013.1, Build901 2013/11/27)

>  <Rbt.Parameter_File>
/export/apps/rDock/src/rDock_2013.1_src/data/scripts/dock_solv.prm

>  <Rbt.Receptor>
prm/blind_docking_20.prm

>  <SCORE>
-56.1717

>  <SCORE.INTER>
-47.6078

>  <SCORE.INTER.CONST>
1

>  <SCORE.INTER.POLAR>
-7.05097

>  <SCORE.INTER.ROT>
6

>  <SCORE.INTER.SOLV>
27.5887

>  <SCORE.INTER.VDW>
-25.0315

>  <SCORE.INTER.norm>
-1.48774

>  <SCORE.INTRA>
-14.0388

>  <SCORE.INTRA.DIHEDRAL>
-21.3283

>  <SCORE.INTRA.DIHEDRAL.0>
44.2576

>  <SCORE.INTRA.POLAR>
-0.794205

>  <SCORE.INTRA.POLAR.0>
-0.381556

>  <SCORE.INTRA.REPUL>
0

>  <SCORE.INTRA.REPUL.0>
0

>  <SCORE.INTRA.SOLV>
-2.40541

>  <SCORE.INTRA.SOLV.lig_0>
-134.592

>  <SCORE.INTRA.VDW>
0.528357

>  <SCORE.INTRA.VDW.0>
-1.01417

>  <SCORE.INTRA.norm>
-0.438712

>  <SCORE.RESTR>
5.47487

>  <SCORE.RESTR.CAVITY>
5.47487

>  <SCORE.RESTR.norm>
0.17109

>  <SCORE.SYSTEM>
0

>  <SCORE.SYSTEM.CONST>
0

>  <SCORE.SYSTEM.DIHEDRAL>
0

>  <SCORE.SYSTEM.SOLV>
0

>  <SCORE.SYSTEM.norm>
0

>  <SCORE.heavy>
32

>  <SCORE.norm>
-1.75537

>  <RMSD>
30.669

$$$$
1lc4
 OpenBabel02141814113D
libRbt.so/2013.1/901 2013/11/27
 32 34  0  0  0  0  0  0  0  0999 V2000
   10.2504   -9.3524    7.8273 C   0  0  2  0  0  0  0  0  0  0  0  0
   10.7754   -8.2646    7.1083 O   0  0  0  0  0  0  0  0  0  0  0  0
    9.1180   -8.8273    8.7334 C   0  0  2  0  0  0  0  0  0  0  0  0
    8.0818   -8.1741    7.9276 N   0  3  0  0  0  0  0  0  0  0  0  0
    9.6928   -7.8659    9.8001 C   0  0  0  0  0  0  0  0  0  0  0  0
   10.7367   -8.6494   10.6150 C   0  0  2  0  0  0  0  0  0  0  0  0
   11.2760   -7.8282   11.6562 O   0  0  0  0  0  0  0  0  0  0  0  0
   11.8503   -9.1573    9.6657 C   0  0  2  0  0  0  0  0  0  0  0  0
   11.2807   -9.9889    8.6150 O   0  0  0  0  0  0  0  0  0  0  0  0
   12.9139   -9.9969   10.3690 C   0  0  0  0  0  0  0  0  0  0  0  0
   12.6997  -10.0147   11.8399 N   0  3  0  0  0  0  0  0  0  0  0  0
   11.1990   -7.8074    2.9165 C   0  0  2  0  0  0  0  0  0  0  0  0
   10.9126   -7.5844    1.4875 N   0  3  0  0  0  0  0  0  0  0  0  0
   10.4402   -9.0312    3.4114 C   0  0  0  0  0  0  0  0  0  0  0  0
   10.7270   -9.2717    4.8977 C   0  0  2  0  0  0  0  0  0  0  0  0
   10.0646  -10.5359    5.3044 N   0  3  0  0  0  0  0  0  0  0  0  0
   10.3264   -8.0357    5.7575 C   0  0  2  0  0  0  0  0  0  0  0  0
   11.0523   -6.7758    5.2197 C   0  0  2  0  0  0  0  0  0  0  0  0
   10.5671   -5.6361    5.8873 O   0  0  0  0  0  0  0  0  0  0  0  0
   10.7731   -6.5807    3.7206 C   0  0  1  0  0  0  0  0  0  0  0  0
   11.4856   -5.4315    3.2640 O   0  0  0  0  0  0  0  0  0  0  0  0
   10.7636   -4.2591    3.1045 C   0  0  2  0  0  0  0  0  0  0  0  0
   10.7979   -3.8531    1.6212 C   0  0  2  0  0  0  0  0  0  0  0  0
   10.2251   -4.9014    0.8498 O   0  0  0  0  0  0  0  0  0  0  0  0
   12.2555   -3.6160    1.1887 C   0  0  1  0  0  0  0  0  0  0  0  0
   12.3538   -3.2391   -0.2508 N   0  3  0  0  0  0  0  0  0  0  0  0
   12.8813   -2.5185    2.0837 C   0  0  2  0  0  0  0  0  0  0  0  0
   14.2422   -2.2946    1.7224 O   0  0  0  0  0  0  0  0  0  0  0  0
   12.7731   -2.9165    3.5675 C   0  0  2  0  0  0  0  0  0  0  0  0
   11.3750   -3.2245    3.9181 O   0  0  0  0  0  0  0  0  0  0  0  0
   13.2284   -1.8077    4.4901 C   0  0  0  0  0  0  0  0  0  0  0  0
   14.5440   -2.0440    4.9870 O   0  0  0  0  0  0  0  0  0  0  0  0
  1  2  1  1  0  0  0
  1  3  1  0  0  0  0
  1  9  1  0  0  0  0
  3  4  1  6  0  0  0
  3  5  1  0  0  0  0
  5  6  1  0  0  0  0
  6  7  1  1  0  0  0
  6  8  1  0  0  0  0
  8  9  1  0  0  0  0
  8 10  1  1  0  0  0
 10 11  1  0  0  0  0
 12 13  1  6  0  0  0
 12 14  1  0  0  0  0
 12 20  1  0  0  0  0
 14 15  1  0  0  0  0
 15 16  1  1  0  0  0
 15 17  1  0  0  0  0
 17  2  1  1  0  0  0
 17 18  1  0  0  0  0
 18 19  1  1  0  0  0
 18 20  1  0  0  0  0
 20 21  1  6  0  0  0
 22 21  1  6  0  0  0
 22 23  1  0  0  0  0
 22 30  1  0  0  0  0
 23 24  1  6  0  0  0
 23 25  1  0  0  0  0
 25 26  1  6  0  0  0
 25 27  1  0  0  0  0
 27 28  1  6  0  0  0
 27 29  1  0  0  0  0
 29 30  1  0  0  0  0
 29 31  1  1  0  0  0
 31 32  1  0  0  0  0
M  CHG  5   4   1  11   1  13   1  16   1  26   1
M  END
>  <CHROM.1>
-98.06703968,-62.25674595,14.14698698,57.41299253,-5.76152738,-166.03067544
-43.28618913,156.64996960,-171.70772274,136.71297929,-117.18780810,-101.95474887
63.42382584,64.61972867,-101.70692248,-77.34795882,11.31638978,-6.52893187
5.41034396,1.84910234,1.04110394,1.96973328

>  <Name>
1lc4

>  <RI>
0

>  <Rbt.Current_Directory>
/home/afrankz/demos/rdock_decoys_rna/rnas/1lc4

>  <Rbt.Executable>
rbdock ($Id: //depot/dev/client3/rdock/2013.1/src/exe/rbdock.cxx#4 $)

>  <Rbt.Library>
libRbt.so (2013.1, Build901 2013/11/27)

>  <Rbt.Parameter_File>
/export/apps/rDock/src/rDock_2013.1_src/data/scripts/dock_solv.prm

>  <Rbt.Receptor>
prm/blind_docking_20.prm

>  <SCORE>
-23.666

>  <SCORE.INTER>
-31.8431

>  <SCORE.INTER.CONST>
1

>  <SCORE.INTER.POLAR>
-5.37915

>  <SCORE.INTER.ROT>
6

>  <SCORE.INTER.SOLV>
35.4082

>  <SCORE.INTER.VDW>
-22.701

>  <SCORE.INTER.norm>
-0.995096

>  <SCORE.INTRA>
-0.102494

>  <SCORE.INTRA.DIHEDRAL>
-3.73214

>  <SCORE.INTRA.DIHEDRAL.0>
44.2576

>  <SCORE.INTRA.POLAR>
-0.904195

>  <SCORE.INTRA.POLAR.0>
-0.381556

>  <SCORE.INTRA.REPUL>
0.0295314

>  <SCORE.INTRA.REPUL.0>
0

>  <SCORE.INTRA.SOLV>
5.31617

>  <SCORE.INTRA.SOLV.lig_0>
-134.592

>  <SCORE.INTRA.VDW>
2.0321

>  <SCORE.INTRA.VDW.0>
-1.01417

>  <SCORE.INTRA.norm>
-0.00320295

>  <SCORE.RESTR>
8.27962

>  <SCORE.RESTR.CAVITY>
8.27962

>  <SCORE.RESTR.norm>
0.258738

>  <SCORE.SYSTEM>
0

>  <SCORE.SYSTEM.CONST>
0

>  <SCORE.SYSTEM.DIHEDRAL>
0

>  <SCORE.SYSTEM.SOLV>
0

>  <SCORE.SYSTEM.norm>
0

>  <SCORE.heavy>
32

>  <SCORE.norm>
-0.739561

>  <RMSD>
30.671

$$$$
1lc4
 OpenBabel02141814113D
libRbt.so/2013.1/901 2013/11/27
 32 34  0  0  0  0  0  0  0  0999 V2000
   11.7049   -9.0528    4.2038 C   0  0  2  0  0  0  0  0  0  0  0  0
   11.0861   -8.0348    3.4577 O   0  0  0  0  0  0  0  0  0  0  0  0
   11.9670  -10.2461    3.2625 C   0  0  2  0  0  0  0  0  0  0  0  0
   12.8059   -9.8307    2.1341 N   0  3  0  0  0  0  0  0  0  0  0  0
   10.6262  -10.8459    2.7778 C   0  0  0  0  0  0  0  0  0  0  0  0
    9.8383  -11.2857    4.0243 C   0  0  2  0  0  0  0  0  0  0  0  0
    8.6012  -11.8968    3.6430 O   0  0  0  0  0  0  0  0  0  0  0  0
    9.6007  -10.0580    4.9385 C   0  0  2  0  0  0  0  0  0  0  0  0
   10.8704   -9.4518    5.3135 O   0  0  0  0  0  0  0  0  0  0  0  0
    8.8702  -10.3969    6.2354 C   0  0  0  0  0  0  0  0  0  0  0  0
    7.4096  -10.5513    6.0059 N   0  3  0  0  0  0  0  0  0  0  0  0
   11.1855   -3.9510    4.5860 C   0  0  2  0  0  0  0  0  0  0  0  0
   11.5888   -2.5412    4.7397 N   0  3  0  0  0  0  0  0  0  0  0  0
   12.2565   -4.8622    5.1701 C   0  0  0  0  0  0  0  0  0  0  0  0
   11.8503   -6.3317    5.0130 C   0  0  2  0  0  0  0  0  0  0  0  0
   12.8619   -7.1736    5.6990 N   0  3  0  0  0  0  0  0  0  0  0  0
   11.6238   -6.6983    3.5158 C   0  0  2  0  0  0  0  0  0  0  0  0
   10.5762   -5.7346    2.9013 C   0  0  2  0  0  0  0  0  0  0  0  0
   10.4931   -5.9574    1.5144 O   0  0  0  0  0  0  0  0  0  0  0  0
   10.9944   -4.2693    3.1044 C   0  0  1  0  0  0  0  0  0  0  0  0
    9.9875   -3.4212    2.5533 O   0  0  0  0  0  0  0  0  0  0  0  0
   10.3793   -2.5281    1.5684 C   0  0  2  0  0  0  0  0  0  0  0  0
    9.2305   -1.5380    1.3109 C   0  0  2  0  0  0  0  0  0  0  0  0
    8.9425   -0.8512    2.5223 O   0  0  0  0  0  0  0  0  0  0  0  0
    7.9874   -2.3090    0.8334 C   0  0  1  0  0  0  0  0  0  0  0  0
    6.8305   -1.4005    0.5873 N   0  3  0  0  0  0  0  0  0  0  0  0
    8.3400   -3.1024   -0.4485 C   0  0  2  0  0  0  0  0  0  0  0  0
    7.2123   -3.8482   -0.9010 O   0  0  0  0  0  0  0  0  0  0  0  0
    9.5362   -4.0356   -0.1842 C   0  0  2  0  0  0  0  0  0  0  0  0
   10.6749   -3.2732    0.3587 O   0  0  0  0  0  0  0  0  0  0  0  0
   10.0185   -4.7160   -1.4461 C   0  0  0  0  0  0  0  0  0  0  0  0
   11.3054   -5.3036   -1.2678 O   0  0  0  0  0  0  0  0  0  0  0  0
  1  2  1  6  0  0  0
  1  3  1  0  0  0  0
  1  9  1  0  0  0  0
  3  4  1  6  0  0  0
  3  5  1  0  0  0  0
  5  6  1  0  0  0  0
  6  7  1  6  0  0  0
  6  8  1  0  0  0  0
  8  9  1  0  0  0  0
  8 10  1  1  0  0  0
 10 11  1  0  0  0  0
 12 13  1  6  0  0  0
 12 14  1  0  0  0  0
 12 20  1  0  0  0  0
 14 15  1  0  0  0  0
 15 16  1  6  0  0  0
 15 17  1  0  0  0  0
 17  2  1  1  0  0  0
 17 18  1  0  0  0  0
 18 19  1  6  0  0  0
 18 20  1  0  0  0  0
 20 21  1  1  0  0  0
 22 21  1  1  0  0  0
 22 23  1  0  0  0  0
 22 30  1  0  0  0  0
 23 24  1  1  0  0  0
 23 25  1  0  0  0  0
 25 26  1  6  0  0  0
 25 27  1  0  0  0  0
 27 28  1  1  0  0  0
 27 29  1  0  0  0  0
 29 30  1  0  0  0  0
 29 31  1  6  0  0  0
 31 32  1  0  0  0  0
M  CHG  5   4   1  11   1  13   1  16   1  26   1
M  END
>  <CHROM.1>
-129.39903164,-48.10331886,167.37410787,65.36601926,-78.72415783,47.47569760
73.00830373,153.45712257,-56.94319627,115.82990455,-169.09475365,165.71436364
98.01413386,173.40037534,165.41437238,-172.69844791,10.20565980,-6.10558866
2.71947478,-1.28916377,-1.04143523,-0.20812232

>  <Name>
1lc4

>  <RI>
0

>  <Rbt.Current_Directory>
/home/afrankz/demos/rdock_decoys_rna/rnas/1lc4

>  <Rbt.Executable>
rbdock ($Id: //depot/dev/client3/rdock/2013.1/src/exe/rbdock.cxx#4 $)

>  <Rbt.Library>
libRbt.so (2013.1, Build901 2013/11/27)

>  <Rbt.Parameter_File>
/export/apps/rDock/src/rDock_2013.1_src/data/scripts/dock_solv.prm

>  <Rbt.Receptor>
prm/blind_docking_20.prm

>  <SCORE>
-19.2563

>  <SCORE.INTER>
-9.80971

>  <SCORE.INTER.CONST>
1

>  <SCORE.INTER.POLAR>
-5.48178

>  <SCORE.INTER.ROT>
6

>  <SCORE.INTER.SOLV>
32.7366

>  <SCORE.INTER.VDW>
-6.77939

>  <SCORE.INTER.norm>
-0.306553

>  <SCORE.INTRA>
-13.0744

>  <SCORE.INTRA.DIHEDRAL>
-20.4148

>  <SCORE.INTRA.DIHEDRAL.0>
44.2576

>  <SCORE.INTRA.POLAR>
-1.13712

>  <SCORE.INTRA.POLAR.0>
-0.381556

>  <SCORE.INTRA.REPUL>
0

>  <SCORE.INTRA.REPUL.0>
0

>  <SCORE.INTRA.SOLV>
0.0620757

>  <SCORE.INTRA.SOLV.lig_0>
-134.592

>  <SCORE.INTRA.VDW>
0.968157

>  <SCORE.INTRA.VDW.0>
-1.01417

>  <SCORE.INTRA.norm>
-0.408575

>  <SCORE.RESTR>
3.62784

>  <SCORE.RESTR.CAVITY>
3.62784

>  <SCORE.RESTR.norm>
0.11337

>  <SCORE.SYSTEM>
0

>  <SCORE.SYSTEM.CONST>
0

>  <SCORE.SYSTEM.DIHEDRAL>
0

>  <SCORE.SYSTEM.SOLV>
0

>  <SCORE.SYSTEM.norm>
0

>  <SCORE.heavy>
32

>  <SCORE.norm>
-0.601759

>  <RMSD>
30.734

$$$$
1lc4
 OpenBabel02141814113D
libRbt.so/2013.1/901 2013/11/27
 32 34  0  0  0  0  0  0  0  0999 V2000
   10.3331  -10.3059    4.9201 C   0  0  2  0  0  0  0  0  0  0  0  0
   10.0880   -9.2665    4.0059 O   0  0  0  0  0  0  0  0  0  0  0  0
    9.1889  -11.3327    4.7974 C   0  0  2  0  0  0  0  0  0  0  0  0
    9.1057  -11.8419    3.4250 N   0  3  0  0  0  0  0  0  0  0  0  0
    7.8522  -10.6957    5.2447 C   0  0  0  0  0  0  0  0  0  0  0  0
    8.0257  -10.2303    6.7011 C   0  0  2  0  0  0  0  0  0  0  0  0
    6.8038   -9.6719    7.1956 O   0  0  0  0  0  0  0  0  0  0  0  0
    9.1837   -9.2042    6.7755 C   0  0  2  0  0  0  0  0  0  0  0  0
   10.4153   -9.7918    6.2677 O   0  0  0  0  0  0  0  0  0  0  0  0
    9.4754   -8.7170    8.1926 C   0  0  0  0  0  0  0  0  0  0  0  0
   10.1149   -9.7833    9.0073 N   0  3  0  0  0  0  0  0  0  0  0  0
   12.4029   -5.7261    4.2641 C   0  0  2  0  0  0  0  0  0  0  0  0
   13.4306   -4.6947    4.0321 N   0  3  0  0  0  0  0  0  0  0  0  0
   13.0639   -7.0251    4.7047 C   0  0  0  0  0  0  0  0  0  0  0  0
   12.0054   -8.1072    4.9456 C   0  0  2  0  0  0  0  0  0  0  0  0
   12.6820   -9.3130    5.4850 N   0  3  0  0  0  0  0  0  0  0  0  0
   11.1624   -8.3687    3.6618 C   0  0  2  0  0  0  0  0  0  0  0  0
   10.5349   -7.0367    3.1763 C   0  0  2  0  0  0  0  0  0  0  0  0
    9.9121   -7.2400    1.9309 O   0  0  0  0  0  0  0  0  0  0  0  0
   11.6163   -5.9625    2.9764 C   0  0  1  0  0  0  0  0  0  0  0  0
   10.9904   -4.7487    2.5620 O   0  0  0  0  0  0  0  0  0  0  0  0
   11.6991   -3.9335    1.6935 C   0  0  2  0  0  0  0  0  0  0  0  0
   11.3578   -2.4655    2.0009 C   0  0  2  0  0  0  0  0  0  0  0  0
   11.7147   -2.1888    3.3493 O   0  0  0  0  0  0  0  0  0  0  0  0
    9.8498   -2.2369    1.7970 C   0  0  1  0  0  0  0  0  0  0  0  0
    9.4545   -0.8316    2.1020 N   0  3  0  0  0  0  0  0  0  0  0  0
    9.4695   -2.6069    0.3426 C   0  0  2  0  0  0  0  0  0  0  0  0
    8.0708   -2.4289    0.1308 O   0  0  0  0  0  0  0  0  0  0  0  0
    9.8833   -4.0586    0.0375 C   0  0  2  0  0  0  0  0  0  0  0  0
   11.3132   -4.2601    0.3331 O   0  0  0  0  0  0  0  0  0  0  0  0
    9.6757   -4.4171   -1.4172 C   0  0  0  0  0  0  0  0  0  0  0  0
   10.2216   -3.4269   -2.2860 O   0  0  0  0  0  0  0  0  0  0  0  0
  1  2  1  6  0  0  0
  1  3  1  0  0  0  0
  1  9  1  0  0  0  0
  3  4  1  6  0  0  0
  3  5  1  0  0  0  0
  5  6  1  0  0  0  0
  6  7  1  6  0  0  0
  6  8  1  0  0  0  0
  8  9  1  0  0  0  0
  8 10  1  1  0  0  0
 10 11  1  0  0  0  0
 12 13  1  6  0  0  0
 12 14  1  0  0  0  0
 12 20  1  0  0  0  0
 14 15  1  0  0  0  0
 15 16  1  6  0  0  0
 15 17  1  0  0  0  0
 17  2  1  1  0  0  0
 17 18  1  0  0  0  0
 18 19  1  6  0  0  0
 18 20  1  0  0  0  0
 20 21  1  1  0  0  0
 22 21  1  1  0  0  0
 22 23  1  0  0  0  0
 22 30  1  0  0  0  0
 23 24  1  1  0  0  0
 23 25  1  0  0  0  0
 25 26  1  6  0  0  0
 25 27  1  0  0  0  0
 27 28  1  1  0  0  0
 27 29  1  0  0  0  0
 29 30  1  0  0  0  0
 29 31  1  6  0  0  0
 31 32  1  0  0  0  0
M  CHG  5   4   1  11   1  13   1  16   1  26   1
M  END
>  <CHROM.1>
-163.69389202,-37.70858437,-43.71229045,-60.92422460,71.47217102,179.15138308
-159.58708097,23.90111820,-48.58243604,91.28319917,-146.69606902,176.29069699
-64.77577970,65.67261151,48.52927940,178.18901500,10.33903160,-6.59753770
3.50138131,1.70185013,0.84296750,2.38076236

>  <Name>
1lc4

>  <RI>
0

>  <Rbt.Current_Directory>
/home/afrankz/demos/rdock_decoys_rna/rnas/1lc4

>  <Rbt.Executable>
rbdock ($Id: //depot/dev/client3/rdock/2013.1/src/exe/rbdock.cxx#4 $)

>  <Rbt.Library>
libRbt.so (2013.1, Build901 2013/11/27)

>  <Rbt.Parameter_File>
/export/apps/rDock/src/rDock_2013.1_src/data/scripts/dock_solv.prm

>  <Rbt.Receptor>
prm/blind_docking_20.prm

>  <SCORE>
-37.5012

>  <SCORE.INTER>
-28.8333

>  <SCORE.INTER.CONST>
1

>  <SCORE.INTER.POLAR>
-4.56576

>  <SCORE.INTER.ROT>
6

>  <SCORE.INTER.SOLV>
20.9641

>  <SCORE.INTER.VDW>
-18.591

>  <SCORE.INTER.norm>
-0.901041

>  <SCORE.INTRA>
-13.9791

>  <SCORE.INTRA.DIHEDRAL>
-26.9597

>  <SCORE.INTRA.DIHEDRAL.0>
44.2576

>  <SCORE.INTRA.POLAR>
-1.51176

>  <SCORE.INTRA.POLAR.0>
-0.381556

>  <SCORE.INTRA.REPUL>
0.0546097

>  <SCORE.INTRA.REPUL.0>
0

>  <SCORE.INTRA.SOLV>
3.32743

>  <SCORE.INTRA.SOLV.lig_0>
-134.592

>  <SCORE.INTRA.VDW>
2.704

>  <SCORE.INTRA.VDW.0>
-1.01417

>  <SCORE.INTRA.norm>
-0.436847

>  <SCORE.RESTR>
5.3112

>  <SCORE.RESTR.CAVITY>
5.3112

>  <SCORE.RESTR.norm>
0.165975

>  <SCORE.SYSTEM>
0

>  <SCORE.SYSTEM.CONST>
0

>  <SCORE.SYSTEM.DIHEDRAL>
0

>  <SCORE.SYSTEM.SOLV>
0

>  <SCORE.SYSTEM.norm>
0

>  <SCORE.heavy>
32

>  <SCORE.norm>
-1.17191

>  <RMSD>
30.757

$$$$
1lc4
 OpenBabel02141814113D
libRbt.so/2013.1/901 2013/11/27
 32 34  0  0  0  0  0  0  0  0999 V2000
    8.9796   -7.0953   13.0997 C   0  0  2  0  0  0  0  0  0  0  0  0
   10.2713   -7.6277   13.2548 O   0  0  0  0  0  0  0  0  0  0  0  0
    8.9722   -6.2147   11.8335 C   0  0  2  0  0  0  0  0  0  0  0  0
    9.3652   -7.0034   10.6617 N   0  3  0  0  0  0  0  0  0  0  0  0
    9.9015   -4.9938   12.0292 C   0  0  0  0  0  0  0  0  0  0  0  0
    9.3878   -4.2122   13.2511 C   0  0  2  0  0  0  0  0  0  0  0  0
   10.1782   -3.0371   13.4604 O   0  0  0  0  0  0  0  0  0  0  0  0
    9.4115   -5.1348   14.4951 C   0  0  2  0  0  0  0  0  0  0  0  0
    8.6029   -6.3228   14.2609 O   0  0  0  0  0  0  0  0  0  0  0  0
    8.8680   -4.4694   15.7571 C   0  0  0  0  0  0  0  0  0  0  0  0
    7.4253   -4.1412   15.6137 N   0  3  0  0  0  0  0  0  0  0  0  0
   12.2352  -11.3485   13.7634 C   0  0  2  0  0  0  0  0  0  0  0  0
   12.5886  -12.7777   13.6831 N   0  3  0  0  0  0  0  0  0  0  0  0
   10.8643  -11.1899   14.4066 C   0  0  0  0  0  0  0  0  0  0  0  0
   10.4836   -9.7077   14.4925 C   0  0  2  0  0  0  0  0  0  0  0  0
    9.2005   -9.5952   15.2298 N   0  3  0  0  0  0  0  0  0  0  0  0
   10.4698   -9.0453   13.0824 C   0  0  2  0  0  0  0  0  0  0  0  0
   11.8460   -9.2555   12.4001 C   0  0  2  0  0  0  0  0  0  0  0  0
   11.7814   -8.8044   11.0688 O   0  0  0  0  0  0  0  0  0  0  0  0
   12.2151  -10.7474   12.3594 C   0  0  1  0  0  0  0  0  0  0  0  0
   13.4997  -10.8888   11.7541 O   0  0  0  0  0  0  0  0  0  0  0  0
   13.5587  -11.5506   10.5376 C   0  0  2  0  0  0  0  0  0  0  0  0
   14.7862  -12.4777   10.5360 C   0  0  2  0  0  0  0  0  0  0  0  0
   14.6552  -13.4068   11.6045 O   0  0  0  0  0  0  0  0  0  0  0  0
   16.0623  -11.6380   10.7208 C   0  0  1  0  0  0  0  0  0  0  0  0
   17.2876  -12.4877   10.7488 N   0  3  0  0  0  0  0  0  0  0  0  0
   16.1520  -10.5890    9.5856 C   0  0  2  0  0  0  0  0  0  0  0  0
   17.3135   -9.7778    9.7449 O   0  0  0  0  0  0  0  0  0  0  0  0
   14.8818   -9.7184    9.5643 C   0  0  2  0  0  0  0  0  0  0  0  0
   13.6780  -10.5647    9.4794 O   0  0  0  0  0  0  0  0  0  0  0  0
   14.8515   -8.7827    8.3762 C   0  0  0  0  0  0  0  0  0  0  0  0
   15.9791   -7.9099    8.3654 O   0  0  0  0  0  0  0  0  0  0  0  0
  1  2  1  1  0  0  0
  1  3  1  0  0  0  0
  1  9  1  0  0  0  0
  3  4  1  6  0  0  0
  3  5  1  0  0  0  0
  5  6  1  0  0  0  0
  6  7  1  1  0  0  0
  6  8  1  0  0  0  0
  8  9  1  0  0  0  0
  8 10  1  1  0  0  0
 10 11  1  0  0  0  0
 12 13  1  6  0  0  0
 12 14  1  0  0  0  0
 12 20  1  0  0  0  0
 14 15  1  0  0  0  0
 15 16  1  6  0  0  0
 15 17  1  0  0  0  0
 17  2  1  1  0  0  0
 17 18  1  0  0  0  0
 18 19  1  6  0  0  0
 18 20  1  0  0  0  0
 20 21  1  1  0  0  0
 22 21  1  1  0  0  0
 22 23  1  0  0  0  0
 22 30  1  0  0  0  0
 23 24  1  1  0  0  0
 23 25  1  0  0  0  0
 25 26  1  6  0  0  0
 25 27  1  0  0  0  0
 27 28  1  1  0  0  0
 27 29  1  0  0  0  0
 29 30  1  0  0  0  0
 29 31  1  6  0  0  0
 31 32  1  0  0  0  0
M  CHG  5   4   1  11   1  13   1  16   1  26   1
M  END
>  <CHROM.1>
-112.11867116,-98.15646014,-66.82295293,70.63592915,64.48724300,178.90202688
64.09661944,27.27278807,-75.07159305,123.61430417,-138.55562042,-165.86242269
175.13183813,-65.80365678,-58.86334813,178.14770457,12.07608467,-8.82469451
12.15249373,2.72309430,0.72281720,-0.41357310

>  <Name>
1lc4

>  <RI>
0

>  <Rbt.Current_Directory>
/home/afrankz/demos/rdock_decoys_rna/rnas/1lc4

>  <Rbt.Executable>
rbdock ($Id: //depot/dev/client3/rdock/2013.1/src/exe/rbdock.cxx#4 $)

>  <Rbt.Library>
libRbt.so (2013.1, Build901 2013/11/27)

>  <Rbt.Parameter_File>
/export/apps/rDock/src/rDock_2013.1_src/data/scripts/dock_solv.prm

>  <Rbt.Receptor>
prm/blind_docking_40.prm

>  <SCORE>
-29.5874

>  <SCORE.INTER>
-21.9495

>  <SCORE.INTER.CONST>
1

>  <SCORE.INTER.POLAR>
-4.04301

>  <SCORE.INTER.ROT>
6

>  <SCORE.INTER.SOLV>
32.3533

>  <SCORE.INTER.VDW>
-19.5407

>  <SCORE.INTER.norm>
-0.685923

>  <SCORE.INTRA>
-15.1816

>  <SCORE.INTRA.DIHEDRAL>
-14.3892

>  <SCORE.INTRA.DIHEDRAL.0>
44.2576

>  <SCORE.INTRA.POLAR>
-1.65764

>  <SCORE.INTRA.POLAR.0>
-0.381556

>  <SCORE.INTRA.REPUL>
0

>  <SCORE.INTRA.REPUL.0>
0

>  <SCORE.INTRA.SOLV>
2.83742

>  <SCORE.INTRA.SOLV.lig_0>
-134.592

>  <SCORE.INTRA.VDW>
-3.76975

>  <SCORE.INTRA.VDW.0>
-1.01417

>  <SCORE.INTRA.norm>
-0.474425

>  <SCORE.RESTR>
7.54373

>  <SCORE.RESTR.CAVITY>
7.54373

>  <SCORE.RESTR.norm>
0.235741

>  <SCORE.SYSTEM>
0

>  <SCORE.SYSTEM.CONST>
0

>  <SCORE.SYSTEM.DIHEDRAL>
0

>  <SCORE.SYSTEM.SOLV>
0

>  <SCORE.SYSTEM.norm>
0

>  <SCORE.heavy>
32

>  <SCORE.norm>
-0.924606

>  <RMSD>
30.793

$$$$
1lc4
 OpenBabel02141814113D
libRbt.so/2013.1/901 2013/11/27
 32 34  0  0  0  0  0  0  0  0999 V2000
   10.0263   -8.1978    4.4565 C   0  0  2  0  0  0  0  0  0  0  0  0
   10.9321   -7.3828    5.1574 O   0  0  0  0  0  0  0  0  0  0  0  0
    9.6676   -9.3993    5.3546 C   0  0  2  0  0  0  0  0  0  0  0  0
    9.0933   -8.9355    6.6214 N   0  3  0  0  0  0  0  0  0  0  0  0
   10.9177  -10.2791    5.5906 C   0  0  0  0  0  0  0  0  0  0  0  0
   11.4212  -10.7469    4.2139 C   0  0  2  0  0  0  0  0  0  0  0  0
   12.5539  -11.6093    4.3632 O   0  0  0  0  0  0  0  0  0  0  0  0
   11.7666   -9.5096    3.3483 C   0  0  2  0  0  0  0  0  0  0  0  0
   10.6022   -8.6465    3.2098 O   0  0  0  0  0  0  0  0  0  0  0  0
   12.2274   -9.8635    1.9365 C   0  0  0  0  0  0  0  0  0  0  0  0
   11.6725  -11.1722    1.5016 N   0  3  0  0  0  0  0  0  0  0  0  0
   12.2049   -3.4389    4.2713 C   0  0  2  0  0  0  0  0  0  0  0  0
   12.8661   -2.2789    3.6460 N   0  3  0  0  0  0  0  0  0  0  0  0
   13.2529   -4.4069    4.8035 C   0  0  0  0  0  0  0  0  0  0  0  0
   12.5776   -5.6198    5.4532 C   0  0  2  0  0  0  0  0  0  0  0  0
   13.6296   -6.4730    6.0597 N   0  3  0  0  0  0  0  0  0  0  0  0
   11.6574   -6.3641    4.4399 C   0  0  2  0  0  0  0  0  0  0  0  0
   10.6256   -5.3677    3.8515 C   0  0  2  0  0  0  0  0  0  0  0  0
    9.9047   -5.9964    2.8195 O   0  0  0  0  0  0  0  0  0  0  0  0
   11.3310   -4.1472    3.2381 C   0  0  1  0  0  0  0  0  0  0  0  0
   10.3435   -3.2454    2.7398 O   0  0  0  0  0  0  0  0  0  0  0  0
   10.7282   -2.3782    1.7292 C   0  0  2  0  0  0  0  0  0  0  0  0
    9.5674   -1.4125    1.4354 C   0  0  2  0  0  0  0  0  0  0  0  0
    9.2640   -0.6921    2.6233 O   0  0  0  0  0  0  0  0  0  0  0  0
    8.3373   -2.2150    0.9766 C   0  0  1  0  0  0  0  0  0  0  0  0
    7.1695   -1.3307    0.6967 N   0  3  0  0  0  0  0  0  0  0  0  0
    8.7072   -3.0433   -0.2781 C   0  0  2  0  0  0  0  0  0  0  0  0
    7.5920   -3.8183   -0.7123 O   0  0  0  0  0  0  0  0  0  0  0  0
    9.9145   -3.9513    0.0209 C   0  0  2  0  0  0  0  0  0  0  0  0
   11.0400   -3.1568    0.5449 O   0  0  0  0  0  0  0  0  0  0  0  0
   10.4124   -4.6642   -1.2168 C   0  0  0  0  0  0  0  0  0  0  0  0
    9.4012   -5.4896   -1.7908 O   0  0  0  0  0  0  0  0  0  0  0  0
  1  2  1  1  0  0  0
  1  3  1  0  0  0  0
  1  9  1  0  0  0  0
  3  4  1  1  0  0  0
  3  5  1  0  0  0  0
  5  6  1  0  0  0  0
  6  7  1  1  0  0  0
  6  8  1  0  0  0  0
  8  9  1  0  0  0  0
  8 10  1  6  0  0  0
 10 11  1  0  0  0  0
 12 13  1  6  0  0  0
 12 14  1  0  0  0  0
 12 20  1  0  0  0  0
 14 15  1  0  0  0  0
 15 16  1  6  0  0  0
 15 17  1  0  0  0  0
 17  2  1  1  0  0  0
 17 18  1  0  0  0  0
 18 19  1  6  0  0  0
 18 20  1  0  0  0  0
 20 21  1  1  0  0  0
 22 21  1  1  0  0  0
 22 23  1  0  0  0  0
 22 30  1  0  0  0  0
 23 24  1  1  0  0  0
 23 25  1  0  0  0  0
 25 26  1  6  0  0  0
 25 27  1  0  0  0  0
 27 28  1  1  0  0  0
 27 29  1  0  0  0  0
 29 30  1  0  0  0  0
 29 31  1  6  0  0  0
 31 32  1  0  0  0  0
M  CHG  5   4   1  11   1  13   1  16   1  26   1
M  END
>  <CHROM.1>
166.00330417,179.93454380,59.64976888,54.61931748,26.14456471,-176.60498204
-164.53492047,-16.22554260,178.45409323,82.37774736,-174.64732890,167.24251522
62.02681757,63.22154840,-59.88734859,67.34806282,10.64204025,-5.79163386
2.82549865,0.99812988,1.08963699,-3.09010566

>  <Name>
1lc4

>  <RI>
0

>  <Rbt.Current_Directory>
/home/afrankz/demos/rdock_decoys_rna/rnas/1lc4

>  <Rbt.Executable>
rbdock ($Id: //depot/dev/client3/rdock/2013.1/src/exe/rbdock.cxx#4 $)

>  <Rbt.Library>
libRbt.so (2013.1, Build901 2013/11/27)

>  <Rbt.Parameter_File>
/export/apps/rDock/src/rDock_2013.1_src/data/scripts/dock_solv.prm

>  <Rbt.Receptor>
prm/blind_docking_20.prm

>  <SCORE>
-48.3385

>  <SCORE.INTER>
-37.5866

>  <SCORE.INTER.CONST>
1

>  <SCORE.INTER.POLAR>
-5.02872

>  <SCORE.INTER.ROT>
6

>  <SCORE.INTER.SOLV>
27.493

>  <SCORE.INTER.VDW>
-25.0596

>  <SCORE.INTER.norm>
-1.17458

>  <SCORE.INTRA>
-17.3894

>  <SCORE.INTRA.DIHEDRAL>
-32.9646

>  <SCORE.INTRA.DIHEDRAL.0>
44.2576

>  <SCORE.INTRA.POLAR>
-0.0190612

>  <SCORE.INTRA.POLAR.0>
-0.381556

>  <SCORE.INTRA.REPUL>
0

>  <SCORE.INTRA.REPUL.0>
0

>  <SCORE.INTRA.SOLV>
-0.704717

>  <SCORE.INTRA.SOLV.lig_0>
-134.592

>  <SCORE.INTRA.VDW>
-0.489964

>  <SCORE.INTRA.VDW.0>
-1.01417

>  <SCORE.INTRA.norm>
-0.54342

>  <SCORE.RESTR>
6.63754

>  <SCORE.RESTR.CAVITY>
6.63754

>  <SCORE.RESTR.norm>
0.207423

>  <SCORE.SYSTEM>
0

>  <SCORE.SYSTEM.CONST>
0

>  <SCORE.SYSTEM.DIHEDRAL>
0

>  <SCORE.SYSTEM.SOLV>
0

>  <SCORE.SYSTEM.norm>
0

>  <SCORE.heavy>
32

>  <SCORE.norm>
-1.51058

>  <RMSD>
30.828

$$$$
1lc4
 OpenBabel02141814113D
libRbt.so/2013.1/901 2013/11/27
 32 34  0  0  0  0  0  0  0  0999 V2000
    9.6637  -10.9079    6.1114 C   0  0  2  0  0  0  0  0  0  0  0  0
    9.7424   -9.5263    5.8642 O   0  0  0  0  0  0  0  0  0  0  0  0
    8.5919  -11.5026    5.1752 C   0  0  2  0  0  0  0  0  0  0  0  0
    8.9318  -11.2328    3.7747 N   0  3  0  0  0  0  0  0  0  0  0  0
    7.1977  -10.9383    5.5361 C   0  0  0  0  0  0  0  0  0  0  0  0
    6.9162  -11.3039    7.0041 C   0  0  2  0  0  0  0  0  0  0  0  0
    5.6144  -10.8509    7.3905 O   0  0  0  0  0  0  0  0  0  0  0  0
    8.0161  -10.6883    7.9044 C   0  0  2  0  0  0  0  0  0  0  0  0
    9.3307  -11.1611    7.4942 O   0  0  0  0  0  0  0  0  0  0  0  0
    7.8596  -11.0379    9.3822 C   0  0  0  0  0  0  0  0  0  0  0  0
    7.7313  -12.5060    9.5773 N   0  3  0  0  0  0  0  0  0  0  0  0
   12.5553   -6.3923    5.3892 C   0  0  2  0  0  0  0  0  0  0  0  0
   13.7880   -5.6377    5.0981 N   0  3  0  0  0  0  0  0  0  0  0  0
   12.8163   -7.4014    6.4992 C   0  0  0  0  0  0  0  0  0  0  0  0
   11.5423   -8.1953    6.8088 C   0  0  2  0  0  0  0  0  0  0  0  0
   11.8110   -9.0782    7.9711 N   0  3  0  0  0  0  0  0  0  0  0  0
   11.0221   -8.9438    5.5453 C   0  0  2  0  0  0  0  0  0  0  0  0
   10.8106   -7.9273    4.3938 C   0  0  2  0  0  0  0  0  0  0  0  0
   10.5005   -8.6207    3.2093 O   0  0  0  0  0  0  0  0  0  0  0  0
   12.0944   -7.1237    4.1300 C   0  0  1  0  0  0  0  0  0  0  0  0
   11.8432   -6.1815    3.0878 O   0  0  0  0  0  0  0  0  0  0  0  0
   10.8621   -5.2294    3.3160 C   0  0  2  0  0  0  0  0  0  0  0  0
   10.4014   -4.6578    1.9643 C   0  0  2  0  0  0  0  0  0  0  0  0
    9.8902   -5.7219    1.1715 O   0  0  0  0  0  0  0  0  0  0  0  0
   11.5959   -3.9975    1.2537 C   0  0  1  0  0  0  0  0  0  0  0  0
   11.2135   -3.4421   -0.0765 N   0  3  0  0  0  0  0  0  0  0  0  0
   12.1793   -2.8869    2.1610 C   0  0  2  0  0  0  0  0  0  0  0  0
   13.3055   -2.2729    1.5385 O   0  0  0  0  0  0  0  0  0  0  0  0
   12.5691   -3.4702    3.5319 C   0  0  2  0  0  0  0  0  0  0  0  0
   11.4240   -4.1733    4.1377 O   0  0  0  0  0  0  0  0  0  0  0  0
   12.9979   -2.3968    4.5075 C   0  0  0  0  0  0  0  0  0  0  0  0
   11.9229   -1.5154    4.8254 O   0  0  0  0  0  0  0  0  0  0  0  0
  1  2  1  1  0  0  0
  1  3  1  0  0  0  0
  1  9  1  0  0  0  0
  3  4  1  6  0  0  0
  3  5  1  0  0  0  0
  5  6  1  0  0  0  0
  6  7  1  1  0  0  0
  6  8  1  0  0  0  0
  8  9  1  0  0  0  0
  8 10  1  1  0  0  0
 10 11  1  0  0  0  0
 12 13  1  6  0  0  0
 12 14  1  0  0  0  0
 12 20  1  0  0  0  0
 14 15  1  0  0  0  0
 15 16  1  1  0  0  0
 15 17  1  0  0  0  0
 17  2  1  1  0  0  0
 17 18  1  0  0  0  0
 18 19  1  6  0  0  0
 18 20  1  0  0  0  0
 20 21  1  6  0  0  0
 22 21  1  6  0  0  0
 22 23  1  0  0  0  0
 22 30  1  0  0  0  0
 23 24  1  6  0  0  0
 23 25  1  0  0  0  0
 25 26  1  6  0  0  0
 25 27  1  0  0  0  0
 27 28  1  6  0  0  0
 27 29  1  0  0  0  0
 29 30  1  0  0  0  0
 29 31  1  1  0  0  0
 31 32  1  0  0  0  0
M  CHG  5   4   1  11   1  13   1  16   1  26   1
M  END
>  <CHROM.1>
-125.90088770,-103.73014393,-50.72405582,76.06341269,52.36606420,-179.28130421
-85.94256281,-168.67386839,-69.78397693,-60.94024420,-160.25002217,-177.32026654
176.20521045,-61.24045383,64.87157182,-169.76227037,10.52176363,-7.39355159
4.84550793,2.19740892,0.81417590,2.10358882

>  <Name>
1lc4

>  <RI>
0

>  <Rbt.Current_Directory>
/home/afrankz/demos/rdock_decoys_rna/rnas/1lc4

>  <Rbt.Executable>
rbdock ($Id: //depot/dev/client3/rdock/2013.1/src/exe/rbdock.cxx#4 $)

>  <Rbt.Library>
libRbt.so (2013.1, Build901 2013/11/27)

>  <Rbt.Parameter_File>
/export/apps/rDock/src/rDock_2013.1_src/data/scripts/dock_solv.prm

>  <Rbt.Receptor>
prm/blind_docking_20.prm

>  <SCORE>
-21.8116

>  <SCORE.INTER>
-13.1238

>  <SCORE.INTER.CONST>
1

>  <SCORE.INTER.POLAR>
-1.36142

>  <SCORE.INTER.ROT>
6

>  <SCORE.INTER.SOLV>
21.1648

>  <SCORE.INTER.VDW>
-18.8661

>  <SCORE.INTER.norm>
-0.410119

>  <SCORE.INTRA>
-16.4372

>  <SCORE.INTRA.DIHEDRAL>
-24.9378

>  <SCORE.INTRA.DIHEDRAL.0>
44.2576

>  <SCORE.INTRA.POLAR>
-1.2674

>  <SCORE.INTRA.POLAR.0>
-0.381556

>  <SCORE.INTRA.REPUL>
0

>  <SCORE.INTRA.REPUL.0>
0

>  <SCORE.INTRA.SOLV>
3.81694

>  <SCORE.INTRA.SOLV.lig_0>
-134.592

>  <SCORE.INTRA.VDW>
-1.56762

>  <SCORE.INTRA.VDW.0>
-1.01417

>  <SCORE.INTRA.norm>
-0.513662

>  <SCORE.RESTR>
7.74935

>  <SCORE.RESTR.CAVITY>
7.74935

>  <SCORE.RESTR.norm>
0.242167

>  <SCORE.SYSTEM>
0

>  <SCORE.SYSTEM.CONST>
0

>  <SCORE.SYSTEM.DIHEDRAL>
0

>  <SCORE.SYSTEM.SOLV>
0

>  <SCORE.SYSTEM.norm>
0

>  <SCORE.heavy>
32

>  <SCORE.norm>
-0.681614

>  <RMSD>
30.842

$$$$
1lc4
 OpenBabel02141814113D
libRbt.so/2013.1/901 2013/11/27
 32 34  0  0  0  0  0  0  0  0999 V2000
    8.9505  -11.5599    6.1203 C   0  0  2  0  0  0  0  0  0  0  0  0
    9.3690  -10.3776    6.7551 O   0  0  0  0  0  0  0  0  0  0  0  0
    7.7977  -11.2062    5.1586 C   0  0  2  0  0  0  0  0  0  0  0  0
    8.2380  -10.2064    4.1808 N   0  3  0  0  0  0  0  0  0  0  0  0
    6.5704  -10.7102    5.9589 C   0  0  0  0  0  0  0  0  0  0  0  0
    6.1613  -11.8365    6.9242 C   0  0  2  0  0  0  0  0  0  0  0  0
    4.9958  -11.4600    7.6653 O   0  0  0  0  0  0  0  0  0  0  0  0
    7.3476  -12.1581    7.8669 C   0  0  2  0  0  0  0  0  0  0  0  0
    8.5214  -12.5376    7.0935 O   0  0  0  0  0  0  0  0  0  0  0  0
    7.0633  -13.3046    8.8341 C   0  0  0  0  0  0  0  0  0  0  0  0
    6.9171  -14.5951    8.1108 N   0  3  0  0  0  0  0  0  0  0  0  0
   12.5419   -7.5746    6.9443 C   0  0  2  0  0  0  0  0  0  0  0  0
   13.8318   -6.8906    6.7385 N   0  3  0  0  0  0  0  0  0  0  0  0
   12.7747   -8.9357    7.5858 C   0  0  0  0  0  0  0  0  0  0  0  0
   11.4406   -9.6588    7.8017 C   0  0  2  0  0  0  0  0  0  0  0  0
   11.7053  -10.9225    8.5336 N   0  3  0  0  0  0  0  0  0  0  0  0
   10.6764   -9.8478    6.4572 C   0  0  2  0  0  0  0  0  0  0  0  0
   10.4888   -8.4697    5.7721 C   0  0  2  0  0  0  0  0  0  0  0  0
    9.9480   -8.6566    4.4865 O   0  0  0  0  0  0  0  0  0  0  0  0
   11.8390   -7.7551    5.6003 C   0  0  1  0  0  0  0  0  0  0  0  0
   11.6138   -6.4814    4.9972 O   0  0  0  0  0  0  0  0  0  0  0  0
   12.5082   -6.0752    4.0192 C   0  0  2  0  0  0  0  0  0  0  0  0
   12.9031   -4.6124    4.2847 C   0  0  2  0  0  0  0  0  0  0  0  0
   13.4996   -4.5295    5.5729 O   0  0  0  0  0  0  0  0  0  0  0  0
   11.6478   -3.7245    4.2267 C   0  0  1  0  0  0  0  0  0  0  0  0
   11.9663   -2.2931    4.4985 N   0  3  0  0  0  0  0  0  0  0  0  0
   10.9762   -3.8798    2.8403 C   0  0  2  0  0  0  0  0  0  0  0  0
    9.7939   -3.0866    2.7657 O   0  0  0  0  0  0  0  0  0  0  0  0
   10.6531   -5.3609    2.5688 C   0  0  2  0  0  0  0  0  0  0  0  0
   11.8621   -6.1894    2.7247 O   0  0  0  0  0  0  0  0  0  0  0  0
   10.1397   -5.5844    1.1637 C   0  0  0  0  0  0  0  0  0  0  0  0
   11.2052   -5.8193    0.2456 O   0  0  0  0  0  0  0  0  0  0  0  0
  1  2  1  1  0  0  0
  1  3  1  0  0  0  0
  1  9  1  0  0  0  0
  3  4  1  6  0  0  0
  3  5  1  0  0  0  0
  5  6  1  0  0  0  0
  6  7  1  1  0  0  0
  6  8  1  0  0  0  0
  8  9  1  0  0  0  0
  8 10  1  1  0  0  0
 10 11  1  0  0  0  0
 12 13  1  6  0  0  0
 12 14  1  0  0  0  0
 12 20  1  0  0  0  0
 14 15  1  0  0  0  0
 15 16  1  6  0  0  0
 15 17  1  0  0  0  0
 17  2  1  1  0  0  0
 17 18  1  0  0  0  0
 18 19  1  6  0  0  0
 18 20  1  0  0  0  0
 20 21  1  1  0  0  0
 22 21  1  1  0  0  0
 22 23  1  0  0  0  0
 22 30  1  0  0  0  0
 23 24  1  1  0  0  0
 23 25  1  0  0  0  0
 25 26  1  6  0  0  0
 25 27  1  0  0  0  0
 27 28  1  1  0  0  0
 27 29  1  0  0  0  0
 29 30  1  0  0  0  0
 29 31  1  6  0  0  0
 31 32  1  0  0  0  0
M  CHG  5   4   1  11   1  13   1  16   1  26   1
M  END
>  <CHROM.1>
-112.17339050,-125.86018241,52.63134298,-81.93316007,66.88692624,-57.04152911
-61.35158731,68.85211148,-58.51181687,99.22233679,-134.28467420,-102.10894035
53.65459532,69.73436397,88.40588664,-34.65768445,10.18897100,-8.30258974
5.44193690,2.11162667,0.53962755,2.37275925

>  <Name>
1lc4

>  <RI>
0

>  <Rbt.Current_Directory>
/home/afrankz/demos/rdock_decoys_rna/rnas/1lc4

>  <Rbt.Executable>
rbdock ($Id: //depot/dev/client3/rdock/2013.1/src/exe/rbdock.cxx#4 $)

>  <Rbt.Library>
libRbt.so (2013.1, Build901 2013/11/27)

>  <Rbt.Parameter_File>
/export/apps/rDock/src/rDock_2013.1_src/data/scripts/dock_solv.prm

>  <Rbt.Receptor>
prm/blind_docking_20.prm

>  <SCORE>
-14.721

>  <SCORE.INTER>
-15.557

>  <SCORE.INTER.CONST>
1

>  <SCORE.INTER.POLAR>
-4.86598

>  <SCORE.INTER.ROT>
6

>  <SCORE.INTER.SOLV>
32.3228

>  <SCORE.INTER.VDW>
-12.5256

>  <SCORE.INTER.norm>
-0.486156

>  <SCORE.INTRA>
-4.42647

>  <SCORE.INTRA.DIHEDRAL>
-4.6513

>  <SCORE.INTRA.DIHEDRAL.0>
44.2576

>  <SCORE.INTRA.POLAR>
-1.03079

>  <SCORE.INTRA.POLAR.0>
-0.381556

>  <SCORE.INTRA.REPUL>
0

>  <SCORE.INTRA.REPUL.0>
0

>  <SCORE.INTRA.SOLV>
4.97227

>  <SCORE.INTRA.SOLV.lig_0>
-134.592

>  <SCORE.INTRA.VDW>
-1.08226

>  <SCORE.INTRA.VDW.0>
-1.01417

>  <SCORE.INTRA.norm>
-0.138327

>  <SCORE.RESTR>
5.26244

>  <SCORE.RESTR.CAVITY>
5.26244

>  <SCORE.RESTR.norm>
0.164451

>  <SCORE.SYSTEM>
0

>  <SCORE.SYSTEM.CONST>
0

>  <SCORE.SYSTEM.DIHEDRAL>
0

>  <SCORE.SYSTEM.SOLV>
0

>  <SCORE.SYSTEM.norm>
0

>  <SCORE.heavy>
32

>  <SCORE.norm>
-0.460032

>  <RMSD>
30.851

$$$$
1lc4
 OpenBabel02141814113D
libRbt.so/2013.1/901 2013/11/27
 32 34  0  0  0  0  0  0  0  0999 V2000
   10.9522   -9.1512    9.9282 C   0  0  2  0  0  0  0  0  0  0  0  0
   11.7447   -8.0968    9.4422 O   0  0  0  0  0  0  0  0  0  0  0  0
    9.4787   -8.6963    9.9007 C   0  0  2  0  0  0  0  0  0  0  0  0
    9.0861   -8.3218    8.5386 N   0  3  0  0  0  0  0  0  0  0  0  0
    9.2641   -7.5276   10.8911 C   0  0  0  0  0  0  0  0  0  0  0  0
    9.6640   -8.0274   12.2904 C   0  0  2  0  0  0  0  0  0  0  0  0
    9.4429   -7.0049   13.2676 O   0  0  0  0  0  0  0  0  0  0  0  0
   11.1471   -8.4740   12.2694 C   0  0  2  0  0  0  0  0  0  0  0  0
   11.3498   -9.5126   11.2693 O   0  0  0  0  0  0  0  0  0  0  0  0
   11.6315   -9.0400   13.6019 C   0  0  0  0  0  0  0  0  0  0  0  0
   10.6776  -10.0464   14.1377 N   0  3  0  0  0  0  0  0  0  0  0  0
   15.0709   -7.4042    6.9091 C   0  0  2  0  0  0  0  0  0  0  0  0
   16.0524   -7.5041    5.8134 N   0  3  0  0  0  0  0  0  0  0  0  0
   15.0689   -8.6923    7.7210 C   0  0  0  0  0  0  0  0  0  0  0  0
   14.0493   -8.6022    8.8618 C   0  0  2  0  0  0  0  0  0  0  0  0
   14.1665   -9.8262    9.6930 N   0  3  0  0  0  0  0  0  0  0  0  0
   12.6142   -8.3354    8.3171 C   0  0  2  0  0  0  0  0  0  0  0  0
   12.6243   -7.0561    7.4413 C   0  0  2  0  0  0  0  0  0  0  0  0
   11.3718   -6.9067    6.8176 O   0  0  0  0  0  0  0  0  0  0  0  0
   13.6792   -7.1626    6.3281 C   0  0  1  0  0  0  0  0  0  0  0  0
   13.6744   -5.9532    5.5704 O   0  0  0  0  0  0  0  0  0  0  0  0
   13.9594   -6.0509    4.2174 C   0  0  2  0  0  0  0  0  0  0  0  0
   13.6193   -4.7120    3.5407 C   0  0  2  0  0  0  0  0  0  0  0  0
   14.3999   -3.6873    4.1430 O   0  0  0  0  0  0  0  0  0  0  0  0
   12.1215   -4.4111    3.7249 C   0  0  1  0  0  0  0  0  0  0  0  0
   11.7358   -3.1102    3.1059 N   0  3  0  0  0  0  0  0  0  0  0  0
   11.2902   -5.5697    3.1220 C   0  0  2  0  0  0  0  0  0  0  0  0
    9.8961   -5.3304    3.3006 O   0  0  0  0  0  0  0  0  0  0  0  0
   11.6972   -6.9078    3.7664 C   0  0  2  0  0  0  0  0  0  0  0  0
   13.1519   -7.1149    3.6499 O   0  0  0  0  0  0  0  0  0  0  0  0
   11.0259   -8.0888    3.1011 C   0  0  0  0  0  0  0  0  0  0  0  0
   11.7321   -8.5071    1.9351 O   0  0  0  0  0  0  0  0  0  0  0  0
  1  2  1  1  0  0  0
  1  3  1  0  0  0  0
  1  9  1  0  0  0  0
  3  4  1  6  0  0  0
  3  5  1  0  0  0  0
  5  6  1  0  0  0  0
  6  7  1  1  0  0  0
  6  8  1  0  0  0  0
  8  9  1  0  0  0  0
  8 10  1  1  0  0  0
 10 11  1  0  0  0  0
 12 13  1  6  0  0  0
 12 14  1  0  0  0  0
 12 20  1  0  0  0  0
 14 15  1  0  0  0  0
 15 16  1  6  0  0  0
 15 17  1  0  0  0  0
 17  2  1  1  0  0  0
 17 18  1  0  0  0  0
 18 19  1  6  0  0  0
 18 20  1  0  0  0  0
 20 21  1  1  0  0  0
 22 21  1  1  0  0  0
 22 23  1  0  0  0  0
 22 30  1  0  0  0  0
 23 24  1  1  0  0  0
 23 25  1  0  0  0  0
 25 26  1  6  0  0  0
 25 27  1  0  0  0  0
 27 28  1  1  0  0  0
 27 29  1  0  0  0  0
 29 30  1  0  0  0  0
 29 31  1  6  0  0  0
 31 32  1  0  0  0  0
M  CHG  5   4   1  11   1  13   1  16   1  26   1
M  END
>  <CHROM.1>
-123.61526568,-98.22441542,-103.57609535,62.79484909,48.31596706,59.38819606
76.93228118,-170.81442779,44.58937827,91.20531775,168.35411549,175.57501580
-60.61596615,170.67016437,83.63385901,-144.19135989,12.08507248,-7.33009214
7.37729949,1.78050913,-0.22737672,1.96497815

>  <Name>
1lc4

>  <RI>
0

>  <Rbt.Current_Directory>
/home/afrankz/demos/rdock_decoys_rna/rnas/1lc4

>  <Rbt.Executable>
rbdock ($Id: //depot/dev/client3/rdock/2013.1/src/exe/rbdock.cxx#4 $)

>  <Rbt.Library>
libRbt.so (2013.1, Build901 2013/11/27)

>  <Rbt.Parameter_File>
/export/apps/rDock/src/rDock_2013.1_src/data/scripts/dock_solv.prm

>  <Rbt.Receptor>
prm/blind_docking_60.prm

>  <SCORE>
-16.3282

>  <SCORE.INTER>
-14.5233

>  <SCORE.INTER.CONST>
1

>  <SCORE.INTER.POLAR>
-3.16269

>  <SCORE.INTER.ROT>
6

>  <SCORE.INTER.SOLV>
25.6991

>  <SCORE.INTER.VDW>
-15.3062

>  <SCORE.INTER.norm>
-0.453853

>  <SCORE.INTRA>
-9.08476

>  <SCORE.INTRA.DIHEDRAL>
-15.048

>  <SCORE.INTRA.DIHEDRAL.0>
44.2576

>  <SCORE.INTRA.POLAR>
-0.300018

>  <SCORE.INTRA.POLAR.0>
-0.381556

>  <SCORE.INTRA.REPUL>
0

>  <SCORE.INTRA.REPUL.0>
0

>  <SCORE.INTRA.SOLV>
1.84283

>  <SCORE.INTRA.SOLV.lig_0>
-134.592

>  <SCORE.INTRA.VDW>
-1.4621

>  <SCORE.INTRA.VDW.0>
-1.01417

>  <SCORE.INTRA.norm>
-0.283899

>  <SCORE.RESTR>
7.27987

>  <SCORE.RESTR.CAVITY>
7.27987

>  <SCORE.RESTR.norm>
0.227496

>  <SCORE.SYSTEM>
0

>  <SCORE.SYSTEM.CONST>
0

>  <SCORE.SYSTEM.DIHEDRAL>
0

>  <SCORE.SYSTEM.SOLV>
0

>  <SCORE.SYSTEM.norm>
0

>  <SCORE.heavy>
32

>  <SCORE.norm>
-0.510255

>  <RMSD>
30.859

$$$$
1lc4
 OpenBabel02141814113D
libRbt.so/2013.1/901 2013/11/27
 32 34  0  0  0  0  0  0  0  0999 V2000
   10.7087   -6.3495   12.9013 C   0  0  2  0  0  0  0  0  0  0  0  0
   10.4973   -7.3504   13.8655 O   0  0  0  0  0  0  0  0  0  0  0  0
    9.8649   -5.1195   13.2935 C   0  0  2  0  0  0  0  0  0  0  0  0
   10.2360   -4.6527   14.6329 N   0  3  0  0  0  0  0  0  0  0  0  0
    8.3583   -5.4599   13.2121 C   0  0  0  0  0  0  0  0  0  0  0  0
    8.0603   -5.8989   11.7677 C   0  0  2  0  0  0  0  0  0  0  0  0
    6.6663   -6.1838   11.6101 O   0  0  0  0  0  0  0  0  0  0  0  0
    8.9294   -7.1327   11.4187 C   0  0  2  0  0  0  0  0  0  0  0  0
   10.3419   -6.8218   11.5862 O   0  0  0  0  0  0  0  0  0  0  0  0
    8.7488   -7.6181    9.9826 C   0  0  0  0  0  0  0  0  0  0  0  0
    7.4045   -8.2203    9.7830 N   0  3  0  0  0  0  0  0  0  0  0  0
   11.4289  -11.4835   13.7673 C   0  0  2  0  0  0  0  0  0  0  0  0
   11.4305  -12.9199   13.4347 N   0  3  0  0  0  0  0  0  0  0  0  0
   10.0759  -11.0871   14.3423 C   0  0  0  0  0  0  0  0  0  0  0  0
   10.0603   -9.5942   14.6890 C   0  0  2  0  0  0  0  0  0  0  0  0
    8.7705   -9.2804   15.3526 N   0  3  0  0  0  0  0  0  0  0  0  0
   10.3625   -8.7199   13.4353 C   0  0  2  0  0  0  0  0  0  0  0  0
   11.7123   -9.1601   12.8124 C   0  0  2  0  0  0  0  0  0  0  0  0
   11.9055   -8.4868   11.5919 O   0  0  0  0  0  0  0  0  0  0  0  0
   11.7094  -10.6669   12.5074 C   0  0  1  0  0  0  0  0  0  0  0  0
   12.9793  -11.0311   11.9675 O   0  0  0  0  0  0  0  0  0  0  0  0
   13.1318  -10.9473   10.5924 C   0  0  2  0  0  0  0  0  0  0  0  0
   13.2192  -12.3706   10.0153 C   0  0  2  0  0  0  0  0  0  0  0  0
   12.0244  -13.0682   10.3439 O   0  0  0  0  0  0  0  0  0  0  0  0
   14.4355  -13.0942   10.6191 C   0  0  1  0  0  0  0  0  0  0  0  0
   14.5598  -14.4909   10.1112 N   0  3  0  0  0  0  0  0  0  0  0  0
   15.7178  -12.2845   10.3073 C   0  0  2  0  0  0  0  0  0  0  0  0
   16.8605  -12.9187   10.8771 O   0  0  0  0  0  0  0  0  0  0  0  0
   15.5785  -10.8441   10.8341 C   0  0  2  0  0  0  0  0  0  0  0  0
   14.3532  -10.2179   10.3055 O   0  0  0  0  0  0  0  0  0  0  0  0
   16.7398   -9.9693   10.4168 C   0  0  0  0  0  0  0  0  0  0  0  0
   16.5497   -9.4309    9.1102 O   0  0  0  0  0  0  0  0  0  0  0  0
  1  2  1  1  0  0  0
  1  3  1  0  0  0  0
  1  9  1  0  0  0  0
  3  4  1  1  0  0  0
  3  5  1  0  0  0  0
  5  6  1  0  0  0  0
  6  7  1  1  0  0  0
  6  8  1  0  0  0  0
  8  9  1  0  0  0  0
  8 10  1  6  0  0  0
 10 11  1  0  0  0  0
 12 13  1  6  0  0  0
 12 14  1  0  0  0  0
 12 20  1  0  0  0  0
 14 15  1  0  0  0  0
 15 16  1  6  0  0  0
 15 17  1  0  0  0  0
 17  2  1  1  0  0  0
 17 18  1  0  0  0  0
 18 19  1  6  0  0  0
 18 20  1  0  0  0  0
 20 21  1  1  0  0  0
 22 21  1  1  0  0  0
 22 23  1  0  0  0  0
 22 30  1  0  0  0  0
 23 24  1  1  0  0  0
 23 25  1  0  0  0  0
 25 26  1  6  0  0  0
 25 27  1  0  0  0  0
 27 28  1  1  0  0  0
 27 29  1  0  0  0  0
 29 30  1  0  0  0  0
 29 31  1  6  0  0  0
 31 32  1  0  0  0  0
M  CHG  5   4   1  11   1  13   1  16   1  26   1
M  END
>  <CHROM.1>
139.44069238,-176.89213122,-62.47468353,71.30361037,-69.53518306,-55.26598238
-172.72124422,167.40887325,-60.63496890,148.82789030,-109.49888194,71.41812272
80.90923446,72.57033155,84.17754660,167.91278289,11.66463440,-9.48584533
11.89990788,-2.54792331,-0.52385500,2.88437638

>  <Name>
1lc4

>  <RI>
0

>  <Rbt.Current_Directory>
/home/afrankz/demos/rdock_decoys_rna/rnas/1lc4

>  <Rbt.Executable>
rbdock ($Id: //depot/dev/client3/rdock/2013.1/src/exe/rbdock.cxx#4 $)

>  <Rbt.Library>
libRbt.so (2013.1, Build901 2013/11/27)

>  <Rbt.Parameter_File>
/export/apps/rDock/src/rDock_2013.1_src/data/scripts/dock_solv.prm

>  <Rbt.Receptor>
prm/blind_docking_40.prm

>  <SCORE>
-32.3257

>  <SCORE.INTER>
-26.7222

>  <SCORE.INTER.CONST>
1

>  <SCORE.INTER.POLAR>
-4.38523

>  <SCORE.INTER.ROT>
6

>  <SCORE.INTER.SOLV>
28.6848

>  <SCORE.INTER.VDW>
-20.359

>  <SCORE.INTER.norm>
-0.83507

>  <SCORE.INTRA>
-12.3914

>  <SCORE.INTRA.DIHEDRAL>
-21.7393

>  <SCORE.INTRA.DIHEDRAL.0>
44.2576

>  <SCORE.INTRA.POLAR>
-0.141901

>  <SCORE.INTRA.POLAR.0>
-0.381556

>  <SCORE.INTRA.REPUL>
0

>  <SCORE.INTRA.REPUL.0>
0

>  <SCORE.INTRA.SOLV>
-1.4515

>  <SCORE.INTRA.SOLV.lig_0>
-134.592

>  <SCORE.INTRA.VDW>
-0.313494

>  <SCORE.INTRA.VDW.0>
-1.01417

>  <SCORE.INTRA.norm>
-0.38723

>  <SCORE.RESTR>
6.78788

>  <SCORE.RESTR.CAVITY>
6.78788

>  <SCORE.RESTR.norm>
0.212121

>  <SCORE.SYSTEM>
0

>  <SCORE.SYSTEM.CONST>
0

>  <SCORE.SYSTEM.DIHEDRAL>
0

>  <SCORE.SYSTEM.SOLV>
0

>  <SCORE.SYSTEM.norm>
0

>  <SCORE.heavy>
32

>  <SCORE.norm>
-1.01018

>  <RMSD>
30.889

$$$$
1lc4
 OpenBabel02141814113D
libRbt.so/2013.1/901 2013/11/27
 32 34  0  0  0  0  0  0  0  0999 V2000
   12.8180  -12.6864    9.7850 C   0  0  2  0  0  0  0  0  0  0  0  0
   12.2311  -12.5162   11.0509 O   0  0  0  0  0  0  0  0  0  0  0  0
   12.4126  -14.0754    9.2508 C   0  0  2  0  0  0  0  0  0  0  0  0
   10.9525  -14.1874    9.1781 N   0  3  0  0  0  0  0  0  0  0  0  0
   13.0200  -15.1855   10.1404 C   0  0  0  0  0  0  0  0  0  0  0  0
   14.5484  -15.0089   10.1220 C   0  0  2  0  0  0  0  0  0  0  0  0
   15.1792  -16.0386   10.8908 O   0  0  0  0  0  0  0  0  0  0  0  0
   14.9073  -13.6028   10.6639 C   0  0  2  0  0  0  0  0  0  0  0  0
   14.2556  -12.5715    9.8690 O   0  0  0  0  0  0  0  0  0  0  0  0
   16.4042  -13.3040   10.6378 C   0  0  0  0  0  0  0  0  0  0  0  0
   16.8965  -13.1422    9.2446 N   0  3  0  0  0  0  0  0  0  0  0  0
   11.4930   -9.4757   13.9093 C   0  0  2  0  0  0  0  0  0  0  0  0
   11.6217   -8.2721   14.7511 N   0  3  0  0  0  0  0  0  0  0  0  0
   12.6503  -10.4260   14.1851 C   0  0  0  0  0  0  0  0  0  0  0  0
   12.5298  -11.6805   13.3127 C   0  0  2  0  0  0  0  0  0  0  0  0
   13.6070  -12.6255   13.6992 N   0  3  0  0  0  0  0  0  0  0  0  0
   12.5134  -11.3159   11.7981 C   0  0  2  0  0  0  0  0  0  0  0  0
   11.3725  -10.3027   11.5235 C   0  0  2  0  0  0  0  0  0  0  0  0
   11.4605   -9.8485   10.1945 O   0  0  0  0  0  0  0  0  0  0  0  0
   11.5012   -9.0723   12.4362 C   0  0  1  0  0  0  0  0  0  0  0  0
   10.4149   -8.1855   12.1714 O   0  0  0  0  0  0  0  0  0  0  0  0
   10.6282   -7.1808   11.2405 C   0  0  2  0  0  0  0  0  0  0  0  0
   10.1812   -5.8396   11.8467 C   0  0  2  0  0  0  0  0  0  0  0  0
   10.9398   -5.5983   13.0250 O   0  0  0  0  0  0  0  0  0  0  0  0
    8.6825   -5.9064   12.1888 C   0  0  1  0  0  0  0  0  0  0  0  0
    8.1952   -4.6372   12.8018 N   0  3  0  0  0  0  0  0  0  0  0  0
    7.8803   -6.2356   10.9061 C   0  0  2  0  0  0  0  0  0  0  0  0
    6.4878   -6.3292   11.1975 O   0  0  0  0  0  0  0  0  0  0  0  0
    8.3922   -7.5463   10.2804 C   0  0  2  0  0  0  0  0  0  0  0  0
    9.8469   -7.4758   10.0536 O   0  0  0  0  0  0  0  0  0  0  0  0
    7.7473   -7.8294    8.9418 C   0  0  0  0  0  0  0  0  0  0  0  0
    8.6969   -8.3062    7.9909 O   0  0  0  0  0  0  0  0  0  0  0  0
  1  2  1  1  0  0  0
  1  3  1  0  0  0  0
  1  9  1  0  0  0  0
  3  4  1  1  0  0  0
  3  5  1  0  0  0  0
  5  6  1  0  0  0  0
  6  7  1  1  0  0  0
  6  8  1  0  0  0  0
  8  9  1  0  0  0  0
  8 10  1  6  0  0  0
 10 11  1  0  0  0  0
 12 13  1  1  0  0  0
 12 14  1  0  0  0  0
 12 20  1  0  0  0  0
 14 15  1  0  0  0  0
 15 16  1  6  0  0  0
 15 17  1  0  0  0  0
 17  2  1  6  0  0  0
 17 18  1  0  0  0  0
 18 19  1  6  0  0  0
 18 20  1  0  0  0  0
 20 21  1  1  0  0  0
 22 21  1  1  0  0  0
 22 23  1  0  0  0  0
 22 30  1  0  0  0  0
 23 24  1  1  0  0  0
 23 25  1  0  0  0  0
 25 26  1  6  0  0  0
 25 27  1  0  0  0  0
 27 28  1  1  0  0  0
 27 29  1  0  0  0  0
 29 30  1  0  0  0  0
 29 31  1  6  0  0  0
 31 32  1  0  0  0  0
M  CHG  5   4   1  11   1  13   1  16   1  26   1
M  END
>  <CHROM.1>
176.92576343,-146.37085771,179.79727563,57.52612469,69.68625020,36.76962536
-97.77574455,39.07356617,175.02960003,144.95305254,-130.11608938,112.64003031
21.91437944,-166.66894674,137.81399558,-170.04640173,11.56960213,-10.18480916
11.21579861,0.65656441,0.73488367,-2.29002838

>  <Name>
1lc4

>  <RI>
0

>  <Rbt.Current_Directory>
/home/afrankz/demos/rdock_decoys_rna/rnas/1lc4

>  <Rbt.Executable>
rbdock ($Id: //depot/dev/client3/rdock/2013.1/src/exe/rbdock.cxx#4 $)

>  <Rbt.Library>
libRbt.so (2013.1, Build901 2013/11/27)

>  <Rbt.Parameter_File>
/export/apps/rDock/src/rDock_2013.1_src/data/scripts/dock_solv.prm

>  <Rbt.Receptor>
prm/blind_docking_40.prm

>  <SCORE>
-24.2021

>  <SCORE.INTER>
-23.3122

>  <SCORE.INTER.CONST>
1

>  <SCORE.INTER.POLAR>
-4.37708

>  <SCORE.INTER.ROT>
6

>  <SCORE.INTER.SOLV>
32.3897

>  <SCORE.INTER.VDW>
-19.3478

>  <SCORE.INTER.norm>
-0.728508

>  <SCORE.INTRA>
-11.8411

>  <SCORE.INTRA.DIHEDRAL>
-8.47517

>  <SCORE.INTRA.DIHEDRAL.0>
44.2576

>  <SCORE.INTRA.POLAR>
-1.44761

>  <SCORE.INTRA.POLAR.0>
-0.381556

>  <SCORE.INTRA.REPUL>
0

>  <SCORE.INTRA.REPUL.0>
0

>  <SCORE.INTRA.SOLV>
-1.38919

>  <SCORE.INTRA.SOLV.lig_0>
-134.592

>  <SCORE.INTRA.VDW>
-1.98704

>  <SCORE.INTRA.VDW.0>
-1.01417

>  <SCORE.INTRA.norm>
-0.370035

>  <SCORE.RESTR>
10.9512

>  <SCORE.RESTR.CAVITY>
10.9512

>  <SCORE.RESTR.norm>
0.342225

>  <SCORE.SYSTEM>
0

>  <SCORE.SYSTEM.CONST>
0

>  <SCORE.SYSTEM.DIHEDRAL>
0

>  <SCORE.SYSTEM.SOLV>
0

>  <SCORE.SYSTEM.norm>
0

>  <SCORE.heavy>
32

>  <SCORE.norm>
-0.756317

>  <RMSD>
30.939

$$$$
1lc4
 OpenBabel02141814113D
libRbt.so/2013.1/901 2013/11/27
 32 34  0  0  0  0  0  0  0  0999 V2000
    9.1269   -7.2997   13.0747 C   0  0  2  0  0  0  0  0  0  0  0  0
   10.4392   -7.7647   13.2690 O   0  0  0  0  0  0  0  0  0  0  0  0
    9.1078   -6.4369   11.7964 C   0  0  2  0  0  0  0  0  0  0  0  0
    9.5690   -7.2199   10.6459 N   0  3  0  0  0  0  0  0  0  0  0  0
    9.9699   -5.1685   11.9977 C   0  0  0  0  0  0  0  0  0  0  0  0
    9.3872   -4.3980   13.1955 C   0  0  2  0  0  0  0  0  0  0  0  0
   10.1126   -3.1823   13.4076 O   0  0  0  0  0  0  0  0  0  0  0  0
    9.4253   -5.3022   14.4526 C   0  0  2  0  0  0  0  0  0  0  0  0
    8.6830   -6.5322   14.2153 O   0  0  0  0  0  0  0  0  0  0  0  0
    8.8176   -4.6487   15.6913 C   0  0  0  0  0  0  0  0  0  0  0  0
    7.7160   -3.7206   15.3245 N   0  3  0  0  0  0  0  0  0  0  0  0
   12.6887  -11.3411   13.5988 C   0  0  2  0  0  0  0  0  0  0  0  0
   13.1343  -12.7414   13.4786 N   0  3  0  0  0  0  0  0  0  0  0  0
   11.3590  -11.2830   14.3383 C   0  0  0  0  0  0  0  0  0  0  0  0
   10.8829   -9.8317   14.4665 C   0  0  2  0  0  0  0  0  0  0  0  0
    9.6505   -9.8139   15.2932 N   0  3  0  0  0  0  0  0  0  0  0  0
   10.7233   -9.1638   13.0680 C   0  0  2  0  0  0  0  0  0  0  0  0
   12.0591   -9.2729   12.2886 C   0  0  2  0  0  0  0  0  0  0  0  0
   11.8693   -8.8197   10.9700 O   0  0  0  0  0  0  0  0  0  0  0  0
   12.5275  -10.7348   12.2062 C   0  0  1  0  0  0  0  0  0  0  0  0
   13.7728  -10.7821   11.5108 O   0  0  0  0  0  0  0  0  0  0  0  0
   13.7563  -11.2655   10.2118 C   0  0  2  0  0  0  0  0  0  0  0  0
   14.9292  -12.2444   10.0317 C   0  0  2  0  0  0  0  0  0  0  0  0
   14.7798  -13.3087   10.9628 O   0  0  0  0  0  0  0  0  0  0  0  0
   16.2556  -11.5060   10.2831 C   0  0  1  0  0  0  0  0  0  0  0  0
   17.4315  -12.4125   10.1432 N   0  3  0  0  0  0  0  0  0  0  0  0
   16.3684  -10.3116    9.3044 C   0  0  2  0  0  0  0  0  0  0  0  0
   17.5781   -9.5920    9.5311 O   0  0  0  0  0  0  0  0  0  0  0  0
   15.1491   -9.3831    9.4555 C   0  0  2  0  0  0  0  0  0  0  0  0
   13.8976  -10.1459    9.2993 O   0  0  0  0  0  0  0  0  0  0  0  0
   15.1342   -8.2870    8.4134 C   0  0  0  0  0  0  0  0  0  0  0  0
   14.9477   -8.8119    7.1007 O   0  0  0  0  0  0  0  0  0  0  0  0
  1  2  1  1  0  0  0
  1  3  1  0  0  0  0
  1  9  1  0  0  0  0
  3  4  1  6  0  0  0
  3  5  1  0  0  0  0
  5  6  1  0  0  0  0
  6  7  1  1  0  0  0
  6  8  1  0  0  0  0
  8  9  1  0  0  0  0
  8 10  1  1  0  0  0
 10 11  1  0  0  0  0
 12 13  1  6  0  0  0
 12 14  1  0  0  0  0
 12 20  1  0  0  0  0
 14 15  1  0  0  0  0
 15 16  1  6  0  0  0
 15 17  1  0  0  0  0
 17  2  1  1  0  0  0
 17 18  1  0  0  0  0
 18 19  1  6  0  0  0
 18 20  1  0  0  0  0
 20 21  1  1  0  0  0
 22 21  1  1  0  0  0
 22 23  1  0  0  0  0
 22 30  1  0  0  0  0
 23 24  1  1  0  0  0
 23 25  1  0  0  0  0
 25 26  1  6  0  0  0
 25 27  1  0  0  0  0
 27 28  1  1  0  0  0
 27 29  1  0  0  0  0
 29 30  1  0  0  0  0
 29 31  1  6  0  0  0
 31 32  1  0  0  0  0
M  CHG  5   4   1  11   1  13   1  16   1  26   1
M  END
>  <CHROM.1>
-109.59896293,-104.66959792,-65.56345333,68.37499267,31.68873412,-78.19231153
170.65866395,-79.77533614,-68.55751472,132.22063011,-135.07517566,71.44360768
-28.22258177,-156.34424077,66.16824840,173.20661170,12.23928800,-8.83338363
11.94701830,2.83293993,0.77280457,-0.51605841

>  <Name>
1lc4

>  <RI>
0

>  <Rbt.Current_Directory>
/home/afrankz/demos/rdock_decoys_rna/rnas/1lc4

>  <Rbt.Executable>
rbdock ($Id: //depot/dev/client3/rdock/2013.1/src/exe/rbdock.cxx#4 $)

>  <Rbt.Library>
libRbt.so (2013.1, Build901 2013/11/27)

>  <Rbt.Parameter_File>
/export/apps/rDock/src/rDock_2013.1_src/data/scripts/dock_solv.prm

>  <Rbt.Receptor>
prm/blind_docking_40.prm

>  <SCORE>
-26.214

>  <SCORE.INTER>
-22.1394

>  <SCORE.INTER.CONST>
1

>  <SCORE.INTER.POLAR>
-3.65861

>  <SCORE.INTER.ROT>
6

>  <SCORE.INTER.SOLV>
30.9753

>  <SCORE.INTER.VDW>
-20.4894

>  <SCORE.INTER.norm>
-0.691857

>  <SCORE.INTRA>
-11.9743

>  <SCORE.INTRA.DIHEDRAL>
-8.42754

>  <SCORE.INTRA.DIHEDRAL.0>
44.2576

>  <SCORE.INTRA.POLAR>
-1.76103

>  <SCORE.INTRA.POLAR.0>
-0.381556

>  <SCORE.INTRA.REPUL>
0

>  <SCORE.INTRA.REPUL.0>
0

>  <SCORE.INTRA.SOLV>
3.1813

>  <SCORE.INTRA.SOLV.lig_0>
-134.592

>  <SCORE.INTRA.VDW>
-3.36365

>  <SCORE.INTRA.VDW.0>
-1.01417

>  <SCORE.INTRA.norm>
-0.374196

>  <SCORE.RESTR>
7.89969

>  <SCORE.RESTR.CAVITY>
7.89969

>  <SCORE.RESTR.norm>
0.246865

>  <SCORE.SYSTEM>
0

>  <SCORE.SYSTEM.CONST>
0

>  <SCORE.SYSTEM.DIHEDRAL>
0

>  <SCORE.SYSTEM.SOLV>
0

>  <SCORE.SYSTEM.norm>
0

>  <SCORE.heavy>
32

>  <SCORE.norm>
-0.819188

>  <RMSD>
30.952

$$$$
1lc4
 OpenBabel02141814113D
libRbt.so/2013.1/901 2013/11/27
 32 34  0  0  0  0  0  0  0  0999 V2000
   13.2106  -12.2957   10.9041 C   0  0  2  0  0  0  0  0  0  0  0  0
   13.3996  -12.5097   12.2805 O   0  0  0  0  0  0  0  0  0  0  0  0
   13.5419  -13.6080   10.1645 C   0  0  2  0  0  0  0  0  0  0  0  0
   12.6915  -14.6976   10.6536 N   0  3  0  0  0  0  0  0  0  0  0  0
   15.0423  -13.9466   10.3278 C   0  0  0  0  0  0  0  0  0  0  0  0
   15.8480  -12.7681    9.7537 C   0  0  2  0  0  0  0  0  0  0  0  0
   17.2517  -13.0388    9.8298 O   0  0  0  0  0  0  0  0  0  0  0  0
   15.4821  -11.4750   10.5242 C   0  0  2  0  0  0  0  0  0  0  0  0
   14.0516  -11.2189   10.4346 O   0  0  0  0  0  0  0  0  0  0  0  0
   16.1901  -10.2301    9.9953 C   0  0  0  0  0  0  0  0  0  0  0  0
   15.4468   -8.9943   10.3558 N   0  3  0  0  0  0  0  0  0  0  0  0
    9.4498  -11.5392   13.4711 C   0  0  2  0  0  0  0  0  0  0  0  0
    8.2775  -11.1391   14.2708 N   0  3  0  0  0  0  0  0  0  0  0  0
   10.0591  -12.8104   14.0466 C   0  0  0  0  0  0  0  0  0  0  0  0
   11.2819  -13.2349   13.2256 C   0  0  2  0  0  0  0  0  0  0  0  0
   11.7687  -14.5359   13.7482 N   0  3  0  0  0  0  0  0  0  0  0  0
   12.3623  -12.1126   13.1998 C   0  0  2  0  0  0  0  0  0  0  0  0
   11.7304  -10.8000   12.6692 C   0  0  2  0  0  0  0  0  0  0  0  0
   12.6568   -9.7490   12.8003 O   0  0  0  0  0  0  0  0  0  0  0  0
   10.4880  -10.4190   13.4906 C   0  0  1  0  0  0  0  0  0  0  0  0
    9.9232   -9.2264   12.9471 O   0  0  0  0  0  0  0  0  0  0  0  0
   10.8018   -8.2226   12.5704 C   0  0  2  0  0  0  0  0  0  0  0  0
   10.8431   -7.1574   13.6793 C   0  0  2  0  0  0  0  0  0  0  0  0
   11.2761   -7.7737   14.8854 O   0  0  0  0  0  0  0  0  0  0  0  0
    9.4378   -6.5595   13.8676 C   0  0  1  0  0  0  0  0  0  0  0  0
    9.4111   -5.5322   14.9484 N   0  3  0  0  0  0  0  0  0  0  0  0
    8.9573   -5.9527   12.5267 C   0  0  2  0  0  0  0  0  0  0  0  0
    7.6451   -5.4125   12.6640 O   0  0  0  0  0  0  0  0  0  0  0  0
    8.9903   -7.0206   11.4176 C   0  0  2  0  0  0  0  0  0  0  0  0
   10.3280   -7.6336   11.3315 O   0  0  0  0  0  0  0  0  0  0  0  0
    8.6800   -6.4389   10.0562 C   0  0  0  0  0  0  0  0  0  0  0  0
    9.7002   -6.7455    9.1083 O   0  0  0  0  0  0  0  0  0  0  0  0
  1  2  1  1  0  0  0
  1  3  1  0  0  0  0
  1  9  1  0  0  0  0
  3  4  1  1  0  0  0
  3  5  1  0  0  0  0
  5  6  1  0  0  0  0
  6  7  1  1  0  0  0
  6  8  1  0  0  0  0
  8  9  1  0  0  0  0
  8 10  1  6  0  0  0
 10 11  1  0  0  0  0
 12 13  1  1  0  0  0
 12 14  1  0  0  0  0
 12 20  1  0  0  0  0
 14 15  1  0  0  0  0
 15 16  1  1  0  0  0
 15 17  1  0  0  0  0
 17  2  1  6  0  0  0
 17 18  1  0  0  0  0
 18 19  1  1  0  0  0
 18 20  1  0  0  0  0
 20 21  1  6  0  0  0
 22 21  1  1  0  0  0
 22 23  1  0  0  0  0
 22 30  1  0  0  0  0
 23 24  1  1  0  0  0
 23 25  1  0  0  0  0
 25 26  1  1  0  0  0
 25 27  1  0  0  0  0
 27 28  1  1  0  0  0
 27 29  1  0  0  0  0
 29 30  1  0  0  0  0
 29 31  1  6  0  0  0
 31 32  1  0  0  0  0
M  CHG  5   4   1  11   1  13   1  16   1  26   1
M  END
>  <CHROM.1>
-130.86305032,81.80558392,-78.32207454,63.43335666,157.25088689,6.41130253
-48.51290699,-41.79179856,41.74031228,-163.80910225,-99.98418335,-61.95115049
173.26791427,70.81972546,125.84384954,67.33155441,11.75298186,-10.12732651
12.07739671,-0.65350388,0.61919172,-0.32474733

>  <Name>
1lc4

>  <RI>
0

>  <Rbt.Current_Directory>
/home/afrankz/demos/rdock_decoys_rna/rnas/1lc4

>  <Rbt.Executable>
rbdock ($Id: //depot/dev/client3/rdock/2013.1/src/exe/rbdock.cxx#4 $)

>  <Rbt.Library>
libRbt.so (2013.1, Build901 2013/11/27)

>  <Rbt.Parameter_File>
/export/apps/rDock/src/rDock_2013.1_src/data/scripts/dock_solv.prm

>  <Rbt.Receptor>
prm/blind_docking_40.prm

>  <SCORE>
17.2256

>  <SCORE.INTER>
10.9039

>  <SCORE.INTER.CONST>
1

>  <SCORE.INTER.POLAR>
-4.47375

>  <SCORE.INTER.ROT>
6

>  <SCORE.INTER.SOLV>
35.9603

>  <SCORE.INTER.VDW>
2.59501

>  <SCORE.INTER.norm>
0.340746

>  <SCORE.INTRA>
-1.2742

>  <SCORE.INTRA.DIHEDRAL>
-14.1637

>  <SCORE.INTRA.DIHEDRAL.0>
44.2576

>  <SCORE.INTRA.POLAR>
0.19206

>  <SCORE.INTRA.POLAR.0>
-0.381556

>  <SCORE.INTRA.REPUL>
0.0739093

>  <SCORE.INTRA.REPUL.0>
0

>  <SCORE.INTRA.SOLV>
1.60254

>  <SCORE.INTRA.SOLV.lig_0>
-134.592

>  <SCORE.INTRA.VDW>
3.98384

>  <SCORE.INTRA.VDW.0>
-1.01417

>  <SCORE.INTRA.norm>
-0.0398187

>  <SCORE.RESTR>
7.59595

>  <SCORE.RESTR.CAVITY>
7.59595

>  <SCORE.RESTR.norm>
0.237374

>  <SCORE.SYSTEM>
0

>  <SCORE.SYSTEM.CONST>
0

>  <SCORE.SYSTEM.DIHEDRAL>
0

>  <SCORE.SYSTEM.SOLV>
0

>  <SCORE.SYSTEM.norm>
0

>  <SCORE.heavy>
32

>  <SCORE.norm>
0.538301

>  <RMSD>
30.962

$$$$
1lc4
 OpenBabel02141814113D
libRbt.so/2013.1/901 2013/11/27
 32 34  0  0  0  0  0  0  0  0999 V2000
   11.1001   -8.7984    8.7203 C   0  0  2  0  0  0  0  0  0  0  0  0
   11.6288   -7.6786    8.0551 O   0  0  0  0  0  0  0  0  0  0  0  0
    9.6158   -8.9354    8.3242 C   0  0  2  0  0  0  0  0  0  0  0  0
    9.4867   -9.0723    6.8701 N   0  3  0  0  0  0  0  0  0  0  0  0
    8.8106   -7.7241    8.8505 C   0  0  0  0  0  0  0  0  0  0  0  0
    8.9751   -7.6882   10.3800 C   0  0  2  0  0  0  0  0  0  0  0  0
    8.2120   -6.6137   10.9390 O   0  0  0  0  0  0  0  0  0  0  0  0
   10.4781   -7.5519   10.7295 C   0  0  2  0  0  0  0  0  0  0  0  0
   11.2351   -8.6531   10.1514 O   0  0  0  0  0  0  0  0  0  0  0  0
   10.7573   -7.5608   12.2304 C   0  0  0  0  0  0  0  0  0  0  0  0
   10.7542   -8.9458   12.7702 N   0  3  0  0  0  0  0  0  0  0  0  0
   14.7465   -6.7148    5.3513 C   0  0  2  0  0  0  0  0  0  0  0  0
   15.7070   -6.7621    4.2338 N   0  3  0  0  0  0  0  0  0  0  0  0
   14.9667   -7.9061    6.2736 C   0  0  0  0  0  0  0  0  0  0  0  0
   13.9710   -7.8703    7.4383 C   0  0  2  0  0  0  0  0  0  0  0  0
   14.2991   -8.9781    8.3698 N   0  3  0  0  0  0  0  0  0  0  0  0
   12.5002   -7.8824    6.9248 C   0  0  2  0  0  0  0  0  0  0  0  0
   12.2879   -6.7044    5.9393 C   0  0  2  0  0  0  0  0  0  0  0  0
   11.0142   -6.8111    5.3509 O   0  0  0  0  0  0  0  0  0  0  0  0
   13.3216   -6.7484    4.8023 C   0  0  1  0  0  0  0  0  0  0  0  0
   13.1084   -5.6305    3.9411 O   0  0  0  0  0  0  0  0  0  0  0  0
   13.4731   -4.3819    4.4200 C   0  0  2  0  0  0  0  0  0  0  0  0
   12.3175   -3.3978    4.1703 C   0  0  2  0  0  0  0  0  0  0  0  0
   11.1609   -3.8741    4.8468 O   0  0  0  0  0  0  0  0  0  0  0  0
   12.0430   -3.3030    2.6592 C   0  0  1  0  0  0  0  0  0  0  0  0
   10.9145   -2.3763    2.3563 N   0  3  0  0  0  0  0  0  0  0  0  0
   13.3326   -2.8471    1.9338 C   0  0  2  0  0  0  0  0  0  0  0  0
   13.1157   -2.7745    0.5266 O   0  0  0  0  0  0  0  0  0  0  0  0
   14.4916   -3.8092    2.2544 C   0  0  2  0  0  0  0  0  0  0  0  0
   14.6619   -3.9437    3.7123 O   0  0  0  0  0  0  0  0  0  0  0  0
   15.8098   -3.3202    1.6966 C   0  0  0  0  0  0  0  0  0  0  0  0
   16.2122   -2.0917    2.2985 O   0  0  0  0  0  0  0  0  0  0  0  0
  1  2  1  6  0  0  0
  1  3  1  0  0  0  0
  1  9  1  0  0  0  0
  3  4  1  6  0  0  0
  3  5  1  0  0  0  0
  5  6  1  0  0  0  0
  6  7  1  6  0  0  0
  6  8  1  0  0  0  0
  8  9  1  0  0  0  0
  8 10  1  1  0  0  0
 10 11  1  0  0  0  0
 12 13  1  6  0  0  0
 12 14  1  0  0  0  0
 12 20  1  0  0  0  0
 14 15  1  0  0  0  0
 15 16  1  1  0  0  0
 15 17  1  0  0  0  0
 17  2  1  1  0  0  0
 17 18  1  0  0  0  0
 18 19  1  6  0  0  0
 18 20  1  0  0  0  0
 20 21  1  6  0  0  0
 22 21  1  6  0  0  0
 22 23  1  0  0  0  0
 22 30  1  0  0  0  0
 23 24  1  1  0  0  0
 23 25  1  0  0  0  0
 25 26  1  1  0  0  0
 25 27  1  0  0  0  0
 27 28  1  6  0  0  0
 27 29  1  0  0  0  0
 29 30  1  0  0  0  0
 29 31  1  6  0  0  0
 31 32  1  0  0  0  0
M  CHG  5   4   1  11   1  13   1  16   1  26   1
M  END
>  <CHROM.1>
-105.11209350,-93.74142509,82.88434562,-61.13779268,80.13256359,170.54367781
70.86573077,-63.93845031,166.32414544,-49.36916260,-132.04604523,68.29729920
-68.27638395,-173.56615396,64.03101761,-60.21042708,12.31956029,-6.14742024
6.15952258,-1.96859717,0.33391390,-0.87942131

>  <Name>
1lc4

>  <RI>
0

>  <Rbt.Current_Directory>
/home/afrankz/demos/rdock_decoys_rna/rnas/1lc4

>  <Rbt.Executable>
rbdock ($Id: //depot/dev/client3/rdock/2013.1/src/exe/rbdock.cxx#4 $)

>  <Rbt.Library>
libRbt.so (2013.1, Build901 2013/11/27)

>  <Rbt.Parameter_File>
/export/apps/rDock/src/rDock_2013.1_src/data/scripts/dock_solv.prm

>  <Rbt.Receptor>
prm/blind_docking_60.prm

>  <SCORE>
-43.6943

>  <SCORE.INTER>
-29.5319

>  <SCORE.INTER.CONST>
1

>  <SCORE.INTER.POLAR>
-4.51692

>  <SCORE.INTER.ROT>
6

>  <SCORE.INTER.SOLV>
27.0244

>  <SCORE.INTER.VDW>
-21.2396

>  <SCORE.INTER.norm>
-0.922871

>  <SCORE.INTRA>
-20.6649

>  <SCORE.INTRA.DIHEDRAL>
-21.9793

>  <SCORE.INTRA.DIHEDRAL.0>
44.2576

>  <SCORE.INTRA.POLAR>
-2.26897

>  <SCORE.INTRA.POLAR.0>
-0.381556

>  <SCORE.INTRA.REPUL>
0

>  <SCORE.INTRA.REPUL.0>
0

>  <SCORE.INTRA.SOLV>
1.10742

>  <SCORE.INTRA.SOLV.lig_0>
-134.592

>  <SCORE.INTRA.VDW>
-2.51451

>  <SCORE.INTRA.VDW.0>
-1.01417

>  <SCORE.INTRA.norm>
-0.645779

>  <SCORE.RESTR>
6.50246

>  <SCORE.RESTR.CAVITY>
6.50246

>  <SCORE.RESTR.norm>
0.203202

>  <SCORE.SYSTEM>
0

>  <SCORE.SYSTEM.CONST>
0

>  <SCORE.SYSTEM.DIHEDRAL>
0

>  <SCORE.SYSTEM.SOLV>
0

>  <SCORE.SYSTEM.norm>
0

>  <SCORE.heavy>
32

>  <SCORE.norm>
-1.36545

>  <RMSD>
31.011

$$$$
1lc4
 OpenBabel02141814113D
libRbt.so/2013.1/901 2013/11/27
 32 34  0  0  0  0  0  0  0  0999 V2000
   11.5927   -9.4236    5.0186 C   0  0  2  0  0  0  0  0  0  0  0  0
   10.9939   -8.1762    4.7708 O   0  0  0  0  0  0  0  0  0  0  0  0
   11.8187  -10.1251    3.6637 C   0  0  2  0  0  0  0  0  0  0  0  0
   12.6596   -9.2962    2.7945 N   0  3  0  0  0  0  0  0  0  0  0  0
   10.4601  -10.4441    2.9966 C   0  0  0  0  0  0  0  0  0  0  0  0
    9.6705  -11.3450    3.9623 C   0  0  2  0  0  0  0  0  0  0  0  0
    8.4161  -11.7192    3.3829 O   0  0  0  0  0  0  0  0  0  0  0  0
    9.4696  -10.6015    5.3063 C   0  0  2  0  0  0  0  0  0  0  0  0
   10.7564  -10.2298    5.8775 O   0  0  0  0  0  0  0  0  0  0  0  0
    8.7400  -11.4326    6.3588 C   0  0  0  0  0  0  0  0  0  0  0  0
    7.2858  -11.5192    6.0630 N   0  3  0  0  0  0  0  0  0  0  0  0
   12.1010   -4.1057    4.3640 C   0  0  2  0  0  0  0  0  0  0  0  0
   12.8224   -2.8709    4.0054 N   0  3  0  0  0  0  0  0  0  0  0  0
   12.9828   -4.9839    5.2412 C   0  0  0  0  0  0  0  0  0  0  0  0
   12.2449   -6.2733    5.6181 C   0  0  2  0  0  0  0  0  0  0  0  0
   13.0928   -7.0391    6.5652 N   0  3  0  0  0  0  0  0  0  0  0  0
   11.8217   -7.0733    4.3498 C   0  0  2  0  0  0  0  0  0  0  0  0
   10.9719   -6.1636    3.4256 C   0  0  2  0  0  0  0  0  0  0  0  0
   10.7292   -6.8291    2.2098 O   0  0  0  0  0  0  0  0  0  0  0  0
   11.7243   -4.8648    3.0933 C   0  0  1  0  0  0  0  0  0  0  0  0
   10.8931   -4.0476    2.2699 O   0  0  0  0  0  0  0  0  0  0  0  0
   10.4693   -4.5849    1.0645 C   0  0  2  0  0  0  0  0  0  0  0  0
   11.0582   -3.7498   -0.0853 C   0  0  2  0  0  0  0  0  0  0  0  0
   12.4767   -3.7863    0.0068 O   0  0  0  0  0  0  0  0  0  0  0  0
   10.5595   -2.2985    0.0283 C   0  0  1  0  0  0  0  0  0  0  0  0
   11.1164   -1.4333   -1.0513 N   0  3  0  0  0  0  0  0  0  0  0  0
    9.0117   -2.2864   -0.0072 C   0  0  2  0  0  0  0  0  0  0  0  0
    8.5191   -0.9547    0.1219 O   0  0  0  0  0  0  0  0  0  0  0  0
    8.4471   -3.1836    1.1098 C   0  0  2  0  0  0  0  0  0  0  0  0
    9.0194   -4.5390    1.0214 O   0  0  0  0  0  0  0  0  0  0  0  0
    6.9442   -3.3294    1.0195 C   0  0  0  0  0  0  0  0  0  0  0  0
    6.5212   -3.5977   -0.3156 O   0  0  0  0  0  0  0  0  0  0  0  0
  1  2  1  6  0  0  0
  1  3  1  0  0  0  0
  1  9  1  0  0  0  0
  3  4  1  6  0  0  0
  3  5  1  0  0  0  0
  5  6  1  0  0  0  0
  6  7  1  6  0  0  0
  6  8  1  0  0  0  0
  8  9  1  0  0  0  0
  8 10  1  1  0  0  0
 10 11  1  0  0  0  0
 12 13  1  6  0  0  0
 12 14  1  0  0  0  0
 12 20  1  0  0  0  0
 14 15  1  0  0  0  0
 15 16  1  1  0  0  0
 15 17  1  0  0  0  0
 17  2  1  1  0  0  0
 17 18  1  0  0  0  0
 18 19  1  6  0  0  0
 18 20  1  0  0  0  0
 20 21  1  6  0  0  0
 22 21  1  1  0  0  0
 22 23  1  0  0  0  0
 22 30  1  0  0  0  0
 23 24  1  1  0  0  0
 23 25  1  0  0  0  0
 25 26  1  6  0  0  0
 25 27  1  0  0  0  0
 27 28  1  1  0  0  0
 27 29  1  0  0  0  0
 29 30  1  0  0  0  0
 29 31  1  6  0  0  0
 31 32  1  0  0  0  0
M  CHG  5   4   1  11   1  13   1  16   1  26   1
M  END
>  <CHROM.1>
-80.02757254,-93.13052083,169.59484344,25.73051934,-75.21253768,-70.96809131
-55.99952265,-70.88874984,83.09789446,179.41223690,-116.19832833,50.03373139
-53.19146157,66.87734464,45.83506304,67.89616240,10.46629672,-6.30919211
2.91281007,-1.53647151,-0.52164177,-0.51689871

>  <Name>
1lc4

>  <RI>
0

>  <Rbt.Current_Directory>
/home/afrankz/demos/rdock_decoys_rna/rnas/1lc4

>  <Rbt.Executable>
rbdock ($Id: //depot/dev/client3/rdock/2013.1/src/exe/rbdock.cxx#4 $)

>  <Rbt.Library>
libRbt.so (2013.1, Build901 2013/11/27)

>  <Rbt.Parameter_File>
/export/apps/rDock/src/rDock_2013.1_src/data/scripts/dock_solv.prm

>  <Rbt.Receptor>
prm/blind_docking_20.prm

>  <SCORE>
-41.1214

>  <SCORE.INTER>
-31.9334

>  <SCORE.INTER.CONST>
1

>  <SCORE.INTER.POLAR>
-4.55001

>  <SCORE.INTER.ROT>
6

>  <SCORE.INTER.SOLV>
24.4868

>  <SCORE.INTER.VDW>
-21.8845

>  <SCORE.INTER.norm>
-0.997919

>  <SCORE.INTRA>
-13.7385

>  <SCORE.INTRA.DIHEDRAL>
-20.8518

>  <SCORE.INTRA.DIHEDRAL.0>
44.2576

>  <SCORE.INTRA.POLAR>
-0.890708

>  <SCORE.INTRA.POLAR.0>
-0.381556

>  <SCORE.INTRA.REPUL>
0

>  <SCORE.INTRA.REPUL.0>
0

>  <SCORE.INTRA.SOLV>
0.250995

>  <SCORE.INTRA.SOLV.lig_0>
-134.592

>  <SCORE.INTRA.VDW>
-0.409703

>  <SCORE.INTRA.VDW.0>
-1.01417

>  <SCORE.INTRA.norm>
-0.429328

>  <SCORE.RESTR>
4.55046

>  <SCORE.RESTR.CAVITY>
4.55046

>  <SCORE.RESTR.norm>
0.142202

>  <SCORE.SYSTEM>
0

>  <SCORE.SYSTEM.CONST>
0

>  <SCORE.SYSTEM.DIHEDRAL>
0

>  <SCORE.SYSTEM.SOLV>
0

>  <SCORE.SYSTEM.norm>
0

>  <SCORE.heavy>
32

>  <SCORE.norm>
-1.28505

>  <RMSD>
31.019

$$$$
1lc4
 OpenBabel02141814113D
libRbt.so/2013.1/901 2013/11/27
 32 34  0  0  0  0  0  0  0  0999 V2000
   12.0577   -4.3699    4.6560 C   0  0  2  0  0  0  0  0  0  0  0  0
   11.2283   -4.9317    3.6698 O   0  0  0  0  0  0  0  0  0  0  0  0
   12.5283   -2.9883    4.1572 C   0  0  2  0  0  0  0  0  0  0  0  0
   11.3750   -2.1265    3.8798 N   0  3  0  0  0  0  0  0  0  0  0  0
   13.4246   -3.1510    2.9071 C   0  0  0  0  0  0  0  0  0  0  0  0
   14.6204   -4.0331    3.3065 C   0  0  2  0  0  0  0  0  0  0  0  0
   15.5195   -4.1847    2.2029 O   0  0  0  0  0  0  0  0  0  0  0  0
   14.1006   -5.4059    3.8012 C   0  0  2  0  0  0  0  0  0  0  0  0
   13.1884   -5.2288    4.9221 O   0  0  0  0  0  0  0  0  0  0  0  0
   15.2095   -6.3422    4.2747 C   0  0  0  0  0  0  0  0  0  0  0  0
   14.7972   -7.0940    5.4890 N   0  3  0  0  0  0  0  0  0  0  0  0
    9.2774   -8.6839    3.3963 C   0  0  2  0  0  0  0  0  0  0  0  0
    9.0146  -10.1311    3.2932 N   0  3  0  0  0  0  0  0  0  0  0  0
   10.0534   -8.2107    2.1747 C   0  0  0  0  0  0  0  0  0  0  0  0
   10.3362   -6.7075    2.2718 C   0  0  2  0  0  0  0  0  0  0  0  0
   10.9862   -6.2703    1.0112 N   0  3  0  0  0  0  0  0  0  0  0  0
   11.1454   -6.3668    3.5588 C   0  0  2  0  0  0  0  0  0  0  0  0
   10.3865   -6.8991    4.8016 C   0  0  2  0  0  0  0  0  0  0  0  0
   11.1913   -6.7392    5.9447 O   0  0  0  0  0  0  0  0  0  0  0  0
   10.0878   -8.4004    4.6595 C   0  0  1  0  0  0  0  0  0  0  0  0
    9.3622   -8.8375    5.8081 O   0  0  0  0  0  0  0  0  0  0  0  0
   10.0907   -9.4103    6.8389 C   0  0  2  0  0  0  0  0  0  0  0  0
    9.4436  -10.7537    7.2169 C   0  0  2  0  0  0  0  0  0  0  0  0
    9.4481  -11.5980    6.0728 O   0  0  0  0  0  0  0  0  0  0  0  0
    7.9990  -10.5116    7.6881 C   0  0  1  0  0  0  0  0  0  0  0  0
    7.3114  -11.7848    8.0491 N   0  3  0  0  0  0  0  0  0  0  0  0
    8.0110   -9.5381    8.8920 C   0  0  2  0  0  0  0  0  0  0  0  0
    6.6818   -9.2746    9.3353 O   0  0  0  0  0  0  0  0  0  0  0  0
    8.7244   -8.2280    8.5094 C   0  0  2  0  0  0  0  0  0  0  0  0
   10.0696   -8.5098    7.9768 O   0  0  0  0  0  0  0  0  0  0  0  0
    8.9006   -7.3069    9.6962 C   0  0  0  0  0  0  0  0  0  0  0  0
   10.0869   -7.6113   10.4266 O   0  0  0  0  0  0  0  0  0  0  0  0
  1  2  1  6  0  0  0
  1  3  1  0  0  0  0
  1  9  1  0  0  0  0
  3  4  1  6  0  0  0
  3  5  1  0  0  0  0
  5  6  1  0  0  0  0
  6  7  1  6  0  0  0
  6  8  1  0  0  0  0
  8  9  1  0  0  0  0
  8 10  1  1  0  0  0
 10 11  1  0  0  0  0
 12 13  1  6  0  0  0
 12 14  1  0  0  0  0
 12 20  1  0  0  0  0
 14 15  1  0  0  0  0
 15 16  1  6  0  0  0
 15 17  1  0  0  0  0
 17  2  1  1  0  0  0
 17 18  1  0  0  0  0
 18 19  1  1  0  0  0
 18 20  1  0  0  0  0
 20 21  1  1  0  0  0
 22 21  1  6  0  0  0
 22 23  1  0  0  0  0
 22 30  1  0  0  0  0
 23 24  1  6  0  0  0
 23 25  1  0  0  0  0
 25 26  1  1  0  0  0
 25 27  1  0  0  0  0
 27 28  1  6  0  0  0
 27 29  1  0  0  0  0
 29 30  1  0  0  0  0
 29 31  1  1  0  0  0
 31 32  1  0  0  0  0
M  CHG  5   4   1  11   1  13   1  16   1  26   1
M  END
>  <CHROM.1>
151.94273607,-171.80788708,56.97272159,179.39101517,140.30384184,41.24116756
-104.23932771,-7.24709546,-173.55029692,142.32386463,-129.15957215,74.30267867
-179.74539747,176.49784730,85.82999636,-177.61226101,10.82934398,-7.26189981
5.36633351,-0.42021720,0.90356483,1.36316811

>  <Name>
1lc4

>  <RI>
0

>  <Rbt.Current_Directory>
/home/afrankz/demos/rdock_decoys_rna/rnas/1lc4

>  <Rbt.Executable>
rbdock ($Id: //depot/dev/client3/rdock/2013.1/src/exe/rbdock.cxx#4 $)

>  <Rbt.Library>
libRbt.so (2013.1, Build901 2013/11/27)

>  <Rbt.Parameter_File>
/export/apps/rDock/src/rDock_2013.1_src/data/scripts/dock_solv.prm

>  <Rbt.Receptor>
prm/blind_docking_20.prm

>  <SCORE>
-36.7696

>  <SCORE.INTER>
-28.016

>  <SCORE.INTER.CONST>
1

>  <SCORE.INTER.POLAR>
-4.14451

>  <SCORE.INTER.ROT>
6

>  <SCORE.INTER.SOLV>
36.7516

>  <SCORE.INTER.VDW>
-24.7128

>  <SCORE.INTER.norm>
-0.8755

>  <SCORE.INTRA>
-13.2116

>  <SCORE.INTRA.DIHEDRAL>
-14.3206

>  <SCORE.INTRA.DIHEDRAL.0>
44.2576

>  <SCORE.INTRA.POLAR>
-1.50381

>  <SCORE.INTRA.POLAR.0>
-0.381556

>  <SCORE.INTRA.REPUL>
0

>  <SCORE.INTRA.REPUL.0>
0

>  <SCORE.INTRA.SOLV>
-1.76833

>  <SCORE.INTRA.SOLV.lig_0>
-134.592

>  <SCORE.INTRA.VDW>
-0.0541795

>  <SCORE.INTRA.VDW.0>
-1.01417

>  <SCORE.INTRA.norm>
-0.412862

>  <SCORE.RESTR>
4.45799

>  <SCORE.RESTR.CAVITY>
4.45799

>  <SCORE.RESTR.norm>
0.139312

>  <SCORE.SYSTEM>
0

>  <SCORE.SYSTEM.CONST>
0

>  <SCORE.SYSTEM.DIHEDRAL>
0

>  <SCORE.SYSTEM.SOLV>
0

>  <SCORE.SYSTEM.norm>
0

>  <SCORE.heavy>
32

>  <SCORE.norm>
-1.14905

>  <RMSD>
31.024

$$$$
1lc4
 OpenBabel02141814113D
libRbt.so/2013.1/901 2013/11/27
 32 34  0  0  0  0  0  0  0  0999 V2000
   10.8379   -8.6568    9.4661 C   0  0  2  0  0  0  0  0  0  0  0  0
   11.7306   -7.6818    8.9882 O   0  0  0  0  0  0  0  0  0  0  0  0
    9.4066   -8.2233    9.0885 C   0  0  2  0  0  0  0  0  0  0  0  0
    9.2891   -8.0628    7.6359 N   0  3  0  0  0  0  0  0  0  0  0  0
    9.0318   -6.9199    9.8322 C   0  0  0  0  0  0  0  0  0  0  0  0
    9.1468   -7.1985   11.3412 C   0  0  2  0  0  0  0  0  0  0  0  0
    8.7650   -6.0416   12.0929 O   0  0  0  0  0  0  0  0  0  0  0  0
   10.5969   -7.6310   11.6723 C   0  0  2  0  0  0  0  0  0  0  0  0
   10.9646   -8.8075   10.8973 O   0  0  0  0  0  0  0  0  0  0  0  0
   10.8061   -7.9846   13.1426 C   0  0  0  0  0  0  0  0  0  0  0  0
   10.5751   -9.4327   13.3861 N   0  3  0  0  0  0  0  0  0  0  0  0
   15.3221   -7.3783    6.7590 C   0  0  2  0  0  0  0  0  0  0  0  0
   16.3879   -7.6078    5.7664 N   0  3  0  0  0  0  0  0  0  0  0  0
   15.1361   -8.6234    7.6156 C   0  0  0  0  0  0  0  0  0  0  0  0
   14.0274   -8.3986    8.6498 C   0  0  2  0  0  0  0  0  0  0  0  0
   13.9633   -9.5884    9.5345 N   0  3  0  0  0  0  0  0  0  0  0  0
   12.6763   -8.0416    7.9610 C   0  0  2  0  0  0  0  0  0  0  0  0
   12.8754   -6.8089    7.0420 C   0  0  2  0  0  0  0  0  0  0  0  0
   11.7027   -6.5874    6.2965 O   0  0  0  0  0  0  0  0  0  0  0  0
   14.0151   -7.0517    6.0392 C   0  0  1  0  0  0  0  0  0  0  0  0
   14.1828   -5.8820    5.2389 O   0  0  0  0  0  0  0  0  0  0  0  0
   14.0141   -6.0202    3.8700 C   0  0  2  0  0  0  0  0  0  0  0  0
   14.9660   -5.0482    3.1522 C   0  0  2  0  0  0  0  0  0  0  0  0
   16.3018   -5.3619    3.5252 O   0  0  0  0  0  0  0  0  0  0  0  0
   14.6289   -3.6042    3.5632 C   0  0  1  0  0  0  0  0  0  0  0  0
   15.5360   -2.6150    2.9129 N   0  3  0  0  0  0  0  0  0  0  0  0
   13.1518   -3.3043    3.2094 C   0  0  2  0  0  0  0  0  0  0  0  0
   12.8026   -1.9790    3.6025 O   0  0  0  0  0  0  0  0  0  0  0  0
   12.2241   -4.3318    3.8841 C   0  0  2  0  0  0  0  0  0  0  0  0
   12.6369   -5.7040    3.5390 O   0  0  0  0  0  0  0  0  0  0  0  0
   10.7853   -4.1769    3.4437 C   0  0  0  0  0  0  0  0  0  0  0  0
   10.6148   -4.5262    2.0717 O   0  0  0  0  0  0  0  0  0  0  0  0
  1  2  1  1  0  0  0
  1  3  1  0  0  0  0
  1  9  1  0  0  0  0
  3  4  1  6  0  0  0
  3  5  1  0  0  0  0
  5  6  1  0  0  0  0
  6  7  1  1  0  0  0
  6  8  1  0  0  0  0
  8  9  1  0  0  0  0
  8 10  1  1  0  0  0
 10 11  1  0  0  0  0
 12 13  1  6  0  0  0
 12 14  1  0  0  0  0
 12 20  1  0  0  0  0
 14 15  1  0  0  0  0
 15 16  1  6  0  0  0
 15 17  1  0  0  0  0
 17  2  1  1  0  0  0
 17 18  1  0  0  0  0
 18 19  1  6  0  0  0
 18 20  1  0  0  0  0
 20 21  1  1  0  0  0
 22 21  1  1  0  0  0
 22 23  1  0  0  0  0
 22 30  1  0  0  0  0
 23 24  1  1  0  0  0
 23 25  1  0  0  0  0
 25 26  1  6  0  0  0
 25 27  1  0  0  0  0
 27 28  1  1  0  0  0
 27 29  1  0  0  0  0
 29 30  1  0  0  0  0
 29 31  1  6  0  0  0
 31 32  1  0  0  0  0
M  CHG  5   4   1  11   1  13   1  16   1  26   1
M  END
>  <CHROM.1>
-115.16208978,-96.25104066,59.81531289,-61.92493940,91.14919252,-72.21559426
176.13773227,-52.02800233,-70.21968661,118.02275818,-146.85888812,178.86863594
165.72694105,179.80588129,67.81262213,-57.65138483,12.47527066,-6.52475041
7.01635892,1.97563551,-0.35226947,2.17459867

>  <Name>
1lc4

>  <RI>
0

>  <Rbt.Current_Directory>
/home/afrankz/demos/rdock_decoys_rna/rnas/1lc4

>  <Rbt.Executable>
rbdock ($Id: //depot/dev/client3/rdock/2013.1/src/exe/rbdock.cxx#4 $)

>  <Rbt.Library>
libRbt.so (2013.1, Build901 2013/11/27)

>  <Rbt.Parameter_File>
/export/apps/rDock/src/rDock_2013.1_src/data/scripts/dock_solv.prm

>  <Rbt.Receptor>
prm/blind_docking_60.prm

>  <SCORE>
-22.1504

>  <SCORE.INTER>
-8.00803

>  <SCORE.INTER.CONST>
1

>  <SCORE.INTER.POLAR>
-2.63591

>  <SCORE.INTER.ROT>
6

>  <SCORE.INTER.SOLV>
26.0855

>  <SCORE.INTER.VDW>
-12.8475

>  <SCORE.INTER.norm>
-0.250251

>  <SCORE.INTRA>
-18.3522

>  <SCORE.INTRA.DIHEDRAL>
-16.3733

>  <SCORE.INTRA.DIHEDRAL.0>
44.2576

>  <SCORE.INTRA.POLAR>
-1.97403

>  <SCORE.INTRA.POLAR.0>
-0.381556

>  <SCORE.INTRA.REPUL>
0

>  <SCORE.INTRA.REPUL.0>
0

>  <SCORE.INTRA.SOLV>
1.55747

>  <SCORE.INTRA.SOLV.lig_0>
-134.592

>  <SCORE.INTRA.VDW>
-4.23262

>  <SCORE.INTRA.VDW.0>
-1.01417

>  <SCORE.INTRA.norm>
-0.573508

>  <SCORE.RESTR>
4.20985

>  <SCORE.RESTR.CAVITY>
4.20985

>  <SCORE.RESTR.norm>
0.131558

>  <SCORE.SYSTEM>
0

>  <SCORE.SYSTEM.CONST>
0

>  <SCORE.SYSTEM.DIHEDRAL>
0

>  <SCORE.SYSTEM.SOLV>
0

>  <SCORE.SYSTEM.norm>
0

>  <SCORE.heavy>
32

>  <SCORE.norm>
-0.692201

>  <RMSD>
31.037

$$$$
1lc4
 OpenBabel02141814113D
libRbt.so/2013.1/901 2013/11/27
 32 34  0  0  0  0  0  0  0  0999 V2000
   11.2803   -7.5553    7.5547 C   0  0  2  0  0  0  0  0  0  0  0  0
   11.3121   -8.1897    6.3006 O   0  0  0  0  0  0  0  0  0  0  0  0
   12.2738   -8.2810    8.4849 C   0  0  2  0  0  0  0  0  0  0  0  0
   13.6226   -8.2541    7.9107 N   0  3  0  0  0  0  0  0  0  0  0  0
   11.7994   -9.7305    8.7429 C   0  0  0  0  0  0  0  0  0  0  0  0
   10.4001   -9.6534    9.3783 C   0  0  2  0  0  0  0  0  0  0  0  0
    9.9198  -10.9657    9.6888 O   0  0  0  0  0  0  0  0  0  0  0  0
    9.4394   -8.9171    8.4117 C   0  0  2  0  0  0  0  0  0  0  0  0
    9.9465   -7.5862    8.1089 O   0  0  0  0  0  0  0  0  0  0  0  0
    8.0306   -8.7386    8.9720 C   0  0  0  0  0  0  0  0  0  0  0  0
    7.8495   -7.3814    9.5509 N   0  3  0  0  0  0  0  0  0  0  0  0
   11.0528   -6.8786    2.2790 C   0  0  2  0  0  0  0  0  0  0  0  0
   10.5863   -6.2513    1.0289 N   0  3  0  0  0  0  0  0  0  0  0  0
   10.0504   -7.9298    2.7357 C   0  0  0  0  0  0  0  0  0  0  0  0
   10.5226   -8.5871    4.0374 C   0  0  2  0  0  0  0  0  0  0  0  0
    9.5799   -9.6813    4.3788 N   0  3  0  0  0  0  0  0  0  0  0  0
   10.7115   -7.5312    5.1673 C   0  0  2  0  0  0  0  0  0  0  0  0
   11.6868   -6.4271    4.6841 C   0  0  2  0  0  0  0  0  0  0  0  0
   11.7295   -5.3919    5.6362 O   0  0  0  0  0  0  0  0  0  0  0  0
   11.2046   -5.8110    3.3608 C   0  0  1  0  0  0  0  0  0  0  0  0
   12.1473   -4.8259    2.9395 O   0  0  0  0  0  0  0  0  0  0  0  0
   11.7637   -3.4976    3.0374 C   0  0  2  0  0  0  0  0  0  0  0  0
   11.4654   -2.9619    1.6266 C   0  0  2  0  0  0  0  0  0  0  0  0
   10.4229   -3.7423    1.0554 O   0  0  0  0  0  0  0  0  0  0  0  0
   12.7341   -3.0628    0.7618 C   0  0  1  0  0  0  0  0  0  0  0  0
   12.4994   -2.5760   -0.6282 N   0  3  0  0  0  0  0  0  0  0  0  0
   13.8755   -2.2617    1.4346 C   0  0  2  0  0  0  0  0  0  0  0  0
   15.0734   -2.3578    0.6674 O   0  0  0  0  0  0  0  0  0  0  0  0
   14.1086   -2.7707    2.8693 C   0  0  2  0  0  0  0  0  0  0  0  0
   12.8502   -2.7448    3.6364 O   0  0  0  0  0  0  0  0  0  0  0  0
   15.1054   -1.9179    3.6222 C   0  0  0  0  0  0  0  0  0  0  0  0
   16.3005   -1.7184    2.8704 O   0  0  0  0  0  0  0  0  0  0  0  0
  1  2  1  6  0  0  0
  1  3  1  0  0  0  0
  1  9  1  0  0  0  0
  3  4  1  6  0  0  0
  3  5  1  0  0  0  0
  5  6  1  0  0  0  0
  6  7  1  6  0  0  0
  6  8  1  0  0  0  0
  8  9  1  0  0  0  0
  8 10  1  1  0  0  0
 10 11  1  0  0  0  0
 12 13  1  6  0  0  0
 12 14  1  0  0  0  0
 12 20  1  0  0  0  0
 14 15  1  0  0  0  0
 15 16  1  1  0  0  0
 15 17  1  0  0  0  0
 17  2  1  1  0  0  0
 17 18  1  0  0  0  0
 18 19  1  1  0  0  0
 18 20  1  0  0  0  0
 20 21  1  6  0  0  0
 22 21  1  6  0  0  0
 22 23  1  0  0  0  0
 22 30  1  0  0  0  0
 23 24  1  6  0  0  0
 23 25  1  0  0  0  0
 25 26  1  6  0  0  0
 25 27  1  0  0  0  0
 27 28  1  6  0  0  0
 27 29  1  0  0  0  0
 29 30  1  0  0  0  0
 29 31  1  1  0  0  0
 31 32  1  0  0  0  0
M  CHG  5   4   1  11   1  13   1  16   1  26   1
M  END
>  <CHROM.1>
-166.02873573,-164.11108862,67.92339632,64.19942033,98.21098238,175.35064774
79.62423905,168.57509050,-178.06186820,129.95527209,-106.23834339,72.75206635
-62.30127703,-84.12016816,-50.32062150,-164.74910044,11.61593133,-6.04898103
4.68173055,-2.01396969,-0.68101567,-1.12474061

>  <Name>
1lc4

>  <RI>
0

>  <Rbt.Current_Directory>
/home/afrankz/demos/rdock_decoys_rna/rnas/1lc4

>  <Rbt.Executable>
rbdock ($Id: //depot/dev/client3/rdock/2013.1/src/exe/rbdock.cxx#4 $)

>  <Rbt.Library>
libRbt.so (2013.1, Build901 2013/11/27)

>  <Rbt.Parameter_File>
/export/apps/rDock/src/rDock_2013.1_src/data/scripts/dock_solv.prm

>  <Rbt.Receptor>
prm/blind_docking_60.prm

>  <SCORE>
-45.1378

>  <SCORE.INTER>
-45.68

>  <SCORE.INTER.CONST>
1

>  <SCORE.INTER.POLAR>
-7.49254

>  <SCORE.INTER.ROT>
6

>  <SCORE.INTER.SOLV>
32.6839

>  <SCORE.INTER.VDW>
-23.9729

>  <SCORE.INTER.norm>
-1.4275

>  <SCORE.INTRA>
-12.2779

>  <SCORE.INTRA.DIHEDRAL>
-19.1091

>  <SCORE.INTRA.DIHEDRAL.0>
44.2576

>  <SCORE.INTRA.POLAR>
0.00299154

>  <SCORE.INTRA.POLAR.0>
-0.381556

>  <SCORE.INTRA.REPUL>
0

>  <SCORE.INTRA.REPUL.0>
0

>  <SCORE.INTRA.SOLV>
-0.128233

>  <SCORE.INTRA.SOLV.lig_0>
-134.592

>  <SCORE.INTRA.VDW>
-2.66941

>  <SCORE.INTRA.VDW.0>
-1.01417

>  <SCORE.INTRA.norm>
-0.383684

>  <SCORE.RESTR>
12.8202

>  <SCORE.RESTR.CAVITY>
12.8202

>  <SCORE.RESTR.norm>
0.40063

>  <SCORE.SYSTEM>
0

>  <SCORE.SYSTEM.CONST>
0

>  <SCORE.SYSTEM.DIHEDRAL>
0

>  <SCORE.SYSTEM.SOLV>
0

>  <SCORE.SYSTEM.norm>
0

>  <SCORE.heavy>
32

>  <SCORE.norm>
-1.41056

>  <RMSD>
31.041

$$$$
1lc4
 OpenBabel02141814113D
libRbt.so/2013.1/901 2013/11/27
 32 34  0  0  0  0  0  0  0  0999 V2000
    8.3595  -10.6703    5.9812 C   0  0  2  0  0  0  0  0  0  0  0  0
    9.3945  -10.8059    6.9228 O   0  0  0  0  0  0  0  0  0  0  0  0
    7.0575  -10.3475    6.7425 C   0  0  2  0  0  0  0  0  0  0  0  0
    7.2192   -9.1235    7.5331 N   0  3  0  0  0  0  0  0  0  0  0  0
    6.6513  -11.5450    7.6333 C   0  0  0  0  0  0  0  0  0  0  0  0
    6.4679  -12.7650    6.7136 C   0  0  2  0  0  0  0  0  0  0  0  0
    6.0426  -13.9023    7.4718 O   0  0  0  0  0  0  0  0  0  0  0  0
    7.7970  -13.0496    5.9706 C   0  0  2  0  0  0  0  0  0  0  0  0
    8.2115  -11.8810    5.2072 O   0  0  0  0  0  0  0  0  0  0  0  0
    7.7076  -14.2138    4.9871 C   0  0  0  0  0  0  0  0  0  0  0  0
    8.8415  -14.1947    4.0260 N   0  3  0  0  0  0  0  0  0  0  0  0
   11.9578   -7.4319    6.9963 C   0  0  2  0  0  0  0  0  0  0  0  0
   13.1290   -6.5487    6.8470 N   0  3  0  0  0  0  0  0  0  0  0  0
   12.2949   -8.5843    7.9326 C   0  0  0  0  0  0  0  0  0  0  0  0
   11.0857   -9.5123    8.0932 C   0  0  2  0  0  0  0  0  0  0  0  0
   11.4206  -10.5485    9.1016 N   0  3  0  0  0  0  0  0  0  0  0  0
   10.6257  -10.0840    6.7188 C   0  0  2  0  0  0  0  0  0  0  0  0
   10.3375   -8.9137    5.7435 C   0  0  2  0  0  0  0  0  0  0  0  0
   10.0827   -9.4280    4.4588 O   0  0  0  0  0  0  0  0  0  0  0  0
   11.5557   -7.9829    5.6297 C   0  0  1  0  0  0  0  0  0  0  0  0
   11.2336   -6.9065    4.7497 O   0  0  0  0  0  0  0  0  0  0  0  0
   11.9211   -6.8418    3.5479 C   0  0  2  0  0  0  0  0  0  0  0  0
   13.1339   -5.9112    3.7195 C   0  0  2  0  0  0  0  0  0  0  0  0
   13.9679   -6.4361    4.7447 O   0  0  0  0  0  0  0  0  0  0  0  0
   12.6481   -4.5027    4.1043 C   0  0  1  0  0  0  0  0  0  0  0  0
   13.7848   -3.5585    4.3058 N   0  3  0  0  0  0  0  0  0  0  0  0
   11.6896   -3.9762    3.0084 C   0  0  2  0  0  0  0  0  0  0  0  0
   11.2024   -2.6807    3.3505 O   0  0  0  0  0  0  0  0  0  0  0  0
   10.5209   -4.9588    2.8071 C   0  0  2  0  0  0  0  0  0  0  0  0
   11.0289   -6.3148    2.5318 O   0  0  0  0  0  0  0  0  0  0  0  0
    9.6421   -4.5683    1.6395 C   0  0  0  0  0  0  0  0  0  0  0  0
   10.3405   -4.6650    0.4001 O   0  0  0  0  0  0  0  0  0  0  0  0
  1  2  1  1  0  0  0
  1  3  1  0  0  0  0
  1  9  1  0  0  0  0
  3  4  1  1  0  0  0
  3  5  1  0  0  0  0
  5  6  1  0  0  0  0
  6  7  1  1  0  0  0
  6  8  1  0  0  0  0
  8  9  1  0  0  0  0
  8 10  1  6  0  0  0
 10 11  1  0  0  0  0
 12 13  1  6  0  0  0
 12 14  1  0  0  0  0
 12 20  1  0  0  0  0
 14 15  1  0  0  0  0
 15 16  1  1  0  0  0
 15 17  1  0  0  0  0
 17  2  1  1  0  0  0
 17 18  1  0  0  0  0
 18 19  1  6  0  0  0
 18 20  1  0  0  0  0
 20 21  1  6  0  0  0
 22 21  1  1  0  0  0
 22 23  1  0  0  0  0
 22 30  1  0  0  0  0
 23 24  1  1  0  0  0
 23 25  1  0  0  0  0
 25 26  1  6  0  0  0
 25 27  1  0  0  0  0
 27 28  1  1  0  0  0
 27 29  1  0  0  0  0
 29 30  1  0  0  0  0
 29 31  1  6  0  0  0
 31 32  1  0  0  0  0
M  CHG  5   4   1  11   1  13   1  16   1  26   1
M  END
>  <CHROM.1>
-130.07613561,138.45039689,-31.88488458,177.04319298,163.08397563,69.72508959
72.73779644,179.78610217,-60.39969270,124.45007642,-94.21712232,-178.06312951
-73.06834563,176.97026389,65.73010321,60.28590614,10.25332242,-8.51278420
5.28288093,2.23119718,0.73480005,2.27643765

>  <Name>
1lc4

>  <RI>
0

>  <Rbt.Current_Directory>
/home/afrankz/demos/rdock_decoys_rna/rnas/1lc4

>  <Rbt.Executable>
rbdock ($Id: //depot/dev/client3/rdock/2013.1/src/exe/rbdock.cxx#4 $)

>  <Rbt.Library>
libRbt.so (2013.1, Build901 2013/11/27)

>  <Rbt.Parameter_File>
/export/apps/rDock/src/rDock_2013.1_src/data/scripts/dock_solv.prm

>  <Rbt.Receptor>
prm/blind_docking_20.prm

>  <SCORE>
-26.4768

>  <SCORE.INTER>
-26.2621

>  <SCORE.INTER.CONST>
1

>  <SCORE.INTER.POLAR>
-3.92363

>  <SCORE.INTER.ROT>
6

>  <SCORE.INTER.SOLV>
28.009

>  <SCORE.INTER.VDW>
-21.3656

>  <SCORE.INTER.norm>
-0.82069

>  <SCORE.INTRA>
-4.61751

>  <SCORE.INTRA.DIHEDRAL>
-16.5233

>  <SCORE.INTRA.DIHEDRAL.0>
44.2576

>  <SCORE.INTRA.POLAR>
-0.06307

>  <SCORE.INTRA.POLAR.0>
-0.381556

>  <SCORE.INTRA.REPUL>
0

>  <SCORE.INTRA.REPUL.0>
0

>  <SCORE.INTRA.SOLV>
2.14502

>  <SCORE.INTRA.SOLV.lig_0>
-134.592

>  <SCORE.INTRA.VDW>
2.78606

>  <SCORE.INTRA.VDW.0>
-1.01417

>  <SCORE.INTRA.norm>
-0.144297

>  <SCORE.RESTR>
4.40282

>  <SCORE.RESTR.CAVITY>
4.40282

>  <SCORE.RESTR.norm>
0.137588

>  <SCORE.SYSTEM>
0

>  <SCORE.SYSTEM.CONST>
0

>  <SCORE.SYSTEM.DIHEDRAL>
0

>  <SCORE.SYSTEM.SOLV>
0

>  <SCORE.SYSTEM.norm>
0

>  <SCORE.heavy>
32

>  <SCORE.norm>
-0.827399

>  <RMSD>
31.073

$$$$
1lc4
 OpenBabel02141814113D
libRbt.so/2013.1/901 2013/11/27
 32 34  0  0  0  0  0  0  0  0999 V2000
   10.4072   -5.1725    2.9171 C   0  0  2  0  0  0  0  0  0  0  0  0
   10.8013   -6.4084    2.3755 O   0  0  0  0  0  0  0  0  0  0  0  0
   10.3210   -4.1496    1.7659 C   0  0  2  0  0  0  0  0  0  0  0  0
    9.3728   -4.6085    0.7460 N   0  3  0  0  0  0  0  0  0  0  0  0
   11.7247   -3.9077    1.1629 C   0  0  0  0  0  0  0  0  0  0  0  0
   12.6322   -3.3938    2.2944 C   0  0  2  0  0  0  0  0  0  0  0  0
   13.9405   -3.1024    1.7916 O   0  0  0  0  0  0  0  0  0  0  0  0
   12.6869   -4.4504    3.4258 C   0  0  2  0  0  0  0  0  0  0  0  0
   11.3473   -4.7321    3.9218 O   0  0  0  0  0  0  0  0  0  0  0  0
   13.5223   -4.0138    4.6267 C   0  0  0  0  0  0  0  0  0  0  0  0
   13.4357   -5.0047    5.7313 N   0  3  0  0  0  0  0  0  0  0  0  0
    9.9820   -9.9960    4.4774 C   0  0  2  0  0  0  0  0  0  0  0  0
   10.1040  -11.1722    5.3579 N   0  3  0  0  0  0  0  0  0  0  0  0
   11.0438  -10.0532    3.3875 C   0  0  0  0  0  0  0  0  0  0  0  0
   10.9297   -8.8330    2.4670 C   0  0  2  0  0  0  0  0  0  0  0  0
   11.9014   -8.9910    1.3565 N   0  3  0  0  0  0  0  0  0  0  0  0
   11.0850   -7.5052    3.2672 C   0  0  2  0  0  0  0  0  0  0  0  0
   10.0434   -7.4695    4.4150 C   0  0  2  0  0  0  0  0  0  0  0  0
   10.2899   -6.3531    5.2354 O   0  0  0  0  0  0  0  0  0  0  0  0
   10.1601   -8.7213    5.2998 C   0  0  1  0  0  0  0  0  0  0  0  0
    9.1637   -8.6603    6.3197 O   0  0  0  0  0  0  0  0  0  0  0  0
    9.2016   -9.6364    7.3031 C   0  0  2  0  0  0  0  0  0  0  0  0
    8.3223   -9.1869    8.4825 C   0  0  2  0  0  0  0  0  0  0  0  0
    6.9928   -9.0017    8.0134 O   0  0  0  0  0  0  0  0  0  0  0  0
    8.8685   -7.8670    9.0545 C   0  0  1  0  0  0  0  0  0  0  0  0
    8.0412   -7.3692   10.1911 N   0  3  0  0  0  0  0  0  0  0  0  0
   10.3376   -8.0720    9.4981 C   0  0  2  0  0  0  0  0  0  0  0  0
   10.8796   -6.8567   10.0101 O   0  0  0  0  0  0  0  0  0  0  0  0
   11.1825   -8.5875    8.3183 C   0  0  2  0  0  0  0  0  0  0  0  0
   10.5757   -9.8000    7.7404 O   0  0  0  0  0  0  0  0  0  0  0  0
   12.5886   -8.9523    8.7400 C   0  0  0  0  0  0  0  0  0  0  0  0
   13.4932   -7.8667    8.5491 O   0  0  0  0  0  0  0  0  0  0  0  0
  1  2  1  6  0  0  0
  1  3  1  0  0  0  0
  1  9  1  0  0  0  0
  3  4  1  6  0  0  0
  3  5  1  0  0  0  0
  5  6  1  0  0  0  0
  6  7  1  6  0  0  0
  6  8  1  0  0  0  0
  8  9  1  0  0  0  0
  8 10  1  1  0  0  0
 10 11  1  0  0  0  0
 12 13  1  1  0  0  0
 12 14  1  0  0  0  0
 12 20  1  0  0  0  0
 14 15  1  0  0  0  0
 15 16  1  6  0  0  0
 15 17  1  0  0  0  0
 17  2  1  6  0  0  0
 17 18  1  0  0  0  0
 18 19  1  1  0  0  0
 18 20  1  0  0  0  0
 20 21  1  1  0  0  0
 22 21  1  6  0  0  0
 22 23  1  0  0  0  0
 22 30  1  0  0  0  0
 23 24  1  6  0  0  0
 23 25  1  0  0  0  0
 25 26  1  1  0  0  0
 25 27  1  0  0  0  0
 27 28  1  6  0  0  0
 27 29  1  0  0  0  0
 29 30  1  0  0  0  0
 29 31  1  1  0  0  0
 31 32  1  0  0  0  0
M  CHG  5   4   1  11   1  13   1  16   1  26   1
M  END
>  <CHROM.1>
173.88813447,157.60336801,-50.51590869,-58.30242023,174.60131268,-116.53465449
87.36383968,-174.74551804,-77.95208495,64.67674892,164.73301189,-49.40560073
-48.25788379,74.76553634,-93.78230348,-172.97494230,10.80415017,-7.17777108
5.28621729,1.00449276,-1.03520437,-1.51222183

>  <Name>
1lc4

>  <RI>
0

>  <Rbt.Current_Directory>
/home/afrankz/demos/rdock_decoys_rna/rnas/1lc4

>  <Rbt.Executable>
rbdock ($Id: //depot/dev/client3/rdock/2013.1/src/exe/rbdock.cxx#4 $)

>  <Rbt.Library>
libRbt.so (2013.1, Build901 2013/11/27)

>  <Rbt.Parameter_File>
/export/apps/rDock/src/rDock_2013.1_src/data/scripts/dock_solv.prm

>  <Rbt.Receptor>
prm/blind_docking_20.prm

>  <SCORE>
-34.5528

>  <SCORE.INTER>
-25.7945

>  <SCORE.INTER.CONST>
1

>  <SCORE.INTER.POLAR>
-5.30387

>  <SCORE.INTER.ROT>
6

>  <SCORE.INTER.SOLV>
44.5578

>  <SCORE.INTER.VDW>
-21.9694

>  <SCORE.INTER.norm>
-0.806079

>  <SCORE.INTRA>
-11.5613

>  <SCORE.INTRA.DIHEDRAL>
-28.288

>  <SCORE.INTRA.DIHEDRAL.0>
44.2576

>  <SCORE.INTRA.POLAR>
-0.381026

>  <SCORE.INTRA.POLAR.0>
-0.381556

>  <SCORE.INTRA.REPUL>
0

>  <SCORE.INTRA.REPUL.0>
0

>  <SCORE.INTRA.SOLV>
-0.480038

>  <SCORE.INTRA.SOLV.lig_0>
-134.592

>  <SCORE.INTRA.VDW>
4.11822

>  <SCORE.INTRA.VDW.0>
-1.01417

>  <SCORE.INTRA.norm>
-0.36129

>  <SCORE.RESTR>
2.80303

>  <SCORE.RESTR.CAVITY>
2.80303

>  <SCORE.RESTR.norm>
0.0875946

>  <SCORE.SYSTEM>
0

>  <SCORE.SYSTEM.CONST>
0

>  <SCORE.SYSTEM.DIHEDRAL>
0

>  <SCORE.SYSTEM.SOLV>
0

>  <SCORE.SYSTEM.norm>
0

>  <SCORE.heavy>
32

>  <SCORE.norm>
-1.07977

>  <RMSD>
31.093

$$$$
1lc4
 OpenBabel02141814113D
libRbt.so/2013.1/901 2013/11/27
 32 34  0  0  0  0  0  0  0  0999 V2000
   12.3624   -3.1662    4.4638 C   0  0  2  0  0  0  0  0  0  0  0  0
   11.3313   -3.7616    3.7166 O   0  0  0  0  0  0  0  0  0  0  0  0
   12.7948   -1.8744    3.7406 C   0  0  2  0  0  0  0  0  0  0  0  0
   11.6535   -0.9659    3.5935 N   0  3  0  0  0  0  0  0  0  0  0  0
   13.4233   -2.2173    2.3694 C   0  0  0  0  0  0  0  0  0  0  0  0
   14.6290   -3.1371    2.6298 C   0  0  2  0  0  0  0  0  0  0  0  0
   15.2890   -3.4552    1.4000 O   0  0  0  0  0  0  0  0  0  0  0  0
   14.1479   -4.4172    3.3574 C   0  0  2  0  0  0  0  0  0  0  0  0
   13.4797   -4.0712    4.6039 O   0  0  0  0  0  0  0  0  0  0  0  0
   15.2802   -5.3778    3.7123 C   0  0  0  0  0  0  0  0  0  0  0  0
   16.3966   -5.2779    2.7359 N   0  3  0  0  0  0  0  0  0  0  0  0
    9.6619   -7.6348    3.3029 C   0  0  2  0  0  0  0  0  0  0  0  0
    9.5050   -9.0885    3.1127 N   0  3  0  0  0  0  0  0  0  0  0  0
   10.3077   -7.0184    2.0695 C   0  0  0  0  0  0  0  0  0  0  0  0
   10.4797   -5.5069    2.2564 C   0  0  2  0  0  0  0  0  0  0  0  0
   11.0002   -4.9341    0.9900 N   0  3  0  0  0  0  0  0  0  0  0  0
   11.3519   -5.1880    3.5074 C   0  0  2  0  0  0  0  0  0  0  0  0
   10.7291   -5.8631    4.7564 C   0  0  2  0  0  0  0  0  0  0  0  0
   11.6004   -5.7146    5.8513 O   0  0  0  0  0  0  0  0  0  0  0  0
   10.5379   -7.3710    4.5260 C   0  0  1  0  0  0  0  0  0  0  0  0
    9.9340   -7.9424    5.6859 O   0  0  0  0  0  0  0  0  0  0  0  0
   10.7672   -8.6037    6.5747 C   0  0  2  0  0  0  0  0  0  0  0  0
   10.3742  -10.0905    6.6106 C   0  0  2  0  0  0  0  0  0  0  0  0
   10.5121  -10.6287    5.3016 O   0  0  0  0  0  0  0  0  0  0  0  0
    8.9163  -10.2235    7.0846 C   0  0  1  0  0  0  0  0  0  0  0  0
    8.4707  -11.6463    7.1193 N   0  3  0  0  0  0  0  0  0  0  0  0
    8.7726   -9.5729    8.4822 C   0  0  2  0  0  0  0  0  0  0  0  0
    7.4242   -9.6586    8.9373 O   0  0  0  0  0  0  0  0  0  0  0  0
    9.2367   -8.1052    8.4359 C   0  0  2  0  0  0  0  0  0  0  0  0
   10.6028   -8.0133    7.8902 O   0  0  0  0  0  0  0  0  0  0  0  0
    9.2636   -7.4719    9.8093 C   0  0  0  0  0  0  0  0  0  0  0  0
    7.9885   -7.5386   10.4442 O   0  0  0  0  0  0  0  0  0  0  0  0
  1  2  1  6  0  0  0
  1  3  1  0  0  0  0
  1  9  1  0  0  0  0
  3  4  1  6  0  0  0
  3  5  1  0  0  0  0
  5  6  1  0  0  0  0
  6  7  1  6  0  0  0
  6  8  1  0  0  0  0
  8  9  1  0  0  0  0
  8 10  1  1  0  0  0
 10 11  1  0  0  0  0
 12 13  1  6  0  0  0
 12 14  1  0  0  0  0
 12 20  1  0  0  0  0
 14 15  1  0  0  0  0
 15 16  1  6  0  0  0
 15 17  1  0  0  0  0
 17  2  1  1  0  0  0
 17 18  1  0  0  0  0
 18 19  1  1  0  0  0
 18 20  1  0  0  0  0
 20 21  1  1  0  0  0
 22 21  1  6  0  0  0
 22 23  1  0  0  0  0
 22 30  1  0  0  0  0
 23 24  1  6  0  0  0
 23 25  1  0  0  0  0
 25 26  1  1  0  0  0
 25 27  1  0  0  0  0
 27 28  1  6  0  0  0
 27 29  1  0  0  0  0
 29 30  1  0  0  0  0
 29 31  1  1  0  0  0
 31 32  1  0  0  0  0
M  CHG  5   4   1  11   1  13   1  16   1  26   1
M  END
>  <CHROM.1>
136.78157399,-158.51904510,60.24943346,68.22653774,-29.81392782,85.33133130
-132.30530565,177.81588479,48.04496138,137.89447596,-115.81052489,174.50201275
-60.70949264,-55.11612982,-57.18871744,-56.48390702,11.18607353,-6.44113599
4.97016350,0.07866735,1.02968016,0.77309061

>  <Name>
1lc4

>  <RI>
0

>  <Rbt.Current_Directory>
/home/afrankz/demos/rdock_decoys_rna/rnas/1lc4

>  <Rbt.Executable>
rbdock ($Id: //depot/dev/client3/rdock/2013.1/src/exe/rbdock.cxx#4 $)

>  <Rbt.Library>
libRbt.so (2013.1, Build901 2013/11/27)

>  <Rbt.Parameter_File>
/export/apps/rDock/src/rDock_2013.1_src/data/scripts/dock_solv.prm

>  <Rbt.Receptor>
prm/blind_docking_20.prm

>  <SCORE>
-39.3383

>  <SCORE.INTER>
-34.765

>  <SCORE.INTER.CONST>
1

>  <SCORE.INTER.POLAR>
-5.42317

>  <SCORE.INTER.ROT>
6

>  <SCORE.INTER.SOLV>
38.5763

>  <SCORE.INTER.VDW>
-25.5582

>  <SCORE.INTER.norm>
-1.08641

>  <SCORE.INTRA>
-10.6911

>  <SCORE.INTRA.DIHEDRAL>
-14.7308

>  <SCORE.INTRA.DIHEDRAL.0>
44.2576

>  <SCORE.INTRA.POLAR>
-1.54533

>  <SCORE.INTRA.POLAR.0>
-0.381556

>  <SCORE.INTRA.REPUL>
0

>  <SCORE.INTRA.REPUL.0>
0

>  <SCORE.INTRA.SOLV>
2.16325

>  <SCORE.INTRA.SOLV.lig_0>
-134.592

>  <SCORE.INTRA.VDW>
0.846814

>  <SCORE.INTRA.VDW.0>
-1.01417

>  <SCORE.INTRA.norm>
-0.334097

>  <SCORE.RESTR>
6.11777

>  <SCORE.RESTR.CAVITY>
6.11777

>  <SCORE.RESTR.norm>
0.19118

>  <SCORE.SYSTEM>
0

>  <SCORE.SYSTEM.CONST>
0

>  <SCORE.SYSTEM.DIHEDRAL>
0

>  <SCORE.SYSTEM.SOLV>
0

>  <SCORE.SYSTEM.norm>
0

>  <SCORE.heavy>
32

>  <SCORE.norm>
-1.22932

>  <RMSD>
31.104

$$$$
1lc4
 OpenBabel02141814113D
libRbt.so/2013.1/901 2013/11/27
 32 34  0  0  0  0  0  0  0  0999 V2000
   14.7484  -12.5124   11.5633 C   0  0  2  0  0  0  0  0  0  0  0  0
   13.5645  -11.7986   11.3090 O   0  0  0  0  0  0  0  0  0  0  0  0
   15.7893  -12.1106   10.4984 C   0  0  2  0  0  0  0  0  0  0  0  0
   16.0238  -10.6638   10.5352 N   0  3  0  0  0  0  0  0  0  0  0  0
   15.3222  -12.5709    9.0975 C   0  0  0  0  0  0  0  0  0  0  0  0
   15.1422  -14.0982    9.1483 C   0  0  2  0  0  0  0  0  0  0  0  0
   14.7553  -14.5982    7.8639 O   0  0  0  0  0  0  0  0  0  0  0  0
   14.0919  -14.4537   10.2299 C   0  0  2  0  0  0  0  0  0  0  0  0
   14.5043  -13.9359   11.5268 O   0  0  0  0  0  0  0  0  0  0  0  0
   13.8769  -15.9556   10.3995 C   0  0  0  0  0  0  0  0  0  0  0  0
   12.4916  -16.3463   10.0279 N   0  3  0  0  0  0  0  0  0  0  0  0
   10.4214  -10.3616   13.7618 C   0  0  2  0  0  0  0  0  0  0  0  0
    9.6593   -9.6347   14.7937 N   0  3  0  0  0  0  0  0  0  0  0  0
   11.4721  -11.2449   14.4208 C   0  0  0  0  0  0  0  0  0  0  0  0
   12.2742  -12.0035   13.3576 C   0  0  2  0  0  0  0  0  0  0  0  0
   13.2009  -12.9361   14.0462 N   0  3  0  0  0  0  0  0  0  0  0  0
   12.9734  -11.0219   12.3701 C   0  0  2  0  0  0  0  0  0  0  0  0
   11.9137  -10.0813   11.7406 C   0  0  2  0  0  0  0  0  0  0  0  0
   12.5613   -9.0916   10.9783 O   0  0  0  0  0  0  0  0  0  0  0  0
   11.1038   -9.3612   12.8309 C   0  0  1  0  0  0  0  0  0  0  0  0
   10.1225   -8.5341   12.2066 O   0  0  0  0  0  0  0  0  0  0  0  0
   10.5776   -7.5562   11.3360 C   0  0  2  0  0  0  0  0  0  0  0  0
   10.2557   -6.1743   11.9300 C   0  0  2  0  0  0  0  0  0  0  0  0
   10.9020   -6.0603   13.1915 O   0  0  0  0  0  0  0  0  0  0  0  0
    8.7333   -6.0332   12.1028 C   0  0  1  0  0  0  0  0  0  0  0  0
    8.3609   -4.7169   12.6969 N   0  3  0  0  0  0  0  0  0  0  0  0
    8.0437   -6.2265   10.7302 C   0  0  2  0  0  0  0  0  0  0  0  0
    6.6277   -6.1261   10.8634 O   0  0  0  0  0  0  0  0  0  0  0  0
    8.4359   -7.5871   10.1248 C   0  0  2  0  0  0  0  0  0  0  0  0
    9.9025   -7.7200   10.0619 O   0  0  0  0  0  0  0  0  0  0  0  0
    7.9137   -7.7561    8.7153 C   0  0  0  0  0  0  0  0  0  0  0  0
    8.9281   -8.2293    7.8319 O   0  0  0  0  0  0  0  0  0  0  0  0
  1  2  1  6  0  0  0
  1  3  1  0  0  0  0
  1  9  1  0  0  0  0
  3  4  1  6  0  0  0
  3  5  1  0  0  0  0
  5  6  1  0  0  0  0
  6  7  1  6  0  0  0
  6  8  1  0  0  0  0
  8  9  1  0  0  0  0
  8 10  1  1  0  0  0
 10 11  1  0  0  0  0
 12 13  1  1  0  0  0
 12 14  1  0  0  0  0
 12 20  1  0  0  0  0
 14 15  1  0  0  0  0
 15 16  1  1  0  0  0
 15 17  1  0  0  0  0
 17  2  1  6  0  0  0
 17 18  1  0  0  0  0
 18 19  1  6  0  0  0
 18 20  1  0  0  0  0
 20 21  1  6  0  0  0
 22 21  1  1  0  0  0
 22 23  1  0  0  0  0
 22 30  1  0  0  0  0
 23 24  1  1  0  0  0
 23 25  1  0  0  0  0
 25 26  1  6  0  0  0
 25 27  1  0  0  0  0
 27 28  1  1  0  0  0
 27 29  1  0  0  0  0
 29 30  1  0  0  0  0
 29 31  1  6  0  0  0
 31 32  1  0  0  0  0
M  CHG  5   4   1  11   1  13   1  16   1  26   1
M  END
>  <CHROM.1>
-126.43418090,-75.51892978,-150.30225291,-63.26854851,-115.88807521,144.78358670
-53.16511220,169.65486966,60.24292889,179.31648541,-114.41862597,-60.33769471
150.56330022,177.03033469,132.24610815,-176.34129255,11.68541389,-10.22070149
11.30989351,-0.20825101,-0.89813474,1.44481906

>  <Name>
1lc4

>  <RI>
0

>  <Rbt.Current_Directory>
/home/afrankz/demos/rdock_decoys_rna/rnas/1lc4

>  <Rbt.Executable>
rbdock ($Id: //depot/dev/client3/rdock/2013.1/src/exe/rbdock.cxx#4 $)

>  <Rbt.Library>
libRbt.so (2013.1, Build901 2013/11/27)

>  <Rbt.Parameter_File>
/export/apps/rDock/src/rDock_2013.1_src/data/scripts/dock_solv.prm

>  <Rbt.Receptor>
prm/blind_docking_40.prm

>  <SCORE>
-13.2912

>  <SCORE.INTER>
-13.4717

>  <SCORE.INTER.CONST>
1

>  <SCORE.INTER.POLAR>
-3.70621

>  <SCORE.INTER.ROT>
6

>  <SCORE.INTER.SOLV>
33.443

>  <SCORE.INTER.VDW>
-15.3747

>  <SCORE.INTER.norm>
-0.42099

>  <SCORE.INTRA>
-10.0538

>  <SCORE.INTRA.DIHEDRAL>
-12.724

>  <SCORE.INTRA.DIHEDRAL.0>
44.2576

>  <SCORE.INTRA.POLAR>
-0.834706

>  <SCORE.INTRA.POLAR.0>
-0.381556

>  <SCORE.INTRA.REPUL>
0

>  <SCORE.INTRA.REPUL.0>
0

>  <SCORE.INTRA.SOLV>
-2.78581

>  <SCORE.INTRA.SOLV.lig_0>
-134.592

>  <SCORE.INTRA.VDW>
0.539066

>  <SCORE.INTRA.VDW.0>
-1.01417

>  <SCORE.INTRA.norm>
-0.314183

>  <SCORE.RESTR>
10.2343

>  <SCORE.RESTR.CAVITY>
10.2343

>  <SCORE.RESTR.norm>
0.319823

>  <SCORE.SYSTEM>
0

>  <SCORE.SYSTEM.CONST>
0

>  <SCORE.SYSTEM.DIHEDRAL>
0

>  <SCORE.SYSTEM.SOLV>
0

>  <SCORE.SYSTEM.norm>
0

>  <SCORE.heavy>
32

>  <SCORE.norm>
-0.415349

>  <RMSD>
31.108

$$$$
1lc4
 OpenBabel02141814113D
libRbt.so/2013.1/901 2013/11/27
 32 34  0  0  0  0  0  0  0  0999 V2000
   11.7885   -8.6852    9.1740 C   0  0  2  0  0  0  0  0  0  0  0  0
   12.3306   -7.6087    8.4507 O   0  0  0  0  0  0  0  0  0  0  0  0
   10.4811   -9.1194    8.4805 C   0  0  2  0  0  0  0  0  0  0  0  0
   10.7431   -9.4945    7.0875 N   0  3  0  0  0  0  0  0  0  0  0  0
    9.4294   -7.9889    8.5720 C   0  0  0  0  0  0  0  0  0  0  0  0
    9.1943   -7.6950   10.0640 C   0  0  2  0  0  0  0  0  0  0  0  0
    8.1911   -6.6861   10.2221 O   0  0  0  0  0  0  0  0  0  0  0  0
   10.5315   -7.2655   10.7174 C   0  0  2  0  0  0  0  0  0  0  0  0
   11.5370   -8.3044   10.5447 O   0  0  0  0  0  0  0  0  0  0  0  0
   10.4193   -7.0011   12.2168 C   0  0  0  0  0  0  0  0  0  0  0  0
   10.4560   -8.2694   12.9912 N   0  3  0  0  0  0  0  0  0  0  0  0
   14.9643   -6.7418    5.2457 C   0  0  2  0  0  0  0  0  0  0  0  0
   15.7653   -6.8475    4.0124 N   0  3  0  0  0  0  0  0  0  0  0  0
   15.4041   -7.8067    6.2411 C   0  0  0  0  0  0  0  0  0  0  0  0
   14.5756   -7.7095    7.5270 C   0  0  2  0  0  0  0  0  0  0  0  0
   15.1164   -8.6834    8.5077 N   0  3  0  0  0  0  0  0  0  0  0  0
   13.0548   -7.8769    7.2332 C   0  0  2  0  0  0  0  0  0  0  0  0
   12.6154   -6.8317    6.1758 C   0  0  2  0  0  0  0  0  0  0  0  0
   11.2867   -7.0877    5.7894 O   0  0  0  0  0  0  0  0  0  0  0  0
   13.4857   -6.9312    4.9125 C   0  0  1  0  0  0  0  0  0  0  0  0
   13.0672   -5.9319    3.9835 O   0  0  0  0  0  0  0  0  0  0  0  0
   12.9590   -4.6329    4.4548 C   0  0  2  0  0  0  0  0  0  0  0  0
   11.7349   -3.9685    3.8018 C   0  0  2  0  0  0  0  0  0  0  0  0
   10.5760   -4.7204    4.1389 O   0  0  0  0  0  0  0  0  0  0  0  0
   11.9205   -3.9420    2.2745 C   0  0  1  0  0  0  0  0  0  0  0  0
   10.7513   -3.3263    1.5831 N   0  3  0  0  0  0  0  0  0  0  0  0
   13.2219   -3.1765    1.9317 C   0  0  2  0  0  0  0  0  0  0  0  0
   13.4341   -3.1572    0.5220 O   0  0  0  0  0  0  0  0  0  0  0  0
   14.4222   -3.8188    2.6516 C   0  0  2  0  0  0  0  0  0  0  0  0
   14.1663   -3.9097    4.1003 O   0  0  0  0  0  0  0  0  0  0  0  0
   15.6908   -3.0145    2.4743 C   0  0  0  0  0  0  0  0  0  0  0  0
   15.5750   -1.7157    3.0515 O   0  0  0  0  0  0  0  0  0  0  0  0
  1  2  1  6  0  0  0
  1  3  1  0  0  0  0
  1  9  1  0  0  0  0
  3  4  1  6  0  0  0
  3  5  1  0  0  0  0
  5  6  1  0  0  0  0
  6  7  1  6  0  0  0
  6  8  1  0  0  0  0
  8  9  1  0  0  0  0
  8 10  1  1  0  0  0
 10 11  1  0  0  0  0
 12 13  1  6  0  0  0
 12 14  1  0  0  0  0
 12 20  1  0  0  0  0
 14 15  1  0  0  0  0
 15 16  1  1  0  0  0
 15 17  1  0  0  0  0
 17  2  1  1  0  0  0
 17 18  1  0  0  0  0
 18 19  1  6  0  0  0
 18 20  1  0  0  0  0
 20 21  1  6  0  0  0
 22 21  1  6  0  0  0
 22 23  1  0  0  0  0
 22 30  1  0  0  0  0
 23 24  1  6  0  0  0
 23 25  1  0  0  0  0
 25 26  1  6  0  0  0
 25 27  1  0  0  0  0
 27 28  1  6  0  0  0
 27 29  1  0  0  0  0
 29 30  1  0  0  0  0
 29 31  1  1  0  0  0
 31 32  1  0  0  0  0
M  CHG  5   4   1  11   1  13   1  16   1  26   1
M  END
>  <CHROM.1>
-79.07105980,-104.68816329,38.71428651,66.20889254,80.58466055,175.76168808
66.11572623,-170.73901573,163.38473923,-71.16215141,-142.14644151,-76.91317436
-175.12714654,66.65424071,62.83196230,-63.05092018,12.44690822,-6.23578328
6.20293425,-1.90780182,0.25738723,-0.96696491

>  <Name>
1lc4

>  <RI>
0

>  <Rbt.Current_Directory>
/home/afrankz/demos/rdock_decoys_rna/rnas/1lc4

>  <Rbt.Executable>
rbdock ($Id: //depot/dev/client3/rdock/2013.1/src/exe/rbdock.cxx#4 $)

>  <Rbt.Library>
libRbt.so (2013.1, Build901 2013/11/27)

>  <Rbt.Parameter_File>
/export/apps/rDock/src/rDock_2013.1_src/data/scripts/dock_solv.prm

>  <Rbt.Receptor>
prm/blind_docking_60.prm

>  <SCORE>
-34.714

>  <SCORE.INTER>
-21.942

>  <SCORE.INTER.CONST>
1

>  <SCORE.INTER.POLAR>
-3.20913

>  <SCORE.INTER.ROT>
6

>  <SCORE.INTER.SOLV>
26.6326

>  <SCORE.INTER.VDW>
-20.4084

>  <SCORE.INTER.norm>
-0.685688

>  <SCORE.INTRA>
-17.9549

>  <SCORE.INTRA.DIHEDRAL>
-24.8926

>  <SCORE.INTRA.DIHEDRAL.0>
44.2576

>  <SCORE.INTRA.POLAR>
-1.33154

>  <SCORE.INTRA.POLAR.0>
-0.381556

>  <SCORE.INTRA.REPUL>
0

>  <SCORE.INTRA.REPUL.0>
0

>  <SCORE.INTRA.SOLV>
2.6696

>  <SCORE.INTRA.SOLV.lig_0>
-134.592

>  <SCORE.INTRA.VDW>
-2.31623

>  <SCORE.INTRA.VDW.0>
-1.01417

>  <SCORE.INTRA.norm>
-0.561092

>  <SCORE.RESTR>
5.18295

>  <SCORE.RESTR.CAVITY>
5.18295

>  <SCORE.RESTR.norm>
0.161967

>  <SCORE.SYSTEM>
0

>  <SCORE.SYSTEM.CONST>
0

>  <SCORE.SYSTEM.DIHEDRAL>
0

>  <SCORE.SYSTEM.SOLV>
0

>  <SCORE.SYSTEM.norm>
0

>  <SCORE.heavy>
32

>  <SCORE.norm>
-1.08481

>  <RMSD>
31.118

$$$$
1lc4
 OpenBabel02141814113D
libRbt.so/2013.1/901 2013/11/27
 32 34  0  0  0  0  0  0  0  0999 V2000
    9.9655   -5.2631    2.2767 C   0  0  2  0  0  0  0  0  0  0  0  0
   11.1664   -4.9818    2.9510 O   0  0  0  0  0  0  0  0  0  0  0  0
   10.2939   -6.1584    1.0646 C   0  0  2  0  0  0  0  0  0  0  0  0
   10.9561   -7.3901    1.5051 N   0  3  0  0  0  0  0  0  0  0  0  0
   11.1652   -5.3814    0.0498 C   0  0  0  0  0  0  0  0  0  0  0  0
   10.3735   -4.1342   -0.3806 C   0  0  2  0  0  0  0  0  0  0  0  0
   11.1061   -3.3915   -1.3609 O   0  0  0  0  0  0  0  0  0  0  0  0
   10.0657   -3.2684    0.8665 C   0  0  2  0  0  0  0  0  0  0  0  0
    9.3214   -4.0423    1.8500 O   0  0  0  0  0  0  0  0  0  0  0  0
    9.2329   -2.0272    0.5555 C   0  0  0  0  0  0  0  0  0  0  0  0
    7.7884   -2.3614    0.4482 N   0  3  0  0  0  0  0  0  0  0  0  0
   12.8261   -7.3632    6.0387 C   0  0  2  0  0  0  0  0  0  0  0  0
   13.1184   -7.9606    7.3546 N   0  3  0  0  0  0  0  0  0  0  0  0
   13.1300   -5.8715    6.0687 C   0  0  0  0  0  0  0  0  0  0  0  0
   12.8265   -5.2378    4.7065 C   0  0  2  0  0  0  0  0  0  0  0  0
   13.2478   -3.8153    4.7470 N   0  3  0  0  0  0  0  0  0  0  0  0
   11.3368   -5.4512    4.3035 C   0  0  2  0  0  0  0  0  0  0  0  0
   11.0073   -6.9660    4.3286 C   0  0  2  0  0  0  0  0  0  0  0  0
    9.6265   -7.1473    4.1267 O   0  0  0  0  0  0  0  0  0  0  0  0
   11.3537   -7.5794    5.6950 C   0  0  1  0  0  0  0  0  0  0  0  0
   11.0650   -8.9765    5.6604 O   0  0  0  0  0  0  0  0  0  0  0  0
   11.0775   -9.6573    6.8678 C   0  0  2  0  0  0  0  0  0  0  0  0
   10.4998  -11.0660    6.6492 C   0  0  2  0  0  0  0  0  0  0  0  0
   11.2999  -11.7410    5.6867 O   0  0  0  0  0  0  0  0  0  0  0  0
    9.0507  -10.9525    6.1441 C   0  0  1  0  0  0  0  0  0  0  0  0
    8.4432  -12.2912    5.8930 N   0  3  0  0  0  0  0  0  0  0  0  0
    8.2119  -10.1575    7.1742 C   0  0  2  0  0  0  0  0  0  0  0  0
    6.8679  -10.0140    6.7206 O   0  0  0  0  0  0  0  0  0  0  0  0
    8.8484   -8.7782    7.4275 C   0  0  2  0  0  0  0  0  0  0  0  0
   10.2614   -8.9266    7.8197 O   0  0  0  0  0  0  0  0  0  0  0  0
    8.1549   -8.0258    8.5415 C   0  0  0  0  0  0  0  0  0  0  0  0
    8.4631   -8.5773    9.8198 O   0  0  0  0  0  0  0  0  0  0  0  0
  1  2  1  6  0  0  0
  1  3  1  0  0  0  0
  1  9  1  0  0  0  0
  3  4  1  1  0  0  0
  3  5  1  0  0  0  0
  5  6  1  0  0  0  0
  6  7  1  6  0  0  0
  6  8  1  0  0  0  0
  8  9  1  0  0  0  0
  8 10  1  6  0  0  0
 10 11  1  0  0  0  0
 12 13  1  1  0  0  0
 12 14  1  0  0  0  0
 12 20  1  0  0  0  0
 14 15  1  0  0  0  0
 15 16  1  1  0  0  0
 15 17  1  0  0  0  0
 17  2  1  6  0  0  0
 17 18  1  0  0  0  0
 18 19  1  1  0  0  0
 18 20  1  0  0  0  0
 20 21  1  6  0  0  0
 22 21  1  6  0  0  0
 22 23  1  0  0  0  0
 22 30  1  0  0  0  0
 23 24  1  6  0  0  0
 23 25  1  0  0  0  0
 25 26  1  1  0  0  0
 25 27  1  0  0  0  0
 27 28  1  6  0  0  0
 27 29  1  0  0  0  0
 29 30  1  0  0  0  0
 29 31  1  1  0  0  0
 31 32  1  0  0  0  0
M  CHG  5   4   1  11   1  13   1  16   1  26   1
M  END
>  <CHROM.1>
-116.60106380,169.68731360,-64.59731616,179.69438717,80.90678190,57.84885237
100.02154802,-58.76757899,-173.33755990,69.67784943,169.85574389,171.75810669
-160.91982079,-72.15948390,73.21081622,64.40180719,10.35654376,-7.04870411
4.42952809,1.48244581,-0.52896739,-0.85508175

>  <Name>
1lc4

>  <RI>
0

>  <Rbt.Current_Directory>
/home/afrankz/demos/rdock_decoys_rna/rnas/1lc4

>  <Rbt.Executable>
rbdock ($Id: //depot/dev/client3/rdock/2013.1/src/exe/rbdock.cxx#4 $)

>  <Rbt.Library>
libRbt.so (2013.1, Build901 2013/11/27)

>  <Rbt.Parameter_File>
/export/apps/rDock/src/rDock_2013.1_src/data/scripts/dock_solv.prm

>  <Rbt.Receptor>
prm/blind_docking_20.prm

>  <SCORE>
-43.9401

>  <SCORE.INTER>
-34.4318

>  <SCORE.INTER.CONST>
1

>  <SCORE.INTER.POLAR>
-5.93542

>  <SCORE.INTER.ROT>
6

>  <SCORE.INTER.SOLV>
30.883

>  <SCORE.INTER.VDW>
-21.0641

>  <SCORE.INTER.norm>
-1.07599

>  <SCORE.INTRA>
-13.4894

>  <SCORE.INTRA.DIHEDRAL>
-28.5659

>  <SCORE.INTRA.DIHEDRAL.0>
44.2576

>  <SCORE.INTRA.POLAR>
-0.667855

>  <SCORE.INTRA.POLAR.0>
-0.381556

>  <SCORE.INTRA.REPUL>
0

>  <SCORE.INTRA.REPUL.0>
0

>  <SCORE.INTRA.SOLV>
1.572

>  <SCORE.INTRA.SOLV.lig_0>
-134.592

>  <SCORE.INTRA.VDW>
2.27829

>  <SCORE.INTRA.VDW.0>
-1.01417

>  <SCORE.INTRA.norm>
-0.421543

>  <SCORE.RESTR>
3.98106

>  <SCORE.RESTR.CAVITY>
3.98106

>  <SCORE.RESTR.norm>
0.124408

>  <SCORE.SYSTEM>
0

>  <SCORE.SYSTEM.CONST>
0

>  <SCORE.SYSTEM.DIHEDRAL>
0

>  <SCORE.SYSTEM.SOLV>
0

>  <SCORE.SYSTEM.norm>
0

>  <SCORE.heavy>
32

>  <SCORE.norm>
-1.37313

>  <RMSD>
31.139

$$$$
1lc4
 OpenBabel02141814113D
libRbt.so/2013.1/901 2013/11/27
 32 34  0  0  0  0  0  0  0  0999 V2000
   12.1904   -5.0410    4.7726 C   0  0  2  0  0  0  0  0  0  0  0  0
   11.4237   -5.7908    3.8637 O   0  0  0  0  0  0  0  0  0  0  0  0
   12.3450   -3.6143    4.2074 C   0  0  2  0  0  0  0  0  0  0  0  0
   11.0286   -3.0048    3.9946 N   0  3  0  0  0  0  0  0  0  0  0  0
   13.1698   -3.6466    2.8993 C   0  0  0  0  0  0  0  0  0  0  0  0
   14.5401   -4.2629    3.2313 C   0  0  2  0  0  0  0  0  0  0  0  0
   15.3753   -4.2784    2.0687 O   0  0  0  0  0  0  0  0  0  0  0  0
   14.3354   -5.6909    3.7957 C   0  0  2  0  0  0  0  0  0  0  0  0
   13.4835   -5.6523    4.9759 O   0  0  0  0  0  0  0  0  0  0  0  0
   15.6363   -6.3744    4.2092 C   0  0  0  0  0  0  0  0  0  0  0  0
   15.4395   -7.2217    5.4146 N   0  3  0  0  0  0  0  0  0  0  0  0
    9.1895   -9.3746    4.2163 C   0  0  2  0  0  0  0  0  0  0  0  0
    8.8085  -10.7810    4.4419 N   0  3  0  0  0  0  0  0  0  0  0  0
   10.1910   -9.2869    3.0729 C   0  0  0  0  0  0  0  0  0  0  0  0
   10.5980   -7.8292    2.8308 C   0  0  2  0  0  0  0  0  0  0  0  0
   11.4784   -7.7802    1.6371 N   0  3  0  0  0  0  0  0  0  0  0  0
   11.2220   -7.1969    4.1108 C   0  0  2  0  0  0  0  0  0  0  0  0
   10.2282   -7.3366    5.2925 C   0  0  2  0  0  0  0  0  0  0  0  0
   10.8534   -6.9166    6.4811 O   0  0  0  0  0  0  0  0  0  0  0  0
    9.8130   -8.8038    5.4885 C   0  0  1  0  0  0  0  0  0  0  0  0
    8.8760   -8.8789    6.5623 O   0  0  0  0  0  0  0  0  0  0  0  0
    9.1168   -9.8212    7.5499 C   0  0  2  0  0  0  0  0  0  0  0  0
    8.2780   -9.4663    8.7896 C   0  0  2  0  0  0  0  0  0  0  0  0
    6.9039   -9.4661    8.4235 O   0  0  0  0  0  0  0  0  0  0  0  0
    8.6871   -8.0747    9.3034 C   0  0  1  0  0  0  0  0  0  0  0  0
    7.8900   -7.6661   10.4957 N   0  3  0  0  0  0  0  0  0  0  0  0
   10.1998   -8.0768    9.6333 C   0  0  2  0  0  0  0  0  0  0  0  0
   10.6140   -6.7909   10.0887 O   0  0  0  0  0  0  0  0  0  0  0  0
   11.0133   -8.5017    8.3966 C   0  0  2  0  0  0  0  0  0  0  0  0
   10.5296   -9.7948    7.8805 O   0  0  0  0  0  0  0  0  0  0  0  0
   12.4831   -8.6708    8.7113 C   0  0  0  0  0  0  0  0  0  0  0  0
   13.2214   -7.4840    8.4289 O   0  0  0  0  0  0  0  0  0  0  0  0
  1  2  1  6  0  0  0
  1  3  1  0  0  0  0
  1  9  1  0  0  0  0
  3  4  1  6  0  0  0
  3  5  1  0  0  0  0
  5  6  1  0  0  0  0
  6  7  1  6  0  0  0
  6  8  1  0  0  0  0
  8  9  1  0  0  0  0
  8 10  1  1  0  0  0
 10 11  1  0  0  0  0
 12 13  1  1  0  0  0
 12 14  1  0  0  0  0
 12 20  1  0  0  0  0
 14 15  1  0  0  0  0
 15 16  1  6  0  0  0
 15 17  1  0  0  0  0
 17  2  1  6  0  0  0
 17 18  1  0  0  0  0
 18 19  1  1  0  0  0
 18 20  1  0  0  0  0
 20 21  1  1  0  0  0
 22 21  1  6  0  0  0
 22 23  1  0  0  0  0
 22 30  1  0  0  0  0
 23 24  1  6  0  0  0
 23 25  1  0  0  0  0
 25 26  1  1  0  0  0
 25 27  1  0  0  0  0
 27 28  1  6  0  0  0
 27 29  1  0  0  0  0
 29 30  1  0  0  0  0
 29 31  1  1  0  0  0
 31 32  1  0  0  0  0
M  CHG  5   4   1  11   1  13   1  16   1  26   1
M  END
>  <CHROM.1>
175.18067537,-168.81525737,79.37649671,177.38698220,144.28153987,-72.48129213
-78.75813917,65.39756886,165.80208091,107.75248827,162.95345882,-44.60332111
48.68913953,72.72598804,-94.25388263,-50.06652369,11.22511991,-7.26156341
5.81335860,-0.68418622,0.69859217,1.54085793

>  <Name>
1lc4

>  <RI>
0

>  <Rbt.Current_Directory>
/home/afrankz/demos/rdock_decoys_rna/rnas/1lc4

>  <Rbt.Executable>
rbdock ($Id: //depot/dev/client3/rdock/2013.1/src/exe/rbdock.cxx#4 $)

>  <Rbt.Library>
libRbt.so (2013.1, Build901 2013/11/27)

>  <Rbt.Parameter_File>
/export/apps/rDock/src/rDock_2013.1_src/data/scripts/dock_solv.prm

>  <Rbt.Receptor>
prm/blind_docking_20.prm

>  <SCORE>
-40.6675

>  <SCORE.INTER>
-31.9323

>  <SCORE.INTER.CONST>
1

>  <SCORE.INTER.POLAR>
-5.77324

>  <SCORE.INTER.ROT>
6

>  <SCORE.INTER.SOLV>
41.8778

>  <SCORE.INTER.VDW>
-23.6033

>  <SCORE.INTER.norm>
-0.997883

>  <SCORE.INTRA>
-11.8988

>  <SCORE.INTRA.DIHEDRAL>
-23.2902

>  <SCORE.INTRA.DIHEDRAL.0>
44.2576

>  <SCORE.INTRA.POLAR>
0.0424813

>  <SCORE.INTRA.POLAR.0>
-0.381556

>  <SCORE.INTRA.REPUL>
0

>  <SCORE.INTRA.REPUL.0>
0

>  <SCORE.INTRA.SOLV>
-1.46687

>  <SCORE.INTRA.SOLV.lig_0>
-134.592

>  <SCORE.INTRA.VDW>
0.335325

>  <SCORE.INTRA.VDW.0>
-1.01417

>  <SCORE.INTRA.norm>
-0.371837

>  <SCORE.RESTR>
3.16353

>  <SCORE.RESTR.CAVITY>
3.16353

>  <SCORE.RESTR.norm>
0.0988602

>  <SCORE.SYSTEM>
0

>  <SCORE.SYSTEM.CONST>
0

>  <SCORE.SYSTEM.DIHEDRAL>
0

>  <SCORE.SYSTEM.SOLV>
0

>  <SCORE.SYSTEM.norm>
0

>  <SCORE.heavy>
32

>  <SCORE.norm>
-1.27086

>  <RMSD>
31.143

$$$$
1lc4
 OpenBabel02141814113D
libRbt.so/2013.1/901 2013/11/27
 32 34  0  0  0  0  0  0  0  0999 V2000
   11.6957   -8.5811    8.7161 C   0  0  2  0  0  0  0  0  0  0  0  0
   12.1349   -7.4103    8.0741 O   0  0  0  0  0  0  0  0  0  0  0  0
   10.3466   -8.9932    8.0924 C   0  0  2  0  0  0  0  0  0  0  0  0
   10.4953   -9.2035    6.6490 N   0  3  0  0  0  0  0  0  0  0  0  0
    9.2704   -7.9254    8.3989 C   0  0  0  0  0  0  0  0  0  0  0  0
    9.1601   -7.8053    9.9290 C   0  0  2  0  0  0  0  0  0  0  0  0
    8.1421   -6.8634   10.2838 O   0  0  0  0  0  0  0  0  0  0  0  0
   10.5354   -7.3923   10.5100 C   0  0  2  0  0  0  0  0  0  0  0  0
   11.5553   -8.3623   10.1372 O   0  0  0  0  0  0  0  0  0  0  0  0
   10.5489   -7.2971   12.0336 C   0  0  0  0  0  0  0  0  0  0  0  0
   10.4117   -5.8877   12.4860 N   0  3  0  0  0  0  0  0  0  0  0  0
   15.1749   -6.8297    5.1790 C   0  0  2  0  0  0  0  0  0  0  0  0
   15.9415   -6.8395    3.9196 N   0  3  0  0  0  0  0  0  0  0  0  0
   14.9086   -8.2582    5.6337 C   0  0  0  0  0  0  0  0  0  0  0  0
   14.1085   -8.2615    6.9411 C   0  0  2  0  0  0  0  0  0  0  0  0
   13.9762   -9.6646    7.4062 N   0  3  0  0  0  0  0  0  0  0  0  0
   12.7521   -7.5133    6.7752 C   0  0  2  0  0  0  0  0  0  0  0  0
   13.0155   -6.0763    6.2561 C   0  0  2  0  0  0  0  0  0  0  0  0
   11.7891   -5.4578    5.9500 O   0  0  0  0  0  0  0  0  0  0  0  0
   13.8478   -6.1047    4.9639 C   0  0  1  0  0  0  0  0  0  0  0  0
   14.0921   -4.7632    4.5425 O   0  0  0  0  0  0  0  0  0  0  0  0
   13.0131   -3.8931    4.5378 C   0  0  2  0  0  0  0  0  0  0  0  0
   12.4208   -3.8449    3.1189 C   0  0  2  0  0  0  0  0  0  0  0  0
   12.0071   -5.1558    2.7546 O   0  0  0  0  0  0  0  0  0  0  0  0
   13.4890   -3.3364    2.1351 C   0  0  1  0  0  0  0  0  0  0  0  0
   12.9773   -3.2885    0.7351 N   0  3  0  0  0  0  0  0  0  0  0  0
   13.9740   -1.9371    2.5865 C   0  0  2  0  0  0  0  0  0  0  0  0
   14.9844   -1.4502    1.7064 O   0  0  0  0  0  0  0  0  0  0  0  0
   14.4985   -1.9972    4.0332 C   0  0  2  0  0  0  0  0  0  0  0  0
   13.4794   -2.5752    4.9276 O   0  0  0  0  0  0  0  0  0  0  0  0
   14.8380   -0.6261    4.5743 C   0  0  0  0  0  0  0  0  0  0  0  0
   15.4032   -0.7017    5.8813 O   0  0  0  0  0  0  0  0  0  0  0  0
  1  2  1  6  0  0  0
  1  3  1  0  0  0  0
  1  9  1  0  0  0  0
  3  4  1  6  0  0  0
  3  5  1  0  0  0  0
  5  6  1  0  0  0  0
  6  7  1  6  0  0  0
  6  8  1  0  0  0  0
  8  9  1  0  0  0  0
  8 10  1  1  0  0  0
 10 11  1  0  0  0  0
 12 13  1  6  0  0  0
 12 14  1  0  0  0  0
 12 20  1  0  0  0  0
 14 15  1  0  0  0  0
 15 16  1  6  0  0  0
 15 17  1  0  0  0  0
 17  2  1  1  0  0  0
 17 18  1  0  0  0  0
 18 19  1  6  0  0  0
 18 20  1  0  0  0  0
 20 21  1  1  0  0  0
 22 21  1  6  0  0  0
 22 23  1  0  0  0  0
 22 30  1  0  0  0  0
 23 24  1  6  0  0  0
 23 25  1  0  0  0  0
 25 26  1  6  0  0  0
 25 27  1  0  0  0  0
 27 28  1  6  0  0  0
 27 29  1  0  0  0  0
 29 30  1  0  0  0  0
 29 31  1  1  0  0  0
 31 32  1  0  0  0  0
M  CHG  5   4   1  11   1  13   1  16   1  26   1
M  END
>  <CHROM.1>
-78.88264750,-66.77101955,164.11188437,62.26941486,-99.46208889,-49.32909523
32.34671752,-65.10621928,-58.37163218,-168.47927151,-96.01041434,-62.52975812
-52.74775944,-170.53370113,-176.22108242,-173.16560443,12.65409663,-5.73596301
6.23002605,-2.44929068,1.02792495,-0.11346512

>  <Name>
1lc4

>  <RI>
0

>  <Rbt.Current_Directory>
/home/afrankz/demos/rdock_decoys_rna/rnas/1lc4

>  <Rbt.Executable>
rbdock ($Id: //depot/dev/client3/rdock/2013.1/src/exe/rbdock.cxx#4 $)

>  <Rbt.Library>
libRbt.so (2013.1, Build901 2013/11/27)

>  <Rbt.Parameter_File>
/export/apps/rDock/src/rDock_2013.1_src/data/scripts/dock_solv.prm

>  <Rbt.Receptor>
prm/blind_docking_60.prm

>  <SCORE>
-31.4792

>  <SCORE.INTER>
-28.7611

>  <SCORE.INTER.CONST>
1

>  <SCORE.INTER.POLAR>
-5.92676

>  <SCORE.INTER.ROT>
6

>  <SCORE.INTER.SOLV>
30.772

>  <SCORE.INTER.VDW>
-17.2755

>  <SCORE.INTER.norm>
-0.898784

>  <SCORE.INTRA>
-8.24851

>  <SCORE.INTRA.DIHEDRAL>
-29.6672

>  <SCORE.INTRA.DIHEDRAL.0>
44.2576

>  <SCORE.INTRA.POLAR>
0.298298

>  <SCORE.INTRA.POLAR.0>
-0.381556

>  <SCORE.INTRA.REPUL>
0.00430843

>  <SCORE.INTRA.REPUL.0>
0

>  <SCORE.INTRA.SOLV>
0.882988

>  <SCORE.INTRA.SOLV.lig_0>
-134.592

>  <SCORE.INTRA.VDW>
5.10782

>  <SCORE.INTRA.VDW.0>
-1.01417

>  <SCORE.INTRA.norm>
-0.257766

>  <SCORE.RESTR>
5.5304

>  <SCORE.RESTR.CAVITY>
5.5304

>  <SCORE.RESTR.norm>
0.172825

>  <SCORE.SYSTEM>
0

>  <SCORE.SYSTEM.CONST>
0

>  <SCORE.SYSTEM.DIHEDRAL>
0

>  <SCORE.SYSTEM.SOLV>
0

>  <SCORE.SYSTEM.norm>
0

>  <SCORE.heavy>
32

>  <SCORE.norm>
-0.983725

>  <RMSD>
31.144

$$$$
1lc4
 OpenBabel02141814113D
libRbt.so/2013.1/901 2013/11/27
 32 34  0  0  0  0  0  0  0  0999 V2000
   11.0329   -8.7056    8.1758 C   0  0  2  0  0  0  0  0  0  0  0  0
   11.3342   -7.5939    7.3701 O   0  0  0  0  0  0  0  0  0  0  0  0
    9.5824   -9.1363    7.8764 C   0  0  2  0  0  0  0  0  0  0  0  0
    9.4286   -9.4550    6.4536 N   0  3  0  0  0  0  0  0  0  0  0  0
    8.5969   -8.0282    8.3161 C   0  0  0  0  0  0  0  0  0  0  0  0
    8.8059   -7.7938    9.8224 C   0  0  2  0  0  0  0  0  0  0  0  0
    7.8868   -6.8090   10.3067 O   0  0  0  0  0  0  0  0  0  0  0  0
   10.2731   -7.3659   10.0746 C   0  0  2  0  0  0  0  0  0  0  0  0
   11.1903   -8.3802    9.5745 O   0  0  0  0  0  0  0  0  0  0  0  0
   10.6019   -7.1592   11.5511 C   0  0  0  0  0  0  0  0  0  0  0  0
   10.0819   -5.8555   12.0408 N   0  3  0  0  0  0  0  0  0  0  0  0
   15.1045   -7.0229    5.5211 C   0  0  2  0  0  0  0  0  0  0  0  0
   16.2223   -7.0582    4.5604 N   0  3  0  0  0  0  0  0  0  0  0  0
   14.7449   -8.4393    5.9488 C   0  0  0  0  0  0  0  0  0  0  0  0
   13.5807   -8.4162    6.9455 C   0  0  2  0  0  0  0  0  0  0  0  0
   13.3447   -9.8015    7.4228 N   0  3  0  0  0  0  0  0  0  0  0  0
   12.3243   -7.7299    6.3309 C   0  0  2  0  0  0  0  0  0  0  0  0
   12.7009   -6.3080    5.8407 C   0  0  2  0  0  0  0  0  0  0  0  0
   11.6145   -5.7523    5.1400 O   0  0  0  0  0  0  0  0  0  0  0  0
   13.8918   -6.3608    4.8700 C   0  0  1  0  0  0  0  0  0  0  0  0
   14.2223   -5.0307    4.4720 O   0  0  0  0  0  0  0  0  0  0  0  0
   13.7626   -4.6056    3.2354 C   0  0  2  0  0  0  0  0  0  0  0  0
   14.8994   -3.8638    2.5117 C   0  0  2  0  0  0  0  0  0  0  0  0
   15.9972   -4.7543    2.3575 O   0  0  0  0  0  0  0  0  0  0  0  0
   15.3247   -2.6415    3.3441 C   0  0  1  0  0  0  0  0  0  0  0  0
   16.4423   -1.8924    2.7007 N   0  3  0  0  0  0  0  0  0  0  0  0
   14.1005   -1.7179    3.5571 C   0  0  2  0  0  0  0  0  0  0  0  0
   14.4588   -0.5872    4.3481 O   0  0  0  0  0  0  0  0  0  0  0  0
   12.9522   -2.5011    4.2201 C   0  0  2  0  0  0  0  0  0  0  0  0
   12.6374   -3.7125    3.4417 O   0  0  0  0  0  0  0  0  0  0  0  0
   11.6810   -1.6859    4.3065 C   0  0  0  0  0  0  0  0  0  0  0  0
   10.5533   -2.4184    3.8320 O   0  0  0  0  0  0  0  0  0  0  0  0
  1  2  1  6  0  0  0
  1  3  1  0  0  0  0
  1  9  1  0  0  0  0
  3  4  1  6  0  0  0
  3  5  1  0  0  0  0
  5  6  1  0  0  0  0
  6  7  1  6  0  0  0
  6  8  1  0  0  0  0
  8  9  1  0  0  0  0
  8 10  1  1  0  0  0
 10 11  1  0  0  0  0
 12 13  1  6  0  0  0
 12 14  1  0  0  0  0
 12 20  1  0  0  0  0
 14 15  1  0  0  0  0
 15 16  1  6  0  0  0
 15 17  1  0  0  0  0
 17  2  1  1  0  0  0
 17 18  1  0  0  0  0
 18 19  1  6  0  0  0
 18 20  1  0  0  0  0
 20 21  1  1  0  0  0
 22 21  1  1  0  0  0
 22 23  1  0  0  0  0
 22 30  1  0  0  0  0
 23 24  1  1  0  0  0
 23 25  1  0  0  0  0
 25 26  1  6  0  0  0
 25 27  1  0  0  0  0
 27 28  1  1  0  0  0
 27 29  1  0  0  0  0
 29 30  1  0  0  0  0
 29 31  1  6  0  0  0
 31 32  1  0  0  0  0
M  CHG  5   4   1  11   1  13   1  16   1  26   1
M  END
>  <CHROM.1>
-113.28824388,-48.29120176,21.52296635,51.75957938,-77.85500268,171.10015933
-65.99390589,29.27685194,61.42763149,137.97827187,-135.87721626,-135.89896217
137.58625682,-65.64749432,131.33769603,44.27106662,12.47907794,-5.86757187
6.13567355,-2.28401709,0.67285989,-0.39333964

>  <Name>
1lc4

>  <RI>
0

>  <Rbt.Current_Directory>
/home/afrankz/demos/rdock_decoys_rna/rnas/1lc4

>  <Rbt.Executable>
rbdock ($Id: //depot/dev/client3/rdock/2013.1/src/exe/rbdock.cxx#4 $)

>  <Rbt.Library>
libRbt.so (2013.1, Build901 2013/11/27)

>  <Rbt.Parameter_File>
/export/apps/rDock/src/rDock_2013.1_src/data/scripts/dock_solv.prm

>  <Rbt.Receptor>
prm/blind_docking_20.prm

>  <SCORE>
-21.7161

>  <SCORE.INTER>
-26.7546

>  <SCORE.INTER.CONST>
1

>  <SCORE.INTER.POLAR>
-6.00089

>  <SCORE.INTER.ROT>
6

>  <SCORE.INTER.SOLV>
32.3994

>  <SCORE.INTER.VDW>
-16.2332

>  <SCORE.INTER.norm>
-0.83608

>  <SCORE.INTRA>
-1.62655

>  <SCORE.INTRA.DIHEDRAL>
-3.69702

>  <SCORE.INTRA.DIHEDRAL.0>
44.2576

>  <SCORE.INTRA.POLAR>
-0.704534

>  <SCORE.INTRA.POLAR.0>
-0.381556

>  <SCORE.INTRA.REPUL>
0.0946306

>  <SCORE.INTRA.REPUL.0>
0

>  <SCORE.INTRA.SOLV>
1.74546

>  <SCORE.INTRA.SOLV.lig_0>
-134.592

>  <SCORE.INTRA.VDW>
1.27149

>  <SCORE.INTRA.VDW.0>
-1.01417

>  <SCORE.INTRA.norm>
-0.0508297

>  <SCORE.RESTR>
6.66502

>  <SCORE.RESTR.CAVITY>
6.66502

>  <SCORE.RESTR.norm>
0.208282

>  <SCORE.SYSTEM>
0

>  <SCORE.SYSTEM.CONST>
0

>  <SCORE.SYSTEM.DIHEDRAL>
0

>  <SCORE.SYSTEM.SOLV>
0

>  <SCORE.SYSTEM.norm>
0

>  <SCORE.heavy>
32

>  <SCORE.norm>
-0.678628

>  <RMSD>
31.160

$$$$
1lc4
 OpenBabel02141814113D
libRbt.so/2013.1/901 2013/11/27
 32 34  0  0  0  0  0  0  0  0999 V2000
   12.5363   -8.1133    8.1109 C   0  0  2  0  0  0  0  0  0  0  0  0
   12.5128   -8.8209    6.8965 O   0  0  0  0  0  0  0  0  0  0  0  0
   13.0245   -9.0723    9.2158 C   0  0  2  0  0  0  0  0  0  0  0  0
   14.3516   -9.5996    8.8834 N   0  3  0  0  0  0  0  0  0  0  0  0
   11.9998  -10.2126    9.4217 C   0  0  0  0  0  0  0  0  0  0  0  0
   10.6572   -9.5649    9.8033 C   0  0  2  0  0  0  0  0  0  0  0  0
    9.6715  -10.5717   10.0566 O   0  0  0  0  0  0  0  0  0  0  0  0
   10.2083   -8.6115    8.6679 C   0  0  2  0  0  0  0  0  0  0  0  0
   11.2244   -7.5969    8.4264 O   0  0  0  0  0  0  0  0  0  0  0  0
    8.9070   -7.8733    8.9716 C   0  0  0  0  0  0  0  0  0  0  0  0
    7.7543   -8.5076    8.2798 N   0  3  0  0  0  0  0  0  0  0  0  0
   11.2054   -8.0128    2.9471 C   0  0  2  0  0  0  0  0  0  0  0  0
   10.3791   -7.6334    1.7865 N   0  3  0  0  0  0  0  0  0  0  0  0
   10.5831   -9.2074    3.6570 C   0  0  0  0  0  0  0  0  0  0  0  0
   11.4315   -9.6094    4.8686 C   0  0  2  0  0  0  0  0  0  0  0  0
   10.8546  -10.8442    5.4559 N   0  3  0  0  0  0  0  0  0  0  0  0
   11.5731   -8.4291    5.8757 C   0  0  2  0  0  0  0  0  0  0  0  0
   12.1522   -7.1918    5.1426 C   0  0  2  0  0  0  0  0  0  0  0  0
   12.1262   -6.0818    6.0071 O   0  0  0  0  0  0  0  0  0  0  0  0
   11.2999   -6.8343    3.9142 C   0  0  1  0  0  0  0  0  0  0  0  0
   11.8876   -5.7133    3.2549 O   0  0  0  0  0  0  0  0  0  0  0  0
   11.3624   -4.4625    3.5396 C   0  0  2  0  0  0  0  0  0  0  0  0
   10.7188   -3.8925    2.2640 C   0  0  2  0  0  0  0  0  0  0  0  0
    9.6929   -4.7799    1.8373 O   0  0  0  0  0  0  0  0  0  0  0  0
   11.7892   -3.7572    1.1669 C   0  0  1  0  0  0  0  0  0  0  0  0
   11.2178   -3.2276   -0.1047 N   0  3  0  0  0  0  0  0  0  0  0  0
   12.9289   -2.8412    1.6758 C   0  0  2  0  0  0  0  0  0  0  0  0
   13.9496   -2.7173    0.6881 O   0  0  0  0  0  0  0  0  0  0  0  0
   13.5106   -3.3958    2.9895 C   0  0  2  0  0  0  0  0  0  0  0  0
   12.4403   -3.5977    3.9827 O   0  0  0  0  0  0  0  0  0  0  0  0
   14.5195   -2.4543    3.6089 C   0  0  0  0  0  0  0  0  0  0  0  0
   15.7425   -2.4377    2.8760 O   0  0  0  0  0  0  0  0  0  0  0  0
  1  2  1  6  0  0  0
  1  3  1  0  0  0  0
  1  9  1  0  0  0  0
  3  4  1  6  0  0  0
  3  5  1  0  0  0  0
  5  6  1  0  0  0  0
  6  7  1  6  0  0  0
  6  8  1  0  0  0  0
  8  9  1  0  0  0  0
  8 10  1  1  0  0  0
 10 11  1  0  0  0  0
 12 13  1  6  0  0  0
 12 14  1  0  0  0  0
 12 20  1  0  0  0  0
 14 15  1  0  0  0  0
 15 16  1  1  0  0  0
 15 17  1  0  0  0  0
 17  2  1  1  0  0  0
 17 18  1  0  0  0  0
 18 19  1  1  0  0  0
 18 20  1  0  0  0  0
 20 21  1  6  0  0  0
 22 21  1  6  0  0  0
 22 23  1  0  0  0  0
 22 30  1  0  0  0  0
 23 24  1  6  0  0  0
 23 25  1  0  0  0  0
 25 26  1  6  0  0  0
 25 27  1  0  0  0  0
 27 28  1  6  0  0  0
 27 29  1  0  0  0  0
 29 30  1  0  0  0  0
 29 31  1  1  0  0  0
 31 32  1  0  0  0  0
M  CHG  5   4   1  11   1  13   1  16   1  26   1
M  END
>  <CHROM.1>
151.69299381,-162.02662338,72.73616786,-57.70495668,-100.70020678,40.19532618
148.54681221,66.58534882,-179.08829929,140.74318736,-114.88812896,175.23242442
-173.93794120,65.11636155,-72.57705299,52.18885581,11.68595559,-6.72908703
5.09457515,-1.79237322,-0.60680626,-0.97844392

>  <Name>
1lc4

>  <RI>
0

>  <Rbt.Current_Directory>
/home/afrankz/demos/rdock_decoys_rna/rnas/1lc4

>  <Rbt.Executable>
rbdock ($Id: //depot/dev/client3/rdock/2013.1/src/exe/rbdock.cxx#4 $)

>  <Rbt.Library>
libRbt.so (2013.1, Build901 2013/11/27)

>  <Rbt.Parameter_File>
/export/apps/rDock/src/rDock_2013.1_src/data/scripts/dock_solv.prm

>  <Rbt.Receptor>
prm/blind_docking_20.prm

>  <SCORE>
-28.1116

>  <SCORE.INTER>
-18.6995

>  <SCORE.INTER.CONST>
1

>  <SCORE.INTER.POLAR>
-3.11491

>  <SCORE.INTER.ROT>
6

>  <SCORE.INTER.SOLV>
28.8575

>  <SCORE.INTER.VDW>
-19.3025

>  <SCORE.INTER.norm>
-0.584361

>  <SCORE.INTRA>
-19.415

>  <SCORE.INTRA.DIHEDRAL>
-18.5251

>  <SCORE.INTRA.DIHEDRAL.0>
44.2576

>  <SCORE.INTRA.POLAR>
-1.9761

>  <SCORE.INTRA.POLAR.0>
-0.381556

>  <SCORE.INTRA.REPUL>
0

>  <SCORE.INTRA.REPUL.0>
0

>  <SCORE.INTRA.SOLV>
-1.46317

>  <SCORE.INTRA.SOLV.lig_0>
-134.592

>  <SCORE.INTRA.VDW>
-2.70216

>  <SCORE.INTRA.VDW.0>
-1.01417

>  <SCORE.INTRA.norm>
-0.606719

>  <SCORE.RESTR>
10.003

>  <SCORE.RESTR.CAVITY>
10.003

>  <SCORE.RESTR.norm>
0.312593

>  <SCORE.SYSTEM>
0

>  <SCORE.SYSTEM.CONST>
0

>  <SCORE.SYSTEM.DIHEDRAL>
0

>  <SCORE.SYSTEM.SOLV>
0

>  <SCORE.SYSTEM.norm>
0

>  <SCORE.heavy>
32

>  <SCORE.norm>
-0.878487

>  <RMSD>
31.173

$$$$
1lc4
 OpenBabel02141814113D
libRbt.so/2013.1/901 2013/11/27
 32 34  0  0  0  0  0  0  0  0999 V2000
    9.3822   -8.8444    6.1741 C   0  0  2  0  0  0  0  0  0  0  0  0
   10.6808   -8.8721    6.7116 O   0  0  0  0  0  0  0  0  0  0  0  0
    8.3840   -9.1253    7.3158 C   0  0  2  0  0  0  0  0  0  0  0  0
    8.5376   -8.1320    8.3832 N   0  3  0  0  0  0  0  0  0  0  0  0
    8.5790  -10.5634    7.8512 C   0  0  0  0  0  0  0  0  0  0  0  0
    8.3604  -11.5293    6.6735 C   0  0  2  0  0  0  0  0  0  0  0  0
    8.4792  -12.8867    7.1126 O   0  0  0  0  0  0  0  0  0  0  0  0
    9.3813  -11.2092    5.5533 C   0  0  2  0  0  0  0  0  0  0  0  0
    9.2439   -9.8252    5.1224 O   0  0  0  0  0  0  0  0  0  0  0  0
    9.2145  -12.0800    4.3105 C   0  0  0  0  0  0  0  0  0  0  0  0
   10.1171  -11.6349    3.2164 N   0  3  0  0  0  0  0  0  0  0  0  0
   13.2519   -6.1898    4.6734 C   0  0  2  0  0  0  0  0  0  0  0  0
   14.3340   -5.6342    3.8402 N   0  3  0  0  0  0  0  0  0  0  0  0
   13.8448   -6.9790    5.8327 C   0  0  0  0  0  0  0  0  0  0  0  0
   12.7291   -7.5652    6.7049 C   0  0  2  0  0  0  0  0  0  0  0  0
   13.3502   -8.2218    7.8820 N   0  3  0  0  0  0  0  0  0  0  0  0
   11.7930   -8.4945    5.8756 C   0  0  2  0  0  0  0  0  0  0  0  0
   11.2330   -7.7111    4.6605 C   0  0  2  0  0  0  0  0  0  0  0  0
   10.5227   -8.5918    3.8237 O   0  0  0  0  0  0  0  0  0  0  0  0
   12.3736   -7.1074    3.8251 C   0  0  1  0  0  0  0  0  0  0  0  0
   11.8110   -6.3709    2.7397 O   0  0  0  0  0  0  0  0  0  0  0  0
   10.7916   -5.4803    3.0380 C   0  0  2  0  0  0  0  0  0  0  0  0
   10.3360   -4.7945    1.7386 C   0  0  2  0  0  0  0  0  0  0  0  0
    9.8792   -5.7922    0.8343 O   0  0  0  0  0  0  0  0  0  0  0  0
   11.5187   -4.0264    1.1231 C   0  0  1  0  0  0  0  0  0  0  0  0
   11.1416   -3.3561   -0.1546 N   0  3  0  0  0  0  0  0  0  0  0  0
   12.0439   -2.9913    2.1477 C   0  0  2  0  0  0  0  0  0  0  0  0
   13.1584   -2.2803    1.6137 O   0  0  0  0  0  0  0  0  0  0  0  0
   12.4287   -3.6932    3.4633 C   0  0  2  0  0  0  0  0  0  0  0  0
   11.2988   -4.4917    3.9714 O   0  0  0  0  0  0  0  0  0  0  0  0
   12.7993   -2.7070    4.5487 C   0  0  0  0  0  0  0  0  0  0  0  0
   11.6907   -1.8893    4.9171 O   0  0  0  0  0  0  0  0  0  0  0  0
  1  2  1  1  0  0  0
  1  3  1  0  0  0  0
  1  9  1  0  0  0  0
  3  4  1  1  0  0  0
  3  5  1  0  0  0  0
  5  6  1  0  0  0  0
  6  7  1  1  0  0  0
  6  8  1  0  0  0  0
  8  9  1  0  0  0  0
  8 10  1  6  0  0  0
 10 11  1  0  0  0  0
 12 13  1  6  0  0  0
 12 14  1  0  0  0  0
 12 20  1  0  0  0  0
 14 15  1  0  0  0  0
 15 16  1  1  0  0  0
 15 17  1  0  0  0  0
 17  2  1  1  0  0  0
 17 18  1  0  0  0  0
 18 19  1  6  0  0  0
 18 20  1  0  0  0  0
 20 21  1  6  0  0  0
 22 21  1  6  0  0  0
 22 23  1  0  0  0  0
 22 30  1  0  0  0  0
 23 24  1  6  0  0  0
 23 25  1  0  0  0  0
 25 26  1  6  0  0  0
 25 27  1  0  0  0  0
 27 28  1  6  0  0  0
 27 29  1  0  0  0  0
 29 30  1  0  0  0  0
 29 31  1  1  0  0  0
 31 32  1  0  0  0  0
M  CHG  5   4   1  11   1  13   1  16   1  26   1
M  END
>  <CHROM.1>
-173.32829390,135.81622637,-171.09035799,-61.17855591,173.83940719,-134.98284617
-70.88591355,45.89935468,175.13396299,-73.48706660,179.80130778,-66.23968180
-57.39335654,-57.85448091,64.25225215,-165.70498268,11.03279712,-7.14270731
4.52311924,-2.18029393,-0.96971859,-1.03386217

>  <Name>
1lc4

>  <RI>
0

>  <Rbt.Current_Directory>
/home/afrankz/demos/rdock_decoys_rna/rnas/1lc4

>  <Rbt.Executable>
rbdock ($Id: //depot/dev/client3/rdock/2013.1/src/exe/rbdock.cxx#4 $)

>  <Rbt.Library>
libRbt.so (2013.1, Build901 2013/11/27)

>  <Rbt.Parameter_File>
/export/apps/rDock/src/rDock_2013.1_src/data/scripts/dock_solv.prm

>  <Rbt.Receptor>
prm/blind_docking_20.prm

>  <SCORE>
-31.8149

>  <SCORE.INTER>
-25.2503

>  <SCORE.INTER.CONST>
1

>  <SCORE.INTER.POLAR>
-4.13116

>  <SCORE.INTER.ROT>
6

>  <SCORE.INTER.SOLV>
25.3895

>  <SCORE.INTER.VDW>
-19.1262

>  <SCORE.INTER.norm>
-0.789073

>  <SCORE.INTRA>
-10.1116

>  <SCORE.INTRA.DIHEDRAL>
-31.519

>  <SCORE.INTRA.DIHEDRAL.0>
44.2576

>  <SCORE.INTRA.POLAR>
-0.947971

>  <SCORE.INTRA.POLAR.0>
-0.381556

>  <SCORE.INTRA.REPUL>
0.0701296

>  <SCORE.INTRA.REPUL.0>
0

>  <SCORE.INTRA.SOLV>
0.756624

>  <SCORE.INTRA.SOLV.lig_0>
-134.592

>  <SCORE.INTRA.VDW>
8.14206

>  <SCORE.INTRA.VDW.0>
-1.01417

>  <SCORE.INTRA.norm>
-0.315987

>  <SCORE.RESTR>
3.54699

>  <SCORE.RESTR.CAVITY>
3.54699

>  <SCORE.RESTR.norm>
0.110843

>  <SCORE.SYSTEM>
0

>  <SCORE.SYSTEM.CONST>
0

>  <SCORE.SYSTEM.DIHEDRAL>
0

>  <SCORE.SYSTEM.SOLV>
0

>  <SCORE.SYSTEM.norm>
0

>  <SCORE.heavy>
32

>  <SCORE.norm>
-0.994216

>  <RMSD>
31.176

$$$$
1lc4
 OpenBabel02141814113D
libRbt.so/2013.1/901 2013/11/27
 32 34  0  0  0  0  0  0  0  0999 V2000
   11.1372   -7.3418    4.0569 C   0  0  2  0  0  0  0  0  0  0  0  0
   12.5139   -7.6134    3.9727 O   0  0  0  0  0  0  0  0  0  0  0  0
   10.4759   -7.8023    2.7418 C   0  0  2  0  0  0  0  0  0  0  0  0
   10.7223   -9.2305    2.5200 N   0  3  0  0  0  0  0  0  0  0  0  0
   10.9935   -6.9502    1.5592 C   0  0  0  0  0  0  0  0  0  0  0  0
   10.6555   -5.4804    1.8648 C   0  0  2  0  0  0  0  0  0  0  0  0
   11.0662   -4.6383    0.7825 O   0  0  0  0  0  0  0  0  0  0  0  0
   11.3380   -5.0640    3.1916 C   0  0  2  0  0  0  0  0  0  0  0  0
   10.9073   -5.9328    4.2778 O   0  0  0  0  0  0  0  0  0  0  0  0
   11.0212   -3.6322    3.6160 C   0  0  0  0  0  0  0  0  0  0  0  0
   12.1202   -3.0582    4.4360 N   0  3  0  0  0  0  0  0  0  0  0  0
   13.7760   -8.9041    7.8069 C   0  0  2  0  0  0  0  0  0  0  0  0
   14.4877   -9.0117    9.0937 N   0  3  0  0  0  0  0  0  0  0  0  0
   14.7591   -9.0711    6.6563 C   0  0  0  0  0  0  0  0  0  0  0  0
   14.0314   -8.9575    5.3121 C   0  0  2  0  0  0  0  0  0  0  0  0
   15.0030   -9.2438    4.2274 N   0  3  0  0  0  0  0  0  0  0  0  0
   13.3083   -7.5843    5.1755 C   0  0  2  0  0  0  0  0  0  0  0  0
   12.3490   -7.3844    6.3770 C   0  0  2  0  0  0  0  0  0  0  0  0
   11.8215   -6.0803    6.3420 O   0  0  0  0  0  0  0  0  0  0  0  0
   13.1004   -7.5377    7.7094 C   0  0  1  0  0  0  0  0  0  0  0  0
   12.1737   -7.3784    8.7830 O   0  0  0  0  0  0  0  0  0  0  0  0
   11.6908   -8.5319    9.3809 C   0  0  2  0  0  0  0  0  0  0  0  0
   10.5552   -9.1021    8.5139 C   0  0  2  0  0  0  0  0  0  0  0  0
   11.0713   -9.3884    7.2202 O   0  0  0  0  0  0  0  0  0  0  0  0
    9.4202   -8.0682    8.4120 C   0  0  1  0  0  0  0  0  0  0  0  0
    8.2964   -8.5584    7.5629 N   0  3  0  0  0  0  0  0  0  0  0  0
    8.9173   -7.7203    9.8344 C   0  0  2  0  0  0  0  0  0  0  0  0
    7.8804   -6.7437    9.7732 O   0  0  0  0  0  0  0  0  0  0  0  0
   10.0851   -7.2171   10.7031 C   0  0  2  0  0  0  0  0  0  0  0  0
   11.1886   -8.1942   10.7000 O   0  0  0  0  0  0  0  0  0  0  0  0
    9.6767   -7.0130   12.1451 C   0  0  0  0  0  0  0  0  0  0  0  0
    8.7980   -5.8993   12.2903 O   0  0  0  0  0  0  0  0  0  0  0  0
  1  2  1  6  0  0  0
  1  3  1  0  0  0  0
  1  9  1  0  0  0  0
  3  4  1  6  0  0  0
  3  5  1  0  0  0  0
  5  6  1  0  0  0  0
  6  7  1  6  0  0  0
  6  8  1  0  0  0  0
  8  9  1  0  0  0  0
  8 10  1  1  0  0  0
 10 11  1  0  0  0  0
 12 13  1  1  0  0  0
 12 14  1  0  0  0  0
 12 20  1  0  0  0  0
 14 15  1  0  0  0  0
 15 16  1  6  0  0  0
 15 17  1  0  0  0  0
 17  2  1  6  0  0  0
 17 18  1  0  0  0  0
 18 19  1  6  0  0  0
 18 20  1  0  0  0  0
 20 21  1  1  0  0  0
 22 21  1  6  0  0  0
 22 23  1  0  0  0  0
 22 30  1  0  0  0  0
 23 24  1  6  0  0  0
 23 25  1  0  0  0  0
 25 26  1  6  0  0  0
 25 27  1  0  0  0  0
 27 28  1  6  0  0  0
 27 29  1  0  0  0  0
 29 30  1  0  0  0  0
 29 31  1  1  0  0  0
 31 32  1  0  0  0  0
M  CHG  5   4   1  11   1  13   1  16   1  26   1
M  END
>  <CHROM.1>
-165.02344979,124.32855378,-157.65058010,-58.31066976,-152.40998622,-82.78402707
-34.26007460,-178.29926471,-42.06292377,-22.43046341,-80.85514242,177.46934285
4.45535440,-3.52342279,-70.05460601,52.52824176,11.40434353,-7.30664487,6.46792675
1.33646667,0.62281670,-1.25684821

>  <Name>
1lc4

>  <RI>
0

>  <Rbt.Current_Directory>
/home/afrankz/demos/rdock_decoys_rna/rnas/1lc4

>  <Rbt.Executable>
rbdock ($Id: //depot/dev/client3/rdock/2013.1/src/exe/rbdock.cxx#4 $)

>  <Rbt.Library>
libRbt.so (2013.1, Build901 2013/11/27)

>  <Rbt.Parameter_File>
/export/apps/rDock/src/rDock_2013.1_src/data/scripts/dock_solv.prm

>  <Rbt.Receptor>
prm/blind_docking_60.prm

>  <SCORE>
-29.3549

>  <SCORE.INTER>
-38.4074

>  <SCORE.INTER.CONST>
1

>  <SCORE.INTER.POLAR>
-6.41178

>  <SCORE.INTER.ROT>
6

>  <SCORE.INTER.SOLV>
33.073

>  <SCORE.INTER.VDW>
-22.8566

>  <SCORE.INTER.norm>
-1.20023

>  <SCORE.INTRA>
3.66626

>  <SCORE.INTRA.DIHEDRAL>
-10.3495

>  <SCORE.INTRA.DIHEDRAL.0>
44.2576

>  <SCORE.INTRA.POLAR>
-0.336841

>  <SCORE.INTRA.POLAR.0>
-0.381556

>  <SCORE.INTRA.REPUL>
0

>  <SCORE.INTRA.REPUL.0>
0

>  <SCORE.INTRA.SOLV>
-0.471143

>  <SCORE.INTRA.SOLV.lig_0>
-134.592

>  <SCORE.INTRA.VDW>
10.2219

>  <SCORE.INTRA.VDW.0>
-1.01417

>  <SCORE.INTRA.norm>
0.114571

>  <SCORE.RESTR>
5.38624

>  <SCORE.RESTR.CAVITY>
5.38624

>  <SCORE.RESTR.norm>
0.16832

>  <SCORE.SYSTEM>
0

>  <SCORE.SYSTEM.CONST>
0

>  <SCORE.SYSTEM.DIHEDRAL>
0

>  <SCORE.SYSTEM.SOLV>
0

>  <SCORE.SYSTEM.norm>
0

>  <SCORE.heavy>
32

>  <SCORE.norm>
-0.917339

>  <RMSD>
31.191

$$$$
1lc4
 OpenBabel02141814113D
libRbt.so/2013.1/901 2013/11/27
 32 34  0  0  0  0  0  0  0  0999 V2000
   10.2019   -5.9255    3.9514 C   0  0  2  0  0  0  0  0  0  0  0  0
   10.4779   -7.0740    3.1894 O   0  0  0  0  0  0  0  0  0  0  0  0
   10.4065   -4.6908    3.0500 C   0  0  2  0  0  0  0  0  0  0  0  0
    9.5354   -4.7688    1.8732 N   0  3  0  0  0  0  0  0  0  0  0  0
   11.8940   -4.5694    2.6436 C   0  0  0  0  0  0  0  0  0  0  0  0
   12.7193   -4.4543    3.9372 C   0  0  2  0  0  0  0  0  0  0  0  0
   14.1078   -4.2896    3.6304 O   0  0  0  0  0  0  0  0  0  0  0  0
   12.4814   -5.7122    4.8092 C   0  0  2  0  0  0  0  0  0  0  0  0
   11.0643   -5.8611    5.1087 O   0  0  0  0  0  0  0  0  0  0  0  0
   13.2163   -5.6737    6.1468 C   0  0  0  0  0  0  0  0  0  0  0  0
   14.2235   -6.7631    6.2391 N   0  3  0  0  0  0  0  0  0  0  0  0
   10.2673  -11.1182    4.4386 C   0  0  2  0  0  0  0  0  0  0  0  0
   10.5721  -12.4158    5.0687 N   0  3  0  0  0  0  0  0  0  0  0  0
   11.3704  -10.7483    3.4563 C   0  0  0  0  0  0  0  0  0  0  0  0
   11.0667   -9.3984    2.7968 C   0  0  2  0  0  0  0  0  0  0  0  0
   12.1019   -9.1368    1.7660 N   0  3  0  0  0  0  0  0  0  0  0  0
   10.9253   -8.2690    3.8607 C   0  0  2  0  0  0  0  0  0  0  0  0
    9.8434   -8.6685    4.8968 C   0  0  2  0  0  0  0  0  0  0  0  0
    9.8312   -7.7301    5.9453 O   0  0  0  0  0  0  0  0  0  0  0  0
   10.1574  -10.0405    5.5153 C   0  0  1  0  0  0  0  0  0  0  0  0
    9.1210  -10.3800    6.4358 O   0  0  0  0  0  0  0  0  0  0  0  0
    7.8213  -10.3861    5.9540 C   0  0  2  0  0  0  0  0  0  0  0  0
    6.8563  -10.1424    7.1269 C   0  0  2  0  0  0  0  0  0  0  0  0
    7.1650   -8.8854    7.7157 O   0  0  0  0  0  0  0  0  0  0  0  0
    7.0191  -11.2657    8.1659 C   0  0  1  0  0  0  0  0  0  0  0  0
    6.1209  -11.0710    9.3403 N   0  3  0  0  0  0  0  0  0  0  0  0
    6.7438  -12.6307    7.4892 C   0  0  2  0  0  0  0  0  0  0  0  0
    6.9122  -13.6948    8.4231 O   0  0  0  0  0  0  0  0  0  0  0  0
    7.6748  -12.8211    6.2773 C   0  0  2  0  0  0  0  0  0  0  0  0
    7.5567  -11.6798    5.3520 O   0  0  0  0  0  0  0  0  0  0  0  0
    7.3384  -14.0679    5.4898 C   0  0  0  0  0  0  0  0  0  0  0  0
    8.2558  -14.2766    4.4183 O   0  0  0  0  0  0  0  0  0  0  0  0
  1  2  1  6  0  0  0
  1  3  1  0  0  0  0
  1  9  1  0  0  0  0
  3  4  1  6  0  0  0
  3  5  1  0  0  0  0
  5  6  1  0  0  0  0
  6  7  1  6  0  0  0
  6  8  1  0  0  0  0
  8  9  1  0  0  0  0
  8 10  1  1  0  0  0
 10 11  1  0  0  0  0
 12 13  1  1  0  0  0
 12 14  1  0  0  0  0
 12 20  1  0  0  0  0
 14 15  1  0  0  0  0
 15 16  1  6  0  0  0
 15 17  1  0  0  0  0
 17  2  1  6  0  0  0
 17 18  1  0  0  0  0
 18 19  1  1  0  0  0
 18 20  1  0  0  0  0
 20 21  1  1  0  0  0
 22 21  1  1  0  0  0
 22 23  1  0  0  0  0
 22 30  1  0  0  0  0
 23 24  1  1  0  0  0
 23 25  1  0  0  0  0
 25 26  1  1  0  0  0
 25 27  1  0  0  0  0
 27 28  1  1  0  0  0
 27 29  1  0  0  0  0
 29 30  1  0  0  0  0
 29 31  1  6  0  0  0
 31 32  1  0  0  0  0
M  CHG  5   4   1  11   1  13   1  16   1  26   1
M  END
>  <CHROM.1>
153.47203533,176.48662531,-172.87867891,-170.00718905,-116.51388900,-161.28482135
-65.71288211,-73.37706848,-51.71990440,-66.32526162,-154.88998230,56.81372237
-38.53103307,-179.09200403,-176.50560896,71.46773371,9.85626858,-9.03789428
5.15771181,0.61214357,0.86725307,0.40036139

>  <Name>
1lc4

>  <RI>
0

>  <Rbt.Current_Directory>
/home/afrankz/demos/rdock_decoys_rna/rnas/1lc4

>  <Rbt.Executable>
rbdock ($Id: //depot/dev/client3/rdock/2013.1/src/exe/rbdock.cxx#4 $)

>  <Rbt.Library>
libRbt.so (2013.1, Build901 2013/11/27)

>  <Rbt.Parameter_File>
/export/apps/rDock/src/rDock_2013.1_src/data/scripts/dock_solv.prm

>  <Rbt.Receptor>
prm/blind_docking_20.prm

>  <SCORE>
-35.4842

>  <SCORE.INTER>
-27.4127

>  <SCORE.INTER.CONST>
1

>  <SCORE.INTER.POLAR>
-5.4227

>  <SCORE.INTER.ROT>
6

>  <SCORE.INTER.SOLV>
36.0138

>  <SCORE.INTER.VDW>
-19.8041

>  <SCORE.INTER.norm>
-0.856648

>  <SCORE.INTRA>
-12.9064

>  <SCORE.INTRA.DIHEDRAL>
-29.056

>  <SCORE.INTRA.DIHEDRAL.0>
44.2576

>  <SCORE.INTRA.POLAR>
0.35066

>  <SCORE.INTRA.POLAR.0>
-0.381556

>  <SCORE.INTRA.REPUL>
0

>  <SCORE.INTRA.REPUL.0>
0

>  <SCORE.INTRA.SOLV>
-1.0497

>  <SCORE.INTRA.SOLV.lig_0>
-134.592

>  <SCORE.INTRA.VDW>
0.954245

>  <SCORE.INTRA.VDW.0>
-1.01417

>  <SCORE.INTRA.norm>
-0.403324

>  <SCORE.RESTR>
4.83488

>  <SCORE.RESTR.CAVITY>
4.83488

>  <SCORE.RESTR.norm>
0.15109

>  <SCORE.SYSTEM>
0

>  <SCORE.SYSTEM.CONST>
0

>  <SCORE.SYSTEM.DIHEDRAL>
0

>  <SCORE.SYSTEM.SOLV>
0

>  <SCORE.SYSTEM.norm>
0

>  <SCORE.heavy>
32

>  <SCORE.norm>
-1.10888

>  <RMSD>
31.197

$$$$
1lc4
 OpenBabel02141814113D
libRbt.so/2013.1/901 2013/11/27
 32 34  0  0  0  0  0  0  0  0999 V2000
   12.5232   -7.4143    7.3168 C   0  0  2  0  0  0  0  0  0  0  0  0
   11.9614   -7.7122    6.0632 O   0  0  0  0  0  0  0  0  0  0  0  0
   13.6086   -8.4677    7.6189 C   0  0  2  0  0  0  0  0  0  0  0  0
   14.6289   -8.4648    6.5660 N   0  3  0  0  0  0  0  0  0  0  0  0
   12.9645   -9.8652    7.7764 C   0  0  0  0  0  0  0  0  0  0  0  0
   11.9427   -9.7773    8.9235 C   0  0  2  0  0  0  0  0  0  0  0  0
   11.3414  -11.0556    9.1555 O   0  0  0  0  0  0  0  0  0  0  0  0
   10.8761   -8.7086    8.5775 C   0  0  2  0  0  0  0  0  0  0  0  0
   11.5084   -7.4178    8.3451 O   0  0  0  0  0  0  0  0  0  0  0  0
    9.8399   -8.5035    9.6797 C   0  0  0  0  0  0  0  0  0  0  0  0
    9.1161   -7.2168    9.5052 N   0  3  0  0  0  0  0  0  0  0  0  0
   11.4813   -5.1846    2.6956 C   0  0  2  0  0  0  0  0  0  0  0  0
   11.0006   -4.1340    1.7797 N   0  3  0  0  0  0  0  0  0  0  0  0
   10.3528   -6.1597    3.0022 C   0  0  0  0  0  0  0  0  0  0  0  0
   10.8393   -7.2555    3.9571 C   0  0  2  0  0  0  0  0  0  0  0  0
    9.7461   -8.2439    4.1323 N   0  3  0  0  0  0  0  0  0  0  0  0
   11.3707   -6.6484    5.2899 C   0  0  2  0  0  0  0  0  0  0  0  0
   12.4803   -5.6113    4.9783 C   0  0  2  0  0  0  0  0  0  0  0  0
   12.8440   -4.9455    6.1634 O   0  0  0  0  0  0  0  0  0  0  0  0
   11.9732   -4.5458    3.9929 C   0  0  1  0  0  0  0  0  0  0  0  0
   13.0349   -3.6347    3.7114 O   0  0  0  0  0  0  0  0  0  0  0  0
   12.7227   -2.5059    2.9700 C   0  0  2  0  0  0  0  0  0  0  0  0
   13.9043   -2.1803    2.0404 C   0  0  2  0  0  0  0  0  0  0  0  0
   14.1294   -3.2935    1.1848 O   0  0  0  0  0  0  0  0  0  0  0  0
   15.1596   -1.9027    2.8859 C   0  0  1  0  0  0  0  0  0  0  0  0
   16.3469   -1.6009    2.0354 N   0  3  0  0  0  0  0  0  0  0  0  0
   14.8724   -0.7314    3.8568 C   0  0  2  0  0  0  0  0  0  0  0  0
   16.0115   -0.4673    4.6725 O   0  0  0  0  0  0  0  0  0  0  0  0
   13.6442   -1.0523    4.7287 C   0  0  2  0  0  0  0  0  0  0  0  0
   12.4888   -1.4024    3.8831 O   0  0  0  0  0  0  0  0  0  0  0  0
   13.2285    0.1243    5.5836 C   0  0  0  0  0  0  0  0  0  0  0  0
   12.8122    1.2317    4.7875 O   0  0  0  0  0  0  0  0  0  0  0  0
  1  2  1  6  0  0  0
  1  3  1  0  0  0  0
  1  9  1  0  0  0  0
  3  4  1  6  0  0  0
  3  5  1  0  0  0  0
  5  6  1  0  0  0  0
  6  7  1  6  0  0  0
  6  8  1  0  0  0  0
  8  9  1  0  0  0  0
  8 10  1  1  0  0  0
 10 11  1  0  0  0  0
 12 13  1  6  0  0  0
 12 14  1  0  0  0  0
 12 20  1  0  0  0  0
 14 15  1  0  0  0  0
 15 16  1  1  0  0  0
 15 17  1  0  0  0  0
 17  2  1  1  0  0  0
 17 18  1  0  0  0  0
 18 19  1  1  0  0  0
 18 20  1  0  0  0  0
 20 21  1  6  0  0  0
 22 21  1  1  0  0  0
 22 23  1  0  0  0  0
 22 30  1  0  0  0  0
 23 24  1  6  0  0  0
 23 25  1  0  0  0  0
 25 26  1  6  0  0  0
 25 27  1  0  0  0  0
 27 28  1  1  0  0  0
 27 29  1  0  0  0  0
 29 30  1  0  0  0  0
 29 31  1  6  0  0  0
 31 32  1  0  0  0  0
M  CHG  5   4   1  11   1  13   1  16   1  26   1
M  END
>  <CHROM.1>
-153.92064947,179.69124826,64.33416042,-58.33877720,162.27072721,29.43856086
-154.91268828,149.08092201,161.47248698,65.90619452,-143.69108669,149.67225184
-46.41390965,56.29819079,63.50163495,-58.09175578,12.53682183,-5.12179229
5.23098742,-2.23122543,-1.07576596,-1.15636331

>  <Name>
1lc4

>  <RI>
0

>  <Rbt.Current_Directory>
/home/afrankz/demos/rdock_decoys_rna/rnas/1lc4

>  <Rbt.Executable>
rbdock ($Id: //depot/dev/client3/rdock/2013.1/src/exe/rbdock.cxx#4 $)

>  <Rbt.Library>
libRbt.so (2013.1, Build901 2013/11/27)

>  <Rbt.Parameter_File>
/export/apps/rDock/src/rDock_2013.1_src/data/scripts/dock_solv.prm

>  <Rbt.Receptor>
prm/blind_docking_60.prm

>  <SCORE>
-29.5332

>  <SCORE.INTER>
-25.9879

>  <SCORE.INTER.CONST>
1

>  <SCORE.INTER.POLAR>
-4.58807

>  <SCORE.INTER.ROT>
6

>  <SCORE.INTER.SOLV>
28.9898

>  <SCORE.INTER.VDW>
-19.2949

>  <SCORE.INTER.norm>
-0.812121

>  <SCORE.INTRA>
-12.1343

>  <SCORE.INTRA.DIHEDRAL>
-24.3958

>  <SCORE.INTRA.DIHEDRAL.0>
44.2576

>  <SCORE.INTRA.POLAR>
0.113257

>  <SCORE.INTRA.POLAR.0>
-0.381556

>  <SCORE.INTRA.REPUL>
0

>  <SCORE.INTRA.REPUL.0>
0

>  <SCORE.INTRA.SOLV>
-1.61583

>  <SCORE.INTRA.SOLV.lig_0>
-134.592

>  <SCORE.INTRA.VDW>
0.486437

>  <SCORE.INTRA.VDW.0>
-1.01417

>  <SCORE.INTRA.norm>
-0.379197

>  <SCORE.RESTR>
8.58894

>  <SCORE.RESTR.CAVITY>
8.58894

>  <SCORE.RESTR.norm>
0.268404

>  <SCORE.SYSTEM>
0

>  <SCORE.SYSTEM.CONST>
0

>  <SCORE.SYSTEM.DIHEDRAL>
0

>  <SCORE.SYSTEM.SOLV>
0

>  <SCORE.SYSTEM.norm>
0

>  <SCORE.heavy>
32

>  <SCORE.norm>
-0.922913

>  <RMSD>
31.206

$$$$
1lc4
 OpenBabel02141814113D
libRbt.so/2013.1/901 2013/11/27
 32 34  0  0  0  0  0  0  0  0999 V2000
   12.9063   -4.4080    4.1010 C   0  0  2  0  0  0  0  0  0  0  0  0
   11.9974   -5.0762    3.2622 O   0  0  0  0  0  0  0  0  0  0  0  0
   12.3011   -3.0382    4.4700 C   0  0  2  0  0  0  0  0  0  0  0  0
   11.0030   -3.2150    5.1283 N   0  3  0  0  0  0  0  0  0  0  0  0
   12.1774   -2.1537    3.2071 C   0  0  0  0  0  0  0  0  0  0  0  0
   13.5880   -1.9947    2.6133 C   0  0  2  0  0  0  0  0  0  0  0  0
   13.5524   -1.1429    1.4633 O   0  0  0  0  0  0  0  0  0  0  0  0
   14.1548   -3.3925    2.2605 C   0  0  2  0  0  0  0  0  0  0  0  0
   14.1815   -4.2420    3.4427 O   0  0  0  0  0  0  0  0  0  0  0  0
   15.5785   -3.3512    1.7110 C   0  0  0  0  0  0  0  0  0  0  0  0
   16.4013   -4.4587    2.2644 N   0  3  0  0  0  0  0  0  0  0  0  0
    9.4883   -8.3623    4.1926 C   0  0  2  0  0  0  0  0  0  0  0  0
    8.9983   -9.7201    4.4928 N   0  3  0  0  0  0  0  0  0  0  0  0
   10.1130   -8.3330    2.8043 C   0  0  0  0  0  0  0  0  0  0  0  0
   10.6300   -6.9266    2.4816 C   0  0  2  0  0  0  0  0  0  0  0  0
   11.1200   -6.9173    1.0807 N   0  3  0  0  0  0  0  0  0  0  0  0
   11.6832   -6.4577    3.5295 C   0  0  2  0  0  0  0  0  0  0  0  0
   11.0699   -6.5418    4.9509 C   0  0  2  0  0  0  0  0  0  0  0  0
   12.0679   -6.2776    5.9070 O   0  0  0  0  0  0  0  0  0  0  0  0
   10.5302   -7.9536    5.2320 C   0  0  1  0  0  0  0  0  0  0  0  0
    9.9480   -7.9744    6.5348 O   0  0  0  0  0  0  0  0  0  0  0  0
    9.6950   -9.2159    7.0970 C   0  0  2  0  0  0  0  0  0  0  0  0
    8.7340   -9.0361    8.2847 C   0  0  2  0  0  0  0  0  0  0  0  0
    7.5297   -8.4479    7.8096 O   0  0  0  0  0  0  0  0  0  0  0  0
    9.3867   -8.1239    9.3380 C   0  0  1  0  0  0  0  0  0  0  0  0
    8.4900   -7.8952   10.5075 N   0  3  0  0  0  0  0  0  0  0  0  0
   10.7282   -8.7486    9.7934 C   0  0  2  0  0  0  0  0  0  0  0  0
   11.3695   -7.9113   10.7528 O   0  0  0  0  0  0  0  0  0  0  0  0
   11.6456   -8.9822    8.5787 C   0  0  2  0  0  0  0  0  0  0  0  0
   10.9507   -9.7819    7.5539 O   0  0  0  0  0  0  0  0  0  0  0  0
   12.9042   -9.7341    8.9508 C   0  0  0  0  0  0  0  0  0  0  0  0
   13.6942   -9.0058    9.8883 O   0  0  0  0  0  0  0  0  0  0  0  0
  1  2  1  6  0  0  0
  1  3  1  0  0  0  0
  1  9  1  0  0  0  0
  3  4  1  6  0  0  0
  3  5  1  0  0  0  0
  5  6  1  0  0  0  0
  6  7  1  6  0  0  0
  6  8  1  0  0  0  0
  8  9  1  0  0  0  0
  8 10  1  1  0  0  0
 10 11  1  0  0  0  0
 12 13  1  1  0  0  0
 12 14  1  0  0  0  0
 12 20  1  0  0  0  0
 14 15  1  0  0  0  0
 15 16  1  6  0  0  0
 15 17  1  0  0  0  0
 17  2  1  6  0  0  0
 17 18  1  0  0  0  0
 18 19  1  1  0  0  0
 18 20  1  0  0  0  0
 20 21  1  1  0  0  0
 22 21  1  1  0  0  0
 22 23  1  0  0  0  0
 22 30  1  0  0  0  0
 23 24  1  6  0  0  0
 23 25  1  0  0  0  0
 25 26  1  1  0  0  0
 25 27  1  0  0  0  0
 27 28  1  1  0  0  0
 27 29  1  0  0  0  0
 29 30  1  0  0  0  0
 29 31  1  1  0  0  0
 31 32  1  0  0  0  0
M  CHG  5   4   1  11   1  13   1  16   1  26   1
M  END
>  <CHROM.1>
-133.32873087,178.35516983,-162.58896785,-176.00607881,139.05260304,-25.38691947
83.02655721,85.26426718,-53.80272472,73.08306825,-164.33890519,-26.24010400
-168.45754996,69.15610898,-61.92976641,-87.43451495,11.52967519,-6.52643979
5.45294589,-1.04038865,0.70474202,1.91886788

>  <Name>
1lc4

>  <RI>
0

>  <Rbt.Current_Directory>
/home/afrankz/demos/rdock_decoys_rna/rnas/1lc4

>  <Rbt.Executable>
rbdock ($Id: //depot/dev/client3/rdock/2013.1/src/exe/rbdock.cxx#4 $)

>  <Rbt.Library>
libRbt.so (2013.1, Build901 2013/11/27)

>  <Rbt.Parameter_File>
/export/apps/rDock/src/rDock_2013.1_src/data/scripts/dock_solv.prm

>  <Rbt.Receptor>
prm/blind_docking_20.prm

>  <SCORE>
-42.1231

>  <SCORE.INTER>
-42.199

>  <SCORE.INTER.CONST>
1

>  <SCORE.INTER.POLAR>
-7.61167

>  <SCORE.INTER.ROT>
6

>  <SCORE.INTER.SOLV>
53.6211

>  <SCORE.INTER.VDW>
-28.2341

>  <SCORE.INTER.norm>
-1.31872

>  <SCORE.INTRA>
-9.13613

>  <SCORE.INTRA.DIHEDRAL>
-17.9412

>  <SCORE.INTRA.DIHEDRAL.0>
44.2576

>  <SCORE.INTRA.POLAR>
-0.0520679

>  <SCORE.INTRA.POLAR.0>
-0.381556

>  <SCORE.INTRA.REPUL>
0

>  <SCORE.INTRA.REPUL.0>
0

>  <SCORE.INTRA.SOLV>
-0.434159

>  <SCORE.INTRA.SOLV.lig_0>
-134.592

>  <SCORE.INTRA.VDW>
0.228576

>  <SCORE.INTRA.VDW.0>
-1.01417

>  <SCORE.INTRA.norm>
-0.285504

>  <SCORE.RESTR>
9.21193

>  <SCORE.RESTR.CAVITY>
9.21193

>  <SCORE.RESTR.norm>
0.287873

>  <SCORE.SYSTEM>
0

>  <SCORE.SYSTEM.CONST>
0

>  <SCORE.SYSTEM.DIHEDRAL>
0

>  <SCORE.SYSTEM.SOLV>
0

>  <SCORE.SYSTEM.norm>
0

>  <SCORE.heavy>
32

>  <SCORE.norm>
-1.31635

>  <RMSD>
31.285

$$$$
1lc4
 OpenBabel02141814113D
libRbt.so/2013.1/901 2013/11/27
 32 34  0  0  0  0  0  0  0  0999 V2000
   13.7103   -2.1146    4.4638 C   0  0  2  0  0  0  0  0  0  0  0  0
   12.5778   -2.4979    3.7245 O   0  0  0  0  0  0  0  0  0  0  0  0
   13.8529   -0.5822    4.3633 C   0  0  2  0  0  0  0  0  0  0  0  0
   12.6433    0.0765    4.8659 N   0  3  0  0  0  0  0  0  0  0  0  0
   14.1541   -0.1705    2.9030 C   0  0  0  0  0  0  0  0  0  0  0  0
   15.4544   -0.8771    2.4816 C   0  0  2  0  0  0  0  0  0  0  0  0
   15.8185   -0.4998    1.1496 O   0  0  0  0  0  0  0  0  0  0  0  0
   15.2649   -2.4099    2.6000 C   0  0  2  0  0  0  0  0  0  0  0  0
   14.8947   -2.7715    3.9610 O   0  0  0  0  0  0  0  0  0  0  0  0
   16.5202   -3.2071    2.2546 C   0  0  0  0  0  0  0  0  0  0  0  0
   16.2995   -4.6655    2.4395 N   0  3  0  0  0  0  0  0  0  0  0  0
   10.2466   -6.0338    3.5725 C   0  0  2  0  0  0  0  0  0  0  0  0
    9.8224   -7.4354    3.4008 N   0  3  0  0  0  0  0  0  0  0  0  0
   10.7696   -5.4860    2.2516 C   0  0  0  0  0  0  0  0  0  0  0  0
   11.2176   -4.0297    2.4180 C   0  0  2  0  0  0  0  0  0  0  0  0
   11.6061   -3.5036    1.0857 N   0  3  0  0  0  0  0  0  0  0  0  0
   12.3274   -3.9005    3.5038 C   0  0  2  0  0  0  0  0  0  0  0  0
   11.8197   -4.5105    4.8357 C   0  0  2  0  0  0  0  0  0  0  0  0
   12.8744   -4.5437    5.7666 O   0  0  0  0  0  0  0  0  0  0  0  0
   11.3464   -5.9586    4.6298 C   0  0  1  0  0  0  0  0  0  0  0  0
   10.8593   -6.4661    5.8715 O   0  0  0  0  0  0  0  0  0  0  0  0
   11.6044   -7.4598    6.4870 C   0  0  2  0  0  0  0  0  0  0  0  0
   11.2490   -8.8136    5.8490 C   0  0  2  0  0  0  0  0  0  0  0  0
   11.5472   -8.7535    4.4599 O   0  0  0  0  0  0  0  0  0  0  0  0
    9.7511   -9.0993    6.0549 C   0  0  1  0  0  0  0  0  0  0  0  0
    9.3420  -10.3934    5.4367 N   0  3  0  0  0  0  0  0  0  0  0  0
    9.4342   -9.0947    7.5704 C   0  0  2  0  0  0  0  0  0  0  0  0
    8.0459   -9.3321    7.7916 O   0  0  0  0  0  0  0  0  0  0  0  0
    9.8619   -7.7555    8.1991 C   0  0  2  0  0  0  0  0  0  0  0  0
   11.2778   -7.4747    7.9009 O   0  0  0  0  0  0  0  0  0  0  0  0
    9.7176   -7.7604    9.7048 C   0  0  0  0  0  0  0  0  0  0  0  0
   10.1990   -6.5492   10.2832 O   0  0  0  0  0  0  0  0  0  0  0  0
  1  2  1  6  0  0  0
  1  3  1  0  0  0  0
  1  9  1  0  0  0  0
  3  4  1  6  0  0  0
  3  5  1  0  0  0  0
  5  6  1  0  0  0  0
  6  7  1  6  0  0  0
  6  8  1  0  0  0  0
  8  9  1  0  0  0  0
  8 10  1  1  0  0  0
 10 11  1  0  0  0  0
 12 13  1  6  0  0  0
 12 14  1  0  0  0  0
 12 20  1  0  0  0  0
 14 15  1  0  0  0  0
 15 16  1  6  0  0  0
 15 17  1  0  0  0  0
 17  2  1  1  0  0  0
 17 18  1  0  0  0  0
 18 19  1  1  0  0  0
 18 20  1  0  0  0  0
 20 21  1  1  0  0  0
 22 21  1  6  0  0  0
 22 23  1  0  0  0  0
 22 30  1  0  0  0  0
 23 24  1  6  0  0  0
 23 25  1  0  0  0  0
 25 26  1  1  0  0  0
 25 27  1  0  0  0  0
 27 28  1  6  0  0  0
 27 29  1  0  0  0  0
 29 30  1  0  0  0  0
 29 31  1  1  0  0  0
 31 32  1  0  0  0  0
M  CHG  5   4   1  11   1  13   1  16   1  26   1
M  END
>  <CHROM.1>
171.47486999,-167.78083605,-59.58453446,-177.60720123,177.62162997,107.39539918
72.95481145,-178.03848629,-46.38976093,127.04715274,-82.02613826,62.39279981
-168.74998452,-46.21145555,176.13188861,-173.04209467,12.06158607,-5.15224183
4.75883484,-0.14965736,1.03383149,1.16650828

>  <Name>
1lc4

>  <RI>
0

>  <Rbt.Current_Directory>
/home/afrankz/demos/rdock_decoys_rna/rnas/1lc4

>  <Rbt.Executable>
rbdock ($Id: //depot/dev/client3/rdock/2013.1/src/exe/rbdock.cxx#4 $)

>  <Rbt.Library>
libRbt.so (2013.1, Build901 2013/11/27)

>  <Rbt.Parameter_File>
/export/apps/rDock/src/rDock_2013.1_src/data/scripts/dock_solv.prm

>  <Rbt.Receptor>
prm/blind_docking_60.prm

>  <SCORE>
-42.484

>  <SCORE.INTER>
-36.1825

>  <SCORE.INTER.CONST>
1

>  <SCORE.INTER.POLAR>
-5.3426

>  <SCORE.INTER.ROT>
6

>  <SCORE.INTER.SOLV>
37.4164

>  <SCORE.INTER.VDW>
-26.3851

>  <SCORE.INTER.norm>
-1.1307

>  <SCORE.INTRA>
-16.1578

>  <SCORE.INTRA.DIHEDRAL>
-27.9331

>  <SCORE.INTRA.DIHEDRAL.0>
44.2576

>  <SCORE.INTRA.POLAR>
-0.320821

>  <SCORE.INTRA.POLAR.0>
-0.381556

>  <SCORE.INTRA.REPUL>
0

>  <SCORE.INTRA.REPUL.0>
0

>  <SCORE.INTRA.SOLV>
1.41334

>  <SCORE.INTRA.SOLV.lig_0>
-134.592

>  <SCORE.INTRA.VDW>
-1.80717

>  <SCORE.INTRA.VDW.0>
-1.01417

>  <SCORE.INTRA.norm>
-0.504933

>  <SCORE.RESTR>
9.85631

>  <SCORE.RESTR.CAVITY>
9.85631

>  <SCORE.RESTR.norm>
0.30801

>  <SCORE.SYSTEM>
0

>  <SCORE.SYSTEM.CONST>
0

>  <SCORE.SYSTEM.DIHEDRAL>
0

>  <SCORE.SYSTEM.SOLV>
0

>  <SCORE.SYSTEM.norm>
0

>  <SCORE.heavy>
32

>  <SCORE.norm>
-1.32763

>  <RMSD>
31.288

$$$$
1lc4
 OpenBabel02141814113D
libRbt.so/2013.1/901 2013/11/27
 32 34  0  0  0  0  0  0  0  0999 V2000
   12.2633   -3.1346    4.0667 C   0  0  2  0  0  0  0  0  0  0  0  0
   11.3591   -3.8154    3.2330 O   0  0  0  0  0  0  0  0  0  0  0  0
   12.3020   -1.6568    3.6270 C   0  0  2  0  0  0  0  0  0  0  0  0
   10.9621   -1.0667    3.7038 N   0  3  0  0  0  0  0  0  0  0  0  0
   12.8883   -1.5414    2.2003 C   0  0  0  0  0  0  0  0  0  0  0  0
   14.3020   -2.1481    2.2303 C   0  0  2  0  0  0  0  0  0  0  0  0
   14.9235   -2.0295    0.9461 O   0  0  0  0  0  0  0  0  0  0  0  0
   14.2137   -3.6285    2.6777 C   0  0  2  0  0  0  0  0  0  0  0  0
   13.5786   -3.7263    3.9843 O   0  0  0  0  0  0  0  0  0  0  0  0
   15.5740   -4.3120    2.7929 C   0  0  0  0  0  0  0  0  0  0  0  0
   16.6744   -3.3884    2.4108 N   0  3  0  0  0  0  0  0  0  0  0  0
    9.6825   -7.7060    3.3447 C   0  0  2  0  0  0  0  0  0  0  0  0
    9.5225   -9.1717    3.3468 N   0  3  0  0  0  0  0  0  0  0  0  0
   10.3146   -7.2564    2.0345 C   0  0  0  0  0  0  0  0  0  0  0  0
   10.4897   -5.7338    2.0215 C   0  0  2  0  0  0  0  0  0  0  0  0
   10.9961   -5.3315    0.6858 N   0  3  0  0  0  0  0  0  0  0  0  0
   11.3763   -5.2569    3.2106 C   0  0  2  0  0  0  0  0  0  0  0  0
   10.7674   -5.7628    4.5437 C   0  0  2  0  0  0  0  0  0  0  0  0
   11.6512   -5.4751    5.6002 O   0  0  0  0  0  0  0  0  0  0  0  0
   10.5726   -7.2874    4.5133 C   0  0  1  0  0  0  0  0  0  0  0  0
    9.9816   -7.7020    5.7444 O   0  0  0  0  0  0  0  0  0  0  0  0
   10.3351   -8.9516    6.2289 C   0  0  2  0  0  0  0  0  0  0  0  0
    9.4223   -9.2994    7.4172 C   0  0  2  0  0  0  0  0  0  0  0  0
    8.0730   -9.3010    6.9684 O   0  0  0  0  0  0  0  0  0  0  0  0
    9.6072   -8.2516    8.5288 C   0  0  1  0  0  0  0  0  0  0  0  0
    8.7288   -8.5256    9.7025 N   0  3  0  0  0  0  0  0  0  0  0  0
   11.0947   -8.2186    8.9569 C   0  0  2  0  0  0  0  0  0  0  0  0
   11.3017   -7.2371    9.9701 O   0  0  0  0  0  0  0  0  0  0  0  0
   11.9928   -7.9369    7.7381 C   0  0  2  0  0  0  0  0  0  0  0  0
   11.7197   -8.9058    6.6613 O   0  0  0  0  0  0  0  0  0  0  0  0
   13.4632   -8.0499    8.0747 C   0  0  0  0  0  0  0  0  0  0  0  0
   14.2835   -7.5385    7.0264 O   0  0  0  0  0  0  0  0  0  0  0  0
  1  2  1  6  0  0  0
  1  3  1  0  0  0  0
  1  9  1  0  0  0  0
  3  4  1  6  0  0  0
  3  5  1  0  0  0  0
  5  6  1  0  0  0  0
  6  7  1  6  0  0  0
  6  8  1  0  0  0  0
  8  9  1  0  0  0  0
  8 10  1  1  0  0  0
 10 11  1  0  0  0  0
 12 13  1  6  0  0  0
 12 14  1  0  0  0  0
 12 20  1  0  0  0  0
 14 15  1  0  0  0  0
 15 16  1  6  0  0  0
 15 17  1  0  0  0  0
 17  2  1  1  0  0  0
 17 18  1  0  0  0  0
 18 19  1  1  0  0  0
 18 20  1  0  0  0  0
 20 21  1  1  0  0  0
 22 21  1  1  0  0  0
 22 23  1  0  0  0  0
 22 30  1  0  0  0  0
 23 24  1  6  0  0  0
 23 25  1  0  0  0  0
 25 26  1  1  0  0  0
 25 27  1  0  0  0  0
 27 28  1  1  0  0  0
 27 29  1  0  0  0  0
 29 30  1  0  0  0  0
 29 31  1  1  0  0  0
 31 32  1  0  0  0  0
M  CHG  5   4   1  11   1  13   1  16   1  26   1
M  END
>  <CHROM.1>
164.92487944,-169.11513076,57.97780688,-53.35268693,-1.37444953,-45.75234793
-170.24452386,-68.10497227,69.75392446,90.94478085,-170.55624220,60.31587351
69.15831924,64.35171950,-168.58740996,-52.42692504,11.70762192,-5.91523724
4.82639233,-1.05169885,0.62902286,2.06283319

>  <Name>
1lc4

>  <RI>
0

>  <Rbt.Current_Directory>
/home/afrankz/demos/rdock_decoys_rna/rnas/1lc4

>  <Rbt.Executable>
rbdock ($Id: //depot/dev/client3/rdock/2013.1/src/exe/rbdock.cxx#4 $)

>  <Rbt.Library>
libRbt.so (2013.1, Build901 2013/11/27)

>  <Rbt.Parameter_File>
/export/apps/rDock/src/rDock_2013.1_src/data/scripts/dock_solv.prm

>  <Rbt.Receptor>
prm/blind_docking_20.prm

>  <SCORE>
-50.8953

>  <SCORE.INTER>
-41.7306

>  <SCORE.INTER.CONST>
1

>  <SCORE.INTER.POLAR>
-5.54611

>  <SCORE.INTER.ROT>
6

>  <SCORE.INTER.SOLV>
41.6713

>  <SCORE.INTER.VDW>
-30.8238

>  <SCORE.INTER.norm>
-1.30408

>  <SCORE.INTRA>
-17.2126

>  <SCORE.INTRA.DIHEDRAL>
-30.4686

>  <SCORE.INTRA.DIHEDRAL.0>
44.2576

>  <SCORE.INTRA.POLAR>
-0.290445

>  <SCORE.INTRA.POLAR.0>
-0.381556

>  <SCORE.INTRA.REPUL>
0

>  <SCORE.INTRA.REPUL.0>
0

>  <SCORE.INTRA.SOLV>
-0.944607

>  <SCORE.INTRA.SOLV.lig_0>
-134.592

>  <SCORE.INTRA.VDW>
-0.518461

>  <SCORE.INTRA.VDW.0>
-1.01417

>  <SCORE.INTRA.norm>
-0.537892

>  <SCORE.RESTR>
8.04786

>  <SCORE.RESTR.CAVITY>
8.04786

>  <SCORE.RESTR.norm>
0.251496

>  <SCORE.SYSTEM>
0

>  <SCORE.SYSTEM.CONST>
0

>  <SCORE.SYSTEM.DIHEDRAL>
0

>  <SCORE.SYSTEM.SOLV>
0

>  <SCORE.SYSTEM.norm>
0

>  <SCORE.heavy>
32

>  <SCORE.norm>
-1.59048

>  <RMSD>
31.351

$$$$
1lc4
 OpenBabel02141814113D
libRbt.so/2013.1/901 2013/11/27
 32 34  0  0  0  0  0  0  0  0999 V2000
   12.9434   -3.7865    4.6477 C   0  0  2  0  0  0  0  0  0  0  0  0
   11.8981   -4.1663    3.7880 O   0  0  0  0  0  0  0  0  0  0  0  0
   13.1687   -2.2690    4.4881 C   0  0  2  0  0  0  0  0  0  0  0  0
   11.9367   -1.5356    4.7946 N   0  3  0  0  0  0  0  0  0  0  0  0
   13.6727   -1.9533    3.0602 C   0  0  0  0  0  0  0  0  0  0  0  0
   14.9819   -2.7334    2.8483 C   0  0  2  0  0  0  0  0  0  0  0  0
   15.5303   -2.4471    1.5574 O   0  0  0  0  0  0  0  0  0  0  0  0
   14.7079   -4.2484    3.0196 C   0  0  2  0  0  0  0  0  0  0  0  0
   14.1506   -4.5171    4.3376 O   0  0  0  0  0  0  0  0  0  0  0  0
   15.9587   -5.1128    2.8817 C   0  0  0  0  0  0  0  0  0  0  0  0
   15.9338   -6.2516    3.8368 N   0  3  0  0  0  0  0  0  0  0  0  0
    9.6746   -7.7480    3.3546 C   0  0  2  0  0  0  0  0  0  0  0  0
    9.2994   -9.1520    3.1060 N   0  3  0  0  0  0  0  0  0  0  0  0
   10.2720   -7.1409    2.0924 C   0  0  0  0  0  0  0  0  0  0  0  0
   10.6698   -5.6814    2.3392 C   0  0  2  0  0  0  0  0  0  0  0  0
   11.1342   -5.0987    1.0557 N   0  3  0  0  0  0  0  0  0  0  0  0
   11.6995   -5.5655    3.5026 C   0  0  2  0  0  0  0  0  0  0  0  0
   11.1183   -6.2348    4.7747 C   0  0  2  0  0  0  0  0  0  0  0  0
   12.1078   -6.2768    5.7743 O   0  0  0  0  0  0  0  0  0  0  0  0
   10.6977   -7.6852    4.4870 C   0  0  1  0  0  0  0  0  0  0  0  0
   10.1406   -8.2484    5.6741 O   0  0  0  0  0  0  0  0  0  0  0  0
   10.9002   -9.1942    6.3448 C   0  0  2  0  0  0  0  0  0  0  0  0
   10.1180  -10.5180    6.3892 C   0  0  2  0  0  0  0  0  0  0  0  0
    9.8604  -10.9385    5.0554 O   0  0  0  0  0  0  0  0  0  0  0  0
    8.7921  -10.3045    7.1402 C   0  0  1  0  0  0  0  0  0  0  0  0
    7.9782  -11.5529    7.1969 N   0  3  0  0  0  0  0  0  0  0  0  0
    9.0919   -9.7837    8.5671 C   0  0  2  0  0  0  0  0  0  0  0  0
    7.8790   -9.5521    9.2799 O   0  0  0  0  0  0  0  0  0  0  0  0
    9.9338   -8.4961    8.4974 C   0  0  2  0  0  0  0  0  0  0  0  0
   11.1487   -8.7173    7.6927 O   0  0  0  0  0  0  0  0  0  0  0  0
   10.3850   -8.0348    9.8654 C   0  0  0  0  0  0  0  0  0  0  0  0
    9.9212   -6.7181   10.1560 O   0  0  0  0  0  0  0  0  0  0  0  0
  1  2  1  6  0  0  0
  1  3  1  0  0  0  0
  1  9  1  0  0  0  0
  3  4  1  6  0  0  0
  3  5  1  0  0  0  0
  5  6  1  0  0  0  0
  6  7  1  6  0  0  0
  6  8  1  0  0  0  0
  8  9  1  0  0  0  0
  8 10  1  1  0  0  0
 10 11  1  0  0  0  0
 12 13  1  6  0  0  0
 12 14  1  0  0  0  0
 12 20  1  0  0  0  0
 14 15  1  0  0  0  0
 15 16  1  6  0  0  0
 15 17  1  0  0  0  0
 17  2  1  1  0  0  0
 17 18  1  0  0  0  0
 18 19  1  1  0  0  0
 18 20  1  0  0  0  0
 20 21  1  1  0  0  0
 22 21  1  6  0  0  0
 22 23  1  0  0  0  0
 22 30  1  0  0  0  0
 23 24  1  6  0  0  0
 23 25  1  0  0  0  0
 25 26  1  1  0  0  0
 25 27  1  0  0  0  0
 27 28  1  6  0  0  0
 27 29  1  0  0  0  0
 29 30  1  0  0  0  0
 29 31  1  1  0  0  0
 31 32  1  0  0  0  0
M  CHG  5   4   1  11   1  13   1  16   1  26   1
M  END
>  <CHROM.1>
165.23815813,-169.62771335,-67.24365421,-57.05920405,142.57763161,72.89597373
-92.53309744,57.66308379,-49.95670563,130.44125870,-119.50449555,175.85466094
176.61025509,-60.96037104,-121.19908754,66.06998725,11.47359517,-6.63435333
5.06066593,-0.39725596,0.96770390,1.40735508

>  <Name>
1lc4

>  <RI>
0

>  <Rbt.Current_Directory>
/home/afrankz/demos/rdock_decoys_rna/rnas/1lc4

>  <Rbt.Executable>
rbdock ($Id: //depot/dev/client3/rdock/2013.1/src/exe/rbdock.cxx#4 $)

>  <Rbt.Library>
libRbt.so (2013.1, Build901 2013/11/27)

>  <Rbt.Parameter_File>
/export/apps/rDock/src/rDock_2013.1_src/data/scripts/dock_solv.prm

>  <Rbt.Receptor>
prm/blind_docking_20.prm

>  <SCORE>
-46.2377

>  <SCORE.INTER>
-35.3545

>  <SCORE.INTER.CONST>
1

>  <SCORE.INTER.POLAR>
-5.55994

>  <SCORE.INTER.ROT>
6

>  <SCORE.INTER.SOLV>
38.629

>  <SCORE.INTER.VDW>
-25.5128

>  <SCORE.INTER.norm>
-1.10483

>  <SCORE.INTRA>
-14.9207

>  <SCORE.INTRA.DIHEDRAL>
-16.4645

>  <SCORE.INTRA.DIHEDRAL.0>
44.2576

>  <SCORE.INTRA.POLAR>
-0.844459

>  <SCORE.INTRA.POLAR.0>
-0.381556

>  <SCORE.INTRA.REPUL>
0

>  <SCORE.INTRA.REPUL.0>
0

>  <SCORE.INTRA.SOLV>
-1.69123

>  <SCORE.INTRA.SOLV.lig_0>
-134.592

>  <SCORE.INTRA.VDW>
-2.97165

>  <SCORE.INTRA.VDW.0>
-1.01417

>  <SCORE.INTRA.norm>
-0.466271

>  <SCORE.RESTR>
4.03741

>  <SCORE.RESTR.CAVITY>
4.03741

>  <SCORE.RESTR.norm>
0.126169

>  <SCORE.SYSTEM>
0

>  <SCORE.SYSTEM.CONST>
0

>  <SCORE.SYSTEM.DIHEDRAL>
0

>  <SCORE.SYSTEM.SOLV>
0

>  <SCORE.SYSTEM.norm>
0

>  <SCORE.heavy>
32

>  <SCORE.norm>
-1.44493

>  <RMSD>
31.367

$$$$
1lc4
 OpenBabel02141814113D
libRbt.so/2013.1/901 2013/11/27
 32 34  0  0  0  0  0  0  0  0999 V2000
   11.7692   -8.1861    4.7758 C   0  0  2  0  0  0  0  0  0  0  0  0
   11.2550   -6.8802    4.6969 O   0  0  0  0  0  0  0  0  0  0  0  0
   10.8393   -9.0138    5.6864 C   0  0  2  0  0  0  0  0  0  0  0  0
    9.4727   -9.0129    5.1552 N   0  3  0  0  0  0  0  0  0  0  0  0
   10.8832   -8.4645    7.1317 C   0  0  0  0  0  0  0  0  0  0  0  0
   12.3428   -8.5424    7.6124 C   0  0  2  0  0  0  0  0  0  0  0  0
   12.4469   -8.0920    8.9672 O   0  0  0  0  0  0  0  0  0  0  0  0
   13.2374   -7.6999    6.6694 C   0  0  2  0  0  0  0  0  0  0  0  0
   13.1162   -8.1739    5.2980 O   0  0  0  0  0  0  0  0  0  0  0  0
   14.7204   -7.7534    7.0282 C   0  0  0  0  0  0  0  0  0  0  0  0
   15.5682   -7.3560    5.8736 N   0  3  0  0  0  0  0  0  0  0  0  0
   11.4112   -3.3739    2.3217 C   0  0  2  0  0  0  0  0  0  0  0  0
   11.8460   -2.3350    1.3702 N   0  3  0  0  0  0  0  0  0  0  0  0
   12.4231   -3.4955    3.4529 C   0  0  0  0  0  0  0  0  0  0  0  0
   11.9839   -4.5758    4.4476 C   0  0  2  0  0  0  0  0  0  0  0  0
   12.9331   -4.5763    5.5885 N   0  3  0  0  0  0  0  0  0  0  0  0
   11.8270   -5.9586    3.7471 C   0  0  2  0  0  0  0  0  0  0  0  0
   10.8416   -5.8255    2.5575 C   0  0  2  0  0  0  0  0  0  0  0  0
   10.8259   -7.0280    1.8268 O   0  0  0  0  0  0  0  0  0  0  0  0
   11.2901   -4.7127    1.5964 C   0  0  1  0  0  0  0  0  0  0  0  0
   10.3386   -4.6053    0.5382 O   0  0  0  0  0  0  0  0  0  0  0  0
   10.6659   -5.1968   -0.6719 C   0  0  2  0  0  0  0  0  0  0  0  0
   11.6859   -4.3050   -1.4002 C   0  0  2  0  0  0  0  0  0  0  0  0
   12.8403   -4.1723   -0.5806 O   0  0  0  0  0  0  0  0  0  0  0  0
   11.0629   -2.9225   -1.6616 C   0  0  1  0  0  0  0  0  0  0  0  0
   12.0161   -2.0042   -2.3488 N   0  3  0  0  0  0  0  0  0  0  0  0
    9.7719   -3.0944   -2.4986 C   0  0  2  0  0  0  0  0  0  0  0  0
    9.1575   -1.8298   -2.7356 O   0  0  0  0  0  0  0  0  0  0  0  0
    8.7956   -4.0453   -1.7814 C   0  0  2  0  0  0  0  0  0  0  0  0
    9.4584   -5.3237   -1.4668 O   0  0  0  0  0  0  0  0  0  0  0  0
    7.5868   -4.3690   -2.6312 C   0  0  0  0  0  0  0  0  0  0  0  0
    7.8835   -5.3613   -3.6113 O   0  0  0  0  0  0  0  0  0  0  0  0
  1  2  1  1  0  0  0
  1  3  1  0  0  0  0
  1  9  1  0  0  0  0
  3  4  1  6  0  0  0
  3  5  1  0  0  0  0
  5  6  1  0  0  0  0
  6  7  1  1  0  0  0
  6  8  1  0  0  0  0
  8  9  1  0  0  0  0
  8 10  1  1  0  0  0
 10 11  1  0  0  0  0
 12 13  1  6  0  0  0
 12 14  1  0  0  0  0
 12 20  1  0  0  0  0
 14 15  1  0  0  0  0
 15 16  1  1  0  0  0
 15 17  1  0  0  0  0
 17  2  1  1  0  0  0
 17 18  1  0  0  0  0
 18 19  1  6  0  0  0
 18 20  1  0  0  0  0
 20 21  1  6  0  0  0
 22 21  1  1  0  0  0
 22 23  1  0  0  0  0
 22 30  1  0  0  0  0
 23 24  1  1  0  0  0
 23 25  1  0  0  0  0
 25 26  1  6  0  0  0
 25 27  1  0  0  0  0
 27 28  1  1  0  0  0
 27 29  1  0  0  0  0
 29 30  1  0  0  0  0
 29 31  1  6  0  0  0
 31 32  1  0  0  0  0
M  CHG  5   4   1  11   1  13   1  16   1  26   1
M  END
>  <CHROM.1>
-170.78500266,-137.38275824,166.53298451,61.30114831,159.99696459,-36.17150127
-152.08155019,-48.51000082,-178.62260547,137.29287169,-76.59410836,51.47937214
-154.90347157,-179.92977688,79.19336019,-172.86649118,11.32787143,-5.55894893
2.31390183,1.21627913,0.66717030,2.25167131

>  <Name>
1lc4

>  <RI>
0

>  <Rbt.Current_Directory>
/home/afrankz/demos/rdock_decoys_rna/rnas/1lc4

>  <Rbt.Executable>
rbdock ($Id: //depot/dev/client3/rdock/2013.1/src/exe/rbdock.cxx#4 $)

>  <Rbt.Library>
libRbt.so (2013.1, Build901 2013/11/27)

>  <Rbt.Parameter_File>
/export/apps/rDock/src/rDock_2013.1_src/data/scripts/dock_solv.prm

>  <Rbt.Receptor>
prm/blind_docking_60.prm

>  <SCORE>
-33.2441

>  <SCORE.INTER>
-30.0181

>  <SCORE.INTER.CONST>
1

>  <SCORE.INTER.POLAR>
-5.72923

>  <SCORE.INTER.ROT>
6

>  <SCORE.INTER.SOLV>
34.8719

>  <SCORE.INTER.VDW>
-20.1386

>  <SCORE.INTER.norm>
-0.938065

>  <SCORE.INTRA>
-15.3573

>  <SCORE.INTRA.DIHEDRAL>
-22.7939

>  <SCORE.INTRA.DIHEDRAL.0>
44.2576

>  <SCORE.INTRA.POLAR>
-1.04643

>  <SCORE.INTRA.POLAR.0>
-0.381556

>  <SCORE.INTRA.REPUL>
0.0132322

>  <SCORE.INTRA.REPUL.0>
0

>  <SCORE.INTRA.SOLV>
4.27105

>  <SCORE.INTRA.SOLV.lig_0>
-134.592

>  <SCORE.INTRA.VDW>
-2.60419

>  <SCORE.INTRA.VDW.0>
-1.01417

>  <SCORE.INTRA.norm>
-0.479917

>  <SCORE.RESTR>
12.1313

>  <SCORE.RESTR.CAVITY>
12.1313

>  <SCORE.RESTR.norm>
0.379103

>  <SCORE.SYSTEM>
0

>  <SCORE.SYSTEM.CONST>
0

>  <SCORE.SYSTEM.DIHEDRAL>
0

>  <SCORE.SYSTEM.SOLV>
0

>  <SCORE.SYSTEM.norm>
0

>  <SCORE.heavy>
32

>  <SCORE.norm>
-1.03888

>  <RMSD>
31.377

$$$$
1lc4
 OpenBabel02141814113D
libRbt.so/2013.1/901 2013/11/27
 32 34  0  0  0  0  0  0  0  0999 V2000
   13.4014   -2.2965    4.7579 C   0  0  2  0  0  0  0  0  0  0  0  0
   12.1277   -2.8129    4.4630 O   0  0  0  0  0  0  0  0  0  0  0  0
   13.4337   -0.8185    4.3181 C   0  0  2  0  0  0  0  0  0  0  0  0
   12.3823   -0.0599    5.0026 N   0  3  0  0  0  0  0  0  0  0  0  0
   13.2927   -0.7175    2.7811 C   0  0  0  0  0  0  0  0  0  0  0  0
   14.4562   -1.5073    2.1566 C   0  0  2  0  0  0  0  0  0  0  0  0
   14.4132   -1.4143    0.7287 O   0  0  0  0  0  0  0  0  0  0  0  0
   14.3840   -2.9816    2.6265 C   0  0  2  0  0  0  0  0  0  0  0  0
   14.4286   -3.0533    4.0801 O   0  0  0  0  0  0  0  0  0  0  0  0
   15.5303   -3.8440    2.1040 C   0  0  0  0  0  0  0  0  0  0  0  0
   16.8205   -3.1069    2.1453 N   0  3  0  0  0  0  0  0  0  0  0  0
   10.3877   -6.5740    3.5760 C   0  0  2  0  0  0  0  0  0  0  0  0
   10.1361   -7.9111    3.0082 N   0  3  0  0  0  0  0  0  0  0  0  0
   10.4067   -5.5346    2.4635 C   0  0  0  0  0  0  0  0  0  0  0  0
   10.6713   -4.1397    3.0410 C   0  0  2  0  0  0  0  0  0  0  0  0
   10.5631   -3.1488    1.9415 N   0  3  0  0  0  0  0  0  0  0  0  0
   12.0254   -4.0944    3.8104 C   0  0  2  0  0  0  0  0  0  0  0  0
   12.0330   -5.1908    4.9066 C   0  0  2  0  0  0  0  0  0  0  0  0
   13.3118   -5.2597    5.4898 O   0  0  0  0  0  0  0  0  0  0  0  0
   11.7314   -6.5718    4.3023 C   0  0  1  0  0  0  0  0  0  0  0  0
   11.7169   -7.5409    5.3498 O   0  0  0  0  0  0  0  0  0  0  0  0
   10.6948   -7.4525    6.2819 C   0  0  2  0  0  0  0  0  0  0  0  0
   11.2134   -7.9640    7.6368 C   0  0  2  0  0  0  0  0  0  0  0  0
   12.3202   -7.1632    8.0314 O   0  0  0  0  0  0  0  0  0  0  0  0
   11.6488   -9.4332    7.4969 C   0  0  1  0  0  0  0  0  0  0  0  0
   12.1825   -9.9792    8.7780 N   0  3  0  0  0  0  0  0  0  0  0  0
   10.4481  -10.2766    7.0028 C   0  0  2  0  0  0  0  0  0  0  0  0
   10.8289  -11.6408    6.8392 O   0  0  0  0  0  0  0  0  0  0  0  0
    9.9037   -9.7037    5.6811 C   0  0  2  0  0  0  0  0  0  0  0  0
    9.5853   -8.2725    5.8317 O   0  0  0  0  0  0  0  0  0  0  0  0
    8.6341  -10.3970    5.2389 C   0  0  0  0  0  0  0  0  0  0  0  0
    7.5838  -10.2264    6.1882 O   0  0  0  0  0  0  0  0  0  0  0  0
  1  2  1  6  0  0  0
  1  3  1  0  0  0  0
  1  9  1  0  0  0  0
  3  4  1  1  0  0  0
  3  5  1  0  0  0  0
  5  6  1  0  0  0  0
  6  7  1  6  0  0  0
  6  8  1  0  0  0  0
  8  9  1  0  0  0  0
  8 10  1  6  0  0  0
 10 11  1  0  0  0  0
 12 13  1  6  0  0  0
 12 14  1  0  0  0  0
 12 20  1  0  0  0  0
 14 15  1  0  0  0  0
 15 16  1  6  0  0  0
 15 17  1  0  0  0  0
 17  2  1  1  0  0  0
 17 18  1  0  0  0  0
 18 19  1  6  0  0  0
 18 20  1  0  0  0  0
 20 21  1  1  0  0  0
 22 21  1  6  0  0  0
 22 23  1  0  0  0  0
 22 30  1  0  0  0  0
 23 24  1  6  0  0  0
 23 25  1  0  0  0  0
 25 26  1  1  0  0  0
 25 27  1  0  0  0  0
 27 28  1  6  0  0  0
 27 29  1  0  0  0  0
 29 30  1  0  0  0  0
 29 31  1  1  0  0  0
 31 32  1  0  0  0  0
M  CHG  5   4   1  11   1  13   1  16   1  26   1
M  END
>  <CHROM.1>
133.61777802,-154.63938798,74.78757622,-171.29380034,40.66865489,42.30501914
97.76173946,56.45791005,81.18598669,-54.63902519,-148.98212379,-56.45037882
72.20634196,-53.50271518,61.89299971,-176.74282956,11.97141021,-5.67639563
4.63533775,-1.08270704,0.58063522,2.41006623

>  <Name>
1lc4

>  <RI>
0

>  <Rbt.Current_Directory>
/home/afrankz/demos/rdock_decoys_rna/rnas/1lc4

>  <Rbt.Executable>
rbdock ($Id: //depot/dev/client3/rdock/2013.1/src/exe/rbdock.cxx#4 $)

>  <Rbt.Library>
libRbt.so (2013.1, Build901 2013/11/27)

>  <Rbt.Parameter_File>
/export/apps/rDock/src/rDock_2013.1_src/data/scripts/dock_solv.prm

>  <Rbt.Receptor>
prm/blind_docking_20.prm

>  <SCORE>
-34.6747

>  <SCORE.INTER>
-33.593

>  <SCORE.INTER.CONST>
1

>  <SCORE.INTER.POLAR>
-3.4673

>  <SCORE.INTER.ROT>
6

>  <SCORE.INTER.SOLV>
34.7021

>  <SCORE.INTER.VDW>
-30.0051

>  <SCORE.INTER.norm>
-1.04978

>  <SCORE.INTRA>
-11.1746

>  <SCORE.INTRA.DIHEDRAL>
-23.1183

>  <SCORE.INTRA.DIHEDRAL.0>
44.2576

>  <SCORE.INTRA.POLAR>
0.0741808

>  <SCORE.INTRA.POLAR.0>
-0.381556

>  <SCORE.INTRA.REPUL>
0

>  <SCORE.INTRA.REPUL.0>
0

>  <SCORE.INTRA.SOLV>
1.98958

>  <SCORE.INTRA.SOLV.lig_0>
-134.592

>  <SCORE.INTRA.VDW>
-0.862445

>  <SCORE.INTRA.VDW.0>
-1.01417

>  <SCORE.INTRA.norm>
-0.349206

>  <SCORE.RESTR>
10.093

>  <SCORE.RESTR.CAVITY>
10.093

>  <SCORE.RESTR.norm>
0.315405

>  <SCORE.SYSTEM>
0

>  <SCORE.SYSTEM.CONST>
0

>  <SCORE.SYSTEM.DIHEDRAL>
0

>  <SCORE.SYSTEM.SOLV>
0

>  <SCORE.SYSTEM.norm>
0

>  <SCORE.heavy>
32

>  <SCORE.norm>
-1.08358

>  <RMSD>
31.467

$$$$
1lc4
 OpenBabel02141814113D
libRbt.so/2013.1/901 2013/11/27
 32 34  0  0  0  0  0  0  0  0999 V2000
   13.1389   -7.2459    7.2487 C   0  0  2  0  0  0  0  0  0  0  0  0
   12.7160   -7.5640    5.9464 O   0  0  0  0  0  0  0  0  0  0  0  0
   14.0513   -8.3845    7.7486 C   0  0  2  0  0  0  0  0  0  0  0  0
   15.1944   -8.5552    6.8465 N   0  3  0  0  0  0  0  0  0  0  0  0
   13.2405   -9.6946    7.8860 C   0  0  0  0  0  0  0  0  0  0  0  0
   12.0938   -9.4276    8.8767 C   0  0  2  0  0  0  0  0  0  0  0  0
   11.3288  -10.6190    9.0876 O   0  0  0  0  0  0  0  0  0  0  0  0
   11.2073   -8.2785    8.3351 C   0  0  2  0  0  0  0  0  0  0  0  0
   12.0044   -7.0779    8.1273 O   0  0  0  0  0  0  0  0  0  0  0  0
   10.0653   -7.8964    9.2735 C   0  0  0  0  0  0  0  0  0  0  0  0
   10.5544   -7.6967   10.6630 N   0  3  0  0  0  0  0  0  0  0  0  0
   11.2865   -5.4937    2.5361 C   0  0  2  0  0  0  0  0  0  0  0  0
   10.5379   -4.5799    1.6538 N   0  3  0  0  0  0  0  0  0  0  0  0
   10.3242   -6.4525    3.2240 C   0  0  0  0  0  0  0  0  0  0  0  0
   11.0905   -7.4061    4.1475 C   0  0  2  0  0  0  0  0  0  0  0  0
   10.1312   -8.3936    4.7018 N   0  3  0  0  0  0  0  0  0  0  0  0
   11.8950   -6.6221    5.2271 C   0  0  2  0  0  0  0  0  0  0  0  0
   12.8341   -5.6030    4.5320 C   0  0  2  0  0  0  0  0  0  0  0  0
   13.4368   -4.7839    5.5045 O   0  0  0  0  0  0  0  0  0  0  0  0
   12.0422   -4.6839    3.5877 C   0  0  1  0  0  0  0  0  0  0  0  0
   12.9495   -3.7872    2.9479 O   0  0  0  0  0  0  0  0  0  0  0  0
   12.5259   -2.4804    2.7632 C   0  0  2  0  0  0  0  0  0  0  0  0
   13.1873   -1.9193    1.4927 C   0  0  2  0  0  0  0  0  0  0  0  0
   12.8072   -2.7288    0.3872 O   0  0  0  0  0  0  0  0  0  0  0  0
   14.7168   -1.9396    1.6600 C   0  0  1  0  0  0  0  0  0  0  0  0
   15.4154   -1.4251    0.4471 N   0  3  0  0  0  0  0  0  0  0  0  0
   15.1050   -1.1079    2.9068 C   0  0  2  0  0  0  0  0  0  0  0  0
   16.5171   -1.1293    3.1023 O   0  0  0  0  0  0  0  0  0  0  0  0
   14.3773   -1.6459    4.1529 C   0  0  2  0  0  0  0  0  0  0  0  0
   12.9229   -1.6972    3.9186 O   0  0  0  0  0  0  0  0  0  0  0  0
   14.6011   -0.7711    5.3664 C   0  0  0  0  0  0  0  0  0  0  0  0
   14.2766    0.5915    5.0994 O   0  0  0  0  0  0  0  0  0  0  0  0
  1  2  1  6  0  0  0
  1  3  1  0  0  0  0
  1  9  1  0  0  0  0
  3  4  1  6  0  0  0
  3  5  1  0  0  0  0
  5  6  1  0  0  0  0
  6  7  1  6  0  0  0
  6  8  1  0  0  0  0
  8  9  1  0  0  0  0
  8 10  1  1  0  0  0
 10 11  1  0  0  0  0
 12 13  1  6  0  0  0
 12 14  1  0  0  0  0
 12 20  1  0  0  0  0
 14 15  1  0  0  0  0
 15 16  1  1  0  0  0
 15 17  1  0  0  0  0
 17  2  1  6  0  0  0
 17 18  1  0  0  0  0
 18 19  1  1  0  0  0
 18 20  1  0  0  0  0
 20 21  1  6  0  0  0
 22 21  1  1  0  0  0
 22 23  1  0  0  0  0
 22 30  1  0  0  0  0
 23 24  1  6  0  0  0
 23 25  1  0  0  0  0
 25 26  1  6  0  0  0
 25 27  1  0  0  0  0
 27 28  1  1  0  0  0
 27 29  1  0  0  0  0
 29 30  1  0  0  0  0
 29 31  1  1  0  0  0
 31 32  1  0  0  0  0
M  CHG  5   4   1  11   1  13   1  16   1  26   1
M  END
>  <CHROM.1>
-177.19301282,-156.19747813,-49.01973127,68.99776014,49.08674153,69.35388722
63.27543290,-178.77201984,-58.90524959,96.98205845,-149.50667234,-169.48098971
-163.05842844,69.25910395,53.10198620,-177.73879384,12.78328982,-5.18146414
4.97952388,-1.96938077,-0.87655975,-0.99435366

>  <Name>
1lc4

>  <RI>
0

>  <Rbt.Current_Directory>
/home/afrankz/demos/rdock_decoys_rna/rnas/1lc4

>  <Rbt.Executable>
rbdock ($Id: //depot/dev/client3/rdock/2013.1/src/exe/rbdock.cxx#4 $)

>  <Rbt.Library>
libRbt.so (2013.1, Build901 2013/11/27)

>  <Rbt.Parameter_File>
/export/apps/rDock/src/rDock_2013.1_src/data/scripts/dock_solv.prm

>  <Rbt.Receptor>
prm/blind_docking_60.prm

>  <SCORE>
-33.5311

>  <SCORE.INTER>
-23.0232

>  <SCORE.INTER.CONST>
1

>  <SCORE.INTER.POLAR>
-3.46144

>  <SCORE.INTER.ROT>
6

>  <SCORE.INTER.SOLV>
25.7837

>  <SCORE.INTER.VDW>
-20.0052

>  <SCORE.INTER.norm>
-0.719476

>  <SCORE.INTRA>
-19.8196

>  <SCORE.INTRA.DIHEDRAL>
-29.9522

>  <SCORE.INTRA.DIHEDRAL.0>
44.2576

>  <SCORE.INTRA.POLAR>
-0.746716

>  <SCORE.INTRA.POLAR.0>
-0.381556

>  <SCORE.INTRA.REPUL>
0.031872

>  <SCORE.INTRA.REPUL.0>
0

>  <SCORE.INTRA.SOLV>
-0.13746

>  <SCORE.INTRA.SOLV.lig_0>
-134.592

>  <SCORE.INTRA.VDW>
-2.39536

>  <SCORE.INTRA.VDW.0>
-1.01417

>  <SCORE.INTRA.norm>
-0.619364

>  <SCORE.RESTR>
9.31178

>  <SCORE.RESTR.CAVITY>
9.31178

>  <SCORE.RESTR.norm>
0.290993

>  <SCORE.SYSTEM>
0

>  <SCORE.SYSTEM.CONST>
0

>  <SCORE.SYSTEM.DIHEDRAL>
0

>  <SCORE.SYSTEM.SOLV>
0

>  <SCORE.SYSTEM.norm>
0

>  <SCORE.heavy>
32

>  <SCORE.norm>
-1.04785

>  <RMSD>
31.472

$$$$
1lc4
 OpenBabel02141814113D
libRbt.so/2013.1/901 2013/11/27
 32 34  0  0  0  0  0  0  0  0999 V2000
    9.6213   -9.4486    3.1577 C   0  0  2  0  0  0  0  0  0  0  0  0
   10.0184   -8.7801    4.3288 O   0  0  0  0  0  0  0  0  0  0  0  0
    8.9232  -10.7613    3.5677 C   0  0  2  0  0  0  0  0  0  0  0  0
    7.7738  -10.4789    4.4330 N   0  3  0  0  0  0  0  0  0  0  0  0
    9.9324  -11.7066    4.2609 C   0  0  0  0  0  0  0  0  0  0  0  0
   11.0752  -11.9738    3.2658 C   0  0  2  0  0  0  0  0  0  0  0  0
   12.0249  -12.8848    3.8291 O   0  0  0  0  0  0  0  0  0  0  0  0
   11.7439  -10.6302    2.8823 C   0  0  2  0  0  0  0  0  0  0  0  0
   10.7613   -9.7191    2.3126 O   0  0  0  0  0  0  0  0  0  0  0  0
   12.8616  -10.7782    1.8529 C   0  0  0  0  0  0  0  0  0  0  0  0
   12.3955  -10.3969    0.4939 N   0  3  0  0  0  0  0  0  0  0  0  0
   12.1813   -5.2481    5.2267 C   0  0  2  0  0  0  0  0  0  0  0  0
   13.2264   -4.2090    5.2717 N   0  3  0  0  0  0  0  0  0  0  0  0
   12.7324   -6.5600    5.7685 C   0  0  0  0  0  0  0  0  0  0  0  0
   11.6557   -7.6499    5.7235 C   0  0  2  0  0  0  0  0  0  0  0  0
   12.1983   -8.8718    6.3679 N   0  3  0  0  0  0  0  0  0  0  0  0
   11.1359   -7.8710    4.2715 C   0  0  2  0  0  0  0  0  0  0  0  0
   10.6275   -6.5246    3.6948 C   0  0  2  0  0  0  0  0  0  0  0  0
   10.3126   -6.6885    2.3332 O   0  0  0  0  0  0  0  0  0  0  0  0
   11.7171   -5.4438    3.7848 C   0  0  1  0  0  0  0  0  0  0  0  0
   11.1947   -4.2179    3.2740 O   0  0  0  0  0  0  0  0  0  0  0  0
   11.9977   -3.5006    2.4012 C   0  0  2  0  0  0  0  0  0  0  0  0
   11.7391   -1.9986    2.6096 C   0  0  2  0  0  0  0  0  0  0  0  0
   12.0465   -1.6675    3.9579 O   0  0  0  0  0  0  0  0  0  0  0  0
   10.2615   -1.6876    2.3138 C   0  0  1  0  0  0  0  0  0  0  0  0
    9.9450   -0.2449    2.5204 N   0  3  0  0  0  0  0  0  0  0  0  0
    9.9299   -2.1164    0.8636 C   0  0  2  0  0  0  0  0  0  0  0  0
    8.5582   -1.8631    0.5684 O   0  0  0  0  0  0  0  0  0  0  0  0
   10.2617   -3.6064    0.6604 C   0  0  2  0  0  0  0  0  0  0  0  0
   11.6588   -3.8803    1.0421 O   0  0  0  0  0  0  0  0  0  0  0  0
   10.1032   -4.0347   -0.7816 C   0  0  0  0  0  0  0  0  0  0  0  0
   10.0313   -5.4536   -0.9039 O   0  0  0  0  0  0  0  0  0  0  0  0
  1  2  1  1  0  0  0
  1  3  1  0  0  0  0
  1  9  1  0  0  0  0
  3  4  1  1  0  0  0
  3  5  1  0  0  0  0
  5  6  1  0  0  0  0
  6  7  1  1  0  0  0
  6  8  1  0  0  0  0
  8  9  1  0  0  0  0
  8 10  1  6  0  0  0
 10 11  1  0  0  0  0
 12 13  1  6  0  0  0
 12 14  1  0  0  0  0
 12 20  1  0  0  0  0
 14 15  1  0  0  0  0
 15 16  1  6  0  0  0
 15 17  1  0  0  0  0
 17  2  1  1  0  0  0
 17 18  1  0  0  0  0
 18 19  1  6  0  0  0
 18 20  1  0  0  0  0
 20 21  1  1  0  0  0
 22 21  1  1  0  0  0
 22 23  1  0  0  0  0
 22 30  1  0  0  0  0
 23 24  1  1  0  0  0
 23 25  1  0  0  0  0
 25 26  1  6  0  0  0
 25 27  1  0  0  0  0
 27 28  1  1  0  0  0
 27 29  1  0  0  0  0
 29 30  1  0  0  0  0
 29 31  1  6  0  0  0
 31 32  1  0  0  0  0
M  CHG  5   4   1  11   1  13   1  16   1  26   1
M  END
>  <CHROM.1>
154.04932604,-161.33485253,-149.28678392,59.71564430,101.40619942,18.16227290
37.96362201,-55.63222762,171.95759916,103.61253206,-146.79479933,173.56227280
-179.08088273,-55.82331655,-163.19973820,179.22044583,10.94717508,-6.57644659
2.96433590,1.50544871,1.16824207,3.00856541

>  <Name>
1lc4

>  <RI>
0

>  <Rbt.Current_Directory>
/home/afrankz/demos/rdock_decoys_rna/rnas/1lc4

>  <Rbt.Executable>
rbdock ($Id: //depot/dev/client3/rdock/2013.1/src/exe/rbdock.cxx#4 $)

>  <Rbt.Library>
libRbt.so (2013.1, Build901 2013/11/27)

>  <Rbt.Parameter_File>
/export/apps/rDock/src/rDock_2013.1_src/data/scripts/dock_solv.prm

>  <Rbt.Receptor>
prm/blind_docking_20.prm

>  <SCORE>
-42.8668

>  <SCORE.INTER>
-35.9129

>  <SCORE.INTER.CONST>
1

>  <SCORE.INTER.POLAR>
-5.60666

>  <SCORE.INTER.ROT>
6

>  <SCORE.INTER.SOLV>
37.3235

>  <SCORE.INTER.VDW>
-25.2942

>  <SCORE.INTER.norm>
-1.12228

>  <SCORE.INTRA>
-16.4973

>  <SCORE.INTRA.DIHEDRAL>
-18.0724

>  <SCORE.INTRA.DIHEDRAL.0>
44.2576

>  <SCORE.INTRA.POLAR>
-1.25676

>  <SCORE.INTRA.POLAR.0>
-0.381556

>  <SCORE.INTRA.REPUL>
0

>  <SCORE.INTRA.REPUL.0>
0

>  <SCORE.INTRA.SOLV>
-1.26382

>  <SCORE.INTRA.SOLV.lig_0>
-134.592

>  <SCORE.INTRA.VDW>
-2.55619

>  <SCORE.INTRA.VDW.0>
-1.01417

>  <SCORE.INTRA.norm>
-0.51554

>  <SCORE.RESTR>
9.54334

>  <SCORE.RESTR.CAVITY>
9.54334

>  <SCORE.RESTR.norm>
0.29823

>  <SCORE.SYSTEM>
0

>  <SCORE.SYSTEM.CONST>
0

>  <SCORE.SYSTEM.DIHEDRAL>
0

>  <SCORE.SYSTEM.SOLV>
0

>  <SCORE.SYSTEM.norm>
0

>  <SCORE.heavy>
32

>  <SCORE.norm>
-1.33959

>  <RMSD>
31.480

$$$$
1lc4
 OpenBabel02141814113D
libRbt.so/2013.1/901 2013/11/27
 32 34  0  0  0  0  0  0  0  0999 V2000
   12.8110   -3.5401    3.3905 C   0  0  2  0  0  0  0  0  0  0  0  0
   13.2923   -4.8606    3.4178 O   0  0  0  0  0  0  0  0  0  0  0  0
   11.4686   -3.5341    2.6311 C   0  0  2  0  0  0  0  0  0  0  0  0
   10.5111   -4.4344    3.2810 N   0  3  0  0  0  0  0  0  0  0  0  0
   11.6930   -3.9226    1.1508 C   0  0  0  0  0  0  0  0  0  0  0  0
   12.6753   -2.9029    0.5484 C   0  0  2  0  0  0  0  0  0  0  0  0
   12.8904   -3.1772   -0.8401 O   0  0  0  0  0  0  0  0  0  0  0  0
   14.0049   -2.9432    1.3421 C   0  0  2  0  0  0  0  0  0  0  0  0
   13.7635   -2.6626    2.7503 O   0  0  0  0  0  0  0  0  0  0  0  0
   15.0348   -1.9261    0.8568 C   0  0  0  0  0  0  0  0  0  0  0  0
   16.3452   -2.1240    1.5300 N   0  3  0  0  0  0  0  0  0  0  0  0
   13.4399   -8.0196    6.2388 C   0  0  2  0  0  0  0  0  0  0  0  0
   13.6580   -8.7989    7.4713 N   0  3  0  0  0  0  0  0  0  0  0  0
   14.7682   -7.4798    5.7262 C   0  0  0  0  0  0  0  0  0  0  0  0
   14.5542   -6.6642    4.4462 C   0  0  2  0  0  0  0  0  0  0  0  0
   15.8819   -6.2605    3.9202 N   0  3  0  0  0  0  0  0  0  0  0  0
   13.5760   -5.4764    4.6901 C   0  0  2  0  0  0  0  0  0  0  0  0
   12.2423   -6.0164    5.2676 C   0  0  2  0  0  0  0  0  0  0  0  0
   11.4229   -4.9352    5.6411 O   0  0  0  0  0  0  0  0  0  0  0  0
   12.4926   -6.8574    6.5299 C   0  0  1  0  0  0  0  0  0  0  0  0
   11.2439   -7.3586    7.0058 O   0  0  0  0  0  0  0  0  0  0  0  0
   11.2675   -8.5464    7.7198 C   0  0  2  0  0  0  0  0  0  0  0  0
    9.9857   -9.3379    7.4086 C   0  0  2  0  0  0  0  0  0  0  0  0
    9.9391   -9.5959    6.0110 O   0  0  0  0  0  0  0  0  0  0  0  0
    8.7584   -8.5128    7.8337 C   0  0  1  0  0  0  0  0  0  0  0  0
    7.4811   -9.2227    7.5359 N   0  3  0  0  0  0  0  0  0  0  0  0
    8.8613   -8.1858    9.3435 C   0  0  2  0  0  0  0  0  0  0  0  0
    7.7483   -7.3989    9.7617 O   0  0  0  0  0  0  0  0  0  0  0  0
   10.1838   -7.4548    9.6406 C   0  0  2  0  0  0  0  0  0  0  0  0
   11.3285   -8.2343    9.1358 O   0  0  0  0  0  0  0  0  0  0  0  0
   10.4034   -7.2529   11.1234 C   0  0  0  0  0  0  0  0  0  0  0  0
   10.9126   -5.9515   11.4072 O   0  0  0  0  0  0  0  0  0  0  0  0
  1  2  1  6  0  0  0
  1  3  1  0  0  0  0
  1  9  1  0  0  0  0
  3  4  1  1  0  0  0
  3  5  1  0  0  0  0
  5  6  1  0  0  0  0
  6  7  1  6  0  0  0
  6  8  1  0  0  0  0
  8  9  1  0  0  0  0
  8 10  1  6  0  0  0
 10 11  1  0  0  0  0
 12 13  1  1  0  0  0
 12 14  1  0  0  0  0
 12 20  1  0  0  0  0
 14 15  1  0  0  0  0
 15 16  1  1  0  0  0
 15 17  1  0  0  0  0
 17  2  1  6  0  0  0
 17 18  1  0  0  0  0
 18 19  1  1  0  0  0
 18 20  1  0  0  0  0
 20 21  1  6  0  0  0
 22 21  1  6  0  0  0
 22 23  1  0  0  0  0
 22 30  1  0  0  0  0
 23 24  1  6  0  0  0
 23 25  1  0  0  0  0
 25 26  1  1  0  0  0
 25 27  1  0  0  0  0
 27 28  1  6  0  0  0
 27 29  1  0  0  0  0
 29 30  1  0  0  0  0
 29 31  1  1  0  0  0
 31 32  1  0  0  0  0
M  CHG  5   4   1  11   1  13   1  16   1  26   1
M  END
>  <CHROM.1>
-123.31910744,-159.28107476,54.70346435,65.82359461,-172.66729031,63.51995749
107.33839641,-41.97499777,167.64758179,30.63642482,-145.62772062,65.97002497
146.12485367,-174.63144963,-137.93999016,177.84952007,12.00846069,-6.05112494
5.44934609,1.14752450,0.00031719,-0.98950563

>  <Name>
1lc4

>  <RI>
0

>  <Rbt.Current_Directory>
/home/afrankz/demos/rdock_decoys_rna/rnas/1lc4

>  <Rbt.Executable>
rbdock ($Id: //depot/dev/client3/rdock/2013.1/src/exe/rbdock.cxx#4 $)

>  <Rbt.Library>
libRbt.so (2013.1, Build901 2013/11/27)

>  <Rbt.Parameter_File>
/export/apps/rDock/src/rDock_2013.1_src/data/scripts/dock_solv.prm

>  <Rbt.Receptor>
prm/blind_docking_60.prm

>  <SCORE>
-12.2433

>  <SCORE.INTER>
-17.7327

>  <SCORE.INTER.CONST>
1

>  <SCORE.INTER.POLAR>
-3.52557

>  <SCORE.INTER.ROT>
6

>  <SCORE.INTER.SOLV>
39.3822

>  <SCORE.INTER.VDW>
-20.7973

>  <SCORE.INTER.norm>
-0.554146

>  <SCORE.INTRA>
-0.609711

>  <SCORE.INTRA.DIHEDRAL>
-15.3786

>  <SCORE.INTRA.DIHEDRAL.0>
44.2576

>  <SCORE.INTRA.POLAR>
-0.651185

>  <SCORE.INTRA.POLAR.0>
-0.381556

>  <SCORE.INTRA.REPUL>
0

>  <SCORE.INTRA.REPUL.0>
0

>  <SCORE.INTRA.SOLV>
1.10764

>  <SCORE.INTRA.SOLV.lig_0>
-134.592

>  <SCORE.INTRA.VDW>
8.7398

>  <SCORE.INTRA.VDW.0>
-1.01417

>  <SCORE.INTRA.norm>
-0.0190535

>  <SCORE.RESTR>
6.0991

>  <SCORE.RESTR.CAVITY>
6.0991

>  <SCORE.RESTR.norm>
0.190597

>  <SCORE.SYSTEM>
0

>  <SCORE.SYSTEM.CONST>
0

>  <SCORE.SYSTEM.DIHEDRAL>
0

>  <SCORE.SYSTEM.SOLV>
0

>  <SCORE.SYSTEM.norm>
0

>  <SCORE.heavy>
32

>  <SCORE.norm>
-0.382603

>  <RMSD>
31.499

$$$$
1lc4
 OpenBabel02141814113D
libRbt.so/2013.1/901 2013/11/27
 32 34  0  0  0  0  0  0  0  0999 V2000
    7.8328  -12.1662   14.0021 C   0  0  2  0  0  0  0  0  0  0  0  0
    8.4021  -11.2042   14.8544 O   0  0  0  0  0  0  0  0  0  0  0  0
    6.2982  -12.0461   14.1001 C   0  0  2  0  0  0  0  0  0  0  0  0
    5.8684  -10.6928   13.7347 N   0  3  0  0  0  0  0  0  0  0  0  0
    5.8248  -12.4233   15.5235 C   0  0  0  0  0  0  0  0  0  0  0  0
    6.2867  -13.8652   15.7980 C   0  0  2  0  0  0  0  0  0  0  0  0
    5.8374  -14.2965   17.0869 O   0  0  0  0  0  0  0  0  0  0  0  0
    7.8301  -13.9376   15.6872 C   0  0  2  0  0  0  0  0  0  0  0  0
    8.2653  -13.4945   14.3703 O   0  0  0  0  0  0  0  0  0  0  0  0
    8.3898  -15.3434   15.8902 C   0  0  0  0  0  0  0  0  0  0  0  0
    9.5256  -15.6087   14.9685 N   0  3  0  0  0  0  0  0  0  0  0  0
   11.8755  -10.2190   12.6353 C   0  0  2  0  0  0  0  0  0  0  0  0
   13.2546   -9.8491   12.2674 N   0  3  0  0  0  0  0  0  0  0  0  0
   11.2525   -9.1168   13.4811 C   0  0  0  0  0  0  0  0  0  0  0  0
    9.8189   -9.4913   13.8734 C   0  0  2  0  0  0  0  0  0  0  0  0
    9.2141   -8.3423   14.5921 N   0  3  0  0  0  0  0  0  0  0  0  0
    9.7822  -10.8316   14.6670 C   0  0  2  0  0  0  0  0  0  0  0  0
   10.4684  -11.9440   13.8331 C   0  0  2  0  0  0  0  0  0  0  0  0
   10.5825  -13.1097   14.6130 O   0  0  0  0  0  0  0  0  0  0  0  0
   11.8907  -11.5254   13.4265 C   0  0  1  0  0  0  0  0  0  0  0  0
   12.4691  -12.5632   12.6358 O   0  0  0  0  0  0  0  0  0  0  0  0
   12.2436  -12.5201   11.2688 C   0  0  2  0  0  0  0  0  0  0  0  0
   12.3385  -13.9482   10.7051 C   0  0  2  0  0  0  0  0  0  0  0  0
   11.3606  -14.7563   11.3476 O   0  0  0  0  0  0  0  0  0  0  0  0
   13.7456  -14.5113   10.9712 C   0  0  1  0  0  0  0  0  0  0  0  0
   13.8911  -15.9062   10.4640 N   0  3  0  0  0  0  0  0  0  0  0  0
   14.7989  -13.5818   10.3204 C   0  0  2  0  0  0  0  0  0  0  0  0
   16.1162  -14.0653   10.5724 O   0  0  0  0  0  0  0  0  0  0  0  0
   14.6390  -12.1443   10.8493 C   0  0  2  0  0  0  0  0  0  0  0  0
   13.2544  -11.6759   10.6592 O   0  0  0  0  0  0  0  0  0  0  0  0
   15.5412  -11.1675   10.1284 C   0  0  0  0  0  0  0  0  0  0  0  0
   14.9041   -9.9063    9.9365 O   0  0  0  0  0  0  0  0  0  0  0  0
  1  2  1  1  0  0  0
  1  3  1  0  0  0  0
  1  9  1  0  0  0  0
  3  4  1  1  0  0  0
  3  5  1  0  0  0  0
  5  6  1  0  0  0  0
  6  7  1  1  0  0  0
  6  8  1  0  0  0  0
  8  9  1  0  0  0  0
  8 10  1  6  0  0  0
 10 11  1  0  0  0  0
 12 13  1  1  0  0  0
 12 14  1  0  0  0  0
 12 20  1  0  0  0  0
 14 15  1  0  0  0  0
 15 16  1  1  0  0  0
 15 17  1  0  0  0  0
 17  2  1  6  0  0  0
 17 18  1  0  0  0  0
 18 19  1  1  0  0  0
 18 20  1  0  0  0  0
 20 21  1  6  0  0  0
 22 21  1  1  0  0  0
 22 23  1  0  0  0  0
 22 30  1  0  0  0  0
 23 24  1  1  0  0  0
 23 25  1  0  0  0  0
 25 26  1  6  0  0  0
 25 27  1  0  0  0  0
 27 28  1  1  0  0  0
 27 29  1  0  0  0  0
 29 30  1  0  0  0  0
 29 31  1  6  0  0  0
 31 32  1  0  0  0  0
M  CHG  5   4   1  11   1  13   1  16   1  26   1
M  END
>  <CHROM.1>
-161.85255850,99.58462547,52.00771865,-58.64462542,141.55747435,-64.62520181
107.21452543,-166.42655164,-164.38806034,-33.89951610,-153.86441653,-78.53827621
51.73655598,-61.39314782,142.90224657,-70.97224016,10.76630098,-12.39776997
13.09726527,3.11638503,-0.56620130,3.12538763

>  <Name>
1lc4

>  <RI>
0

>  <Rbt.Current_Directory>
/home/afrankz/demos/rdock_decoys_rna/rnas/1lc4

>  <Rbt.Executable>
rbdock ($Id: //depot/dev/client3/rdock/2013.1/src/exe/rbdock.cxx#4 $)

>  <Rbt.Library>
libRbt.so (2013.1, Build901 2013/11/27)

>  <Rbt.Parameter_File>
/export/apps/rDock/src/rDock_2013.1_src/data/scripts/dock_solv.prm

>  <Rbt.Receptor>
prm/blind_docking_40.prm

>  <SCORE>
-5.46007

>  <SCORE.INTER>
-9.94185

>  <SCORE.INTER.CONST>
1

>  <SCORE.INTER.POLAR>
-5.5746

>  <SCORE.INTER.ROT>
6

>  <SCORE.INTER.SOLV>
27.6766

>  <SCORE.INTER.VDW>
-4.87144

>  <SCORE.INTER.norm>
-0.310683

>  <SCORE.INTRA>
-3.48395

>  <SCORE.INTRA.DIHEDRAL>
-16.9368

>  <SCORE.INTRA.DIHEDRAL.0>
44.2576

>  <SCORE.INTRA.POLAR>
-1.43102

>  <SCORE.INTRA.POLAR.0>
-0.381556

>  <SCORE.INTRA.REPUL>
0.0688357

>  <SCORE.INTRA.REPUL.0>
0

>  <SCORE.INTRA.SOLV>
6.4832

>  <SCORE.INTRA.SOLV.lig_0>
-134.592

>  <SCORE.INTRA.VDW>
6.26414

>  <SCORE.INTRA.VDW.0>
-1.01417

>  <SCORE.INTRA.norm>
-0.108873

>  <SCORE.RESTR>
7.96573

>  <SCORE.RESTR.CAVITY>
7.96573

>  <SCORE.RESTR.norm>
0.248929

>  <SCORE.SYSTEM>
0

>  <SCORE.SYSTEM.CONST>
0

>  <SCORE.SYSTEM.DIHEDRAL>
0

>  <SCORE.SYSTEM.SOLV>
0

>  <SCORE.SYSTEM.norm>
0

>  <SCORE.heavy>
32

>  <SCORE.norm>
-0.170627

>  <RMSD>
31.512

$$$$
1lc4
 OpenBabel02141814113D
libRbt.so/2013.1/901 2013/11/27
 32 34  0  0  0  0  0  0  0  0999 V2000
   12.0276   -4.3737    4.6965 C   0  0  2  0  0  0  0  0  0  0  0  0
   11.2070   -4.9422    3.7068 O   0  0  0  0  0  0  0  0  0  0  0  0
   12.4368   -2.9623    4.2283 C   0  0  2  0  0  0  0  0  0  0  0  0
   11.2470   -2.1397    3.9888 N   0  3  0  0  0  0  0  0  0  0  0  0
   13.3211   -3.0571    2.9628 C   0  0  0  0  0  0  0  0  0  0  0  0
   14.5560   -3.9014    3.3232 C   0  0  2  0  0  0  0  0  0  0  0  0
   15.4447   -3.9889    2.2043 O   0  0  0  0  0  0  0  0  0  0  0  0
   14.0972   -5.3059    3.7882 C   0  0  2  0  0  0  0  0  0  0  0  0
   13.1947   -5.1939    4.9252 O   0  0  0  0  0  0  0  0  0  0  0  0
   15.2485   -6.2097    4.2224 C   0  0  0  0  0  0  0  0  0  0  0  0
   14.7507   -7.3921    4.9732 N   0  3  0  0  0  0  0  0  0  0  0  0
    9.3214   -8.7234    3.3803 C   0  0  2  0  0  0  0  0  0  0  0  0
    9.0837  -10.1738    3.2635 N   0  3  0  0  0  0  0  0  0  0  0  0
   10.1060   -8.2288    2.1728 C   0  0  0  0  0  0  0  0  0  0  0  0
   10.3630   -6.7219    2.2843 C   0  0  2  0  0  0  0  0  0  0  0  0
   11.0227   -6.2652    1.0358 N   0  3  0  0  0  0  0  0  0  0  0  0
   11.1491   -6.3776    3.5846 C   0  0  2  0  0  0  0  0  0  0  0  0
   10.3822   -6.9311    4.8131 C   0  0  2  0  0  0  0  0  0  0  0  0
   11.1688   -6.7665    5.9682 O   0  0  0  0  0  0  0  0  0  0  0  0
   10.1100   -8.4360    4.6565 C   0  0  1  0  0  0  0  0  0  0  0  0
    9.3762   -8.8931    5.7920 O   0  0  0  0  0  0  0  0  0  0  0  0
   10.0565   -9.6701    6.7164 C   0  0  2  0  0  0  0  0  0  0  0  0
   10.4829  -10.9850    6.0415 C   0  0  2  0  0  0  0  0  0  0  0  0
   11.3209  -10.6767    4.9348 O   0  0  0  0  0  0  0  0  0  0  0  0
    9.2328  -11.7430    5.5614 C   0  0  1  0  0  0  0  0  0  0  0  0
    9.5859  -13.0204    4.8774 N   0  3  0  0  0  0  0  0  0  0  0  0
    8.3026  -12.0104    6.7697 C   0  0  2  0  0  0  0  0  0  0  0  0
    7.1217  -12.6906    6.3507 O   0  0  0  0  0  0  0  0  0  0  0  0
    7.9456  -10.6859    7.4696 C   0  0  2  0  0  0  0  0  0  0  0  0
    9.1690   -9.9474    7.8307 O   0  0  0  0  0  0  0  0  0  0  0  0
    7.1672  -10.9077    8.7474 C   0  0  0  0  0  0  0  0  0  0  0  0
    7.7689  -11.9114    9.5622 O   0  0  0  0  0  0  0  0  0  0  0  0
  1  2  1  6  0  0  0
  1  3  1  0  0  0  0
  1  9  1  0  0  0  0
  3  4  1  6  0  0  0
  3  5  1  0  0  0  0
  5  6  1  0  0  0  0
  6  7  1  6  0  0  0
  6  8  1  0  0  0  0
  8  9  1  0  0  0  0
  8 10  1  1  0  0  0
 10 11  1  0  0  0  0
 12 13  1  6  0  0  0
 12 14  1  0  0  0  0
 12 20  1  0  0  0  0
 14 15  1  0  0  0  0
 15 16  1  6  0  0  0
 15 17  1  0  0  0  0
 17  2  1  1  0  0  0
 17 18  1  0  0  0  0
 18 19  1  1  0  0  0
 18 20  1  0  0  0  0
 20 21  1  1  0  0  0
 22 21  1  6  0  0  0
 22 23  1  0  0  0  0
 22 30  1  0  0  0  0
 23 24  1  6  0  0  0
 23 25  1  0  0  0  0
 25 26  1  1  0  0  0
 25 27  1  0  0  0  0
 27 28  1  6  0  0  0
 27 29  1  0  0  0  0
 29 30  1  0  0  0  0
 29 31  1  1  0  0  0
 31 32  1  0  0  0  0
M  CHG  5   4   1  11   1  13   1  16   1  26   1
M  END
>  <CHROM.1>
153.72264931,-170.96743223,59.56149839,-75.33453681,165.52270907,78.12670961
-158.93616223,114.57699639,-177.35886129,131.11094752,-64.25403016,61.34122898
-178.08700572,-52.22038071,47.40796782,176.19722379,10.86473136,-7.88848357
4.84241290,-0.11808887,1.02513558,1.26343107

>  <Name>
1lc4

>  <RI>
0

>  <Rbt.Current_Directory>
/home/afrankz/demos/rdock_decoys_rna/rnas/1lc4

>  <Rbt.Executable>
rbdock ($Id: //depot/dev/client3/rdock/2013.1/src/exe/rbdock.cxx#4 $)

>  <Rbt.Library>
libRbt.so (2013.1, Build901 2013/11/27)

>  <Rbt.Parameter_File>
/export/apps/rDock/src/rDock_2013.1_src/data/scripts/dock_solv.prm

>  <Rbt.Receptor>
prm/blind_docking_20.prm

>  <SCORE>
-40.4029

>  <SCORE.INTER>
-33.3323

>  <SCORE.INTER.CONST>
1

>  <SCORE.INTER.POLAR>
-5.46096

>  <SCORE.INTER.ROT>
6

>  <SCORE.INTER.SOLV>
32.2529

>  <SCORE.INTER.VDW>
-22.3693

>  <SCORE.INTER.norm>
-1.04163

>  <SCORE.INTRA>
-12.7892

>  <SCORE.INTRA.DIHEDRAL>
-26.1981

>  <SCORE.INTRA.DIHEDRAL.0>
44.2576

>  <SCORE.INTRA.POLAR>
-0.773581

>  <SCORE.INTRA.POLAR.0>
-0.381556

>  <SCORE.INTRA.REPUL>
0

>  <SCORE.INTRA.REPUL.0>
0

>  <SCORE.INTRA.SOLV>
4.58999

>  <SCORE.INTRA.SOLV.lig_0>
-134.592

>  <SCORE.INTRA.VDW>
0.645083

>  <SCORE.INTRA.VDW.0>
-1.01417

>  <SCORE.INTRA.norm>
-0.399661

>  <SCORE.RESTR>
5.71851

>  <SCORE.RESTR.CAVITY>
5.71851

>  <SCORE.RESTR.norm>
0.178703

>  <SCORE.SYSTEM>
0

>  <SCORE.SYSTEM.CONST>
0

>  <SCORE.SYSTEM.DIHEDRAL>
0

>  <SCORE.SYSTEM.SOLV>
0

>  <SCORE.SYSTEM.norm>
0

>  <SCORE.heavy>
32

>  <SCORE.norm>
-1.26259

>  <RMSD>
31.515

$$$$
1lc4
 OpenBabel02141814113D
libRbt.so/2013.1/901 2013/11/27
 32 34  0  0  0  0  0  0  0  0999 V2000
   13.6018   -2.0094    4.6439 C   0  0  2  0  0  0  0  0  0  0  0  0
   12.4237   -2.4388    4.0086 O   0  0  0  0  0  0  0  0  0  0  0  0
   13.6397   -0.4683    4.5941 C   0  0  2  0  0  0  0  0  0  0  0  0
   12.4514    0.0922    5.2448 N   0  3  0  0  0  0  0  0  0  0  0  0
   13.7609    0.0137    3.1293 C   0  0  0  0  0  0  0  0  0  0  0  0
   15.0506   -0.5916    2.5480 C   0  0  2  0  0  0  0  0  0  0  0  0
   15.2499   -0.1443    1.2029 O   0  0  0  0  0  0  0  0  0  0  0  0
   14.9681   -2.1367    2.6204 C   0  0  2  0  0  0  0  0  0  0  0  0
   14.7649   -2.5698    3.9957 O   0  0  0  0  0  0  0  0  0  0  0  0
   16.2267   -2.8380    2.1154 C   0  0  0  0  0  0  0  0  0  0  0  0
   16.1684   -4.3006    2.3742 N   0  3  0  0  0  0  0  0  0  0  0  0
   10.4167   -6.1683    3.8573 C   0  0  2  0  0  0  0  0  0  0  0  0
   10.0965   -7.5872    3.6161 N   0  3  0  0  0  0  0  0  0  0  0  0
   10.6840   -5.4660    2.5330 C   0  0  0  0  0  0  0  0  0  0  0  0
   11.0219   -3.9900    2.7707 C   0  0  2  0  0  0  0  0  0  0  0  0
   11.1569   -3.3218    1.4524 N   0  3  0  0  0  0  0  0  0  0  0  0
   12.2673   -3.8372    3.6944 C   0  0  2  0  0  0  0  0  0  0  0  0
   12.0222   -4.6006    5.0214 C   0  0  2  0  0  0  0  0  0  0  0  0
   13.2042   -4.6019    5.7850 O   0  0  0  0  0  0  0  0  0  0  0  0
   11.6526   -6.0678    4.7491 C   0  0  1  0  0  0  0  0  0  0  0  0
   11.4052   -6.7202    5.9941 O   0  0  0  0  0  0  0  0  0  0  0  0
   11.5519   -8.0981    6.0286 C   0  0  2  0  0  0  0  0  0  0  0  0
   10.3676   -8.7039    6.8012 C   0  0  2  0  0  0  0  0  0  0  0  0
    9.1618   -8.3463    6.1378 O   0  0  0  0  0  0  0  0  0  0  0  0
   10.3608   -8.1568    8.2393 C   0  0  1  0  0  0  0  0  0  0  0  0
    9.2183   -8.6942    9.0330 N   0  3  0  0  0  0  0  0  0  0  0  0
   11.7077   -8.4986    8.9220 C   0  0  2  0  0  0  0  0  0  0  0  0
   11.7406   -7.9811   10.2501 O   0  0  0  0  0  0  0  0  0  0  0  0
   12.8803   -7.9409    8.0939 C   0  0  2  0  0  0  0  0  0  0  0  0
   12.7987   -8.4144    6.7005 O   0  0  0  0  0  0  0  0  0  0  0  0
   14.2218   -8.3827    8.6353 C   0  0  0  0  0  0  0  0  0  0  0  0
   14.3622   -9.8012    8.5992 O   0  0  0  0  0  0  0  0  0  0  0  0
  1  2  1  6  0  0  0
  1  3  1  0  0  0  0
  1  9  1  0  0  0  0
  3  4  1  6  0  0  0
  3  5  1  0  0  0  0
  5  6  1  0  0  0  0
  6  7  1  6  0  0  0
  6  8  1  0  0  0  0
  8  9  1  0  0  0  0
  8 10  1  1  0  0  0
 10 11  1  0  0  0  0
 12 13  1  6  0  0  0
 12 14  1  0  0  0  0
 12 20  1  0  0  0  0
 14 15  1  0  0  0  0
 15 16  1  6  0  0  0
 15 17  1  0  0  0  0
 17  2  1  1  0  0  0
 17 18  1  0  0  0  0
 18 19  1  1  0  0  0
 18 20  1  0  0  0  0
 20 21  1  1  0  0  0
 22 21  1  1  0  0  0
 22 23  1  0  0  0  0
 22 30  1  0  0  0  0
 23 24  1  6  0  0  0
 23 25  1  0  0  0  0
 25 26  1  1  0  0  0
 25 27  1  0  0  0  0
 27 28  1  1  0  0  0
 27 29  1  0  0  0  0
 29 30  1  0  0  0  0
 29 31  1  1  0  0  0
 31 32  1  0  0  0  0
M  CHG  5   4   1  11   1  13   1  16   1  26   1
M  END
>  <CHROM.1>
168.34369201,-169.45628671,-41.61935116,-179.97801161,172.39978994,104.76363582
-43.50669468,-51.80243865,-57.20057027,81.71498666,-135.86173477,178.54675641
-177.32108686,71.08065862,61.49753682,-176.22693672,12.51572350,-5.11729815
5.12272193,-1.22844283,0.45160729,2.35896899

>  <Name>
1lc4

>  <RI>
0

>  <Rbt.Current_Directory>
/home/afrankz/demos/rdock_decoys_rna/rnas/1lc4

>  <Rbt.Executable>
rbdock ($Id: //depot/dev/client3/rdock/2013.1/src/exe/rbdock.cxx#4 $)

>  <Rbt.Library>
libRbt.so (2013.1, Build901 2013/11/27)

>  <Rbt.Parameter_File>
/export/apps/rDock/src/rDock_2013.1_src/data/scripts/dock_solv.prm

>  <Rbt.Receptor>
prm/blind_docking_60.prm

>  <SCORE>
-40.047

>  <SCORE.INTER>
-27.6763

>  <SCORE.INTER.CONST>
1

>  <SCORE.INTER.POLAR>
-4.04235

>  <SCORE.INTER.ROT>
6

>  <SCORE.INTER.SOLV>
36.1444

>  <SCORE.INTER.VDW>
-24.6245

>  <SCORE.INTER.norm>
-0.864883

>  <SCORE.INTRA>
-20.3919

>  <SCORE.INTRA.DIHEDRAL>
-29.2997

>  <SCORE.INTRA.DIHEDRAL.0>
44.2576

>  <SCORE.INTRA.POLAR>
-1.00122

>  <SCORE.INTRA.POLAR.0>
-0.381556

>  <SCORE.INTRA.REPUL>
0.0233277

>  <SCORE.INTRA.REPUL.0>
0

>  <SCORE.INTRA.SOLV>
-0.425436

>  <SCORE.INTRA.SOLV.lig_0>
-134.592

>  <SCORE.INTRA.VDW>
-2.24179

>  <SCORE.INTRA.VDW.0>
-1.01417

>  <SCORE.INTRA.norm>
-0.637247

>  <SCORE.RESTR>
8.02115

>  <SCORE.RESTR.CAVITY>
8.02115

>  <SCORE.RESTR.norm>
0.250661

>  <SCORE.SYSTEM>
0

>  <SCORE.SYSTEM.CONST>
0

>  <SCORE.SYSTEM.DIHEDRAL>
0

>  <SCORE.SYSTEM.SOLV>
0

>  <SCORE.SYSTEM.norm>
0

>  <SCORE.heavy>
32

>  <SCORE.norm>
-1.25147

>  <RMSD>
31.530

$$$$
1lc4
 OpenBabel02141814113D
libRbt.so/2013.1/901 2013/11/27
 32 34  0  0  0  0  0  0  0  0999 V2000
    9.3435   -3.9769    1.5605 C   0  0  2  0  0  0  0  0  0  0  0  0
   10.5417   -3.7136    2.2469 O   0  0  0  0  0  0  0  0  0  0  0  0
    9.6880   -4.2568    0.0834 C   0  0  2  0  0  0  0  0  0  0  0  0
   10.6170   -5.3865   -0.0182 N   0  3  0  0  0  0  0  0  0  0  0  0
   10.2715   -2.9855   -0.5768 C   0  0  0  0  0  0  0  0  0  0  0  0
    9.2145   -1.8739   -0.4551 C   0  0  2  0  0  0  0  0  0  0  0  0
    9.6733   -0.6768   -1.0921 O   0  0  0  0  0  0  0  0  0  0  0  0
    8.8998   -1.6293    1.0417 C   0  0  2  0  0  0  0  0  0  0  0  0
    8.4359   -2.8582    1.6699 O   0  0  0  0  0  0  0  0  0  0  0  0
    7.8180   -0.5770    1.2724 C   0  0  0  0  0  0  0  0  0  0  0  0
    6.4619   -1.1853    1.2496 N   0  3  0  0  0  0  0  0  0  0  0  0
   13.0734   -6.2032    4.5604 C   0  0  2  0  0  0  0  0  0  0  0  0
   13.5991   -7.0785    5.6240 N   0  3  0  0  0  0  0  0  0  0  0  0
   12.7140   -4.8422    5.1408 C   0  0  0  0  0  0  0  0  0  0  0  0
   12.1625   -3.9236    4.0448 C   0  0  2  0  0  0  0  0  0  0  0  0
   11.9390   -2.5779    4.6294 N   0  3  0  0  0  0  0  0  0  0  0  0
   10.9028   -4.5434    3.3692 C   0  0  2  0  0  0  0  0  0  0  0  0
   11.2490   -5.9545    2.8282 C   0  0  2  0  0  0  0  0  0  0  0  0
   10.0755   -6.5792    2.3670 O   0  0  0  0  0  0  0  0  0  0  0  0
   11.8308   -6.8406    3.9416 C   0  0  1  0  0  0  0  0  0  0  0  0
   12.1636   -8.1146    3.3914 O   0  0  0  0  0  0  0  0  0  0  0  0
   12.4684   -9.1310    4.2831 C   0  0  2  0  0  0  0  0  0  0  0  0
   12.4493  -10.4730    3.5314 C   0  0  2  0  0  0  0  0  0  0  0  0
   13.4108  -10.4213    2.4851 O   0  0  0  0  0  0  0  0  0  0  0  0
   11.0462  -10.7126    2.9470 C   0  0  1  0  0  0  0  0  0  0  0  0
   10.9722  -11.9931    2.1861 N   0  3  0  0  0  0  0  0  0  0  0  0
   10.0063  -10.6989    4.0940 C   0  0  2  0  0  0  0  0  0  0  0  0
    8.6912  -10.8936    3.5789 O   0  0  0  0  0  0  0  0  0  0  0  0
   10.0921   -9.3739    4.8740 C   0  0  2  0  0  0  0  0  0  0  0  0
   11.4711   -9.1366    5.3374 O   0  0  0  0  0  0  0  0  0  0  0  0
    9.2058   -9.3751    6.0997 C   0  0  0  0  0  0  0  0  0  0  0  0
    9.4006   -8.2047    6.8907 O   0  0  0  0  0  0  0  0  0  0  0  0
  1  2  1  1  0  0  0
  1  3  1  0  0  0  0
  1  9  1  0  0  0  0
  3  4  1  1  0  0  0
  3  5  1  0  0  0  0
  5  6  1  0  0  0  0
  6  7  1  1  0  0  0
  6  8  1  0  0  0  0
  8  9  1  0  0  0  0
  8 10  1  6  0  0  0
 10 11  1  0  0  0  0
 12 13  1  1  0  0  0
 12 14  1  0  0  0  0
 12 20  1  0  0  0  0
 14 15  1  0  0  0  0
 15 16  1  1  0  0  0
 15 17  1  0  0  0  0
 17  2  1  6  0  0  0
 17 18  1  0  0  0  0
 18 19  1  1  0  0  0
 18 20  1  0  0  0  0
 20 21  1  6  0  0  0
 22 21  1  6  0  0  0
 22 23  1  0  0  0  0
 22 30  1  0  0  0  0
 23 24  1  6  0  0  0
 23 25  1  0  0  0  0
 25 26  1  1  0  0  0
 25 27  1  0  0  0  0
 27 28  1  6  0  0  0
 27 29  1  0  0  0  0
 29 30  1  0  0  0  0
 29 31  1  1  0  0  0
 31 32  1  0  0  0  0
M  CHG  5   4   1  11   1  13   1  16   1  26   1
M  END
>  <CHROM.1>
-121.49418838,-172.85874210,53.78241411,56.85602869,87.41976211,52.26263276
-145.17731814,14.17582446,-59.85684892,69.80514577,166.03005762,-23.76442815
-152.39754833,-31.44666662,173.71028472,-53.45786242,10.60659970,-6.14439752
2.90723042,2.00670137,-0.95386177,-0.04534894

>  <Name>
1lc4

>  <RI>
0

>  <Rbt.Current_Directory>
/home/afrankz/demos/rdock_decoys_rna/rnas/1lc4

>  <Rbt.Executable>
rbdock ($Id: //depot/dev/client3/rdock/2013.1/src/exe/rbdock.cxx#4 $)

>  <Rbt.Library>
libRbt.so (2013.1, Build901 2013/11/27)

>  <Rbt.Parameter_File>
/export/apps/rDock/src/rDock_2013.1_src/data/scripts/dock_solv.prm

>  <Rbt.Receptor>
prm/blind_docking_20.prm

>  <SCORE>
-43.5323

>  <SCORE.INTER>
-37.4139

>  <SCORE.INTER.CONST>
1

>  <SCORE.INTER.POLAR>
-5.12774

>  <SCORE.INTER.ROT>
6

>  <SCORE.INTER.SOLV>
32.3327

>  <SCORE.INTER.VDW>
-26.2277

>  <SCORE.INTER.norm>
-1.16918

>  <SCORE.INTRA>
-11.6936

>  <SCORE.INTRA.DIHEDRAL>
-17.4549

>  <SCORE.INTRA.DIHEDRAL.0>
44.2576

>  <SCORE.INTRA.POLAR>
-1.48198

>  <SCORE.INTRA.POLAR.0>
-0.381556

>  <SCORE.INTRA.REPUL>
0

>  <SCORE.INTRA.REPUL.0>
0

>  <SCORE.INTRA.SOLV>
1.17266

>  <SCORE.INTRA.SOLV.lig_0>
-134.592

>  <SCORE.INTRA.VDW>
1.48622

>  <SCORE.INTRA.VDW.0>
-1.01417

>  <SCORE.INTRA.norm>
-0.365426

>  <SCORE.RESTR>
5.57523

>  <SCORE.RESTR.CAVITY>
5.57523

>  <SCORE.RESTR.norm>
0.174226

>  <SCORE.SYSTEM>
0

>  <SCORE.SYSTEM.CONST>
0

>  <SCORE.SYSTEM.DIHEDRAL>
0

>  <SCORE.SYSTEM.SOLV>
0

>  <SCORE.SYSTEM.norm>
0

>  <SCORE.heavy>
32

>  <SCORE.norm>
-1.36038

>  <RMSD>
31.567

$$$$
1lc4
 OpenBabel02141814113D
libRbt.so/2013.1/901 2013/11/27
 32 34  0  0  0  0  0  0  0  0999 V2000
   14.0953   -1.9368    4.5704 C   0  0  2  0  0  0  0  0  0  0  0  0
   12.8282   -2.1989    4.0212 O   0  0  0  0  0  0  0  0  0  0  0  0
   14.3126   -0.4098    4.5686 C   0  0  2  0  0  0  0  0  0  0  0  0
   13.2545    0.2567    5.3340 N   0  3  0  0  0  0  0  0  0  0  0  0
   14.3751    0.1170    3.1156 C   0  0  0  0  0  0  0  0  0  0  0  0
   15.5338   -0.6087    2.4096 C   0  0  2  0  0  0  0  0  0  0  0  0
   15.6787   -0.1306    1.0681 O   0  0  0  0  0  0  0  0  0  0  0  0
   15.2736   -2.1355    2.4374 C   0  0  2  0  0  0  0  0  0  0  0  0
   15.1288   -2.6003    3.8096 O   0  0  0  0  0  0  0  0  0  0  0  0
   16.3959   -2.9560    1.8067 C   0  0  0  0  0  0  0  0  0  0  0  0
   16.2673   -4.3967    2.1495 N   0  3  0  0  0  0  0  0  0  0  0  0
   10.4057   -5.6689    3.7954 C   0  0  2  0  0  0  0  0  0  0  0  0
    9.9128   -7.0261    3.4973 N   0  3  0  0  0  0  0  0  0  0  0  0
   10.6713   -4.9182    2.4976 C   0  0  0  0  0  0  0  0  0  0  0  0
   11.1880   -3.5060    2.7944 C   0  0  2  0  0  0  0  0  0  0  0  0
   11.3189   -2.7750    1.5094 N   0  3  0  0  0  0  0  0  0  0  0  0
   12.4956   -3.5491    3.6404 C   0  0  2  0  0  0  0  0  0  0  0  0
   12.2454   -4.3630    4.9361 C   0  0  2  0  0  0  0  0  0  0  0  0
   13.4631   -4.5420    5.6181 O   0  0  0  0  0  0  0  0  0  0  0  0
   11.6962   -5.7608    4.6074 C   0  0  1  0  0  0  0  0  0  0  0  0
   11.4513   -6.4592    5.8277 O   0  0  0  0  0  0  0  0  0  0  0  0
   12.3533   -7.4495    6.1840 C   0  0  2  0  0  0  0  0  0  0  0  0
   12.0553   -8.7127    5.3582 C   0  0  2  0  0  0  0  0  0  0  0  0
   12.1827   -8.3939    3.9783 O   0  0  0  0  0  0  0  0  0  0  0  0
   10.6252   -9.1950    5.6582 C   0  0  1  0  0  0  0  0  0  0  0  0
   10.2707  -10.4087    4.8675 N   0  3  0  0  0  0  0  0  0  0  0  0
   10.4879   -9.4730    7.1750 C   0  0  2  0  0  0  0  0  0  0  0  0
    9.1633   -9.8981    7.4876 O   0  0  0  0  0  0  0  0  0  0  0  0
   10.8577   -8.2146    7.9821 C   0  0  2  0  0  0  0  0  0  0  0  0
   12.1964   -7.7313    7.5990 O   0  0  0  0  0  0  0  0  0  0  0  0
   10.8908   -8.4809    9.4707 C   0  0  0  0  0  0  0  0  0  0  0  0
   10.8031   -7.2728   10.2231 O   0  0  0  0  0  0  0  0  0  0  0  0
  1  2  1  6  0  0  0
  1  3  1  0  0  0  0
  1  9  1  0  0  0  0
  3  4  1  1  0  0  0
  3  5  1  0  0  0  0
  5  6  1  0  0  0  0
  6  7  1  6  0  0  0
  6  8  1  0  0  0  0
  8  9  1  0  0  0  0
  8 10  1  1  0  0  0
 10 11  1  0  0  0  0
 12 13  1  6  0  0  0
 12 14  1  0  0  0  0
 12 20  1  0  0  0  0
 14 15  1  0  0  0  0
 15 16  1  6  0  0  0
 15 17  1  0  0  0  0
 17  2  1  1  0  0  0
 17 18  1  0  0  0  0
 18 19  1  6  0  0  0
 18 20  1  0  0  0  0
 20 21  1  1  0  0  0
 22 21  1  6  0  0  0
 22 23  1  0  0  0  0
 22 30  1  0  0  0  0
 23 24  1  6  0  0  0
 23 25  1  0  0  0  0
 25 26  1  6  0  0  0
 25 27  1  0  0  0  0
 27 28  1  6  0  0  0
 27 29  1  0  0  0  0
 29 30  1  0  0  0  0
 29 31  1  1  0  0  0
 31 32  1  0  0  0  0
M  CHG  5   4   1  11   1  13   1  16   1  26   1
M  END
>  <CHROM.1>
166.63580397,-167.95481791,-156.43010734,60.59631030,166.03409598,-2.16738236
78.89871508,-63.84962131,-61.11897924,133.35678636,-78.23390154,68.66363852
-173.68608321,-62.31198161,-161.20293850,75.53691774,12.48663081,-5.04639307
4.68525990,-0.33310304,1.10624355,1.43242627

>  <Name>
1lc4

>  <RI>
0

>  <Rbt.Current_Directory>
/home/afrankz/demos/rdock_decoys_rna/rnas/1lc4

>  <Rbt.Executable>
rbdock ($Id: //depot/dev/client3/rdock/2013.1/src/exe/rbdock.cxx#4 $)

>  <Rbt.Library>
libRbt.so (2013.1, Build901 2013/11/27)

>  <Rbt.Parameter_File>
/export/apps/rDock/src/rDock_2013.1_src/data/scripts/dock_solv.prm

>  <Rbt.Receptor>
prm/blind_docking_20.prm

>  <SCORE>
-46.279

>  <SCORE.INTER>
-34.9954

>  <SCORE.INTER.CONST>
1

>  <SCORE.INTER.POLAR>
-4.45411

>  <SCORE.INTER.ROT>
6

>  <SCORE.INTER.SOLV>
33.8708

>  <SCORE.INTER.VDW>
-27.3735

>  <SCORE.INTER.norm>
-1.09361

>  <SCORE.INTRA>
-17.8328

>  <SCORE.INTRA.DIHEDRAL>
-25.6431

>  <SCORE.INTRA.DIHEDRAL.0>
44.2576

>  <SCORE.INTRA.POLAR>
-0.773217

>  <SCORE.INTRA.POLAR.0>
-0.381556

>  <SCORE.INTRA.REPUL>
0.0192539

>  <SCORE.INTRA.REPUL.0>
0

>  <SCORE.INTRA.SOLV>
1.01719

>  <SCORE.INTRA.SOLV.lig_0>
-134.592

>  <SCORE.INTRA.VDW>
-2.98712

>  <SCORE.INTRA.VDW.0>
-1.01417

>  <SCORE.INTRA.norm>
-0.557274

>  <SCORE.RESTR>
6.54913

>  <SCORE.RESTR.CAVITY>
6.54913

>  <SCORE.RESTR.norm>
0.20466

>  <SCORE.SYSTEM>
0

>  <SCORE.SYSTEM.CONST>
0

>  <SCORE.SYSTEM.DIHEDRAL>
0

>  <SCORE.SYSTEM.SOLV>
0

>  <SCORE.SYSTEM.norm>
0

>  <SCORE.heavy>
32

>  <SCORE.norm>
-1.44622

>  <RMSD>
31.609

$$$$
1lc4
 OpenBabel02141814113D
libRbt.so/2013.1/901 2013/11/27
 32 34  0  0  0  0  0  0  0  0999 V2000
    8.4052   -9.9437    4.9649 C   0  0  2  0  0  0  0  0  0  0  0  0
    9.3577   -9.4681    5.8828 O   0  0  0  0  0  0  0  0  0  0  0  0
    7.3949  -10.8206    5.7325 C   0  0  2  0  0  0  0  0  0  0  0  0
    6.7594  -10.0473    6.8038 N   0  3  0  0  0  0  0  0  0  0  0  0
    8.0987  -12.0811    6.2879 C   0  0  0  0  0  0  0  0  0  0  0  0
    8.6969  -12.8422    5.0917 C   0  0  2  0  0  0  0  0  0  0  0  0
    9.3247  -14.0508    5.5325 O   0  0  0  0  0  0  0  0  0  0  0  0
    9.7016  -11.9240    4.3521 C   0  0  2  0  0  0  0  0  0  0  0  0
    9.0433  -10.7016    3.9134 O   0  0  0  0  0  0  0  0  0  0  0  0
   10.3152  -12.5678    3.1113 C   0  0  0  0  0  0  0  0  0  0  0  0
   11.2549  -11.6380    2.4314 N   0  3  0  0  0  0  0  0  0  0  0  0
   12.7224   -6.9710    5.2478 C   0  0  2  0  0  0  0  0  0  0  0  0
   14.0421   -6.4648    4.8284 N   0  3  0  0  0  0  0  0  0  0  0  0
   12.8976   -8.1495    6.1958 C   0  0  0  0  0  0  0  0  0  0  0  0
   11.5317   -8.6874    6.6364 C   0  0  2  0  0  0  0  0  0  0  0  0
   11.7509   -9.7524    7.6465 N   0  3  0  0  0  0  0  0  0  0  0  0
   10.6789   -9.1349    5.4116 C   0  0  2  0  0  0  0  0  0  0  0  0
   10.5473   -7.9542    4.4154 C   0  0  2  0  0  0  0  0  0  0  0  0
    9.9206   -8.4035    3.2384 O   0  0  0  0  0  0  0  0  0  0  0  0
   11.9313   -7.4150    4.0190 C   0  0  1  0  0  0  0  0  0  0  0  0
   11.7597   -6.3123    3.1295 O   0  0  0  0  0  0  0  0  0  0  0  0
   11.2324   -5.1453    3.6599 C   0  0  2  0  0  0  0  0  0  0  0  0
   10.4103   -4.4330    2.5722 C   0  0  2  0  0  0  0  0  0  0  0  0
    9.3694   -5.3032    2.1465 O   0  0  0  0  0  0  0  0  0  0  0  0
   11.3250   -4.0845    1.3849 C   0  0  1  0  0  0  0  0  0  0  0  0
   10.5763   -3.4088    0.2862 N   0  3  0  0  0  0  0  0  0  0  0  0
   12.4882   -3.1916    1.8815 C   0  0  2  0  0  0  0  0  0  0  0  0
   13.3681   -2.8728    0.8060 O   0  0  0  0  0  0  0  0  0  0  0  0
   13.2533   -3.8974    3.0165 C   0  0  2  0  0  0  0  0  0  0  0  0
   12.3277   -4.2968    4.0918 O   0  0  0  0  0  0  0  0  0  0  0  0
   14.3003   -3.0023    3.6414 C   0  0  0  0  0  0  0  0  0  0  0  0
   15.3986   -2.7823    2.7590 O   0  0  0  0  0  0  0  0  0  0  0  0
  1  2  1  1  0  0  0
  1  3  1  0  0  0  0
  1  9  1  0  0  0  0
  3  4  1  1  0  0  0
  3  5  1  0  0  0  0
  5  6  1  0  0  0  0
  6  7  1  1  0  0  0
  6  8  1  0  0  0  0
  8  9  1  0  0  0  0
  8 10  1  6  0  0  0
 10 11  1  0  0  0  0
 12 13  1  6  0  0  0
 12 14  1  0  0  0  0
 12 20  1  0  0  0  0
 14 15  1  0  0  0  0
 15 16  1  1  0  0  0
 15 17  1  0  0  0  0
 17  2  1  1  0  0  0
 17 18  1  0  0  0  0
 18 19  1  6  0  0  0
 18 20  1  0  0  0  0
 20 21  1  6  0  0  0
 22 21  1  6  0  0  0
 22 23  1  0  0  0  0
 22 30  1  0  0  0  0
 23 24  1  6  0  0  0
 23 25  1  0  0  0  0
 25 26  1  6  0  0  0
 25 27  1  0  0  0  0
 27 28  1  6  0  0  0
 27 29  1  0  0  0  0
 29 30  1  0  0  0  0
 29 31  1  1  0  0  0
 31 32  1  0  0  0  0
M  CHG  5   4   1  11   1  13   1  16   1  26   1
M  END
>  <CHROM.1>
153.45928479,-178.05236456,40.52700982,-55.90127263,179.20223166,162.19305664
-47.59470409,-51.50537527,-62.98190576,-52.35500276,-148.18461534,170.65858225
-179.72202823,-54.23202171,-70.79881614,59.52862763,10.96171104,-7.72674949
4.06591435,2.07640987,0.58761365,2.48156571

>  <Name>
1lc4

>  <RI>
0

>  <Rbt.Current_Directory>
/home/afrankz/demos/rdock_decoys_rna/rnas/1lc4

>  <Rbt.Executable>
rbdock ($Id: //depot/dev/client3/rdock/2013.1/src/exe/rbdock.cxx#4 $)

>  <Rbt.Library>
libRbt.so (2013.1, Build901 2013/11/27)

>  <Rbt.Parameter_File>
/export/apps/rDock/src/rDock_2013.1_src/data/scripts/dock_solv.prm

>  <Rbt.Receptor>
prm/blind_docking_20.prm

>  <SCORE>
-39.5658

>  <SCORE.INTER>
-25.9679

>  <SCORE.INTER.CONST>
1

>  <SCORE.INTER.POLAR>
-3.4672

>  <SCORE.INTER.ROT>
6

>  <SCORE.INTER.SOLV>
21.8293

>  <SCORE.INTER.VDW>
-20.631

>  <SCORE.INTER.norm>
-0.811496

>  <SCORE.INTRA>
-17.4933

>  <SCORE.INTRA.DIHEDRAL>
-33.7091

>  <SCORE.INTRA.DIHEDRAL.0>
44.2576

>  <SCORE.INTRA.POLAR>
-0.221415

>  <SCORE.INTRA.POLAR.0>
-0.381556

>  <SCORE.INTRA.REPUL>
0

>  <SCORE.INTRA.REPUL.0>
0

>  <SCORE.INTRA.SOLV>
0.506298

>  <SCORE.INTRA.SOLV.lig_0>
-134.592

>  <SCORE.INTRA.VDW>
-0.139043

>  <SCORE.INTRA.VDW.0>
-1.01417

>  <SCORE.INTRA.norm>
-0.546665

>  <SCORE.RESTR>
3.89534

>  <SCORE.RESTR.CAVITY>
3.89534

>  <SCORE.RESTR.norm>
0.121729

>  <SCORE.SYSTEM>
0

>  <SCORE.SYSTEM.CONST>
0

>  <SCORE.SYSTEM.DIHEDRAL>
0

>  <SCORE.SYSTEM.SOLV>
0

>  <SCORE.SYSTEM.norm>
0

>  <SCORE.heavy>
32

>  <SCORE.norm>
-1.23643

>  <RMSD>
31.631

$$$$
1lc4
 OpenBabel02141814113D
libRbt.so/2013.1/901 2013/11/27
 32 34  0  0  0  0  0  0  0  0999 V2000
    6.8701  -11.9759    6.9092 C   0  0  2  0  0  0  0  0  0  0  0  0
    8.1795  -12.1992    6.4492 O   0  0  0  0  0  0  0  0  0  0  0  0
    6.7773  -12.4892    8.3607 C   0  0  2  0  0  0  0  0  0  0  0  0
    7.7606  -11.8062    9.2069 N   0  3  0  0  0  0  0  0  0  0  0  0
    6.9715  -14.0234    8.3959 C   0  0  0  0  0  0  0  0  0  0  0  0
    5.8757  -14.6491    7.5154 C   0  0  2  0  0  0  0  0  0  0  0  0
    5.9684  -16.0773    7.5425 O   0  0  0  0  0  0  0  0  0  0  0  0
    6.0070  -14.1044    6.0712 C   0  0  2  0  0  0  0  0  0  0  0  0
    5.9106  -12.6515    6.0665 O   0  0  0  0  0  0  0  0  0  0  0  0
    4.9283  -14.6240    5.1241 C   0  0  0  0  0  0  0  0  0  0  0  0
    5.5199  -15.1126    3.8509 N   0  3  0  0  0  0  0  0  0  0  0  0
   11.0323  -10.7919    3.6489 C   0  0  2  0  0  0  0  0  0  0  0  0
   11.6637  -10.1302    2.4926 N   0  3  0  0  0  0  0  0  0  0  0  0
   10.0403  -11.8414    3.1663 C   0  0  0  0  0  0  0  0  0  0  0  0
    9.3739  -12.5344    4.3601 C   0  0  2  0  0  0  0  0  0  0  0  0
    8.5086  -13.6250    3.8458 N   0  3  0  0  0  0  0  0  0  0  0  0
    8.6346  -11.5074    5.2689 C   0  0  2  0  0  0  0  0  0  0  0  0
    9.6282  -10.4040    5.7151 C   0  0  2  0  0  0  0  0  0  0  0  0
    8.9275   -9.3918    6.3965 O   0  0  0  0  0  0  0  0  0  0  0  0
   10.3048   -9.7517    4.4985 C   0  0  1  0  0  0  0  0  0  0  0  0
   11.2315   -8.7683    4.9578 O   0  0  0  0  0  0  0  0  0  0  0  0
   12.1335   -8.2655    4.0332 C   0  0  2  0  0  0  0  0  0  0  0  0
   13.1713   -7.4025    4.7711 C   0  0  2  0  0  0  0  0  0  0  0  0
   13.8382   -8.2142    5.7295 O   0  0  0  0  0  0  0  0  0  0  0  0
   12.4586   -6.2340    5.4742 C   0  0  1  0  0  0  0  0  0  0  0  0
   13.4149   -5.3716    6.2266 N   0  3  0  0  0  0  0  0  0  0  0  0
   11.6845   -5.4015    4.4231 C   0  0  2  0  0  0  0  0  0  0  0  0
   10.9921   -4.3242    5.0498 O   0  0  0  0  0  0  0  0  0  0  0  0
   10.7016   -6.3011    3.6510 C   0  0  2  0  0  0  0  0  0  0  0  0
   11.4079   -7.4574    3.0706 O   0  0  0  0  0  0  0  0  0  0  0  0
   10.0351   -5.5683    2.5079 C   0  0  0  0  0  0  0  0  0  0  0  0
   10.7052   -5.8026    1.2712 O   0  0  0  0  0  0  0  0  0  0  0  0
  1  2  1  6  0  0  0
  1  3  1  0  0  0  0
  1  9  1  0  0  0  0
  3  4  1  1  0  0  0
  3  5  1  0  0  0  0
  5  6  1  0  0  0  0
  6  7  1  6  0  0  0
  6  8  1  0  0  0  0
  8  9  1  0  0  0  0
  8 10  1  6  0  0  0
 10 11  1  0  0  0  0
 12 13  1  6  0  0  0
 12 14  1  0  0  0  0
 12 20  1  0  0  0  0
 14 15  1  0  0  0  0
 15 16  1  6  0  0  0
 15 17  1  0  0  0  0
 17  2  1  1  0  0  0
 17 18  1  0  0  0  0
 18 19  1  6  0  0  0
 18 20  1  0  0  0  0
 20 21  1  1  0  0  0
 22 21  1  1  0  0  0
 22 23  1  0  0  0  0
 22 30  1  0  0  0  0
 23 24  1  1  0  0  0
 23 25  1  0  0  0  0
 25 26  1  6  0  0  0
 25 27  1  0  0  0  0
 27 28  1  1  0  0  0
 27 29  1  0  0  0  0
 29 30  1  0  0  0  0
 29 31  1  6  0  0  0
 31 32  1  0  0  0  0
M  CHG  5   4   1  11   1  13   1  16   1  26   1
M  END
>  <CHROM.1>
-163.85011023,-134.91521406,-48.31041683,-57.69919661,-132.02186214,-50.96749118
151.56068187,164.15692131,-62.40904810,45.22133521,-171.08060256,-52.75893816
41.39257776,176.76708029,96.12207923,-57.68717064,9.41000330,-10.25916708
5.17794663,-3.04711322,-0.96574042,-1.74998976

>  <Name>
1lc4

>  <RI>
0

>  <Rbt.Current_Directory>
/home/afrankz/demos/rdock_decoys_rna/rnas/1lc4

>  <Rbt.Executable>
rbdock ($Id: //depot/dev/client3/rdock/2013.1/src/exe/rbdock.cxx#4 $)

>  <Rbt.Library>
libRbt.so (2013.1, Build901 2013/11/27)

>  <Rbt.Parameter_File>
/export/apps/rDock/src/rDock_2013.1_src/data/scripts/dock_solv.prm

>  <Rbt.Receptor>
prm/blind_docking_20.prm

>  <SCORE>
-34.9989

>  <SCORE.INTER>
-40.0127

>  <SCORE.INTER.CONST>
1

>  <SCORE.INTER.POLAR>
-5.70812

>  <SCORE.INTER.ROT>
6

>  <SCORE.INTER.SOLV>
30.1573

>  <SCORE.INTER.VDW>
-25.3005

>  <SCORE.INTER.norm>
-1.2504

>  <SCORE.INTRA>
-1.4493

>  <SCORE.INTRA.DIHEDRAL>
-23.2176

>  <SCORE.INTRA.DIHEDRAL.0>
44.2576

>  <SCORE.INTRA.POLAR>
-0.601977

>  <SCORE.INTRA.POLAR.0>
-0.381556

>  <SCORE.INTRA.REPUL>
0

>  <SCORE.INTRA.REPUL.0>
0

>  <SCORE.INTRA.SOLV>
3.56642

>  <SCORE.INTRA.SOLV.lig_0>
-134.592

>  <SCORE.INTRA.VDW>
10.423

>  <SCORE.INTRA.VDW.0>
-1.01417

>  <SCORE.INTRA.norm>
-0.0452905

>  <SCORE.RESTR>
6.46314

>  <SCORE.RESTR.CAVITY>
6.46314

>  <SCORE.RESTR.norm>
0.201973

>  <SCORE.SYSTEM>
0

>  <SCORE.SYSTEM.CONST>
0

>  <SCORE.SYSTEM.DIHEDRAL>
0

>  <SCORE.SYSTEM.SOLV>
0

>  <SCORE.SYSTEM.norm>
0

>  <SCORE.heavy>
32

>  <SCORE.norm>
-1.09371

>  <RMSD>
31.632

$$$$
1lc4
 OpenBabel02141814113D
libRbt.so/2013.1/901 2013/11/27
 32 34  0  0  0  0  0  0  0  0999 V2000
   13.2094   -3.1253    4.1273 C   0  0  2  0  0  0  0  0  0  0  0  0
   12.1628   -3.5912    3.3127 O   0  0  0  0  0  0  0  0  0  0  0  0
   13.8539   -1.9089    3.4317 C   0  0  2  0  0  0  0  0  0  0  0  0
   12.8527   -0.8623    3.2038 N   0  3  0  0  0  0  0  0  0  0  0  0
   14.5239   -2.3463    2.1079 C   0  0  0  0  0  0  0  0  0  0  0  0
   15.5797   -3.4111    2.4533 C   0  0  2  0  0  0  0  0  0  0  0  0
   16.2746   -3.8264    1.2727 O   0  0  0  0  0  0  0  0  0  0  0  0
   14.8884   -4.6096    3.1498 C   0  0  2  0  0  0  0  0  0  0  0  0
   14.1877   -4.1655    4.3464 O   0  0  0  0  0  0  0  0  0  0  0  0
   15.8597   -5.7043    3.5845 C   0  0  0  0  0  0  0  0  0  0  0  0
   15.1813   -6.7208    4.4308 N   0  3  0  0  0  0  0  0  0  0  0  0
    9.8477   -7.1320    3.5636 C   0  0  2  0  0  0  0  0  0  0  0  0
    9.4267   -8.5449    3.5388 N   0  3  0  0  0  0  0  0  0  0  0  0
   10.3327   -6.7124    2.1827 C   0  0  0  0  0  0  0  0  0  0  0  0
   10.7770   -5.2455    2.1963 C   0  0  2  0  0  0  0  0  0  0  0  0
   11.1274   -4.8489    0.8098 N   0  3  0  0  0  0  0  0  0  0  0  0
   11.9142   -5.0093    3.2347 C   0  0  2  0  0  0  0  0  0  0  0  0
   11.4451   -5.4898    4.6321 C   0  0  2  0  0  0  0  0  0  0  0  0
   12.5241   -5.4302    5.5334 O   0  0  0  0  0  0  0  0  0  0  0  0
   10.9745   -6.9523    4.5790 C   0  0  1  0  0  0  0  0  0  0  0  0
   10.5231   -7.3394    5.8763 O   0  0  0  0  0  0  0  0  0  0  0  0
   10.7408   -8.6541    6.2579 C   0  0  2  0  0  0  0  0  0  0  0  0
    9.6998   -9.0407    7.3224 C   0  0  2  0  0  0  0  0  0  0  0  0
    8.4010   -8.8913    6.7630 O   0  0  0  0  0  0  0  0  0  0  0  0
    9.8551   -8.1228    8.5476 C   0  0  1  0  0  0  0  0  0  0  0  0
    8.8549   -8.4374    9.6081 N   0  3  0  0  0  0  0  0  0  0  0  0
   11.2953   -8.2500    9.1014 C   0  0  2  0  0  0  0  0  0  0  0  0
   11.4770   -7.3903   10.2241 O   0  0  0  0  0  0  0  0  0  0  0  0
   12.3199   -7.9250    7.9985 C   0  0  2  0  0  0  0  0  0  0  0  0
   12.0792   -8.7608    6.8085 O   0  0  0  0  0  0  0  0  0  0  0  0
   13.7411   -8.1868    8.4452 C   0  0  0  0  0  0  0  0  0  0  0  0
   13.9934   -9.5811    8.6057 O   0  0  0  0  0  0  0  0  0  0  0  0
  1  2  1  6  0  0  0
  1  3  1  0  0  0  0
  1  9  1  0  0  0  0
  3  4  1  6  0  0  0
  3  5  1  0  0  0  0
  5  6  1  0  0  0  0
  6  7  1  6  0  0  0
  6  8  1  0  0  0  0
  8  9  1  0  0  0  0
  8 10  1  1  0  0  0
 10 11  1  0  0  0  0
 12 13  1  6  0  0  0
 12 14  1  0  0  0  0
 12 20  1  0  0  0  0
 14 15  1  0  0  0  0
 15 16  1  6  0  0  0
 15 17  1  0  0  0  0
 17  2  1  1  0  0  0
 17 18  1  0  0  0  0
 18 19  1  1  0  0  0
 18 20  1  0  0  0  0
 20 21  1  1  0  0  0
 22 21  1  1  0  0  0
 22 23  1  0  0  0  0
 22 30  1  0  0  0  0
 23 24  1  6  0  0  0
 23 25  1  0  0  0  0
 25 26  1  1  0  0  0
 25 27  1  0  0  0  0
 27 28  1  1  0  0  0
 27 29  1  0  0  0  0
 29 30  1  0  0  0  0
 29 31  1  1  0  0  0
 31 32  1  0  0  0  0
M  CHG  5   4   1  11   1  13   1  16   1  26   1
M  END
>  <CHROM.1>
144.01026493,-176.12948453,-173.26701300,-94.05134208,171.02761391,-152.35057912
-174.54247667,45.00280752,-152.39392497,92.19538212,-155.15288441,176.27210628
-56.61218365,71.48880449,69.01230254,-173.69214302,12.17786437,-6.15821964
5.06744202,-1.12420739,0.37630906,2.13760524

>  <Name>
1lc4

>  <RI>
0

>  <Rbt.Current_Directory>
/home/afrankz/demos/rdock_decoys_rna/rnas/1lc4

>  <Rbt.Executable>
rbdock ($Id: //depot/dev/client3/rdock/2013.1/src/exe/rbdock.cxx#4 $)

>  <Rbt.Library>
libRbt.so (2013.1, Build901 2013/11/27)

>  <Rbt.Parameter_File>
/export/apps/rDock/src/rDock_2013.1_src/data/scripts/dock_solv.prm

>  <Rbt.Receptor>
prm/blind_docking_60.prm

>  <SCORE>
-27.2955

>  <SCORE.INTER>
-17.278

>  <SCORE.INTER.CONST>
1

>  <SCORE.INTER.POLAR>
-3.2353

>  <SCORE.INTER.ROT>
6

>  <SCORE.INTER.SOLV>
31.5739

>  <SCORE.INTER.VDW>
-18.859

>  <SCORE.INTER.norm>
-0.539939

>  <SCORE.INTRA>
-16.0414

>  <SCORE.INTRA.DIHEDRAL>
-21.4521

>  <SCORE.INTRA.DIHEDRAL.0>
44.2576

>  <SCORE.INTRA.POLAR>
-1.35241

>  <SCORE.INTRA.POLAR.0>
-0.381556

>  <SCORE.INTRA.REPUL>
0.0451619

>  <SCORE.INTRA.REPUL.0>
0

>  <SCORE.INTRA.SOLV>
0.418286

>  <SCORE.INTRA.SOLV.lig_0>
-134.592

>  <SCORE.INTRA.VDW>
-1.15212

>  <SCORE.INTRA.VDW.0>
-1.01417

>  <SCORE.INTRA.norm>
-0.501295

>  <SCORE.RESTR>
6.02396

>  <SCORE.RESTR.CAVITY>
6.02396

>  <SCORE.RESTR.norm>
0.188249

>  <SCORE.SYSTEM>
0

>  <SCORE.SYSTEM.CONST>
0

>  <SCORE.SYSTEM.DIHEDRAL>
0

>  <SCORE.SYSTEM.SOLV>
0

>  <SCORE.SYSTEM.norm>
0

>  <SCORE.heavy>
32

>  <SCORE.norm>
-0.852985

>  <RMSD>
31.677

$$$$
1lc4
 OpenBabel02141814113D
libRbt.so/2013.1/901 2013/11/27
 32 34  0  0  0  0  0  0  0  0999 V2000
   10.5535   -6.9071    4.4257 C   0  0  2  0  0  0  0  0  0  0  0  0
   10.6224   -7.7800    3.3260 O   0  0  0  0  0  0  0  0  0  0  0  0
   11.0839   -5.5295    3.9789 C   0  0  2  0  0  0  0  0  0  0  0  0
   10.2985   -5.0227    2.8493 N   0  3  0  0  0  0  0  0  0  0  0  0
   12.5859   -5.6275    3.6229 C   0  0  0  0  0  0  0  0  0  0  0  0
   13.3269   -6.1272    4.8754 C   0  0  2  0  0  0  0  0  0  0  0  0
   14.7353   -6.1950    4.6285 O   0  0  0  0  0  0  0  0  0  0  0  0
   12.7610   -7.5092    5.2870 C   0  0  2  0  0  0  0  0  0  0  0  0
   11.3287   -7.4180    5.5326 O   0  0  0  0  0  0  0  0  0  0  0  0
   13.3942   -8.0728    6.5567 C   0  0  0  0  0  0  0  0  0  0  0  0
   12.7959   -7.4627    7.7730 N   0  3  0  0  0  0  0  0  0  0  0  0
   10.2928  -11.9921    2.9949 C   0  0  2  0  0  0  0  0  0  0  0  0
   10.5408  -13.4394    3.1272 N   0  3  0  0  0  0  0  0  0  0  0  0
   11.4696  -11.3275    2.2938 C   0  0  0  0  0  0  0  0  0  0  0  0
   11.2253   -9.8209    2.1534 C   0  0  2  0  0  0  0  0  0  0  0  0
   12.3376   -9.2372    1.3630 N   0  3  0  0  0  0  0  0  0  0  0  0
   11.0102   -9.1515    3.5437 C   0  0  2  0  0  0  0  0  0  0  0  0
    9.8502   -9.8640    4.2856 C   0  0  2  0  0  0  0  0  0  0  0  0
    9.7638   -9.3711    5.6008 O   0  0  0  0  0  0  0  0  0  0  0  0
   10.1078  -11.3766    4.3806 C   0  0  1  0  0  0  0  0  0  0  0  0
    9.0022  -11.9927    5.0400 O   0  0  0  0  0  0  0  0  0  0  0  0
    9.1677  -12.3320    6.3737 C   0  0  2  0  0  0  0  0  0  0  0  0
    8.1946  -13.4719    6.7201 C   0  0  2  0  0  0  0  0  0  0  0  0
    8.4813  -14.5844    5.8822 O   0  0  0  0  0  0  0  0  0  0  0  0
    6.7486  -12.9980    6.4912 C   0  0  1  0  0  0  0  0  0  0  0  0
    5.7578  -14.0716    6.7912 N   0  3  0  0  0  0  0  0  0  0  0  0
    6.4775  -11.7470    7.3620 C   0  0  2  0  0  0  0  0  0  0  0  0
    5.1508  -11.2692    7.1516 O   0  0  0  0  0  0  0  0  0  0  0  0
    7.5065  -10.6457    7.0459 C   0  0  2  0  0  0  0  0  0  0  0  0
    8.8784  -11.1658    7.1875 O   0  0  0  0  0  0  0  0  0  0  0  0
    7.3814   -9.4628    7.9803 C   0  0  0  0  0  0  0  0  0  0  0  0
    8.5787   -8.6891    8.0126 O   0  0  0  0  0  0  0  0  0  0  0  0
  1  2  1  6  0  0  0
  1  3  1  0  0  0  0
  1  9  1  0  0  0  0
  3  4  1  6  0  0  0
  3  5  1  0  0  0  0
  5  6  1  0  0  0  0
  6  7  1  6  0  0  0
  6  8  1  0  0  0  0
  8  9  1  0  0  0  0
  8 10  1  1  0  0  0
 10 11  1  0  0  0  0
 12 13  1  1  0  0  0
 12 14  1  0  0  0  0
 12 20  1  0  0  0  0
 14 15  1  0  0  0  0
 15 16  1  1  0  0  0
 15 17  1  0  0  0  0
 17  2  1  6  0  0  0
 17 18  1  0  0  0  0
 18 19  1  1  0  0  0
 18 20  1  0  0  0  0
 20 21  1  6  0  0  0
 22 21  1  6  0  0  0
 22 23  1  0  0  0  0
 22 30  1  0  0  0  0
 23 24  1  6  0  0  0
 23 25  1  0  0  0  0
 25 26  1  1  0  0  0
 25 27  1  0  0  0  0
 27 28  1  6  0  0  0
 27 29  1  0  0  0  0
 29 30  1  0  0  0  0
 29 31  1  1  0  0  0
 31 32  1  0  0  0  0
M  CHG  5   4   1  11   1  13   1  16   1  26   1
M  END
>  <CHROM.1>
141.46214516,-171.03177008,45.92072274,146.56775225,80.15857479,157.87308198
-66.99869362,52.44273113,90.53381179,136.28579576,-155.59862183,-63.08915999
-155.64204773,-54.61085961,159.31098898,144.19037538,10.03203634,-9.73858514
5.15969910,0.43793302,0.80842820,0.62500029

>  <Name>
1lc4

>  <RI>
0

>  <Rbt.Current_Directory>
/home/afrankz/demos/rdock_decoys_rna/rnas/1lc4

>  <Rbt.Executable>
rbdock ($Id: //depot/dev/client3/rdock/2013.1/src/exe/rbdock.cxx#4 $)

>  <Rbt.Library>
libRbt.so (2013.1, Build901 2013/11/27)

>  <Rbt.Parameter_File>
/export/apps/rDock/src/rDock_2013.1_src/data/scripts/dock_solv.prm

>  <Rbt.Receptor>
prm/blind_docking_20.prm

>  <SCORE>
-28.1908

>  <SCORE.INTER>
-25.1139

>  <SCORE.INTER.CONST>
1

>  <SCORE.INTER.POLAR>
-4.76081

>  <SCORE.INTER.ROT>
6

>  <SCORE.INTER.SOLV>
39.712

>  <SCORE.INTER.VDW>
-21.7105

>  <SCORE.INTER.norm>
-0.784808

>  <SCORE.INTRA>
-7.04326

>  <SCORE.INTRA.DIHEDRAL>
-11.4815

>  <SCORE.INTRA.DIHEDRAL.0>
44.2576

>  <SCORE.INTRA.POLAR>
0.143052

>  <SCORE.INTRA.POLAR.0>
-0.381556

>  <SCORE.INTRA.REPUL>
0.269818

>  <SCORE.INTRA.REPUL.0>
0

>  <SCORE.INTRA.SOLV>
-1.51868

>  <SCORE.INTRA.SOLV.lig_0>
-134.592

>  <SCORE.INTRA.VDW>
-2.37866

>  <SCORE.INTRA.VDW.0>
-1.01417

>  <SCORE.INTRA.norm>
-0.220102

>  <SCORE.RESTR>
3.96637

>  <SCORE.RESTR.CAVITY>
3.96637

>  <SCORE.RESTR.norm>
0.123949

>  <SCORE.SYSTEM>
0

>  <SCORE.SYSTEM.CONST>
0

>  <SCORE.SYSTEM.DIHEDRAL>
0

>  <SCORE.SYSTEM.SOLV>
0

>  <SCORE.SYSTEM.norm>
0

>  <SCORE.heavy>
32

>  <SCORE.norm>
-0.880961

>  <RMSD>
31.720

$$$$
1lc4
 OpenBabel02141814113D
libRbt.so/2013.1/901 2013/11/27
 32 34  0  0  0  0  0  0  0  0999 V2000
   10.8232   -4.1324    0.7965 C   0  0  2  0  0  0  0  0  0  0  0  0
   11.5848   -3.3286    1.6624 O   0  0  0  0  0  0  0  0  0  0  0  0
   11.3043   -3.8736   -0.6459 C   0  0  2  0  0  0  0  0  0  0  0  0
   12.7349   -4.1707   -0.7672 N   0  3  0  0  0  0  0  0  0  0  0  0
   10.9943   -2.4149   -1.0565 C   0  0  0  0  0  0  0  0  0  0  0  0
    9.4738   -2.2128   -0.9346 C   0  0  2  0  0  0  0  0  0  0  0  0
    9.1111   -0.8912   -1.3482 O   0  0  0  0  0  0  0  0  0  0  0  0
    9.0373   -2.4845    0.5266 C   0  0  2  0  0  0  0  0  0  0  0  0
    9.4160   -3.8323    0.9267 O   0  0  0  0  0  0  0  0  0  0  0  0
    7.5312   -2.3631    0.7448 C   0  0  0  0  0  0  0  0  0  0  0  0
    6.9200   -3.6882    1.0280 N   0  3  0  0  0  0  0  0  0  0  0  0
   13.6539   -6.1616    4.0401 C   0  0  2  0  0  0  0  0  0  0  0  0
   14.2358   -6.8806    5.1883 N   0  3  0  0  0  0  0  0  0  0  0  0
   14.2422   -4.7597    3.9555 C   0  0  0  0  0  0  0  0  0  0  0  0
   13.6421   -4.0002    2.7671 C   0  0  2  0  0  0  0  0  0  0  0  0
   14.3284   -2.6893    2.6537 N   0  3  0  0  0  0  0  0  0  0  0  0
   12.0917   -3.9011    2.8848 C   0  0  2  0  0  0  0  0  0  0  0  0
   11.4931   -5.3239    3.0301 C   0  0  2  0  0  0  0  0  0  0  0  0
   10.1158   -5.2262    3.3010 O   0  0  0  0  0  0  0  0  0  0  0  0
   12.1384   -6.0719    4.2080 C   0  0  1  0  0  0  0  0  0  0  0  0
   11.5814   -7.3838    4.2826 O   0  0  0  0  0  0  0  0  0  0  0  0
   10.2962   -7.4997    4.7885 C   0  0  2  0  0  0  0  0  0  0  0  0
   10.3812   -7.8462    6.2848 C   0  0  2  0  0  0  0  0  0  0  0  0
   11.0890   -6.8088    6.9518 O   0  0  0  0  0  0  0  0  0  0  0  0
   11.1195   -9.1850    6.4593 C   0  0  1  0  0  0  0  0  0  0  0  0
   11.2518   -9.5637    7.8956 N   0  3  0  0  0  0  0  0  0  0  0  0
   10.3704  -10.2874    5.6715 C   0  0  2  0  0  0  0  0  0  0  0  0
   11.0466  -11.5366    5.7940 O   0  0  0  0  0  0  0  0  0  0  0  0
   10.2377   -9.8860    4.1906 C   0  0  2  0  0  0  0  0  0  0  0  0
    9.6097   -8.5579    4.0707 O   0  0  0  0  0  0  0  0  0  0  0  0
    9.3773  -10.8560    3.4116 C   0  0  0  0  0  0  0  0  0  0  0  0
    9.9591  -12.1572    3.3682 O   0  0  0  0  0  0  0  0  0  0  0  0
  1  2  1  1  0  0  0
  1  3  1  0  0  0  0
  1  9  1  0  0  0  0
  3  4  1  1  0  0  0
  3  5  1  0  0  0  0
  5  6  1  0  0  0  0
  6  7  1  1  0  0  0
  6  8  1  0  0  0  0
  8  9  1  0  0  0  0
  8 10  1  6  0  0  0
 10 11  1  0  0  0  0
 12 13  1  1  0  0  0
 12 14  1  0  0  0  0
 12 20  1  0  0  0  0
 14 15  1  0  0  0  0
 15 16  1  1  0  0  0
 15 17  1  0  0  0  0
 17  2  1  6  0  0  0
 17 18  1  0  0  0  0
 18 19  1  1  0  0  0
 18 20  1  0  0  0  0
 20 21  1  6  0  0  0
 22 21  1  6  0  0  0
 22 23  1  0  0  0  0
 22 30  1  0  0  0  0
 23 24  1  1  0  0  0
 23 25  1  0  0  0  0
 25 26  1  1  0  0  0
 25 27  1  0  0  0  0
 27 28  1  6  0  0  0
 27 29  1  0  0  0  0
 29 30  1  0  0  0  0
 29 31  1  6  0  0  0
 31 32  1  0  0  0  0
M  CHG  5   4   1  11   1  13   1  16   1  26   1
M  END
>  <CHROM.1>
-136.10757881,111.55311366,19.36183358,177.55025663,111.08405350,-173.55853161
31.42810382,62.23587075,-66.25282978,163.04230092,-96.04304470,-69.24992834
-53.19857738,68.58962028,-63.59939970,-164.28333965,10.97110268,-5.96411677
3.02659725,1.65096367,-0.46214637,-0.62532274

>  <Name>
1lc4

>  <RI>
0

>  <Rbt.Current_Directory>
/home/afrankz/demos/rdock_decoys_rna/rnas/1lc4

>  <Rbt.Executable>
rbdock ($Id: //depot/dev/client3/rdock/2013.1/src/exe/rbdock.cxx#4 $)

>  <Rbt.Library>
libRbt.so (2013.1, Build901 2013/11/27)

>  <Rbt.Parameter_File>
/export/apps/rDock/src/rDock_2013.1_src/data/scripts/dock_solv.prm

>  <Rbt.Receptor>
prm/blind_docking_20.prm

>  <SCORE>
-27.878

>  <SCORE.INTER>
-28.9922

>  <SCORE.INTER.CONST>
1

>  <SCORE.INTER.POLAR>
-5.12263

>  <SCORE.INTER.ROT>
6

>  <SCORE.INTER.SOLV>
29.5068

>  <SCORE.INTER.VDW>
-19.6883

>  <SCORE.INTER.norm>
-0.906005

>  <SCORE.INTRA>
-4.01708

>  <SCORE.INTRA.DIHEDRAL>
-13.4749

>  <SCORE.INTRA.DIHEDRAL.0>
44.2576

>  <SCORE.INTRA.POLAR>
0.320356

>  <SCORE.INTRA.POLAR.0>
-0.381556

>  <SCORE.INTRA.REPUL>
0

>  <SCORE.INTRA.REPUL.0>
0

>  <SCORE.INTRA.SOLV>
-0.12342

>  <SCORE.INTRA.SOLV.lig_0>
-134.592

>  <SCORE.INTRA.VDW>
1.69286

>  <SCORE.INTRA.VDW.0>
-1.01417

>  <SCORE.INTRA.norm>
-0.125534

>  <SCORE.RESTR>
5.13128

>  <SCORE.RESTR.CAVITY>
5.13128

>  <SCORE.RESTR.norm>
0.160352

>  <SCORE.SYSTEM>
0

>  <SCORE.SYSTEM.CONST>
0

>  <SCORE.SYSTEM.DIHEDRAL>
0

>  <SCORE.SYSTEM.SOLV>
0

>  <SCORE.SYSTEM.norm>
0

>  <SCORE.heavy>
32

>  <SCORE.norm>
-0.871186

>  <RMSD>
31.723

$$$$
1lc4
 OpenBabel02141814113D
libRbt.so/2013.1/901 2013/11/27
 32 34  0  0  0  0  0  0  0  0999 V2000
    8.8176  -12.5840    5.5685 C   0  0  2  0  0  0  0  0  0  0  0  0
    8.3286  -12.3683    4.2683 O   0  0  0  0  0  0  0  0  0  0  0  0
    7.6159  -12.8711    6.4917 C   0  0  2  0  0  0  0  0  0  0  0  0
    6.8669  -14.0345    6.0068 N   0  3  0  0  0  0  0  0  0  0  0  0
    6.7118  -11.6201    6.5927 C   0  0  0  0  0  0  0  0  0  0  0  0
    7.5726  -10.4702    7.1445 C   0  0  2  0  0  0  0  0  0  0  0  0
    6.7811   -9.2888    7.3092 O   0  0  0  0  0  0  0  0  0  0  0  0
    8.7649  -10.2195    6.1880 C   0  0  2  0  0  0  0  0  0  0  0  0
    9.5554  -11.4326    6.0342 O   0  0  0  0  0  0  0  0  0  0  0  0
    9.7159   -9.1283    6.6734 C   0  0  0  0  0  0  0  0  0  0  0  0
   10.4186   -9.5408    7.9166 N   0  3  0  0  0  0  0  0  0  0  0  0
   11.8162  -10.4277    2.8434 C   0  0  2  0  0  0  0  0  0  0  0  0
   12.8216   -9.8034    1.9639 N   0  3  0  0  0  0  0  0  0  0  0  0
   11.6202  -11.8859    2.4516 C   0  0  0  0  0  0  0  0  0  0  0  0
   10.5739  -12.5455    3.3569 C   0  0  2  0  0  0  0  0  0  0  0  0
   10.5033  -13.9885    3.0176 N   0  3  0  0  0  0  0  0  0  0  0  0
    9.2069  -11.8026    3.2747 C   0  0  2  0  0  0  0  0  0  0  0  0
    9.4124  -10.3043    3.6162 C   0  0  2  0  0  0  0  0  0  0  0  0
    8.2150   -9.6031    3.3826 O   0  0  0  0  0  0  0  0  0  0  0  0
   10.4905   -9.6800    2.7153 C   0  0  1  0  0  0  0  0  0  0  0  0
   10.6678   -8.3135    3.0866 O   0  0  0  0  0  0  0  0  0  0  0  0
   11.8146   -7.6775    2.6374 C   0  0  2  0  0  0  0  0  0  0  0  0
   12.1831   -6.5605    3.6287 C   0  0  2  0  0  0  0  0  0  0  0  0
   12.4027   -7.1422    4.9076 O   0  0  0  0  0  0  0  0  0  0  0  0
   11.0323   -5.5418    3.7033 C   0  0  1  0  0  0  0  0  0  0  0  0
   11.3244   -4.4429    4.6682 N   0  3  0  0  0  0  0  0  0  0  0  0
   10.7648   -4.9695    2.2898 C   0  0  2  0  0  0  0  0  0  0  0  0
    9.6846   -4.0396    2.3230 O   0  0  0  0  0  0  0  0  0  0  0  0
   10.4661   -6.1119    1.3012 C   0  0  2  0  0  0  0  0  0  0  0  0
   11.5479   -7.1127    1.3275 O   0  0  0  0  0  0  0  0  0  0  0  0
   10.3526   -5.6180   -0.1239 C   0  0  0  0  0  0  0  0  0  0  0  0
   11.4164   -4.7295   -0.4589 O   0  0  0  0  0  0  0  0  0  0  0  0
  1  2  1  6  0  0  0
  1  3  1  0  0  0  0
  1  9  1  0  0  0  0
  3  4  1  6  0  0  0
  3  5  1  0  0  0  0
  5  6  1  0  0  0  0
  6  7  1  6  0  0  0
  6  8  1  0  0  0  0
  8  9  1  0  0  0  0
  8 10  1  1  0  0  0
 10 11  1  0  0  0  0
 12 13  1  6  0  0  0
 12 14  1  0  0  0  0
 12 20  1  0  0  0  0
 14 15  1  0  0  0  0
 15 16  1  6  0  0  0
 15 17  1  0  0  0  0
 17  2  1  1  0  0  0
 17 18  1  0  0  0  0
 18 19  1  6  0  0  0
 18 20  1  0  0  0  0
 20 21  1  1  0  0  0
 22 21  1  1  0  0  0
 22 23  1  0  0  0  0
 22 30  1  0  0  0  0
 23 24  1  1  0  0  0
 23 25  1  0  0  0  0
 25 26  1  1  0  0  0
 25 27  1  0  0  0  0
 27 28  1  1  0  0  0
 27 29  1  0  0  0  0
 29 30  1  0  0  0  0
 29 31  1  6  0  0  0
 31 32  1  0  0  0  0
M  CHG  5   4   1  11   1  13   1  16   1  26   1
M  END
>  <CHROM.1>
166.88418042,45.88402226,55.24716107,-77.48004104,66.42354498,-174.69200309
-137.99948884,-174.01611207,32.80952722,41.99932560,-152.30061962,177.12648631
58.64171327,-69.04285144,46.25700262,50.43526743,9.98668015,-9.21614269,3.94935351
-2.34946199,1.03933862,0.18289263

>  <Name>
1lc4

>  <RI>
0

>  <Rbt.Current_Directory>
/home/afrankz/demos/rdock_decoys_rna/rnas/1lc4

>  <Rbt.Executable>
rbdock ($Id: //depot/dev/client3/rdock/2013.1/src/exe/rbdock.cxx#4 $)

>  <Rbt.Library>
libRbt.so (2013.1, Build901 2013/11/27)

>  <Rbt.Parameter_File>
/export/apps/rDock/src/rDock_2013.1_src/data/scripts/dock_solv.prm

>  <Rbt.Receptor>
prm/blind_docking_20.prm

>  <SCORE>
-20.9261

>  <SCORE.INTER>
-18.8527

>  <SCORE.INTER.CONST>
1

>  <SCORE.INTER.POLAR>
-3.84096

>  <SCORE.INTER.ROT>
6

>  <SCORE.INTER.SOLV>
29.6608

>  <SCORE.INTER.VDW>
-17.2522

>  <SCORE.INTER.norm>
-0.589147

>  <SCORE.INTRA>
-4.76449

>  <SCORE.INTRA.DIHEDRAL>
-28.5152

>  <SCORE.INTRA.DIHEDRAL.0>
44.2576

>  <SCORE.INTRA.POLAR>
-0.101332

>  <SCORE.INTRA.POLAR.0>
-0.381556

>  <SCORE.INTRA.REPUL>
0

>  <SCORE.INTRA.REPUL.0>
0

>  <SCORE.INTRA.SOLV>
0.318715

>  <SCORE.INTRA.SOLV.lig_0>
-134.592

>  <SCORE.INTRA.VDW>
9.6783

>  <SCORE.INTRA.VDW.0>
-1.01417

>  <SCORE.INTRA.norm>
-0.14889

>  <SCORE.RESTR>
2.6911

>  <SCORE.RESTR.CAVITY>
2.6911

>  <SCORE.RESTR.norm>
0.0840968

>  <SCORE.SYSTEM>
0

>  <SCORE.SYSTEM.CONST>
0

>  <SCORE.SYSTEM.DIHEDRAL>
0

>  <SCORE.SYSTEM.SOLV>
0

>  <SCORE.SYSTEM.norm>
0

>  <SCORE.heavy>
32

>  <SCORE.norm>
-0.65394

>  <RMSD>
31.754

$$$$
1lc4
 OpenBabel02141814113D
libRbt.so/2013.1/901 2013/11/27
 32 34  0  0  0  0  0  0  0  0999 V2000
    8.8253  -12.4367    5.5189 C   0  0  2  0  0  0  0  0  0  0  0  0
    8.3792  -11.9943    4.2614 O   0  0  0  0  0  0  0  0  0  0  0  0
    7.5876  -12.7272    6.3922 C   0  0  2  0  0  0  0  0  0  0  0  0
    6.7339  -13.7307    5.7490 N   0  3  0  0  0  0  0  0  0  0  0  0
    6.8109  -11.4180    6.6666 C   0  0  0  0  0  0  0  0  0  0  0  0
    7.7736  -10.4483    7.3743 C   0  0  2  0  0  0  0  0  0  0  0  0
    7.1011   -9.2278    7.7020 O   0  0  0  0  0  0  0  0  0  0  0  0
    8.9988  -10.1881    6.4629 C   0  0  2  0  0  0  0  0  0  0  0  0
    9.6670  -11.4412    6.1414 O   0  0  0  0  0  0  0  0  0  0  0  0
   10.0463   -9.2761    7.0966 C   0  0  0  0  0  0  0  0  0  0  0  0
    9.4486   -7.9823    7.5191 N   0  3  0  0  0  0  0  0  0  0  0  0
   12.0712  -10.4532    2.8635 C   0  0  2  0  0  0  0  0  0  0  0  0
   13.1674   -9.9986    1.9885 N   0  3  0  0  0  0  0  0  0  0  0  0
   11.7971  -11.9316    2.6238 C   0  0  0  0  0  0  0  0  0  0  0  0
   10.6561  -12.4157    3.5255 C   0  0  2  0  0  0  0  0  0  0  0  0
   10.5048  -13.8809    3.3444 N   0  3  0  0  0  0  0  0  0  0  0  0
    9.3515  -11.6029    3.2714 C   0  0  2  0  0  0  0  0  0  0  0  0
    9.6408  -10.0911    3.4574 C   0  0  2  0  0  0  0  0  0  0  0  0
    8.5109   -9.3477    3.0690 O   0  0  0  0  0  0  0  0  0  0  0  0
   10.8106   -9.6435    2.5660 C   0  0  1  0  0  0  0  0  0  0  0  0
   11.0609   -8.2572    2.7944 O   0  0  0  0  0  0  0  0  0  0  0  0
   10.3666   -7.6489    3.8284 C   0  0  2  0  0  0  0  0  0  0  0  0
   10.2501   -6.1443    3.5302 C   0  0  2  0  0  0  0  0  0  0  0  0
    9.5595   -5.9774    2.2984 O   0  0  0  0  0  0  0  0  0  0  0  0
   11.6580   -5.5311    3.4328 C   0  0  1  0  0  0  0  0  0  0  0  0
   11.6091   -4.0731    3.1229 N   0  3  0  0  0  0  0  0  0  0  0  0
   12.4168   -5.7815    4.7589 C   0  0  2  0  0  0  0  0  0  0  0  0
   13.7361   -5.2456    4.6891 O   0  0  0  0  0  0  0  0  0  0  0  0
   12.4601   -7.2891    5.0704 C   0  0  2  0  0  0  0  0  0  0  0  0
   11.0997   -7.8564    5.0635 O   0  0  0  0  0  0  0  0  0  0  0  0
   13.0529   -7.5732    6.4327 C   0  0  0  0  0  0  0  0  0  0  0  0
   14.3496   -6.9968    6.5726 O   0  0  0  0  0  0  0  0  0  0  0  0
  1  2  1  6  0  0  0
  1  3  1  0  0  0  0
  1  9  1  0  0  0  0
  3  4  1  6  0  0  0
  3  5  1  0  0  0  0
  5  6  1  0  0  0  0
  6  7  1  6  0  0  0
  6  8  1  0  0  0  0
  8  9  1  0  0  0  0
  8 10  1  1  0  0  0
 10 11  1  0  0  0  0
 12 13  1  6  0  0  0
 12 14  1  0  0  0  0
 12 20  1  0  0  0  0
 14 15  1  0  0  0  0
 15 16  1  6  0  0  0
 15 17  1  0  0  0  0
 17  2  1  1  0  0  0
 17 18  1  0  0  0  0
 18 19  1  6  0  0  0
 18 20  1  0  0  0  0
 20 21  1  1  0  0  0
 22 21  1  6  0  0  0
 22 23  1  0  0  0  0
 22 30  1  0  0  0  0
 23 24  1  6  0  0  0
 23 25  1  0  0  0  0
 25 26  1  1  0  0  0
 25 27  1  0  0  0  0
 27 28  1  6  0  0  0
 27 29  1  0  0  0  0
 29 30  1  0  0  0  0
 29 31  1  1  0  0  0
 31 32  1  0  0  0  0
M  CHG  5   4   1  11   1  13   1  16   1  26   1
M  END
>  <CHROM.1>
177.53459716,28.94572892,66.07947704,-65.38489801,-55.56069846,68.32438236
-146.65844251,-174.79412617,15.39815569,-114.40322819,-154.28387337,170.08828782
-173.31030763,70.25884309,-55.35617434,148.86971299,10.30323487,-9.28836472
4.66119738,-2.48202565,0.82710781,0.55787848

>  <Name>
1lc4

>  <RI>
0

>  <Rbt.Current_Directory>
/home/afrankz/demos/rdock_decoys_rna/rnas/1lc4

>  <Rbt.Executable>
rbdock ($Id: //depot/dev/client3/rdock/2013.1/src/exe/rbdock.cxx#4 $)

>  <Rbt.Library>
libRbt.so (2013.1, Build901 2013/11/27)

>  <Rbt.Parameter_File>
/export/apps/rDock/src/rDock_2013.1_src/data/scripts/dock_solv.prm

>  <Rbt.Receptor>
prm/blind_docking_20.prm

>  <SCORE>
-36.9399

>  <SCORE.INTER>
-37.2562

>  <SCORE.INTER.CONST>
1

>  <SCORE.INTER.POLAR>
-5.91158

>  <SCORE.INTER.ROT>
6

>  <SCORE.INTER.SOLV>
30.0126

>  <SCORE.INTER.VDW>
-22.7364

>  <SCORE.INTER.norm>
-1.16426

>  <SCORE.INTRA>
-2.96695

>  <SCORE.INTRA.DIHEDRAL>
-16.7722

>  <SCORE.INTRA.DIHEDRAL.0>
44.2576

>  <SCORE.INTRA.POLAR>
0.195219

>  <SCORE.INTRA.POLAR.0>
-0.381556

>  <SCORE.INTRA.REPUL>
0

>  <SCORE.INTRA.REPUL.0>
0

>  <SCORE.INTRA.SOLV>
2.03434

>  <SCORE.INTRA.SOLV.lig_0>
-134.592

>  <SCORE.INTRA.VDW>
3.73823

>  <SCORE.INTRA.VDW.0>
-1.01417

>  <SCORE.INTRA.norm>
-0.0927171

>  <SCORE.RESTR>
3.28324

>  <SCORE.RESTR.CAVITY>
3.28324

>  <SCORE.RESTR.norm>
0.102601

>  <SCORE.SYSTEM>
0

>  <SCORE.SYSTEM.CONST>
0

>  <SCORE.SYSTEM.DIHEDRAL>
0

>  <SCORE.SYSTEM.SOLV>
0

>  <SCORE.SYSTEM.norm>
0

>  <SCORE.heavy>
32

>  <SCORE.norm>
-1.15437

>  <RMSD>
31.781

$$$$
1lc4
 OpenBabel02141814113D
libRbt.so/2013.1/901 2013/11/27
 32 34  0  0  0  0  0  0  0  0999 V2000
    9.0157  -12.1665    5.8709 C   0  0  2  0  0  0  0  0  0  0  0  0
    8.3965  -12.0941    4.6110 O   0  0  0  0  0  0  0  0  0  0  0  0
    8.3727  -13.3282    6.6556 C   0  0  2  0  0  0  0  0  0  0  0  0
    8.5225  -14.5863    5.9178 N   0  3  0  0  0  0  0  0  0  0  0  0
    6.8852  -13.0168    6.9436 C   0  0  0  0  0  0  0  0  0  0  0  0
    6.8342  -11.7076    7.7504 C   0  0  2  0  0  0  0  0  0  0  0  0
    5.4823  -11.3851    8.0937 O   0  0  0  0  0  0  0  0  0  0  0  0
    7.4909  -10.5727    6.9257 C   0  0  2  0  0  0  0  0  0  0  0  0
    8.8635  -10.9210    6.5870 O   0  0  0  0  0  0  0  0  0  0  0  0
    7.5406   -9.2358    7.6612 C   0  0  0  0  0  0  0  0  0  0  0  0
    8.7958   -8.5001    7.3564 N   0  3  0  0  0  0  0  0  0  0  0  0
   11.7986  -10.7167    2.4923 C   0  0  2  0  0  0  0  0  0  0  0  0
   12.6723  -10.1132    1.4694 N   0  3  0  0  0  0  0  0  0  0  0  0
   11.0281  -11.8843    1.8910 C   0  0  0  0  0  0  0  0  0  0  0  0
   10.1128  -12.5183    2.9443 C   0  0  2  0  0  0  0  0  0  0  0  0
    9.4748  -13.7190    2.3493 N   0  3  0  0  0  0  0  0  0  0  0  0
    9.1048  -11.4775    3.5170 C   0  0  2  0  0  0  0  0  0  0  0  0
    9.8834  -10.2597    4.0778 C   0  0  2  0  0  0  0  0  0  0  0  0
    8.9730   -9.2510    4.4435 O   0  0  0  0  0  0  0  0  0  0  0  0
   10.8169   -9.6672    3.0096 C   0  0  1  0  0  0  0  0  0  0  0  0
   11.5343   -8.5728    3.5792 O   0  0  0  0  0  0  0  0  0  0  0  0
   10.7903   -7.5756    4.1904 C   0  0  2  0  0  0  0  0  0  0  0  0
   11.4086   -6.2109    3.8418 C   0  0  2  0  0  0  0  0  0  0  0  0
   11.3916   -6.0520    2.4288 O   0  0  0  0  0  0  0  0  0  0  0  0
   12.8560   -6.1568    4.3612 C   0  0  1  0  0  0  0  0  0  0  0  0
   13.5163   -4.8606    4.0326 N   0  3  0  0  0  0  0  0  0  0  0  0
   12.8589   -6.3980    5.8905 C   0  0  2  0  0  0  0  0  0  0  0  0
   14.1914   -6.3787    6.3972 O   0  0  0  0  0  0  0  0  0  0  0  0
   12.1736   -7.7375    6.2190 C   0  0  2  0  0  0  0  0  0  0  0  0
   10.8252   -7.7859    5.6259 O   0  0  0  0  0  0  0  0  0  0  0  0
   12.0114   -7.9450    7.7085 C   0  0  0  0  0  0  0  0  0  0  0  0
   11.2707   -9.1289    7.9969 O   0  0  0  0  0  0  0  0  0  0  0  0
  1  2  1  6  0  0  0
  1  3  1  0  0  0  0
  1  9  1  0  0  0  0
  3  4  1  6  0  0  0
  3  5  1  0  0  0  0
  5  6  1  0  0  0  0
  6  7  1  6  0  0  0
  6  8  1  0  0  0  0
  8  9  1  0  0  0  0
  8 10  1  1  0  0  0
 10 11  1  0  0  0  0
 12 13  1  6  0  0  0
 12 14  1  0  0  0  0
 12 20  1  0  0  0  0
 14 15  1  0  0  0  0
 15 16  1  6  0  0  0
 15 17  1  0  0  0  0
 17  2  1  1  0  0  0
 17 18  1  0  0  0  0
 18 19  1  6  0  0  0
 18 20  1  0  0  0  0
 20 21  1  1  0  0  0
 22 21  1  6  0  0  0
 22 23  1  0  0  0  0
 22 30  1  0  0  0  0
 23 24  1  6  0  0  0
 23 25  1  0  0  0  0
 25 26  1  1  0  0  0
 25 27  1  0  0  0  0
 27 28  1  6  0  0  0
 27 29  1  0  0  0  0
 29 30  1  0  0  0  0
 29 31  1  1  0  0  0
 31 32  1  0  0  0  0
M  CHG  5   4   1  11   1  13   1  16   1  26   1
M  END
>  <CHROM.1>
-156.50256480,80.23017798,48.90131529,-39.79724273,143.30160799,179.33750893
73.52260552,-62.40462460,43.94901969,-175.17093934,-139.95926943,66.87633723
50.72415936,177.24257144,174.77531517,55.80502522,10.16260644,-9.73014925
5.08910099,-2.79291119,0.84791880,0.84441262

>  <Name>
1lc4

>  <RI>
0

>  <Rbt.Current_Directory>
/home/afrankz/demos/rdock_decoys_rna/rnas/1lc4

>  <Rbt.Executable>
rbdock ($Id: //depot/dev/client3/rdock/2013.1/src/exe/rbdock.cxx#4 $)

>  <Rbt.Library>
libRbt.so (2013.1, Build901 2013/11/27)

>  <Rbt.Parameter_File>
/export/apps/rDock/src/rDock_2013.1_src/data/scripts/dock_solv.prm

>  <Rbt.Receptor>
prm/blind_docking_20.prm

>  <SCORE>
-49.0117

>  <SCORE.INTER>
-38.0409

>  <SCORE.INTER.CONST>
1

>  <SCORE.INTER.POLAR>
-5.9514

>  <SCORE.INTER.ROT>
6

>  <SCORE.INTER.SOLV>
25.3057

>  <SCORE.INTER.VDW>
-21.5578

>  <SCORE.INTER.norm>
-1.18878

>  <SCORE.INTRA>
-13.4763

>  <SCORE.INTRA.DIHEDRAL>
-26.4395

>  <SCORE.INTRA.DIHEDRAL.0>
44.2576

>  <SCORE.INTRA.POLAR>
-1.90231

>  <SCORE.INTRA.POLAR.0>
-0.381556

>  <SCORE.INTRA.REPUL>
0.303315

>  <SCORE.INTRA.REPUL.0>
0

>  <SCORE.INTRA.SOLV>
6.31541

>  <SCORE.INTRA.SOLV.lig_0>
-134.592

>  <SCORE.INTRA.VDW>
1.53695

>  <SCORE.INTRA.VDW.0>
-1.01417

>  <SCORE.INTRA.norm>
-0.421136

>  <SCORE.RESTR>
2.50546

>  <SCORE.RESTR.CAVITY>
2.50546

>  <SCORE.RESTR.norm>
0.0782957

>  <SCORE.SYSTEM>
0

>  <SCORE.SYSTEM.CONST>
0

>  <SCORE.SYSTEM.DIHEDRAL>
0

>  <SCORE.SYSTEM.SOLV>
0

>  <SCORE.SYSTEM.norm>
0

>  <SCORE.heavy>
32

>  <SCORE.norm>
-1.53162

>  <RMSD>
31.818

$$$$
1lc4
 OpenBabel02141814113D
libRbt.so/2013.1/901 2013/11/27
 32 34  0  0  0  0  0  0  0  0999 V2000
   11.7716   -5.8473    5.3277 C   0  0  2  0  0  0  0  0  0  0  0  0
   11.1760   -5.9452    4.0582 O   0  0  0  0  0  0  0  0  0  0  0  0
   13.0976   -6.6345    5.2977 C   0  0  2  0  0  0  0  0  0  0  0  0
   13.9815   -6.1049    4.2547 N   0  3  0  0  0  0  0  0  0  0  0  0
   12.8172   -8.1412    5.0880 C   0  0  0  0  0  0  0  0  0  0  0  0
   11.9198   -8.6107    6.2464 C   0  0  2  0  0  0  0  0  0  0  0  0
   11.6602  -10.0144    6.1395 O   0  0  0  0  0  0  0  0  0  0  0  0
   10.6041   -7.7931    6.2377 C   0  0  2  0  0  0  0  0  0  0  0  0
   10.8908   -6.3698    6.3467 O   0  0  0  0  0  0  0  0  0  0  0  0
    9.6609   -8.1452    7.3854 C   0  0  0  0  0  0  0  0  0  0  0  0
    8.8813   -9.3744    7.0835 N   0  3  0  0  0  0  0  0  0  0  0  0
   12.2689   -2.8742    1.3499 C   0  0  2  0  0  0  0  0  0  0  0  0
   12.2424   -1.6685    0.5017 N   0  3  0  0  0  0  0  0  0  0  0  0
   11.1852   -3.8456    0.9023 C   0  0  0  0  0  0  0  0  0  0  0  0
   11.2001   -5.1025    1.7794 C   0  0  2  0  0  0  0  0  0  0  0  0
   10.2119   -6.0663    1.2343 N   0  3  0  0  0  0  0  0  0  0  0  0
   10.9835   -4.7464    3.2806 C   0  0  2  0  0  0  0  0  0  0  0  0
   12.0500   -3.7124    3.7248 C   0  0  2  0  0  0  0  0  0  0  0  0
   11.7560   -3.2678    5.0271 O   0  0  0  0  0  0  0  0  0  0  0  0
   12.0335   -2.4796    2.8066 C   0  0  1  0  0  0  0  0  0  0  0  0
   13.0500   -1.5730    3.2326 O   0  0  0  0  0  0  0  0  0  0  0  0
   14.0250   -2.0676    4.0847 C   0  0  2  0  0  0  0  0  0  0  0  0
   14.7515   -0.8846    4.7472 C   0  0  2  0  0  0  0  0  0  0  0  0
   13.7998   -0.1144    5.4705 O   0  0  0  0  0  0  0  0  0  0  0  0
   15.4156   -0.0189    3.6622 C   0  0  1  0  0  0  0  0  0  0  0  0
   16.1198    1.1594    4.2451 N   0  3  0  0  0  0  0  0  0  0  0  0
   16.3982   -0.8914    2.8435 C   0  0  2  0  0  0  0  0  0  0  0  0
   17.0111   -0.1209    1.8123 O   0  0  0  0  0  0  0  0  0  0  0  0
   15.6618   -2.1056    2.2477 C   0  0  2  0  0  0  0  0  0  0  0  0
   14.9631   -2.8557    3.3069 O   0  0  0  0  0  0  0  0  0  0  0  0
   16.6089   -3.0713    1.5706 C   0  0  0  0  0  0  0  0  0  0  0  0
   17.3517   -2.4377    0.5313 O   0  0  0  0  0  0  0  0  0  0  0  0
  1  2  1  6  0  0  0
  1  3  1  0  0  0  0
  1  9  1  0  0  0  0
  3  4  1  6  0  0  0
  3  5  1  0  0  0  0
  5  6  1  0  0  0  0
  6  7  1  6  0  0  0
  6  8  1  0  0  0  0
  8  9  1  0  0  0  0
  8 10  1  1  0  0  0
 10 11  1  0  0  0  0
 12 13  1  6  0  0  0
 12 14  1  0  0  0  0
 12 20  1  0  0  0  0
 14 15  1  0  0  0  0
 15 16  1  6  0  0  0
 15 17  1  0  0  0  0
 17  2  1  1  0  0  0
 17 18  1  0  0  0  0
 18 19  1  1  0  0  0
 18 20  1  0  0  0  0
 20 21  1  1  0  0  0
 22 21  1  6  0  0  0
 22 23  1  0  0  0  0
 22 30  1  0  0  0  0
 23 24  1  6  0  0  0
 23 25  1  0  0  0  0
 25 26  1  1  0  0  0
 25 27  1  0  0  0  0
 27 28  1  6  0  0  0
 27 29  1  0  0  0  0
 29 30  1  0  0  0  0
 29 31  1  1  0  0  0
 31 32  1  0  0  0  0
M  CHG  5   4   1  11   1  13   1  16   1  26   1
M  END
>  <CHROM.1>
-117.03286716,144.47772552,-151.74480429,-41.32047771,-80.96613235,48.48764460
68.40948203,-138.58295631,-59.77636342,-105.99128784,-163.25797770,11.57115232
76.86216923,-50.03877139,-57.97757083,119.36582279,12.99310228,-4.10464962
3.79643701,-2.43450493,-0.82163662,-1.12715163

>  <Name>
1lc4

>  <RI>
0

>  <Rbt.Current_Directory>
/home/afrankz/demos/rdock_decoys_rna/rnas/1lc4

>  <Rbt.Executable>
rbdock ($Id: //depot/dev/client3/rdock/2013.1/src/exe/rbdock.cxx#4 $)

>  <Rbt.Library>
libRbt.so (2013.1, Build901 2013/11/27)

>  <Rbt.Parameter_File>
/export/apps/rDock/src/rDock_2013.1_src/data/scripts/dock_solv.prm

>  <Rbt.Receptor>
prm/blind_docking_20.prm

>  <SCORE>
-16.568

>  <SCORE.INTER>
-27.8915

>  <SCORE.INTER.CONST>
1

>  <SCORE.INTER.POLAR>
-4.00298

>  <SCORE.INTER.ROT>
6

>  <SCORE.INTER.SOLV>
28.7578

>  <SCORE.INTER.VDW>
-22.437

>  <SCORE.INTER.norm>
-0.871609

>  <SCORE.INTRA>
4.16291

>  <SCORE.INTRA.DIHEDRAL>
-2.04474

>  <SCORE.INTRA.DIHEDRAL.0>
44.2576

>  <SCORE.INTRA.POLAR>
0.0330664

>  <SCORE.INTRA.POLAR.0>
-0.381556

>  <SCORE.INTRA.REPUL>
0

>  <SCORE.INTRA.REPUL.0>
0

>  <SCORE.INTRA.SOLV>
-0.366413

>  <SCORE.INTRA.SOLV.lig_0>
-134.592

>  <SCORE.INTRA.VDW>
5.25606

>  <SCORE.INTRA.VDW.0>
-1.01417

>  <SCORE.INTRA.norm>
0.130091

>  <SCORE.RESTR>
7.16052

>  <SCORE.RESTR.CAVITY>
7.16052

>  <SCORE.RESTR.norm>
0.223766

>  <SCORE.SYSTEM>
0

>  <SCORE.SYSTEM.CONST>
0

>  <SCORE.SYSTEM.DIHEDRAL>
0

>  <SCORE.SYSTEM.SOLV>
0

>  <SCORE.SYSTEM.norm>
0

>  <SCORE.heavy>
32

>  <SCORE.norm>
-0.517751

>  <RMSD>
31.821

$$$$
1lc4
 OpenBabel02141814113D
libRbt.so/2013.1/901 2013/11/27
 32 34  0  0  0  0  0  0  0  0999 V2000
   13.0342   -5.5180    4.1705 C   0  0  2  0  0  0  0  0  0  0  0  0
   12.4161   -5.7702    5.4076 O   0  0  0  0  0  0  0  0  0  0  0  0
   12.8185   -4.0314    3.8205 C   0  0  2  0  0  0  0  0  0  0  0  0
   13.3708   -3.1742    4.8740 N   0  3  0  0  0  0  0  0  0  0  0  0
   11.3142   -3.7506    3.5956 C   0  0  0  0  0  0  0  0  0  0  0  0
   10.8386   -4.6640    2.4522 C   0  0  2  0  0  0  0  0  0  0  0  0
    9.4591   -4.4194    2.1587 O   0  0  0  0  0  0  0  0  0  0  0  0
   11.0759   -6.1430    2.8469 C   0  0  2  0  0  0  0  0  0  0  0  0
   12.4837   -6.3697    3.1416 O   0  0  0  0  0  0  0  0  0  0  0  0
   10.6857   -7.1350    1.7540 C   0  0  0  0  0  0  0  0  0  0  0  0
   11.1179   -8.5145    2.1000 N   0  3  0  0  0  0  0  0  0  0  0  0
   12.4080   -9.9972    5.7114 C   0  0  2  0  0  0  0  0  0  0  0  0
   12.5565  -11.3735    6.2188 N   0  3  0  0  0  0  0  0  0  0  0  0
   13.7624   -9.3016    5.6984 C   0  0  0  0  0  0  0  0  0  0  0  0
   13.6206   -7.8676    5.1760 C   0  0  2  0  0  0  0  0  0  0  0  0
   14.9755   -7.2714    5.0692 N   0  3  0  0  0  0  0  0  0  0  0  0
   12.6276   -7.0438    6.0494 C   0  0  2  0  0  0  0  0  0  0  0  0
   11.2641   -7.7789    6.1132 C   0  0  2  0  0  0  0  0  0  0  0  0
   10.4225   -7.1239    7.0313 O   0  0  0  0  0  0  0  0  0  0  0  0
   11.4432   -9.2235    6.6078 C   0  0  1  0  0  0  0  0  0  0  0  0
   10.1703   -9.8687    6.6192 O   0  0  0  0  0  0  0  0  0  0  0  0
    9.2661   -9.5060    5.6332 C   0  0  2  0  0  0  0  0  0  0  0  0
    7.9220  -10.1997    5.9130 C   0  0  2  0  0  0  0  0  0  0  0  0
    7.4569   -9.7896    7.1927 O   0  0  0  0  0  0  0  0  0  0  0  0
    8.1181  -11.7256    5.8872 C   0  0  1  0  0  0  0  0  0  0  0  0
    6.8488  -12.4540    6.1742 N   0  3  0  0  0  0  0  0  0  0  0  0
    8.6873  -12.1439    4.5095 C   0  0  2  0  0  0  0  0  0  0  0  0
    8.9037  -13.5524    4.4647 O   0  0  0  0  0  0  0  0  0  0  0  0
    9.9963  -11.3852    4.2223 C   0  0  2  0  0  0  0  0  0  0  0  0
    9.7878   -9.9314    4.3475 O   0  0  0  0  0  0  0  0  0  0  0  0
   10.5087  -11.6414    2.8224 C   0  0  0  0  0  0  0  0  0  0  0  0
   10.4831  -13.0300    2.4989 O   0  0  0  0  0  0  0  0  0  0  0  0
  1  2  1  1  0  0  0
  1  3  1  0  0  0  0
  1  9  1  0  0  0  0
  3  4  1  1  0  0  0
  3  5  1  0  0  0  0
  5  6  1  0  0  0  0
  6  7  1  1  0  0  0
  6  8  1  0  0  0  0
  8  9  1  0  0  0  0
  8 10  1  6  0  0  0
 10 11  1  0  0  0  0
 12 13  1  1  0  0  0
 12 14  1  0  0  0  0
 12 20  1  0  0  0  0
 14 15  1  0  0  0  0
 15 16  1  1  0  0  0
 15 17  1  0  0  0  0
 17  2  1  6  0  0  0
 17 18  1  0  0  0  0
 18 19  1  1  0  0  0
 18 20  1  0  0  0  0
 20 21  1  6  0  0  0
 22 21  1  1  0  0  0
 22 23  1  0  0  0  0
 22 30  1  0  0  0  0
 23 24  1  1  0  0  0
 23 25  1  0  0  0  0
 25 26  1  6  0  0  0
 25 27  1  0  0  0  0
 27 28  1  1  0  0  0
 27 29  1  0  0  0  0
 29 30  1  0  0  0  0
 29 31  1  6  0  0  0
 31 32  1  0  0  0  0
M  CHG  5   4   1  11   1  13   1  16   1  26   1
M  END
>  <CHROM.1>
-171.59588045,2.78187750,50.55956643,174.09441871,171.54860049,-36.77913755
-174.13349545,-136.88742447,76.39033479,-88.07428286,-174.07358660,67.54427152
-41.68045345,-54.66820541,-46.57521119,-173.06532930,10.91605281,-8.52335562
4.69751859,-1.04975064,0.50021734,2.70185164

>  <Name>
1lc4

>  <RI>
0

>  <Rbt.Current_Directory>
/home/afrankz/demos/rdock_decoys_rna/rnas/1lc4

>  <Rbt.Executable>
rbdock ($Id: //depot/dev/client3/rdock/2013.1/src/exe/rbdock.cxx#4 $)

>  <Rbt.Library>
libRbt.so (2013.1, Build901 2013/11/27)

>  <Rbt.Parameter_File>
/export/apps/rDock/src/rDock_2013.1_src/data/scripts/dock_solv.prm

>  <Rbt.Receptor>
prm/blind_docking_20.prm

>  <SCORE>
-31.2064

>  <SCORE.INTER>
-25.2418

>  <SCORE.INTER.CONST>
1

>  <SCORE.INTER.POLAR>
-5.54899

>  <SCORE.INTER.ROT>
6

>  <SCORE.INTER.SOLV>
30.4818

>  <SCORE.INTER.VDW>
-16.0919

>  <SCORE.INTER.norm>
-0.788807

>  <SCORE.INTRA>
-11.936

>  <SCORE.INTRA.DIHEDRAL>
-25.1867

>  <SCORE.INTRA.DIHEDRAL.0>
44.2576

>  <SCORE.INTRA.POLAR>
-0.960569

>  <SCORE.INTRA.POLAR.0>
-0.381556

>  <SCORE.INTRA.REPUL>
0

>  <SCORE.INTRA.REPUL.0>
0

>  <SCORE.INTRA.SOLV>
4.2096

>  <SCORE.INTRA.SOLV.lig_0>
-134.592

>  <SCORE.INTRA.VDW>
1.81847

>  <SCORE.INTRA.VDW.0>
-1.01417

>  <SCORE.INTRA.norm>
-0.373001

>  <SCORE.RESTR>
5.97149

>  <SCORE.RESTR.CAVITY>
5.97149

>  <SCORE.RESTR.norm>
0.186609

>  <SCORE.SYSTEM>
0

>  <SCORE.SYSTEM.CONST>
0

>  <SCORE.SYSTEM.DIHEDRAL>
0

>  <SCORE.SYSTEM.SOLV>
0

>  <SCORE.SYSTEM.norm>
0

>  <SCORE.heavy>
32

>  <SCORE.norm>
-0.975199

>  <RMSD>
31.843

$$$$
1lc4
 OpenBabel02141814113D
libRbt.so/2013.1/901 2013/11/27
 32 34  0  0  0  0  0  0  0  0999 V2000
   11.1201   -3.8003    2.3873 C   0  0  2  0  0  0  0  0  0  0  0  0
   11.4136   -5.1696    2.5089 O   0  0  0  0  0  0  0  0  0  0  0  0
   10.1280   -3.6239    1.2195 C   0  0  2  0  0  0  0  0  0  0  0  0
    8.9125   -4.4077    1.4604 N   0  3  0  0  0  0  0  0  0  0  0  0
   10.8008   -4.0223   -0.1150 C   0  0  0  0  0  0  0  0  0  0  0  0
   12.0365   -3.1236   -0.2968 C   0  0  2  0  0  0  0  0  0  0  0  0
   12.6820   -3.4083   -1.5425 O   0  0  0  0  0  0  0  0  0  0  0  0
   13.0011   -3.3327    0.8970 C   0  0  2  0  0  0  0  0  0  0  0  0
   12.3251   -3.0386    2.1527 O   0  0  0  0  0  0  0  0  0  0  0  0
   14.2407   -2.4434    0.8413 C   0  0  0  0  0  0  0  0  0  0  0  0
   13.9012   -1.0274    1.1400 N   0  3  0  0  0  0  0  0  0  0  0  0
   12.0546   -8.0917    5.5106 C   0  0  2  0  0  0  0  0  0  0  0  0
   11.9602   -8.8785    6.7540 N   0  3  0  0  0  0  0  0  0  0  0  0
   12.4580   -6.6595    5.8340 C   0  0  0  0  0  0  0  0  0  0  0  0
   12.5560   -5.8298    4.5490 C   0  0  2  0  0  0  0  0  0  0  0  0
   13.0648   -4.4805    4.8999 N   0  3  0  0  0  0  0  0  0  0  0  0
   11.2025   -5.8211    3.7776 C   0  0  2  0  0  0  0  0  0  0  0  0
   10.7586   -7.2800    3.4976 C   0  0  2  0  0  0  0  0  0  0  0  0
    9.4624   -7.2772    2.9500 O   0  0  0  0  0  0  0  0  0  0  0  0
   10.7026   -8.0950    4.7999 C   0  0  1  0  0  0  0  0  0  0  0  0
   10.3223   -9.4352    4.4898 O   0  0  0  0  0  0  0  0  0  0  0  0
    8.9726   -9.6827    4.2942 C   0  0  2  0  0  0  0  0  0  0  0  0
    8.3683  -10.2052    5.6087 C   0  0  2  0  0  0  0  0  0  0  0  0
    8.5546   -9.2204    6.6174 O   0  0  0  0  0  0  0  0  0  0  0  0
    9.0723  -11.5127    6.0118 C   0  0  1  0  0  0  0  0  0  0  0  0
    8.5413  -12.0572    7.2947 N   0  3  0  0  0  0  0  0  0  0  0  0
    8.9148  -12.5494    4.8727 C   0  0  2  0  0  0  0  0  0  0  0  0
    9.5799  -13.7652    5.2076 O   0  0  0  0  0  0  0  0  0  0  0  0
    9.4642  -11.9770    3.5528 C   0  0  2  0  0  0  0  0  0  0  0  0
    8.8315  -10.6807    3.2500 O   0  0  0  0  0  0  0  0  0  0  0  0
    9.1913  -12.8897    2.3779 C   0  0  0  0  0  0  0  0  0  0  0  0
    9.9180  -14.1122    2.4817 O   0  0  0  0  0  0  0  0  0  0  0  0
  1  2  1  6  0  0  0
  1  3  1  0  0  0  0
  1  9  1  0  0  0  0
  3  4  1  1  0  0  0
  3  5  1  0  0  0  0
  5  6  1  0  0  0  0
  6  7  1  6  0  0  0
  6  8  1  0  0  0  0
  8  9  1  0  0  0  0
  8 10  1  6  0  0  0
 10 11  1  0  0  0  0
 12 13  1  1  0  0  0
 12 14  1  0  0  0  0
 12 20  1  0  0  0  0
 14 15  1  0  0  0  0
 15 16  1  1  0  0  0
 15 17  1  0  0  0  0
 17  2  1  6  0  0  0
 17 18  1  0  0  0  0
 18 19  1  1  0  0  0
 18 20  1  0  0  0  0
 20 21  1  6  0  0  0
 22 21  1  1  0  0  0
 22 23  1  0  0  0  0
 22 30  1  0  0  0  0
 23 24  1  1  0  0  0
 23 25  1  0  0  0  0
 25 26  1  1  0  0  0
 25 27  1  0  0  0  0
 27 28  1  1  0  0  0
 27 29  1  0  0  0  0
 29 30  1  0  0  0  0
 29 31  1  6  0  0  0
 31 32  1  0  0  0  0
M  CHG  5   4   1  11   1  13   1  16   1  26   1
M  END
>  <CHROM.1>
-124.67255567,-95.43015089,72.76687678,59.86943001,72.26638068,164.58136665
58.42291576,-168.73956763,163.68784450,157.50517377,-96.15752633,174.27650967
53.88706083,-170.88336829,-66.85850531,-178.26960425,10.75794272,-7.45723023
3.42442309,-0.77717070,1.12469392,1.98783014

>  <Name>
1lc4

>  <RI>
0

>  <Rbt.Current_Directory>
/home/afrankz/demos/rdock_decoys_rna/rnas/1lc4

>  <Rbt.Executable>
rbdock ($Id: //depot/dev/client3/rdock/2013.1/src/exe/rbdock.cxx#4 $)

>  <Rbt.Library>
libRbt.so (2013.1, Build901 2013/11/27)

>  <Rbt.Parameter_File>
/export/apps/rDock/src/rDock_2013.1_src/data/scripts/dock_solv.prm

>  <Rbt.Receptor>
prm/blind_docking_20.prm

>  <SCORE>
-37.8072

>  <SCORE.INTER>
-24.6128

>  <SCORE.INTER.CONST>
1

>  <SCORE.INTER.POLAR>
-3.74671

>  <SCORE.INTER.ROT>
6

>  <SCORE.INTER.SOLV>
24.5234

>  <SCORE.INTER.VDW>
-19.6939

>  <SCORE.INTER.norm>
-0.76915

>  <SCORE.INTRA>
-19.957

>  <SCORE.INTRA.DIHEDRAL>
-21.6605

>  <SCORE.INTRA.DIHEDRAL.0>
44.2576

>  <SCORE.INTRA.POLAR>
-2.05846

>  <SCORE.INTRA.POLAR.0>
-0.381556

>  <SCORE.INTRA.REPUL>
0

>  <SCORE.INTRA.REPUL.0>
0

>  <SCORE.INTRA.SOLV>
1.07421

>  <SCORE.INTRA.SOLV.lig_0>
-134.592

>  <SCORE.INTRA.VDW>
-2.66508

>  <SCORE.INTRA.VDW.0>
-1.01417

>  <SCORE.INTRA.norm>
-0.623655

>  <SCORE.RESTR>
6.76258

>  <SCORE.RESTR.CAVITY>
6.76258

>  <SCORE.RESTR.norm>
0.211331

>  <SCORE.SYSTEM>
0

>  <SCORE.SYSTEM.CONST>
0

>  <SCORE.SYSTEM.DIHEDRAL>
0

>  <SCORE.SYSTEM.SOLV>
0

>  <SCORE.SYSTEM.norm>
0

>  <SCORE.heavy>
32

>  <SCORE.norm>
-1.18147

>  <RMSD>
31.888

$$$$
1lc4
 OpenBabel02141814113D
libRbt.so/2013.1/901 2013/11/27
 32 34  0  0  0  0  0  0  0  0999 V2000
   13.8950   -1.5491    4.7702 C   0  0  2  0  0  0  0  0  0  0  0  0
   12.6393   -1.8456    4.2122 O   0  0  0  0  0  0  0  0  0  0  0  0
   14.2023   -0.0624    4.4979 C   0  0  2  0  0  0  0  0  0  0  0  0
   13.1536    0.7880    5.0696 N   0  3  0  0  0  0  0  0  0  0  0  0
   14.3582    0.1790    2.9781 C   0  0  0  0  0  0  0  0  0  0  0  0
   15.5011   -0.7234    2.4809 C   0  0  2  0  0  0  0  0  0  0  0  0
   15.7315   -0.5130    1.0838 O   0  0  0  0  0  0  0  0  0  0  0  0
   15.1499   -2.2029    2.7764 C   0  0  2  0  0  0  0  0  0  0  0  0
   14.9191   -2.3944    4.2012 O   0  0  0  0  0  0  0  0  0  0  0  0
   16.2478   -3.1823    2.3688 C   0  0  0  0  0  0  0  0  0  0  0  0
   15.7622   -4.5864    2.4190 N   0  3  0  0  0  0  0  0  0  0  0  0
   10.4247   -5.4278    3.7399 C   0  0  2  0  0  0  0  0  0  0  0  0
   10.0102   -6.7860    3.3434 N   0  3  0  0  0  0  0  0  0  0  0  0
   10.6324   -4.5678    2.5007 C   0  0  0  0  0  0  0  0  0  0  0  0
   11.0674   -3.1533    2.8998 C   0  0  2  0  0  0  0  0  0  0  0  0
   11.1419   -2.3220    1.6727 N   0  3  0  0  0  0  0  0  0  0  0  0
   12.3837   -3.1811    3.7330 C   0  0  2  0  0  0  0  0  0  0  0  0
   12.1950   -4.1029    4.9653 C   0  0  2  0  0  0  0  0  0  0  0  0
   13.4279   -4.2591    5.6253 O   0  0  0  0  0  0  0  0  0  0  0  0
   11.7264   -5.5026    4.5357 C   0  0  1  0  0  0  0  0  0  0  0  0
   11.5355   -6.3036    5.7013 O   0  0  0  0  0  0  0  0  0  0  0  0
   11.5108   -7.6787    5.5294 C   0  0  2  0  0  0  0  0  0  0  0  0
   11.0549   -8.3351    6.8438 C   0  0  2  0  0  0  0  0  0  0  0  0
    9.7587   -7.8489    7.1687 O   0  0  0  0  0  0  0  0  0  0  0  0
   12.0476   -7.9801    7.9646 C   0  0  1  0  0  0  0  0  0  0  0  0
   11.6446   -8.5731    9.2723 N   0  3  0  0  0  0  0  0  0  0  0  0
   13.4641   -8.4585    7.5624 C   0  0  2  0  0  0  0  0  0  0  0  0
   14.4117   -8.1202    8.5725 O   0  0  0  0  0  0  0  0  0  0  0  0
   13.8697   -7.8422    6.2106 C   0  0  2  0  0  0  0  0  0  0  0  0
   12.8481   -8.1266    5.1869 O   0  0  0  0  0  0  0  0  0  0  0  0
   15.1788   -8.4009    5.6988 C   0  0  0  0  0  0  0  0  0  0  0  0
   15.0009   -9.1318    4.4874 O   0  0  0  0  0  0  0  0  0  0  0  0
  1  2  1  6  0  0  0
  1  3  1  0  0  0  0
  1  9  1  0  0  0  0
  3  4  1  6  0  0  0
  3  5  1  0  0  0  0
  5  6  1  0  0  0  0
  6  7  1  6  0  0  0
  6  8  1  0  0  0  0
  8  9  1  0  0  0  0
  8 10  1  1  0  0  0
 10 11  1  0  0  0  0
 12 13  1  6  0  0  0
 12 14  1  0  0  0  0
 12 20  1  0  0  0  0
 14 15  1  0  0  0  0
 15 16  1  6  0  0  0
 15 17  1  0  0  0  0
 17  2  1  1  0  0  0
 17 18  1  0  0  0  0
 18 19  1  6  0  0  0
 18 20  1  0  0  0  0
 20 21  1  1  0  0  0
 22 21  1  1  0  0  0
 22 23  1  0  0  0  0
 22 30  1  0  0  0  0
 23 24  1  1  0  0  0
 23 25  1  0  0  0  0
 25 26  1  1  0  0  0
 25 27  1  0  0  0  0
 27 28  1  1  0  0  0
 27 29  1  0  0  0  0
 29 30  1  0  0  0  0
 29 31  1  6  0  0  0
 31 32  1  0  0  0  0
M  CHG  5   4   1  11   1  13   1  16   1  26   1
M  END
>  <CHROM.1>
149.86104035,-167.82922554,-57.09254134,-65.56373456,-168.69773813,-93.61442852
-42.70248441,175.03051728,-33.86171081,77.12156607,-170.23841841,-176.42386283
129.72849332,-83.63583151,115.35745911,61.25219844,13.02964058,-4.77976437
4.69526110,-1.34282036,0.02590168,2.63097013

>  <Name>
1lc4

>  <RI>
0

>  <Rbt.Current_Directory>
/home/afrankz/demos/rdock_decoys_rna/rnas/1lc4

>  <Rbt.Executable>
rbdock ($Id: //depot/dev/client3/rdock/2013.1/src/exe/rbdock.cxx#4 $)

>  <Rbt.Library>
libRbt.so (2013.1, Build901 2013/11/27)

>  <Rbt.Parameter_File>
/export/apps/rDock/src/rDock_2013.1_src/data/scripts/dock_solv.prm

>  <Rbt.Receptor>
prm/blind_docking_60.prm

>  <SCORE>
-33.3991

>  <SCORE.INTER>
-27.3393

>  <SCORE.INTER.CONST>
1

>  <SCORE.INTER.POLAR>
-3.3314

>  <SCORE.INTER.ROT>
6

>  <SCORE.INTER.SOLV>
35.371

>  <SCORE.INTER.VDW>
-26.5119

>  <SCORE.INTER.norm>
-0.854353

>  <SCORE.INTRA>
-12.2648

>  <SCORE.INTRA.DIHEDRAL>
-20.5781

>  <SCORE.INTRA.DIHEDRAL.0>
44.2576

>  <SCORE.INTRA.POLAR>
-0.0159355

>  <SCORE.INTRA.POLAR.0>
-0.381556

>  <SCORE.INTRA.REPUL>
0

>  <SCORE.INTRA.REPUL.0>
0

>  <SCORE.INTRA.SOLV>
-2.08912

>  <SCORE.INTRA.SOLV.lig_0>
-134.592

>  <SCORE.INTRA.VDW>
-0.877036

>  <SCORE.INTRA.VDW.0>
-1.01417

>  <SCORE.INTRA.norm>
-0.383276

>  <SCORE.RESTR>
6.20508

>  <SCORE.RESTR.CAVITY>
6.20508

>  <SCORE.RESTR.norm>
0.193909

>  <SCORE.SYSTEM>
0

>  <SCORE.SYSTEM.CONST>
0

>  <SCORE.SYSTEM.DIHEDRAL>
0

>  <SCORE.SYSTEM.SOLV>
0

>  <SCORE.SYSTEM.norm>
0

>  <SCORE.heavy>
32

>  <SCORE.norm>
-1.04372

>  <RMSD>
31.897

$$$$
1lc4
 OpenBabel02141814113D
libRbt.so/2013.1/901 2013/11/27
 32 34  0  0  0  0  0  0  0  0999 V2000
    7.4139  -10.2764    6.0593 C   0  0  2  0  0  0  0  0  0  0  0  0
    8.7488  -10.6175    5.7806 O   0  0  0  0  0  0  0  0  0  0  0  0
    7.3131   -9.9155    7.5555 C   0  0  2  0  0  0  0  0  0  0  0  0
    8.2211   -8.8097    7.8755 N   0  3  0  0  0  0  0  0  0  0  0  0
    7.6115  -11.1599    8.4243 C   0  0  0  0  0  0  0  0  0  0  0  0
    6.5884  -12.2450    8.0456 C   0  0  2  0  0  0  0  0  0  0  0  0
    6.7785  -13.4132    8.8509 O   0  0  0  0  0  0  0  0  0  0  0  0
    6.7252  -12.5730    6.5379 C   0  0  2  0  0  0  0  0  0  0  0  0
    6.5291  -11.3723    5.7379 O   0  0  0  0  0  0  0  0  0  0  0  0
    5.7139  -13.6050    6.0451 C   0  0  0  0  0  0  0  0  0  0  0  0
    5.8714  -14.8978    6.7617 N   0  3  0  0  0  0  0  0  0  0  0  0
   11.7718  -10.2313    2.8358 C   0  0  2  0  0  0  0  0  0  0  0  0
   12.4769   -9.9888    1.5638 N   0  3  0  0  0  0  0  0  0  0  0  0
   10.7735  -11.3682    2.6654 C   0  0  0  0  0  0  0  0  0  0  0  0
   10.0309  -11.6277    3.9809 C   0  0  2  0  0  0  0  0  0  0  0  0
    9.1592  -12.8153    3.8008 N   0  3  0  0  0  0  0  0  0  0  0  0
    9.2797  -10.3522    4.4667 C   0  0  2  0  0  0  0  0  0  0  0  0
   10.2831   -9.1762    4.5854 C   0  0  2  0  0  0  0  0  0  0  0  0
    9.5809   -7.9889    4.8634 O   0  0  0  0  0  0  0  0  0  0  0  0
   11.0358   -8.9626    3.2620 C   0  0  1  0  0  0  0  0  0  0  0  0
   11.9681   -7.8950    3.4283 O   0  0  0  0  0  0  0  0  0  0  0  0
   11.9913   -7.2587    4.6595 C   0  0  2  0  0  0  0  0  0  0  0  0
   12.1787   -5.7486    4.4342 C   0  0  2  0  0  0  0  0  0  0  0  0
   11.0976   -5.2695    3.6445 O   0  0  0  0  0  0  0  0  0  0  0  0
   13.5126   -5.5009    3.7081 C   0  0  1  0  0  0  0  0  0  0  0  0
   13.7398   -4.0511    3.4423 N   0  3  0  0  0  0  0  0  0  0  0  0
   14.6700   -6.0884    4.5520 C   0  0  2  0  0  0  0  0  0  0  0  0
   15.9185   -5.8959    3.8910 O   0  0  0  0  0  0  0  0  0  0  0  0
   14.4249   -7.5846    4.8221 C   0  0  2  0  0  0  0  0  0  0  0  0
   13.0992   -7.7879    5.4333 O   0  0  0  0  0  0  0  0  0  0  0  0
   15.4465   -8.1673    5.7733 C   0  0  0  0  0  0  0  0  0  0  0  0
   15.7327   -7.2755    6.8486 O   0  0  0  0  0  0  0  0  0  0  0  0
  1  2  1  1  0  0  0
  1  3  1  0  0  0  0
  1  9  1  0  0  0  0
  3  4  1  1  0  0  0
  3  5  1  0  0  0  0
  5  6  1  0  0  0  0
  6  7  1  1  0  0  0
  6  8  1  0  0  0  0
  8  9  1  0  0  0  0
  8 10  1  6  0  0  0
 10 11  1  0  0  0  0
 12 13  1  6  0  0  0
 12 14  1  0  0  0  0
 12 20  1  0  0  0  0
 14 15  1  0  0  0  0
 15 16  1  6  0  0  0
 15 17  1  0  0  0  0
 17  2  1  1  0  0  0
 17 18  1  0  0  0  0
 18 19  1  6  0  0  0
 18 20  1  0  0  0  0
 20 21  1  1  0  0  0
 22 21  1  6  0  0  0
 22 23  1  0  0  0  0
 22 30  1  0  0  0  0
 23 24  1  6  0  0  0
 23 25  1  0  0  0  0
 25 26  1  1  0  0  0
 25 27  1  0  0  0  0
 27 28  1  6  0  0  0
 27 29  1  0  0  0  0
 29 30  1  0  0  0  0
 29 31  1  1  0  0  0
 31 32  1  0  0  0  0
M  CHG  5   4   1  11   1  13   1  16   1  26   1
M  END
>  <CHROM.1>
-149.24296006,-133.06381647,-72.12106158,68.15551860,-60.56116803,-81.70085910
-169.88169317,31.81349714,-84.56435972,-123.84739244,-140.48793596,69.60547388
-48.27908657,-77.38326348,41.34042540,62.67394192,10.50269367,-9.35970927
5.14092544,2.97173007,-0.73410951,-2.22025673

>  <Name>
1lc4

>  <RI>
0

>  <Rbt.Current_Directory>
/home/afrankz/demos/rdock_decoys_rna/rnas/1lc4

>  <Rbt.Executable>
rbdock ($Id: //depot/dev/client3/rdock/2013.1/src/exe/rbdock.cxx#4 $)

>  <Rbt.Library>
libRbt.so (2013.1, Build901 2013/11/27)

>  <Rbt.Parameter_File>
/export/apps/rDock/src/rDock_2013.1_src/data/scripts/dock_solv.prm

>  <Rbt.Receptor>
prm/blind_docking_20.prm

>  <SCORE>
-25.1701

>  <SCORE.INTER>
-25.2533

>  <SCORE.INTER.CONST>
1

>  <SCORE.INTER.POLAR>
-4.21196

>  <SCORE.INTER.ROT>
6

>  <SCORE.INTER.SOLV>
30.6639

>  <SCORE.INTER.VDW>
-20.617

>  <SCORE.INTER.norm>
-0.789166

>  <SCORE.INTRA>
-5.26943

>  <SCORE.INTRA.DIHEDRAL>
-12.1099

>  <SCORE.INTRA.DIHEDRAL.0>
44.2576

>  <SCORE.INTRA.POLAR>
-0.5763

>  <SCORE.INTRA.POLAR.0>
-0.381556

>  <SCORE.INTRA.REPUL>
0

>  <SCORE.INTRA.REPUL.0>
0

>  <SCORE.INTRA.SOLV>
-0.545213

>  <SCORE.INTRA.SOLV.lig_0>
-134.592

>  <SCORE.INTRA.VDW>
3.01755

>  <SCORE.INTRA.VDW.0>
-1.01417

>  <SCORE.INTRA.norm>
-0.16467

>  <SCORE.RESTR>
5.35263

>  <SCORE.RESTR.CAVITY>
5.35263

>  <SCORE.RESTR.norm>
0.16727

>  <SCORE.SYSTEM>
0

>  <SCORE.SYSTEM.CONST>
0

>  <SCORE.SYSTEM.DIHEDRAL>
0

>  <SCORE.SYSTEM.SOLV>
0

>  <SCORE.SYSTEM.norm>
0

>  <SCORE.heavy>
32

>  <SCORE.norm>
-0.786566

>  <RMSD>
31.950

$$$$
1lc4
 OpenBabel02141814113D
libRbt.so/2013.1/901 2013/11/27
 32 34  0  0  0  0  0  0  0  0999 V2000
    9.0692  -12.2968    5.4886 C   0  0  2  0  0  0  0  0  0  0  0  0
    8.3922  -11.8211    4.3522 O   0  0  0  0  0  0  0  0  0  0  0  0
    8.0928  -13.1766    6.2957 C   0  0  2  0  0  0  0  0  0  0  0  0
    7.6013  -14.2833    5.4691 N   0  3  0  0  0  0  0  0  0  0  0  0
    6.9270  -12.3172    6.8388 C   0  0  0  0  0  0  0  0  0  0  0  0
    7.5371  -11.2136    7.7206 C   0  0  2  0  0  0  0  0  0  0  0  0
    6.5043  -10.4071    8.2969 O   0  0  0  0  0  0  0  0  0  0  0  0
    8.5096  -10.3588    6.8702 C   0  0  2  0  0  0  0  0  0  0  0  0
    9.5505  -11.1978    6.2935 O   0  0  0  0  0  0  0  0  0  0  0  0
    9.2131   -9.2630    7.6671 C   0  0  0  0  0  0  0  0  0  0  0  0
   10.6670   -9.2233    7.3599 N   0  3  0  0  0  0  0  0  0  0  0  0
   11.9069  -10.7071    2.2626 C   0  0  2  0  0  0  0  0  0  0  0  0
   12.8355  -10.2298    1.2216 N   0  3  0  0  0  0  0  0  0  0  0  0
   11.1604  -11.9375    1.7654 C   0  0  0  0  0  0  0  0  0  0  0  0
   10.1884  -12.4414    2.8380 C   0  0  2  0  0  0  0  0  0  0  0  0
    9.5737  -13.7040    2.3578 N   0  3  0  0  0  0  0  0  0  0  0  0
    9.1594  -11.3393    3.2306 C   0  0  2  0  0  0  0  0  0  0  0  0
    9.9164  -10.0638    3.6822 C   0  0  2  0  0  0  0  0  0  0  0  0
    8.9952   -9.0184    3.8783 O   0  0  0  0  0  0  0  0  0  0  0  0
   10.9070   -9.6030    2.6006 C   0  0  1  0  0  0  0  0  0  0  0  0
   11.6016   -8.4490    3.0723 O   0  0  0  0  0  0  0  0  0  0  0  0
   11.0745   -7.7985    4.1770 C   0  0  2  0  0  0  0  0  0  0  0  0
   10.5905   -6.4031    3.7470 C   0  0  2  0  0  0  0  0  0  0  0  0
    9.6002   -6.5567    2.7381 O   0  0  0  0  0  0  0  0  0  0  0  0
   11.7799   -5.5946    3.1999 C   0  0  1  0  0  0  0  0  0  0  0  0
   11.3663   -4.2356    2.7459 N   0  3  0  0  0  0  0  0  0  0  0  0
   12.8745   -5.4955    4.2903 C   0  0  2  0  0  0  0  0  0  0  0  0
   14.0020   -4.7719    3.8026 O   0  0  0  0  0  0  0  0  0  0  0  0
   13.2931   -6.9034    4.7532 C   0  0  2  0  0  0  0  0  0  0  0  0
   12.1141   -7.6769    5.1824 O   0  0  0  0  0  0  0  0  0  0  0  0
   14.2459   -6.8581    5.9271 C   0  0  0  0  0  0  0  0  0  0  0  0
   13.5805   -7.1429    7.1557 O   0  0  0  0  0  0  0  0  0  0  0  0
  1  2  1  6  0  0  0
  1  3  1  0  0  0  0
  1  9  1  0  0  0  0
  3  4  1  6  0  0  0
  3  5  1  0  0  0  0
  5  6  1  0  0  0  0
  6  7  1  6  0  0  0
  6  8  1  0  0  0  0
  8  9  1  0  0  0  0
  8 10  1  1  0  0  0
 10 11  1  0  0  0  0
 12 13  1  6  0  0  0
 12 14  1  0  0  0  0
 12 20  1  0  0  0  0
 14 15  1  0  0  0  0
 15 16  1  6  0  0  0
 15 17  1  0  0  0  0
 17  2  1  1  0  0  0
 17 18  1  0  0  0  0
 18 19  1  6  0  0  0
 18 20  1  0  0  0  0
 20 21  1  1  0  0  0
 22 21  1  6  0  0  0
 22 23  1  0  0  0  0
 22 30  1  0  0  0  0
 23 24  1  6  0  0  0
 23 25  1  0  0  0  0
 25 26  1  1  0  0  0
 25 27  1  0  0  0  0
 27 28  1  6  0  0  0
 27 29  1  0  0  0  0
 29 30  1  0  0  0  0
 29 31  1  1  0  0  0
 31 32  1  0  0  0  0
M  CHG  5   4   1  11   1  13   1  16   1  26   1
M  END
>  <CHROM.1>
-160.57541503,52.58325314,178.61737707,62.49813084,134.37427205,-30.90997247
-36.75194337,-57.23994083,79.31930917,-136.75757829,-113.85000598,33.82013810
64.96115075,-175.59726852,101.77296365,-167.37709689,10.40799021,-9.42862465
4.60728925,-2.79552152,0.92566906,0.88320542

>  <Name>
1lc4

>  <RI>
0

>  <Rbt.Current_Directory>
/home/afrankz/demos/rdock_decoys_rna/rnas/1lc4

>  <Rbt.Executable>
rbdock ($Id: //depot/dev/client3/rdock/2013.1/src/exe/rbdock.cxx#4 $)

>  <Rbt.Library>
libRbt.so (2013.1, Build901 2013/11/27)

>  <Rbt.Parameter_File>
/export/apps/rDock/src/rDock_2013.1_src/data/scripts/dock_solv.prm

>  <Rbt.Receptor>
prm/blind_docking_20.prm

>  <SCORE>
-27.6433

>  <SCORE.INTER>
-24.5926

>  <SCORE.INTER.CONST>
1

>  <SCORE.INTER.POLAR>
-3.88082

>  <SCORE.INTER.ROT>
6

>  <SCORE.INTER.SOLV>
21.7245

>  <SCORE.INTER.VDW>
-18.3005

>  <SCORE.INTER.norm>
-0.768519

>  <SCORE.INTRA>
-6.54833

>  <SCORE.INTRA.DIHEDRAL>
-12.1281

>  <SCORE.INTRA.DIHEDRAL.0>
44.2576

>  <SCORE.INTRA.POLAR>
-1.92242

>  <SCORE.INTRA.POLAR.0>
-0.381556

>  <SCORE.INTRA.REPUL>
0

>  <SCORE.INTRA.REPUL.0>
0

>  <SCORE.INTRA.SOLV>
2.79056

>  <SCORE.INTRA.SOLV.lig_0>
-134.592

>  <SCORE.INTRA.VDW>
4.65669

>  <SCORE.INTRA.VDW.0>
-1.01417

>  <SCORE.INTRA.norm>
-0.204635

>  <SCORE.RESTR>
3.4976

>  <SCORE.RESTR.CAVITY>
3.4976

>  <SCORE.RESTR.norm>
0.1093

>  <SCORE.SYSTEM>
0

>  <SCORE.SYSTEM.CONST>
0

>  <SCORE.SYSTEM.DIHEDRAL>
0

>  <SCORE.SYSTEM.SOLV>
0

>  <SCORE.SYSTEM.norm>
0

>  <SCORE.heavy>
32

>  <SCORE.norm>
-0.863854

>  <RMSD>
31.968

$$$$
1lc4
 OpenBabel02141814113D
libRbt.so/2013.1/901 2013/11/27
 32 34  0  0  0  0  0  0  0  0999 V2000
    8.9217  -11.5135    5.7189 C   0  0  2  0  0  0  0  0  0  0  0  0
    8.3550  -11.0974    4.5016 O   0  0  0  0  0  0  0  0  0  0  0  0
    7.7742  -11.8142    6.7046 C   0  0  2  0  0  0  0  0  0  0  0  0
    6.8855  -12.8423    6.1542 N   0  3  0  0  0  0  0  0  0  0  0  0
    7.0000  -10.5157    7.0319 C   0  0  0  0  0  0  0  0  0  0  0  0
    8.0035   -9.5185    7.6369 C   0  0  2  0  0  0  0  0  0  0  0  0
    7.3397   -8.3060    8.0090 O   0  0  0  0  0  0  0  0  0  0  0  0
    9.1358   -9.2488    6.6148 C   0  0  2  0  0  0  0  0  0  0  0  0
    9.7967  -10.4939    6.2499 O   0  0  0  0  0  0  0  0  0  0  0  0
   10.2184   -8.3087    7.1393 C   0  0  0  0  0  0  0  0  0  0  0  0
   10.9652   -8.9242    8.2676 N   0  3  0  0  0  0  0  0  0  0  0  0
   12.0665  -10.5057    2.5433 C   0  0  2  0  0  0  0  0  0  0  0  0
   13.0908  -10.2194    1.5222 N   0  3  0  0  0  0  0  0  0  0  0  0
   11.2417  -11.7149    2.1239 C   0  0  0  0  0  0  0  0  0  0  0  0
   10.1701  -12.0207    3.1763 C   0  0  2  0  0  0  0  0  0  0  0  0
    9.4726  -13.2710    2.7855 N   0  3  0  0  0  0  0  0  0  0  0  0
    9.2237  -10.8016    3.3896 C   0  0  2  0  0  0  0  0  0  0  0  0
   10.0655   -9.5533    3.7598 C   0  0  2  0  0  0  0  0  0  0  0  0
    9.2322   -8.4199    3.7907 O   0  0  0  0  0  0  0  0  0  0  0  0
   11.1522   -9.2927    2.7041 C   0  0  1  0  0  0  0  0  0  0  0  0
   11.9200   -8.1575    3.1024 O   0  0  0  0  0  0  0  0  0  0  0  0
   11.7315   -7.6846    4.3916 C   0  0  2  0  0  0  0  0  0  0  0  0
   11.4107   -6.1815    4.3268 C   0  0  2  0  0  0  0  0  0  0  0  0
   10.2325   -6.0015    3.5513 O   0  0  0  0  0  0  0  0  0  0  0  0
   12.5887   -5.4340    3.6777 C   0  0  1  0  0  0  0  0  0  0  0  0
   12.3253   -3.9702    3.5679 N   0  3  0  0  0  0  0  0  0  0  0  0
   13.8746   -5.6966    4.4988 C   0  0  2  0  0  0  0  0  0  0  0  0
   14.9902   -5.0359    3.9058 O   0  0  0  0  0  0  0  0  0  0  0  0
   14.1364   -7.2103    4.6076 C   0  0  2  0  0  0  0  0  0  0  0  0
   12.9515   -7.9011    5.1472 O   0  0  0  0  0  0  0  0  0  0  0  0
   15.2925   -7.5244    5.5311 C   0  0  0  0  0  0  0  0  0  0  0  0
   16.5339   -7.0770    4.9905 O   0  0  0  0  0  0  0  0  0  0  0  0
  1  2  1  6  0  0  0
  1  3  1  0  0  0  0
  1  9  1  0  0  0  0
  3  4  1  6  0  0  0
  3  5  1  0  0  0  0
  5  6  1  0  0  0  0
  6  7  1  6  0  0  0
  6  8  1  0  0  0  0
  8  9  1  0  0  0  0
  8 10  1  1  0  0  0
 10 11  1  0  0  0  0
 12 13  1  6  0  0  0
 12 14  1  0  0  0  0
 12 20  1  0  0  0  0
 14 15  1  0  0  0  0
 15 16  1  6  0  0  0
 15 17  1  0  0  0  0
 17  2  1  1  0  0  0
 17 18  1  0  0  0  0
 18 19  1  6  0  0  0
 18 20  1  0  0  0  0
 20 21  1  1  0  0  0
 22 21  1  6  0  0  0
 22 23  1  0  0  0  0
 22 30  1  0  0  0  0
 23 24  1  6  0  0  0
 23 25  1  0  0  0  0
 25 26  1  1  0  0  0
 25 27  1  0  0  0  0
 27 28  1  6  0  0  0
 27 29  1  0  0  0  0
 29 30  1  0  0  0  0
 29 31  1  1  0  0  0
 31 32  1  0  0  0  0
M  CHG  5   4   1  11   1  13   1  16   1  26   1
M  END
>  <CHROM.1>
-177.71203602,52.21180892,-60.87151128,-165.28577486,65.82483988,-52.66387232
91.43825413,-50.58378638,-63.77868441,-110.65921437,-126.92428644,41.21578800
-41.29873754,57.03732700,-67.72972787,66.30311295,10.89342835,-8.91391076
4.72092733,-2.77670437,0.66927254,0.71526296

>  <Name>
1lc4

>  <RI>
0

>  <Rbt.Current_Directory>
/home/afrankz/demos/rdock_decoys_rna/rnas/1lc4

>  <Rbt.Executable>
rbdock ($Id: //depot/dev/client3/rdock/2013.1/src/exe/rbdock.cxx#4 $)

>  <Rbt.Library>
libRbt.so (2013.1, Build901 2013/11/27)

>  <Rbt.Parameter_File>
/export/apps/rDock/src/rDock_2013.1_src/data/scripts/dock_solv.prm

>  <Rbt.Receptor>
prm/blind_docking_20.prm

>  <SCORE>
-36.4555

>  <SCORE.INTER>
-25.0657

>  <SCORE.INTER.CONST>
1

>  <SCORE.INTER.POLAR>
-3.30023

>  <SCORE.INTER.ROT>
6

>  <SCORE.INTER.SOLV>
25.6902

>  <SCORE.INTER.VDW>
-21.8731

>  <SCORE.INTER.norm>
-0.783303

>  <SCORE.INTRA>
-12.52

>  <SCORE.INTRA.DIHEDRAL>
-23.7613

>  <SCORE.INTRA.DIHEDRAL.0>
44.2576

>  <SCORE.INTRA.POLAR>
-0.922608

>  <SCORE.INTRA.POLAR.0>
-0.381556

>  <SCORE.INTRA.REPUL>
0.00592017

>  <SCORE.INTRA.REPUL.0>
0

>  <SCORE.INTRA.SOLV>
-1.07034

>  <SCORE.INTRA.SOLV.lig_0>
-134.592

>  <SCORE.INTRA.VDW>
3.00305

>  <SCORE.INTRA.VDW.0>
-1.01417

>  <SCORE.INTRA.norm>
-0.391251

>  <SCORE.RESTR>
1.13019

>  <SCORE.RESTR.CAVITY>
1.13019

>  <SCORE.RESTR.norm>
0.0353184

>  <SCORE.SYSTEM>
0

>  <SCORE.SYSTEM.CONST>
0

>  <SCORE.SYSTEM.DIHEDRAL>
0

>  <SCORE.SYSTEM.SOLV>
0

>  <SCORE.SYSTEM.norm>
0

>  <SCORE.heavy>
32

>  <SCORE.norm>
-1.13924

>  <RMSD>
32.005

$$$$
1lc4
 OpenBabel02141814113D
libRbt.so/2013.1/901 2013/11/27
 32 34  0  0  0  0  0  0  0  0999 V2000
   12.0029   -7.4552    4.7485 C   0  0  2  0  0  0  0  0  0  0  0  0
   11.1250   -7.2603    5.8290 O   0  0  0  0  0  0  0  0  0  0  0  0
   13.3268   -6.7318    5.0693 C   0  0  2  0  0  0  0  0  0  0  0  0
   13.8992   -7.2458    6.3174 N   0  3  0  0  0  0  0  0  0  0  0  0
   13.0942   -5.2043    5.1423 C   0  0  0  0  0  0  0  0  0  0  0  0
   12.5330   -4.7559    3.7815 C   0  0  2  0  0  0  0  0  0  0  0  0
   12.3393   -3.3377    3.7643 O   0  0  0  0  0  0  0  0  0  0  0  0
   11.2079   -5.5080    3.5020 C   0  0  2  0  0  0  0  0  0  0  0  0
   11.4272   -6.9472    3.5247 O   0  0  0  0  0  0  0  0  0  0  0  0
   10.5928   -5.1739    2.1453 C   0  0  0  0  0  0  0  0  0  0  0  0
   10.1371   -3.7599    2.0945 N   0  3  0  0  0  0  0  0  0  0  0  0
    8.7608  -10.7509    6.2602 C   0  0  2  0  0  0  0  0  0  0  0  0
    7.6153  -11.6758    6.3390 N   0  3  0  0  0  0  0  0  0  0  0  0
    8.6473   -9.6928    7.3492 C   0  0  0  0  0  0  0  0  0  0  0  0
    9.8312   -8.7223    7.2755 C   0  0  2  0  0  0  0  0  0  0  0  0
    9.7417   -7.7855    8.4230 N   0  3  0  0  0  0  0  0  0  0  0  0
    9.9030   -8.0234    5.8849 C   0  0  2  0  0  0  0  0  0  0  0  0
    9.9597   -9.0985    4.7693 C   0  0  2  0  0  0  0  0  0  0  0  0
    9.8583   -8.4738    3.5125 O   0  0  0  0  0  0  0  0  0  0  0  0
    8.7793  -10.0760    4.8901 C   0  0  1  0  0  0  0  0  0  0  0  0
    8.8909  -11.0635    3.8658 O   0  0  0  0  0  0  0  0  0  0  0  0
    9.5952  -12.2177    4.1711 C   0  0  2  0  0  0  0  0  0  0  0  0
   10.9986  -12.1219    3.5486 C   0  0  2  0  0  0  0  0  0  0  0  0
   11.6556  -10.9796    4.0829 O   0  0  0  0  0  0  0  0  0  0  0  0
   10.8732  -11.9915    2.0205 C   0  0  1  0  0  0  0  0  0  0  0  0
   12.2058  -11.8729    1.3616 N   0  3  0  0  0  0  0  0  0  0  0  0
   10.0973  -13.2111    1.4661 C   0  0  2  0  0  0  0  0  0  0  0  0
    9.9431  -13.1052    0.0526 O   0  0  0  0  0  0  0  0  0  0  0  0
    8.7242  -13.3255    2.1539 C   0  0  2  0  0  0  0  0  0  0  0  0
    8.8822  -13.3548    3.6190 O   0  0  0  0  0  0  0  0  0  0  0  0
    7.9928  -14.5898    1.7607 C   0  0  0  0  0  0  0  0  0  0  0  0
    7.4552  -14.4982    0.4431 O   0  0  0  0  0  0  0  0  0  0  0  0
  1  2  1  1  0  0  0
  1  3  1  0  0  0  0
  1  9  1  0  0  0  0
  3  4  1  1  0  0  0
  3  5  1  0  0  0  0
  5  6  1  0  0  0  0
  6  7  1  1  0  0  0
  6  8  1  0  0  0  0
  8  9  1  0  0  0  0
  8 10  1  6  0  0  0
 10 11  1  0  0  0  0
 12 13  1  6  0  0  0
 12 14  1  0  0  0  0
 12 20  1  0  0  0  0
 14 15  1  0  0  0  0
 15 16  1  1  0  0  0
 15 17  1  0  0  0  0
 17  2  1  1  0  0  0
 17 18  1  0  0  0  0
 18 19  1  6  0  0  0
 18 20  1  0  0  0  0
 20 21  1  6  0  0  0
 22 21  1  6  0  0  0
 22 23  1  0  0  0  0
 22 30  1  0  0  0  0
 23 24  1  1  0  0  0
 23 25  1  0  0  0  0
 25 26  1  6  0  0  0
 25 27  1  0  0  0  0
 27 28  1  6  0  0  0
 27 29  1  0  0  0  0
 29 30  1  0  0  0  0
 29 31  1  6  0  0  0
 31 32  1  0  0  0  0
M  CHG  5   4   1  11   1  13   1  16   1  26   1
M  END
>  <CHROM.1>
-169.40439250,127.13486332,133.16525497,-51.62078164,-66.72262304,149.86666870
33.99586864,162.47028283,173.42246247,-31.31953795,-101.72726137,64.53352508
60.94583457,-68.15399507,-75.16914859,-64.43868658,10.37397512,-9.36396627
4.01252587,-0.74581554,-1.11559991,-2.07802509

>  <Name>
1lc4

>  <RI>
0

>  <Rbt.Current_Directory>
/home/afrankz/demos/rdock_decoys_rna/rnas/1lc4

>  <Rbt.Executable>
rbdock ($Id: //depot/dev/client3/rdock/2013.1/src/exe/rbdock.cxx#4 $)

>  <Rbt.Library>
libRbt.so (2013.1, Build901 2013/11/27)

>  <Rbt.Parameter_File>
/export/apps/rDock/src/rDock_2013.1_src/data/scripts/dock_solv.prm

>  <Rbt.Receptor>
prm/blind_docking_20.prm

>  <SCORE>
-36.1629

>  <SCORE.INTER>
-38.599

>  <SCORE.INTER.CONST>
1

>  <SCORE.INTER.POLAR>
-5.18834

>  <SCORE.INTER.ROT>
6

>  <SCORE.INTER.SOLV>
23.2226

>  <SCORE.INTER.VDW>
-23.779

>  <SCORE.INTER.norm>
-1.20622

>  <SCORE.INTRA>
-1.48252

>  <SCORE.INTRA.DIHEDRAL>
-18.536

>  <SCORE.INTRA.DIHEDRAL.0>
44.2576

>  <SCORE.INTRA.POLAR>
-0.0794093

>  <SCORE.INTRA.POLAR.0>
-0.381556

>  <SCORE.INTRA.REPUL>
0.0060373

>  <SCORE.INTRA.REPUL.0>
0

>  <SCORE.INTRA.SOLV>
-1.11548

>  <SCORE.INTRA.SOLV.lig_0>
-134.592

>  <SCORE.INTRA.VDW>
8.58303

>  <SCORE.INTRA.VDW.0>
-1.01417

>  <SCORE.INTRA.norm>
-0.0463289

>  <SCORE.RESTR>
3.91855

>  <SCORE.RESTR.CAVITY>
3.91855

>  <SCORE.RESTR.norm>
0.122455

>  <SCORE.SYSTEM>
0

>  <SCORE.SYSTEM.CONST>
0

>  <SCORE.SYSTEM.DIHEDRAL>
0

>  <SCORE.SYSTEM.SOLV>
0

>  <SCORE.SYSTEM.norm>
0

>  <SCORE.heavy>
32

>  <SCORE.norm>
-1.13009

>  <RMSD>
32.075

$$$$
1lc4
 OpenBabel02141814113D
libRbt.so/2013.1/901 2013/11/27
 32 34  0  0  0  0  0  0  0  0999 V2000
   14.2429   -8.7278    6.8696 C   0  0  2  0  0  0  0  0  0  0  0  0
   13.4510   -7.7279    7.4604 O   0  0  0  0  0  0  0  0  0  0  0  0
   15.4445   -8.9993    7.7977 C   0  0  2  0  0  0  0  0  0  0  0  0
   14.9799   -9.4070    9.1272 N   0  3  0  0  0  0  0  0  0  0  0  0
   16.3499   -7.7476    7.8758 C   0  0  0  0  0  0  0  0  0  0  0  0
   16.8161   -7.4236    6.4456 C   0  0  2  0  0  0  0  0  0  0  0  0
   17.7013   -6.2986    6.4520 O   0  0  0  0  0  0  0  0  0  0  0  0
   15.5787   -7.1606    5.5516 C   0  0  2  0  0  0  0  0  0  0  0  0
   14.6924   -8.3158    5.5599 O   0  0  0  0  0  0  0  0  0  0  0  0
   15.9301   -6.8809    4.0925 C   0  0  0  0  0  0  0  0  0  0  0  0
   15.1578   -5.7256    3.5649 N   0  3  0  0  0  0  0  0  0  0  0  0
   11.1347   -6.9098    4.0071 C   0  0  2  0  0  0  0  0  0  0  0  0
   10.0782   -6.4200    3.1028 N   0  3  0  0  0  0  0  0  0  0  0  0
   10.5339   -7.8501    5.0432 C   0  0  0  0  0  0  0  0  0  0  0  0
   11.6224   -8.3636    5.9923 C   0  0  2  0  0  0  0  0  0  0  0  0
   11.0147   -9.3633    6.9054 N   0  3  0  0  0  0  0  0  0  0  0  0
   12.3386   -7.1867    6.7199 C   0  0  2  0  0  0  0  0  0  0  0  0
   12.9014   -6.1960    5.6684 C   0  0  2  0  0  0  0  0  0  0  0  0
   13.4016   -5.0548    6.3222 O   0  0  0  0  0  0  0  0  0  0  0  0
   11.7941   -5.7256    4.7113 C   0  0  1  0  0  0  0  0  0  0  0  0
   12.3635   -4.8438    3.7444 O   0  0  0  0  0  0  0  0  0  0  0  0
   11.7646   -3.6038    3.5859 C   0  0  2  0  0  0  0  0  0  0  0  0
   11.4937   -3.3713    2.0896 C   0  0  2  0  0  0  0  0  0  0  0  0
   10.6377   -4.4038    1.6170 O   0  0  0  0  0  0  0  0  0  0  0  0
   12.8250   -3.3957    1.3184 C   0  0  1  0  0  0  0  0  0  0  0  0
   12.6229   -3.1962   -0.1457 N   0  3  0  0  0  0  0  0  0  0  0  0
   13.7671   -2.3091    1.8918 C   0  0  2  0  0  0  0  0  0  0  0  0
   15.0204   -2.3247    1.2123 O   0  0  0  0  0  0  0  0  0  0  0  0
   13.9677   -2.5230    3.4037 C   0  0  2  0  0  0  0  0  0  0  0  0
   12.6662   -2.5859    4.0927 O   0  0  0  0  0  0  0  0  0  0  0  0
   14.7531   -1.3977    4.0397 C   0  0  0  0  0  0  0  0  0  0  0  0
   16.0100   -1.2035    3.3948 O   0  0  0  0  0  0  0  0  0  0  0  0
  1  2  1  1  0  0  0
  1  3  1  0  0  0  0
  1  9  1  0  0  0  0
  3  4  1  1  0  0  0
  3  5  1  0  0  0  0
  5  6  1  0  0  0  0
  6  7  1  1  0  0  0
  6  8  1  0  0  0  0
  8  9  1  0  0  0  0
  8 10  1  6  0  0  0
 10 11  1  0  0  0  0
 12 13  1  6  0  0  0
 12 14  1  0  0  0  0
 12 20  1  0  0  0  0
 14 15  1  0  0  0  0
 15 16  1  1  0  0  0
 15 17  1  0  0  0  0
 17  2  1  6  0  0  0
 17 18  1  0  0  0  0
 18 19  1  1  0  0  0
 18 20  1  0  0  0  0
 20 21  1  6  0  0  0
 22 21  1  6  0  0  0
 22 23  1  0  0  0  0
 22 30  1  0  0  0  0
 23 24  1  6  0  0  0
 23 25  1  0  0  0  0
 25 26  1  6  0  0  0
 25 27  1  0  0  0  0
 27 28  1  6  0  0  0
 27 29  1  0  0  0  0
 29 30  1  0  0  0  0
 29 31  1  1  0  0  0
 31 32  1  0  0  0  0
M  CHG  5   4   1  11   1  13   1  16   1  26   1
M  END
>  <CHROM.1>
173.32683199,41.13399727,168.09297363,173.57969794,-135.28443528,-72.81416529
-39.75866767,65.92075537,174.23246573,110.94719155,-129.42811746,174.03092349
59.13589941,60.81234805,-55.53531635,-175.66851079,13.54247106,-5.67847118
4.63980184,1.40219897,0.32248740,2.44615689

>  <Name>
1lc4

>  <RI>
0

>  <Rbt.Current_Directory>
/home/afrankz/demos/rdock_decoys_rna/rnas/1lc4

>  <Rbt.Executable>
rbdock ($Id: //depot/dev/client3/rdock/2013.1/src/exe/rbdock.cxx#4 $)

>  <Rbt.Library>
libRbt.so (2013.1, Build901 2013/11/27)

>  <Rbt.Parameter_File>
/export/apps/rDock/src/rDock_2013.1_src/data/scripts/dock_solv.prm

>  <Rbt.Receptor>
prm/blind_docking_60.prm

>  <SCORE>
-24.5646

>  <SCORE.INTER>
-16.209

>  <SCORE.INTER.CONST>
1

>  <SCORE.INTER.POLAR>
-3.46687

>  <SCORE.INTER.ROT>
6

>  <SCORE.INTER.SOLV>
30.5553

>  <SCORE.INTER.VDW>
-17.0349

>  <SCORE.INTER.norm>
-0.506532

>  <SCORE.INTRA>
-13.1498

>  <SCORE.INTRA.DIHEDRAL>
-21.8428

>  <SCORE.INTRA.DIHEDRAL.0>
44.2576

>  <SCORE.INTRA.POLAR>
-0.930493

>  <SCORE.INTRA.POLAR.0>
-0.381556

>  <SCORE.INTRA.REPUL>
0.0693408

>  <SCORE.INTRA.REPUL.0>
0

>  <SCORE.INTRA.SOLV>
7.99234

>  <SCORE.INTRA.SOLV.lig_0>
-134.592

>  <SCORE.INTRA.VDW>
-3.40763

>  <SCORE.INTRA.VDW.0>
-1.01417

>  <SCORE.INTRA.norm>
-0.410932

>  <SCORE.RESTR>
4.79429

>  <SCORE.RESTR.CAVITY>
4.79429

>  <SCORE.RESTR.norm>
0.149821

>  <SCORE.SYSTEM>
0

>  <SCORE.SYSTEM.CONST>
0

>  <SCORE.SYSTEM.DIHEDRAL>
0

>  <SCORE.SYSTEM.SOLV>
0

>  <SCORE.SYSTEM.norm>
0

>  <SCORE.heavy>
32

>  <SCORE.norm>
-0.767642

>  <RMSD>
32.241

$$$$
1lc4
 OpenBabel02141814113D
libRbt.so/2013.1/901 2013/11/27
 32 34  0  0  0  0  0  0  0  0999 V2000
    7.9256  -11.4314    5.7346 C   0  0  2  0  0  0  0  0  0  0  0  0
    9.0196  -12.0428    5.0978 O   0  0  0  0  0  0  0  0  0  0  0  0
    8.3699  -11.0062    7.1491 C   0  0  2  0  0  0  0  0  0  0  0  0
    9.5157  -10.0948    7.0712 N   0  3  0  0  0  0  0  0  0  0  0  0
    8.6990  -12.2546    8.0010 C   0  0  0  0  0  0  0  0  0  0  0  0
    7.4311  -13.1247    8.0563 C   0  0  2  0  0  0  0  0  0  0  0  0
    7.6529  -14.2788    8.8736 O   0  0  0  0  0  0  0  0  0  0  0  0
    7.0226  -13.5251    6.6168 C   0  0  2  0  0  0  0  0  0  0  0  0
    6.8028  -12.3378    5.8032 O   0  0  0  0  0  0  0  0  0  0  0  0
    5.7391  -14.3495    6.5551 C   0  0  0  0  0  0  0  0  0  0  0  0
    5.3150  -14.5808    5.1493 N   0  3  0  0  0  0  0  0  0  0  0  0
   11.9182  -10.7575    2.2860 C   0  0  2  0  0  0  0  0  0  0  0  0
   12.5651  -10.2220    1.0742 N   0  3  0  0  0  0  0  0  0  0  0  0
   11.1081  -11.9980    1.9349 C   0  0  0  0  0  0  0  0  0  0  0  0
   10.4272  -12.5624    3.1867 C   0  0  2  0  0  0  0  0  0  0  0  0
    9.7500  -13.8312    2.8203 N   0  3  0  0  0  0  0  0  0  0  0  0
    9.4905  -11.5059    3.8454 C   0  0  2  0  0  0  0  0  0  0  0  0
   10.2990  -10.2188    4.1512 C   0  0  2  0  0  0  0  0  0  0  0  0
    9.4226   -9.2100    4.5919 O   0  0  0  0  0  0  0  0  0  0  0  0
   10.9970   -9.6965    2.8849 C   0  0  1  0  0  0  0  0  0  0  0  0
   11.7527   -8.5334    3.2207 O   0  0  0  0  0  0  0  0  0  0  0  0
   11.4823   -7.9309    4.4394 C   0  0  2  0  0  0  0  0  0  0  0  0
   10.9475   -6.5115    4.1833 C   0  0  2  0  0  0  0  0  0  0  0  0
    9.7649   -6.6061    3.3994 O   0  0  0  0  0  0  0  0  0  0  0  0
   12.0121   -5.6904    3.4348 C   0  0  1  0  0  0  0  0  0  0  0  0
   11.5404   -4.3069    3.1389 N   0  3  0  0  0  0  0  0  0  0  0  0
   13.3127   -5.6553    4.2740 C   0  0  2  0  0  0  0  0  0  0  0  0
   14.3276   -4.9213    3.5928 O   0  0  0  0  0  0  0  0  0  0  0  0
   13.7902   -7.0881    4.5754 C   0  0  2  0  0  0  0  0  0  0  0  0
   12.7117   -7.8686    5.2080 O   0  0  0  0  0  0  0  0  0  0  0  0
   14.9685   -7.1091    5.5235 C   0  0  0  0  0  0  0  0  0  0  0  0
   16.1807   -6.7503    4.8639 O   0  0  0  0  0  0  0  0  0  0  0  0
  1  2  1  1  0  0  0
  1  3  1  0  0  0  0
  1  9  1  0  0  0  0
  3  4  1  6  0  0  0
  3  5  1  0  0  0  0
  5  6  1  0  0  0  0
  6  7  1  1  0  0  0
  6  8  1  0  0  0  0
  8  9  1  0  0  0  0
  8 10  1  1  0  0  0
 10 11  1  0  0  0  0
 12 13  1  6  0  0  0
 12 14  1  0  0  0  0
 12 20  1  0  0  0  0
 14 15  1  0  0  0  0
 15 16  1  6  0  0  0
 15 17  1  0  0  0  0
 17  2  1  1  0  0  0
 17 18  1  0  0  0  0
 18 19  1  6  0  0  0
 18 20  1  0  0  0  0
 20 21  1  1  0  0  0
 22 21  1  6  0  0  0
 22 23  1  0  0  0  0
 22 30  1  0  0  0  0
 23 24  1  6  0  0  0
 23 25  1  0  0  0  0
 25 26  1  1  0  0  0
 25 27  1  0  0  0  0
 27 28  1  6  0  0  0
 27 29  1  0  0  0  0
 29 30  1  0  0  0  0
 29 31  1  1  0  0  0
 31 32  1  0  0  0  0
M  CHG  5   4   1  11   1  13   1  16   1  26   1
M  END
>  <CHROM.1>
-122.69829679,-165.20854470,42.92671444,179.67897903,173.87642063,82.86229423
-60.69849964,67.56485016,-38.85378493,-136.74189438,-116.92741752,41.40406179
67.04281298,-175.67198271,-76.55443664,-61.72840353,10.38934083,-9.92086353
4.69302694,2.90556820,-0.86830505,-2.21730576

>  <Name>
1lc4

>  <RI>
0

>  <Rbt.Current_Directory>
/home/afrankz/demos/rdock_decoys_rna/rnas/1lc4

>  <Rbt.Executable>
rbdock ($Id: //depot/dev/client3/rdock/2013.1/src/exe/rbdock.cxx#4 $)

>  <Rbt.Library>
libRbt.so (2013.1, Build901 2013/11/27)

>  <Rbt.Parameter_File>
/export/apps/rDock/src/rDock_2013.1_src/data/scripts/dock_solv.prm

>  <Rbt.Receptor>
prm/blind_docking_20.prm

>  <SCORE>
-20.5832

>  <SCORE.INTER>
-15.3577

>  <SCORE.INTER.CONST>
1

>  <SCORE.INTER.POLAR>
-3.00719

>  <SCORE.INTER.ROT>
6

>  <SCORE.INTER.SOLV>
26.4017

>  <SCORE.INTER.VDW>
-16.6151

>  <SCORE.INTER.norm>
-0.479927

>  <SCORE.INTRA>
-10.0165

>  <SCORE.INTRA.DIHEDRAL>
-16.1282

>  <SCORE.INTRA.DIHEDRAL.0>
44.2576

>  <SCORE.INTRA.POLAR>
-1.70865

>  <SCORE.INTRA.POLAR.0>
-0.381556

>  <SCORE.INTRA.REPUL>
0

>  <SCORE.INTRA.REPUL.0>
0

>  <SCORE.INTRA.SOLV>
-1.48591

>  <SCORE.INTRA.SOLV.lig_0>
-134.592

>  <SCORE.INTRA.VDW>
4.5999

>  <SCORE.INTRA.VDW.0>
-1.01417

>  <SCORE.INTRA.norm>
-0.313017

>  <SCORE.RESTR>
4.79098

>  <SCORE.RESTR.CAVITY>
4.79098

>  <SCORE.RESTR.norm>
0.149718

>  <SCORE.SYSTEM>
0

>  <SCORE.SYSTEM.CONST>
0

>  <SCORE.SYSTEM.DIHEDRAL>
0

>  <SCORE.SYSTEM.SOLV>
0

>  <SCORE.SYSTEM.norm>
0

>  <SCORE.heavy>
32

>  <SCORE.norm>
-0.643226

>  <RMSD>
32.289

$$$$
1lc4
 OpenBabel02141814113D
libRbt.so/2013.1/901 2013/11/27
 32 34  0  0  0  0  0  0  0  0999 V2000
   14.6616   -8.5699    6.6385 C   0  0  2  0  0  0  0  0  0  0  0  0
   13.9111   -7.5121    7.1804 O   0  0  0  0  0  0  0  0  0  0  0  0
   15.8321   -8.8686    7.5975 C   0  0  2  0  0  0  0  0  0  0  0  0
   15.3250   -9.2066    8.9310 N   0  3  0  0  0  0  0  0  0  0  0  0
   16.7978   -7.6615    7.6504 C   0  0  0  0  0  0  0  0  0  0  0  0
   17.3040   -7.4105    6.2192 C   0  0  2  0  0  0  0  0  0  0  0  0
   18.2444   -6.3313    6.2043 O   0  0  0  0  0  0  0  0  0  0  0  0
   16.0968   -7.1174    5.2939 C   0  0  2  0  0  0  0  0  0  0  0  0
   15.1536   -8.2262    5.3243 O   0  0  0  0  0  0  0  0  0  0  0  0
   16.4866   -6.9060    3.8330 C   0  0  0  0  0  0  0  0  0  0  0  0
   16.1560   -5.5288    3.3817 N   0  3  0  0  0  0  0  0  0  0  0  0
   11.3269   -6.9989    3.8610 C   0  0  2  0  0  0  0  0  0  0  0  0
   10.1845   -6.6173    3.0106 N   0  3  0  0  0  0  0  0  0  0  0  0
   10.8566   -7.9251    4.9743 C   0  0  0  0  0  0  0  0  0  0  0  0
   12.0353   -8.3262    5.8681 C   0  0  2  0  0  0  0  0  0  0  0  0
   11.5539   -9.3179    6.8618 N   0  3  0  0  0  0  0  0  0  0  0  0
   12.7204   -7.0752    6.4949 C   0  0  2  0  0  0  0  0  0  0  0  0
   13.1486   -6.1017    5.3668 C   0  0  2  0  0  0  0  0  0  0  0  0
   13.6159   -4.9028    5.9363 O   0  0  0  0  0  0  0  0  0  0  0  0
   11.9534   -5.7451    4.4680 C   0  0  1  0  0  0  0  0  0  0  0  0
   12.4008   -4.8758    3.4284 O   0  0  0  0  0  0  0  0  0  0  0  0
   11.7361   -3.6685    3.2807 C   0  0  2  0  0  0  0  0  0  0  0  0
   11.4956   -3.4144    1.7827 C   0  0  2  0  0  0  0  0  0  0  0  0
   10.7146   -4.4818    1.2605 O   0  0  0  0  0  0  0  0  0  0  0  0
   12.8478   -3.3436    1.0518 C   0  0  1  0  0  0  0  0  0  0  0  0
   12.6769   -3.1194   -0.4127 N   0  3  0  0  0  0  0  0  0  0  0  0
   13.7086   -2.2198    1.6787 C   0  0  2  0  0  0  0  0  0  0  0  0
   14.9798   -2.1469    1.0372 O   0  0  0  0  0  0  0  0  0  0  0  0
   13.8775   -2.4596    3.1905 C   0  0  2  0  0  0  0  0  0  0  0  0
   12.5625   -2.6138    3.8382 O   0  0  0  0  0  0  0  0  0  0  0  0
   14.5779   -1.3075    3.8761 C   0  0  0  0  0  0  0  0  0  0  0  0
   14.5160   -1.4244    5.2959 O   0  0  0  0  0  0  0  0  0  0  0  0
  1  2  1  1  0  0  0
  1  3  1  0  0  0  0
  1  9  1  0  0  0  0
  3  4  1  1  0  0  0
  3  5  1  0  0  0  0
  5  6  1  0  0  0  0
  6  7  1  1  0  0  0
  6  8  1  0  0  0  0
  8  9  1  0  0  0  0
  8 10  1  6  0  0  0
 10 11  1  0  0  0  0
 12 13  1  6  0  0  0
 12 14  1  0  0  0  0
 12 20  1  0  0  0  0
 14 15  1  0  0  0  0
 15 16  1  1  0  0  0
 15 17  1  0  0  0  0
 17  2  1  6  0  0  0
 17 18  1  0  0  0  0
 18 19  1  1  0  0  0
 18 20  1  0  0  0  0
 20 21  1  6  0  0  0
 22 21  1  6  0  0  0
 22 23  1  0  0  0  0
 22 30  1  0  0  0  0
 23 24  1  6  0  0  0
 23 25  1  0  0  0  0
 25 26  1  6  0  0  0
 25 27  1  0  0  0  0
 27 28  1  6  0  0  0
 27 29  1  0  0  0  0
 29 30  1  0  0  0  0
 29 31  1  1  0  0  0
 31 32  1  0  0  0  0
M  CHG  5   4   1  11   1  13   1  16   1  26   1
M  END
>  <CHROM.1>
-177.48590762,35.57402871,-173.30226325,-46.20229229,-116.81543056,-23.14027227
149.41712596,-174.05852432,-68.61636247,112.55145115,-136.78918301,-85.24253368
-55.68570774,56.68898319,169.47250568,171.07066964,13.73664073,-5.64123983
4.49744415,1.25712125,0.32816644,2.47585164

>  <Name>
1lc4

>  <RI>
0

>  <Rbt.Current_Directory>
/home/afrankz/demos/rdock_decoys_rna/rnas/1lc4

>  <Rbt.Executable>
rbdock ($Id: //depot/dev/client3/rdock/2013.1/src/exe/rbdock.cxx#4 $)

>  <Rbt.Library>
libRbt.so (2013.1, Build901 2013/11/27)

>  <Rbt.Parameter_File>
/export/apps/rDock/src/rDock_2013.1_src/data/scripts/dock_solv.prm

>  <Rbt.Receptor>
prm/blind_docking_60.prm

>  <SCORE>
-8.88047

>  <SCORE.INTER>
-6.72138

>  <SCORE.INTER.CONST>
1

>  <SCORE.INTER.POLAR>
-5.44991

>  <SCORE.INTER.ROT>
6

>  <SCORE.INTER.SOLV>
35.8108

>  <SCORE.INTER.VDW>
-5.85147

>  <SCORE.INTER.norm>
-0.210043

>  <SCORE.INTRA>
-7.72691

>  <SCORE.INTRA.DIHEDRAL>
-14.1994

>  <SCORE.INTRA.DIHEDRAL.0>
44.2576

>  <SCORE.INTRA.POLAR>
-0.245549

>  <SCORE.INTRA.POLAR.0>
-0.381556

>  <SCORE.INTRA.REPUL>
0.230831

>  <SCORE.INTRA.REPUL.0>
0

>  <SCORE.INTRA.SOLV>
2.51349

>  <SCORE.INTRA.SOLV.lig_0>
-134.592

>  <SCORE.INTRA.VDW>
-2.20324

>  <SCORE.INTRA.VDW.0>
-1.01417

>  <SCORE.INTRA.norm>
-0.241466

>  <SCORE.RESTR>
5.56782

>  <SCORE.RESTR.CAVITY>
5.56782

>  <SCORE.RESTR.norm>
0.173994

>  <SCORE.SYSTEM>
0

>  <SCORE.SYSTEM.CONST>
0

>  <SCORE.SYSTEM.DIHEDRAL>
0

>  <SCORE.SYSTEM.SOLV>
0

>  <SCORE.SYSTEM.norm>
0

>  <SCORE.heavy>
32

>  <SCORE.norm>
-0.277515

>  <RMSD>
32.449

$$$$
1lc4
 OpenBabel02141814113D
libRbt.so/2013.1/901 2013/11/27
 32 34  0  0  0  0  0  0  0  0999 V2000
   11.4696   -6.8032    5.5812 C   0  0  2  0  0  0  0  0  0  0  0  0
   12.7013   -7.3929    5.2477 O   0  0  0  0  0  0  0  0  0  0  0  0
   10.3914   -7.3791    4.6406 C   0  0  2  0  0  0  0  0  0  0  0  0
   10.3321   -8.8387    4.7661 N   0  3  0  0  0  0  0  0  0  0  0  0
   10.6736   -6.9494    3.1817 C   0  0  0  0  0  0  0  0  0  0  0  0
   10.6773   -5.4111    3.1447 C   0  0  2  0  0  0  0  0  0  0  0  0
   10.8860   -4.9445    1.8075 O   0  0  0  0  0  0  0  0  0  0  0  0
   11.7717   -4.8792    4.1032 C   0  0  2  0  0  0  0  0  0  0  0  0
   11.5411   -5.3657    5.4560 O   0  0  0  0  0  0  0  0  0  0  0  0
   11.8238   -3.3555    4.1821 C   0  0  0  0  0  0  0  0  0  0  0  0
   13.1724   -2.8836    4.5924 N   0  3  0  0  0  0  0  0  0  0  0  0
   15.7991   -9.1204    7.5669 C   0  0  2  0  0  0  0  0  0  0  0  0
   16.8943   -9.3130    8.5351 N   0  3  0  0  0  0  0  0  0  0  0  0
   16.2011   -8.0790    6.5315 C   0  0  0  0  0  0  0  0  0  0  0  0
   15.0686   -7.8669    5.5207 C   0  0  2  0  0  0  0  0  0  0  0  0
   15.5478   -6.9370    4.4680 N   0  3  0  0  0  0  0  0  0  0  0  0
   13.7581   -7.4095    6.2282 C   0  0  2  0  0  0  0  0  0  0  0  0
   13.3771   -8.4382    7.3239 C   0  0  2  0  0  0  0  0  0  0  0  0
   12.2914   -7.9449    8.0709 O   0  0  0  0  0  0  0  0  0  0  0  0
   14.5436   -8.6545    8.3015 C   0  0  1  0  0  0  0  0  0  0  0  0
   14.1596   -9.6300    9.2698 O   0  0  0  0  0  0  0  0  0  0  0  0
   14.8675   -9.6545   10.4613 C   0  0  2  0  0  0  0  0  0  0  0  0
   15.3163  -11.0988   10.7422 C   0  0  2  0  0  0  0  0  0  0  0  0
   16.1349  -11.5378    9.6654 O   0  0  0  0  0  0  0  0  0  0  0  0
   14.0787  -12.0045   10.8670 C   0  0  1  0  0  0  0  0  0  0  0  0
   14.4532  -13.4259   11.1192 N   0  3  0  0  0  0  0  0  0  0  0  0
   13.1681  -11.4713   11.9999 C   0  0  2  0  0  0  0  0  0  0  0  0
   11.9984  -12.2773   12.1224 O   0  0  0  0  0  0  0  0  0  0  0  0
   12.7887  -10.0032   11.7309 C   0  0  2  0  0  0  0  0  0  0  0  0
   13.9989   -9.1872   11.5257 O   0  0  0  0  0  0  0  0  0  0  0  0
   12.0296   -9.3893   12.8862 C   0  0  0  0  0  0  0  0  0  0  0  0
   10.9659   -8.5551   12.4326 O   0  0  0  0  0  0  0  0  0  0  0  0
  1  2  1  6  0  0  0
  1  3  1  0  0  0  0
  1  9  1  0  0  0  0
  3  4  1  6  0  0  0
  3  5  1  0  0  0  0
  5  6  1  0  0  0  0
  6  7  1  6  0  0  0
  6  8  1  0  0  0  0
  8  9  1  0  0  0  0
  8 10  1  1  0  0  0
 10 11  1  0  0  0  0
 12 13  1  1  0  0  0
 12 14  1  0  0  0  0
 12 20  1  0  0  0  0
 14 15  1  0  0  0  0
 15 16  1  6  0  0  0
 15 17  1  0  0  0  0
 17  2  1  6  0  0  0
 17 18  1  0  0  0  0
 18 19  1  1  0  0  0
 18 20  1  0  0  0  0
 20 21  1  1  0  0  0
 22 21  1  6  0  0  0
 22 23  1  0  0  0  0
 22 30  1  0  0  0  0
 23 24  1  6  0  0  0
 23 25  1  0  0  0  0
 25 26  1  1  0  0  0
 25 27  1  0  0  0  0
 27 28  1  6  0  0  0
 27 29  1  0  0  0  0
 29 30  1  0  0  0  0
 29 31  1  1  0  0  0
 31 32  1  0  0  0  0
M  CHG  5   4   1  11   1  13   1  16   1  26   1
M  END
>  <CHROM.1>
-158.27790690,-169.50534456,66.62886176,-174.77298805,-155.26751349,-71.02494440
-165.78804834,-79.98453553,-59.06345639,78.48050741,-129.87308295,-75.67902529
-66.14370248,-177.63069851,-139.84751111,-66.71261280,13.21604542,-8.32187611
7.63712658,1.79586135,0.24933504,-0.98228554

>  <Name>
1lc4

>  <RI>
0

>  <Rbt.Current_Directory>
/home/afrankz/demos/rdock_decoys_rna/rnas/1lc4

>  <Rbt.Executable>
rbdock ($Id: //depot/dev/client3/rdock/2013.1/src/exe/rbdock.cxx#4 $)

>  <Rbt.Library>
libRbt.so (2013.1, Build901 2013/11/27)

>  <Rbt.Parameter_File>
/export/apps/rDock/src/rDock_2013.1_src/data/scripts/dock_solv.prm

>  <Rbt.Receptor>
prm/blind_docking_40.prm

>  <SCORE>
-61.0175

>  <SCORE.INTER>
-53.0032

>  <SCORE.INTER.CONST>
1

>  <SCORE.INTER.POLAR>
-7.31652

>  <SCORE.INTER.ROT>
6

>  <SCORE.INTER.SOLV>
25.9808

>  <SCORE.INTER.VDW>
-27.2073

>  <SCORE.INTER.norm>
-1.65635

>  <SCORE.INTRA>
-15.0181

>  <SCORE.INTRA.DIHEDRAL>
-23.9566

>  <SCORE.INTRA.DIHEDRAL.0>
44.2576

>  <SCORE.INTRA.POLAR>
-0.310356

>  <SCORE.INTRA.POLAR.0>
-0.381556

>  <SCORE.INTRA.REPUL>
0

>  <SCORE.INTRA.REPUL.0>
0

>  <SCORE.INTRA.SOLV>
-2.24856

>  <SCORE.INTRA.SOLV.lig_0>
-134.592

>  <SCORE.INTRA.VDW>
-0.860336

>  <SCORE.INTRA.VDW.0>
-1.01417

>  <SCORE.INTRA.norm>
-0.469316

>  <SCORE.RESTR>
7.0039

>  <SCORE.RESTR.CAVITY>
7.0039

>  <SCORE.RESTR.norm>
0.218872

>  <SCORE.SYSTEM>
0

>  <SCORE.SYSTEM.CONST>
0

>  <SCORE.SYSTEM.DIHEDRAL>
0

>  <SCORE.SYSTEM.SOLV>
0

>  <SCORE.SYSTEM.norm>
0

>  <SCORE.heavy>
32

>  <SCORE.norm>
-1.9068

>  <RMSD>
32.876

$$$$
1lc4
 OpenBabel02141814113D
libRbt.so/2013.1/901 2013/11/27
 32 34  0  0  0  0  0  0  0  0999 V2000
    9.6310  -13.5215    2.2336 C   0  0  2  0  0  0  0  0  0  0  0  0
    9.2389  -12.1909    2.4610 O   0  0  0  0  0  0  0  0  0  0  0  0
   10.8559  -13.5074    1.2964 C   0  0  2  0  0  0  0  0  0  0  0  0
   11.9451  -12.7278    1.8926 N   0  3  0  0  0  0  0  0  0  0  0  0
   10.4579  -12.9511   -0.0909 C   0  0  0  0  0  0  0  0  0  0  0  0
    9.3432  -13.8532   -0.6490 C   0  0  2  0  0  0  0  0  0  0  0  0
    8.9598  -13.4209   -1.9587 O   0  0  0  0  0  0  0  0  0  0  0  0
    8.1377  -13.8376    0.3237 C   0  0  2  0  0  0  0  0  0  0  0  0
    8.5494  -14.2797    1.6485 O   0  0  0  0  0  0  0  0  0  0  0  0
    6.9920  -14.7476   -0.1120 C   0  0  0  0  0  0  0  0  0  0  0  0
    6.2031  -14.1312   -1.2108 N   0  3  0  0  0  0  0  0  0  0  0  0
    9.2868   -9.2669    5.5283 C   0  0  2  0  0  0  0  0  0  0  0  0
    9.6889   -8.4420    6.6823 N   0  3  0  0  0  0  0  0  0  0  0  0
    9.1526  -10.7225    5.9544 C   0  0  0  0  0  0  0  0  0  0  0  0
    8.7383  -11.5915    4.7618 C   0  0  2  0  0  0  0  0  0  0  0  0
    8.5050  -12.9742    5.2478 N   0  3  0  0  0  0  0  0  0  0  0  0
    9.7728  -11.4886    3.6014 C   0  0  2  0  0  0  0  0  0  0  0  0
    9.9561  -10.0013    3.2038 C   0  0  2  0  0  0  0  0  0  0  0  0
   11.0065   -9.8922    2.2738 O   0  0  0  0  0  0  0  0  0  0  0  0
   10.3378   -9.1505    4.4260 C   0  0  1  0  0  0  0  0  0  0  0  0
   10.4636   -7.7884    4.0192 O   0  0  0  0  0  0  0  0  0  0  0  0
   11.6029   -7.4403    3.3107 C   0  0  2  0  0  0  0  0  0  0  0  0
   12.6948   -7.0121    4.3060 C   0  0  2  0  0  0  0  0  0  0  0  0
   12.9637   -8.1001    5.1813 O   0  0  0  0  0  0  0  0  0  0  0  0
   12.2051   -5.7959    5.1114 C   0  0  1  0  0  0  0  0  0  0  0  0
   13.2168   -5.3474    6.1111 N   0  3  0  0  0  0  0  0  0  0  0  0
   11.8546   -4.6455    4.1364 C   0  0  2  0  0  0  0  0  0  0  0  0
   11.3729   -3.5114    4.8537 O   0  0  0  0  0  0  0  0  0  0  0  0
   10.8110   -5.1194    3.1078 C   0  0  2  0  0  0  0  0  0  0  0  0
   11.2780   -6.3386    2.4237 O   0  0  0  0  0  0  0  0  0  0  0  0
   10.5522   -4.0815    2.0383 C   0  0  0  0  0  0  0  0  0  0  0  0
    9.6671   -4.5715    1.0333 O   0  0  0  0  0  0  0  0  0  0  0  0
  1  2  1  6  0  0  0
  1  3  1  0  0  0  0
  1  9  1  0  0  0  0
  3  4  1  1  0  0  0
  3  5  1  0  0  0  0
  5  6  1  0  0  0  0
  6  7  1  6  0  0  0
  6  8  1  0  0  0  0
  8  9  1  0  0  0  0
  8 10  1  6  0  0  0
 10 11  1  0  0  0  0
 12 13  1  1  0  0  0
 12 14  1  0  0  0  0
 12 20  1  0  0  0  0
 14 15  1  0  0  0  0
 15 16  1  1  0  0  0
 15 17  1  0  0  0  0
 17  2  1  6  0  0  0
 17 18  1  0  0  0  0
 18 19  1  6  0  0  0
 18 20  1  0  0  0  0
 20 21  1  6  0  0  0
 22 21  1  1  0  0  0
 22 23  1  0  0  0  0
 22 30  1  0  0  0  0
 23 24  1  1  0  0  0
 23 25  1  0  0  0  0
 25 26  1  1  0  0  0
 25 27  1  0  0  0  0
 27 28  1  1  0  0  0
 27 29  1  0  0  0  0
 29 30  1  0  0  0  0
 29 31  1  6  0  0  0
 31 32  1  0  0  0  0
M  CHG  5   4   1  11   1  13   1  16   1  26   1
M  END
>  <CHROM.1>
-92.13531132,-96.36766645,174.30018613,-51.91196360,-77.06042805,49.83395596
174.57519244,166.16171278,136.81314691,162.65855293,-89.73757129,178.22214182
170.88793143,56.68107097,175.28943938,-57.88406570,10.17577156,-9.73839641
2.90796282,-3.04473424,-1.25483426,-1.03654803

>  <Name>
1lc4

>  <RI>
0

>  <Rbt.Current_Directory>
/home/afrankz/demos/rdock_decoys_rna/rnas/1lc4

>  <Rbt.Executable>
rbdock ($Id: //depot/dev/client3/rdock/2013.1/src/exe/rbdock.cxx#4 $)

>  <Rbt.Library>
libRbt.so (2013.1, Build901 2013/11/27)

>  <Rbt.Parameter_File>
/export/apps/rDock/src/rDock_2013.1_src/data/scripts/dock_solv.prm

>  <Rbt.Receptor>
prm/blind_docking_20.prm

>  <SCORE>
-49.5526

>  <SCORE.INTER>
-36.1347

>  <SCORE.INTER.CONST>
1

>  <SCORE.INTER.POLAR>
-5.15335

>  <SCORE.INTER.ROT>
6

>  <SCORE.INTER.SOLV>
26.4328

>  <SCORE.INTER.VDW>
-23.3229

>  <SCORE.INTER.norm>
-1.12921

>  <SCORE.INTRA>
-16.8063

>  <SCORE.INTRA.DIHEDRAL>
-22.0501

>  <SCORE.INTRA.DIHEDRAL.0>
44.2576

>  <SCORE.INTRA.POLAR>
-1.18195

>  <SCORE.INTRA.POLAR.0>
-0.381556

>  <SCORE.INTRA.REPUL>
0

>  <SCORE.INTRA.REPUL.0>
0

>  <SCORE.INTRA.SOLV>
1.26877

>  <SCORE.INTRA.SOLV.lig_0>
-134.592

>  <SCORE.INTRA.VDW>
-2.39701

>  <SCORE.INTRA.VDW.0>
-1.01417

>  <SCORE.INTRA.norm>
-0.525198

>  <SCORE.RESTR>
3.38844

>  <SCORE.RESTR.CAVITY>
3.38844

>  <SCORE.RESTR.norm>
0.105889

>  <SCORE.SYSTEM>
0

>  <SCORE.SYSTEM.CONST>
0

>  <SCORE.SYSTEM.DIHEDRAL>
0

>  <SCORE.SYSTEM.SOLV>
0

>  <SCORE.SYSTEM.norm>
0

>  <SCORE.heavy>
32

>  <SCORE.norm>
-1.54852

>  <RMSD>
32.944

$$$$
1lc4
 OpenBabel02141814113D
libRbt.so/2013.1/901 2013/11/27
 32 34  0  0  0  0  0  0  0  0999 V2000
   11.5366   -6.8265    5.5559 C   0  0  2  0  0  0  0  0  0  0  0  0
   12.7374   -7.4902    5.2496 O   0  0  0  0  0  0  0  0  0  0  0  0
   10.4805   -7.2381    4.5099 C   0  0  2  0  0  0  0  0  0  0  0  0
   10.2986   -8.6929    4.5142 N   0  3  0  0  0  0  0  0  0  0  0  0
   10.8905   -6.7250    3.1095 C   0  0  0  0  0  0  0  0  0  0  0  0
   11.0175   -5.1939    3.1964 C   0  0  2  0  0  0  0  0  0  0  0  0
   11.3494   -4.6471    1.9157 O   0  0  0  0  0  0  0  0  0  0  0  0
   12.0852   -4.8288    4.2576 C   0  0  2  0  0  0  0  0  0  0  0  0
   11.7290   -5.3947    5.5510 O   0  0  0  0  0  0  0  0  0  0  0  0
   12.2516   -3.3250    4.4615 C   0  0  0  0  0  0  0  0  0  0  0  0
   13.6775   -2.9660    4.6801 N   0  3  0  0  0  0  0  0  0  0  0  0
   15.9945   -9.0902    7.4385 C   0  0  2  0  0  0  0  0  0  0  0  0
   17.1192   -9.2456    8.3790 N   0  3  0  0  0  0  0  0  0  0  0  0
   16.3014   -7.9789    6.4439 C   0  0  0  0  0  0  0  0  0  0  0  0
   15.1372   -7.8050    5.4623 C   0  0  2  0  0  0  0  0  0  0  0  0
   15.5287   -6.7985    4.4443 N   0  3  0  0  0  0  0  0  0  0  0  0
   13.8117   -7.4735    6.2110 C   0  0  2  0  0  0  0  0  0  0  0  0
   13.5259   -8.5732    7.2659 C   0  0  2  0  0  0  0  0  0  0  0  0
   12.4229   -8.1916    8.0518 O   0  0  0  0  0  0  0  0  0  0  0  0
   14.7238   -8.7476    8.2136 C   0  0  1  0  0  0  0  0  0  0  0  0
   14.4287   -9.7890    9.1437 O   0  0  0  0  0  0  0  0  0  0  0  0
   15.0201   -9.7088   10.3948 C   0  0  2  0  0  0  0  0  0  0  0  0
   15.5976  -11.0871   10.7599 C   0  0  2  0  0  0  0  0  0  0  0  0
   16.5571  -11.4527    9.7762 O   0  0  0  0  0  0  0  0  0  0  0  0
   14.4615  -12.1241   10.7996 C   0  0  1  0  0  0  0  0  0  0  0  0
   14.9656  -13.4885   11.1287 N   0  3  0  0  0  0  0  0  0  0  0  0
   13.3952  -11.6740   11.8280 C   0  0  2  0  0  0  0  0  0  0  0  0
   12.3156  -12.6043   11.8685 O   0  0  0  0  0  0  0  0  0  0  0  0
   12.8827  -10.2640   11.4802 C   0  0  2  0  0  0  0  0  0  0  0  0
   14.0090   -9.3208   11.3609 O   0  0  0  0  0  0  0  0  0  0  0  0
   11.9553   -9.7162   12.5422 C   0  0  0  0  0  0  0  0  0  0  0  0
   12.0430  -10.4637   13.7534 O   0  0  0  0  0  0  0  0  0  0  0  0
  1  2  1  6  0  0  0
  1  3  1  0  0  0  0
  1  9  1  0  0  0  0
  3  4  1  6  0  0  0
  3  5  1  0  0  0  0
  5  6  1  0  0  0  0
  6  7  1  6  0  0  0
  6  8  1  0  0  0  0
  8  9  1  0  0  0  0
  8 10  1  1  0  0  0
 10 11  1  0  0  0  0
 12 13  1  1  0  0  0
 12 14  1  0  0  0  0
 12 20  1  0  0  0  0
 14 15  1  0  0  0  0
 15 16  1  6  0  0  0
 15 17  1  0  0  0  0
 17  2  1  6  0  0  0
 17 18  1  0  0  0  0
 18 19  1  1  0  0  0
 18 20  1  0  0  0  0
 20 21  1  1  0  0  0
 22 21  1  6  0  0  0
 22 23  1  0  0  0  0
 22 30  1  0  0  0  0
 23 24  1  6  0  0  0
 23 25  1  0  0  0  0
 25 26  1  1  0  0  0
 25 27  1  0  0  0  0
 27 28  1  6  0  0  0
 27 29  1  0  0  0  0
 29 30  1  0  0  0  0
 29 31  1  1  0  0  0
 31 32  1  0  0  0  0
M  CHG  5   4   1  11   1  13   1  16   1  26   1
M  END
>  <CHROM.1>
-168.62323298,-160.02627123,-49.68886558,65.12776760,-142.08956586,72.44800485
-45.04474390,41.85318181,-56.33263950,87.31842193,-133.87251749,175.32232530
-66.23231370,177.66252824,15.07700237,67.20061107,13.45538845,-8.42098306
7.63680290,1.77909427,0.13452631,-0.93464014

>  <Name>
1lc4

>  <RI>
0

>  <Rbt.Current_Directory>
/home/afrankz/demos/rdock_decoys_rna/rnas/1lc4

>  <Rbt.Executable>
rbdock ($Id: //depot/dev/client3/rdock/2013.1/src/exe/rbdock.cxx#4 $)

>  <Rbt.Library>
libRbt.so (2013.1, Build901 2013/11/27)

>  <Rbt.Parameter_File>
/export/apps/rDock/src/rDock_2013.1_src/data/scripts/dock_solv.prm

>  <Rbt.Receptor>
prm/blind_docking_40.prm

>  <SCORE>
-62.2406

>  <SCORE.INTER>
-52.3208

>  <SCORE.INTER.CONST>
1

>  <SCORE.INTER.POLAR>
-6.84889

>  <SCORE.INTER.ROT>
6

>  <SCORE.INTER.SOLV>
28.7764

>  <SCORE.INTER.VDW>
-29.243

>  <SCORE.INTER.norm>
-1.63502

>  <SCORE.INTRA>
-16.9526

>  <SCORE.INTRA.DIHEDRAL>
-21.6001

>  <SCORE.INTRA.DIHEDRAL.0>
44.2576

>  <SCORE.INTRA.POLAR>
-1.03206

>  <SCORE.INTRA.POLAR.0>
-0.381556

>  <SCORE.INTRA.REPUL>
0.00553477

>  <SCORE.INTRA.REPUL.0>
0

>  <SCORE.INTRA.SOLV>
-0.530498

>  <SCORE.INTRA.SOLV.lig_0>
-134.592

>  <SCORE.INTRA.VDW>
-2.40597

>  <SCORE.INTRA.VDW.0>
-1.01417

>  <SCORE.INTRA.norm>
-0.529769

>  <SCORE.RESTR>
7.03276

>  <SCORE.RESTR.CAVITY>
7.03276

>  <SCORE.RESTR.norm>
0.219774

>  <SCORE.SYSTEM>
0

>  <SCORE.SYSTEM.CONST>
0

>  <SCORE.SYSTEM.DIHEDRAL>
0

>  <SCORE.SYSTEM.SOLV>
0

>  <SCORE.SYSTEM.norm>
0

>  <SCORE.heavy>
32

>  <SCORE.norm>
-1.94502

>  <RMSD>
33.106

$$$$
